data_PCOD9404074
_publ_section_title
;
Structure prediction by ZEFSAII (Michael W. Deem and Ramdas Pophale) SiO2 
 PCOD9404074
Probable space group: P M M A
;
_chemical_formula_sum "Si O2"
_cell_formula_units_Z 64
_cell_length_a 10.323881
_cell_length_b 13.949563
_cell_length_c 24.365020
_cell_angle_alpha 90.000000
_cell_angle_beta 90.000000
_cell_angle_gamma 90.000000
_cell_volume 3508.894937
_symmetry_space_group_name_H-M "P M M A"
_symmetry_group_IT_number 51
_symmetry_cell_setting 'orthorhombic'
loop_
_space_group_symop_operation_xyz
x,y,z
1/2-x,-y,z
1/2+x,-y,-z
-x,y,-z
-x,-y,-z
1/2+x,y,-z
1/2-x,y,z
x,-y,z
loop_
_atom_site_type_symbol
_atom_site_label
_atom_site_fract_x
_atom_site_fract_y
_atom_site_fract_z
Si Si1 0.105883 0.612977 0.834223
Si Si2 0.100801 0.112018 0.735875
Si Si3 0.392361 0.114580 0.172428
Si Si4 0.899828 0.705117 0.335445
Si Si5 0.956827 0.893831 0.063196
Si Si6 0.898899 0.615435 0.747229
Si Si7 0.899351 0.612140 0.451516
Si Si8 0.110175 0.682761 0.954973
O O1 0.250000 0.654273 0.820428
O O2 0.114069 0.500000 0.822840
O O3 0.084581 0.627957 0.898587
O O4 0.982243 0.648058 0.800243
O O5 0.250000 0.118559 0.755183
O O6 0.087015 0.185125 0.685088
O O7 0.003653 0.142072 0.784500
O O8 0.077355 0.000000 0.721611
O O9 0.250000 0.156189 0.182720
O O10 0.433541 0.125900 0.108961
O O11 0.383412 0.000000 0.179798
O O12 0.750000 0.675674 0.321723
O O13 0.916808 0.681090 0.399359
O O14 0.009481 0.647842 0.302605
O O15 0.881649 0.794519 0.062401
O O16 0.901614 0.000000 0.077570
O O17 0.000000 0.901935 0.000000
O O18 0.750000 0.649919 0.744639
O O19 0.892681 0.500000 0.747794
O O20 0.750000 0.621180 0.470421
O O21 0.916866 0.500000 0.434316
O O22 0.000000 0.631696 0.500000
O O23 0.250000 0.652537 0.977199
O O24 0.000000 0.670965 0.000000
#
# Coordination Sequence:
#
# PCOD9404074 Si02
#       8
#     8   8   8   8   8   8   8   8
#     4   9  19  37  57  74  97 131 167 206 257 317
#     4   9  19  35  53  76 107 143 184 227 268 313
#     4   9  18  33  52  73  98 130 170 217 270 324
#     4  10  20  34  55  81 110 148 187 220 263 318
#     4   9  19  34  50  70  98 130 164 207 260 321
#     4  10  21  35  52  79 110 137 171 217 266 315
#     4   9  18  33  54  81 113 148 184 222 265 314
#     4  10  22  37  53  74  96 123 163 208 256 314
#
# _framework density 18.239360999999999
#
# number of rings (size 3 to 8) (size 9 to 14) (size 15 to 20)
#    0.000    2.625    0.000    0.750    1.750    5.750 
#    0.000    5.000    0.000    0.375    0.000    0.000 
#    0.000    0.000    0.000    0.000    0.000    0.000 
#
# Total GULP energy -356398.005582 kJ/mol
# GULP energy per Si atom -5568.718837 kJ/mol
# Density = 1.819785 g / cm^3
# Si number density = 18.239361 Si / 1000 Ang^3
#
#
#
# Elastic Constant Matrix: (Units=GPa)
#
#
# Indices 1 2 3 4 5 6 
#
# 1 160.6685 38.9217 88.8186 0.0000 0.0000 0.0000
# 2 38.9217 55.9980 33.8851 0.0000 0.0000 0.0000
# 3 88.8186 33.8851 104.3032 0.0000 0.0000 0.0000
# 4 0.0000 0.0000 0.0000 27.7720 0.0000 0.0000
# 5 0.0000 0.0000 0.0000 0.0000 16.1060 0.0000
# 6 0.0000 0.0000 0.0000 0.0000 0.0000 -0.6565
#
#
#
# Elastic Compliance Matrix: (Units=1/GPa)
#
#
# Indices 1 2 3 4 5 6 
#
# 1 0.012080 -0.002703 -0.009408 0.000000 0.000000 0.000000
# 2 -0.002703 0.022832 -0.005116 0.000000 0.000000 0.000000
# 3 -0.009408 -0.005116 0.019261 0.000000 0.000000 0.000000
# 4 0.000000 0.000000 0.000000 0.036007 0.000000 0.000000
# 5 0.000000 0.000000 0.000000 0.000000 0.062089 0.000000
# 6 0.000000 0.000000 0.000000 0.000000 0.000000 -1.523182
#
#
# Mechanical properties :
#
#
# Convention : Reuss Voigt Hill
#
# Bulk Modulus (GPa) = 50.71330 71.58007 61.14669
# Shear Modulus (GPa) = -3.75972 19.26724 7.75376
#
# Velocity S-wave (km/s) = -1.43729 3.25369 2.06406
# Velocity P-wave (km/s) = 5.01102 7.31063 6.26720
#
# Compressibility (1/GPa) = 0.01971869
#
# Stress axis : x y z
#
# Youngs Moduli (GPa) = 82.78290 43.79795 51.91845
#
# Poissons Ratio (x) = 0.11839 0.48847
# Poissons Ratio (y) = 0.22377 0.26560
# Poissons Ratio (z) = 0.77885 0.22406
#
# Static dielectric constant tensor:
#      x y z
#    x 1.651620 0.000000 0.000000 
#    y 0.000000 1.675390 0.000000 
#    z 0.000000 0.000000 1.608100 
# 
# From -- ./inp_files/34877.got.cif
#   From: 2010.05.17/outbox.cif.g08.bks.cpg/sg51_18_cif.got.tgz:34877.got - 2010.06.03 11:52:47.
