data_PCOD9404736
_publ_section_title
;
Structure prediction by ZEFSAII (Michael W. Deem and Ramdas Pophale) SiO2 
 PCOD9404736
Probable space group: P M M A
;
_chemical_formula_sum "Si O2"
_cell_formula_units_Z 64
_cell_length_a 24.361158
_cell_length_b 7.627918
_cell_length_c 15.259595
_cell_angle_alpha 90.000000
_cell_angle_beta 90.000000
_cell_angle_gamma 90.000000
_cell_volume 2835.612953
_symmetry_space_group_name_H-M "P M M A"
_symmetry_group_IT_number 51
_symmetry_cell_setting 'orthorhombic'
loop_
_space_group_symop_operation_xyz
x,y,z
1/2-x,-y,z
1/2+x,-y,-z
-x,y,-z
-x,-y,-z
1/2+x,y,-z
1/2-x,y,z
x,-y,z
loop_
_atom_site_type_symbol
_atom_site_label
_atom_site_fract_x
_atom_site_fract_y
_atom_site_fract_z
Si Si1 0.012197 0.709571 0.214000
Si Si2 0.691181 0.787157 0.272154
Si Si3 0.134375 0.287612 0.188855
Si Si4 0.016389 0.699723 0.592928
Si Si5 0.188576 0.207262 0.007937
Si Si6 0.397431 0.788900 0.866048
Si Si7 0.687203 0.288629 0.628549
Si Si8 0.363533 0.793499 0.556965
O O1 0.016102 0.500000 0.222413
O O2 0.071208 0.772800 0.180226
O O3 0.000967 0.777840 0.313338
O O4 0.960433 0.741329 0.151017
O O5 0.750000 0.724512 0.238548
O O6 0.639234 0.727935 0.216431
O O7 0.683251 0.742705 0.373757
O O8 0.691656 0.000000 0.265550
O O9 0.134873 0.500000 0.188193
O O10 0.171928 0.228825 0.108729
O O11 0.158288 0.228554 0.282258
O O12 0.993698 0.500000 0.591070
O O13 0.081767 0.697054 0.586766
O O14 0.000000 0.785439 0.500000
O O15 0.250000 0.279636 0.991442
O O16 0.191832 0.000000 0.988080
O O17 0.137791 0.276152 0.949342
O O18 0.397361 0.000000 0.868305
O O19 0.750000 0.225334 0.622964
O O20 0.688527 0.500000 0.631612
O O21 0.653856 0.238898 0.542077
O O22 0.374226 0.000000 0.568451
#
# Coordination Sequence:
#
# PCOD9404736 Si02
#       8
#     8   8   8   8   8   8   8   8
#     4  10  21  37  58  85 117 152 195 243 288 340
#     4   9  17  31  52  78 110 148 185 222 272 335
#     4  10  22  41  63  85 113 154 197 239 293 350
#     4  10  20  36  57  78 109 155 201 243 285 337
#     4  10  22  40  63  91 118 148 190 240 294 348
#     4  10  20  37  60  84 116 154 192 233 283 346
#     4  10  21  38  59  82 112 153 199 242 288 348
#     4  11  21  33  53  84 117 149 188 238 291 344
#
# _framework density 22.570076
#
# number of rings (size 3 to 8) (size 9 to 14) (size 15 to 20)
#    0.000    2.000    1.250    2.250    0.000    7.250 
#    0.000    3.750    0.000    1.875    0.000    0.000 
#    0.000    0.000    0.000    0.000    0.000    0.000 
#
# Total GULP energy -357421.364871 kJ/mol
# GULP energy per Si atom -5584.708826 kJ/mol
# Density = 2.251871 g / cm^3
# Si number density = 22.570076 Si / 1000 Ang^3
#
#
#
# Elastic Constant Matrix: (Units=GPa)
#
#
# Indices 1 2 3 4 5 6 
#
# 1 81.3942 0.9968 4.8799 0.0000 0.0000 0.0000
# 2 0.9968 47.6980 -2.4540 0.0000 0.0000 0.0000
# 3 4.8799 -2.4540 86.7652 0.0000 0.0000 0.0000
# 4 0.0000 0.0000 0.0000 -5.7478 0.0000 0.0000
# 5 0.0000 0.0000 0.0000 0.0000 30.4563 0.0000
# 6 0.0000 0.0000 0.0000 0.0000 0.0000 17.4863
#
#
#
# Elastic Compliance Matrix: (Units=1/GPa)
#
#
# Indices 1 2 3 4 5 6 
#
# 1 0.012332 -0.000294 -0.000702 0.000000 0.000000 0.000000
# 2 -0.000294 0.021003 0.000611 0.000000 0.000000 0.000000
# 3 -0.000702 0.000611 0.011582 0.000000 0.000000 0.000000
# 4 0.000000 0.000000 0.000000 -0.173981 0.000000 0.000000
# 5 0.000000 0.000000 0.000000 0.000000 0.032834 0.000000
# 6 0.000000 0.000000 0.000000 0.000000 0.000000 0.057188
#
#
# Mechanical properties :
#
#
# Convention : Reuss Voigt Hill
#
# Bulk Modulus (GPa) = 22.65202 24.74477 23.69839
# Shear Modulus (GPa) = -212.25088 22.60128 -94.82480
#
# Velocity S-wave (km/s) = -9.70799 3.16790 -6.48881
# Velocity P-wave (km/s) = 10.75183 4.93640 6.75403
#
# Compressibility (1/GPa) = 0.04414618
#
# Stress axis : x y z
#
# Youngs Moduli (GPa) = 81.09274 47.61267 86.34016
#
# Poissons Ratio (x) = 0.01399 0.06060
# Poissons Ratio (y) = 0.02383 -0.05272
# Poissons Ratio (z) = 0.05692 -0.02907
#
# Static dielectric constant tensor:
#      x y z
#    x 1.880780 0.000000 0.000000 
#    y 0.000000 1.874730 0.000000 
#    z 0.000000 0.000000 1.827070 
# 
# From -- ./inp_files/26246.got.cif
#   From: 2010.05.17/outbox.cif.g08.bks.cpg/sg51_14_cif.got.tgz:26246.got - 2010.06.03 11:52:47.
