data_PCOD9404349
_publ_section_title
;
Structure prediction by ZEFSAII (Michael W. Deem and Ramdas Pophale) SiO2 
 PCOD9404349
Probable space group: P M M A
;
_chemical_formula_sum "Si O2"
_cell_formula_units_Z 56
_cell_length_a 8.255610
_cell_length_b 15.180219
_cell_length_c 24.000844
_cell_angle_alpha 90.000000
_cell_angle_beta 90.000000
_cell_angle_gamma 90.000000
_cell_volume 3007.832998
_symmetry_space_group_name_H-M "P M M A"
_symmetry_group_IT_number 51
_symmetry_cell_setting 'orthorhombic'
loop_
_space_group_symop_operation_xyz
x,y,z
1/2-x,-y,z
1/2+x,-y,-z
-x,y,-z
-x,-y,-z
1/2+x,y,-z
1/2-x,y,z
x,-y,z
loop_
_atom_site_type_symbol
_atom_site_label
_atom_site_fract_x
_atom_site_fract_y
_atom_site_fract_z
Si Si1 0.446120 0.000000 0.564602
Si Si2 0.446267 0.400409 0.936261
Si Si3 0.555880 0.500000 0.437657
Si Si4 0.056898 0.098954 0.223668
Si Si5 0.939498 0.400116 0.765761
Si Si6 0.564011 0.260557 0.152563
Si Si7 0.554883 0.850845 0.348675
Si Si8 0.446747 0.350755 0.645339
O O1 0.500000 0.000000 0.500000
O O2 0.500744 0.916577 0.602349
O O3 0.250000 0.000000 0.563767
O O4 0.250000 0.400000 0.933075
O O5 0.499572 0.500000 0.918817
O O6 0.507091 0.319023 0.898405
O O7 0.500000 0.389291 0.000000
O O8 0.750000 0.500000 0.436005
O O9 0.500000 0.500000 0.500000
O O10 0.502156 0.412764 0.405147
O O11 0.250000 0.097329 0.225896
O O12 0.009823 0.171144 0.177319
O O13 0.998694 0.123892 0.286079
O O14 0.996642 0.000000 0.210792
O O15 0.750000 0.381734 0.777237
O O16 0.976169 0.500000 0.782650
O O17 0.049120 0.330200 0.797200
O O18 0.974386 0.389192 0.700843
O O19 0.750000 0.241414 0.139148
O O20 0.750000 0.854669 0.348382
O O21 0.505345 0.750745 0.360691
O O22 0.250000 0.354570 0.651013
#
# Coordination Sequence:
#
# PCOD9404349 Si02
#       8
#     4   8   4   8   8   8   8   8
#     4  10  22  38  56  80 108 138 181 228 281 346
#     4   9  19  36  58  86 120 159 199 236 278 328
#     4  10  22  38  54  74 102 140 187 228 273 332
#     4  11  23  37  56  85 117 147 185 236 293 344
#     4  11  22  33  50  81 116 146 181 227 280 330
#     4  11  22  36  57  85 117 154 195 234 278 338
#     4  10  20  36  58  81 105 139 181 225 280 343
#     4  10  20  35  55  77 102 138 180 223 275 332
#
# _framework density 18.618054999999998
#
# number of rings (size 3 to 8) (size 9 to 14) (size 15 to 20)
#    0.000    1.714    2.857    1.714    0.000    5.143 
#    0.000    1.429    0.000    0.429    0.000    0.000 
#    0.000    0.000    0.000    0.000    0.000    0.000 
#
# Total GULP energy -312456.510793 kJ/mol
# GULP energy per Si atom -5579.580550 kJ/mol
# Density = 1.857568 g / cm^3
# Si number density = 18.618055 Si / 1000 Ang^3
#
#
#
# Elastic Constant Matrix: (Units=GPa)
#
#
# Indices 1 2 3 4 5 6 
#
# 1 8.4355 25.0059 4.7863 0.0000 0.0000 0.0000
# 2 25.0059 170.0190 77.0632 0.0000 0.0000 0.0000
# 3 4.7863 77.0632 126.2996 0.0000 0.0000 0.0000
# 4 0.0000 0.0000 0.0000 79.5601 0.0000 0.0000
# 5 0.0000 0.0000 0.0000 0.0000 27.6213 0.0000
# 6 0.0000 0.0000 0.0000 0.0000 0.0000 8.9999
#
#
#
# Elastic Compliance Matrix: (Units=1/GPa)
#
#
# Indices 1 2 3 4 5 6 
#
# 1 0.233184 -0.041870 0.016711 0.000000 0.000000 0.000000
# 2 -0.041870 0.015648 -0.007961 0.000000 0.000000 0.000000
# 3 0.016711 -0.007961 0.012142 0.000000 0.000000 0.000000
# 4 0.000000 0.000000 0.000000 0.012569 0.000000 0.000000
# 5 0.000000 0.000000 0.000000 0.000000 0.036204 0.000000
# 6 0.000000 0.000000 0.000000 0.000000 0.000000 0.111112
#
#
# Mechanical properties :
#
#
# Convention : Reuss Voigt Hill
#
# Bulk Modulus (GPa) = 5.13523 57.60720 31.37122
# Shear Modulus (GPa) = 9.05776 36.42953 22.74365
#
# Velocity S-wave (km/s) = 2.20808 4.42823 3.49892
# Velocity P-wave (km/s) = 3.04385 7.56005 5.76279
#
# Compressibility (1/GPa) = 0.19473306
#
# Stress axis : x y z
#
# Youngs Moduli (GPa) = 4.28845 63.90410 82.35807
#
# Poissons Ratio (x) = 2.67569 -1.37627
# Poissons Ratio (y) = 0.17956 0.65568
# Poissons Ratio (z) = -0.07166 0.50876
#
# Static dielectric constant tensor:
#      x y z
#    x 1.659160 0.000000 0.000000 
#    y 0.000000 1.666910 0.000000 
#    z 0.000000 0.000000 1.635110 
# 
# From -- ./inp_files/32054.got.cif
#   From: 2010.05.17/outbox.cif.g08.bks.cpg/sg51_17_cif.got.tgz:32054.got - 2010.06.03 11:52:47.
