data_PCOD9404896
_publ_section_title
;
Structure prediction by ZEFSAII (Michael W. Deem and Ramdas Pophale) SiO2 
 PCOD9404896
Probable space group: P M M A
;
_chemical_formula_sum "Si O2"
_cell_formula_units_Z 48
_cell_length_a 8.146116
_cell_length_b 16.895371
_cell_length_c 17.009475
_cell_angle_alpha 90.000000
_cell_angle_beta 90.000000
_cell_angle_gamma 90.000000
_cell_volume 2341.042144
_symmetry_space_group_name_H-M "P M M A"
_symmetry_group_IT_number 51
_symmetry_cell_setting 'orthorhombic'
loop_
_space_group_symop_operation_xyz
x,y,z
1/2-x,-y,z
1/2+x,-y,-z
-x,y,-z
-x,-y,-z
1/2+x,y,-z
1/2-x,y,z
x,-y,z
loop_
_atom_site_type_symbol
_atom_site_label
_atom_site_fract_x
_atom_site_fract_y
_atom_site_fract_z
Si Si1 0.056814 0.000000 0.190597
Si Si2 0.932552 0.691384 0.881955
Si Si3 0.567033 0.691358 0.692080
Si Si4 0.056586 0.000000 0.377571
Si Si5 0.750000 0.590834 0.306375
Si Si6 0.557381 0.825867 0.414028
Si Si7 0.250000 0.408861 0.885756
Si Si8 0.557621 0.137395 0.081677
O O1 0.036408 0.000000 0.283626
O O2 0.979155 0.077664 0.151980
O O3 0.250000 0.000000 0.172292
O O4 0.750000 0.663093 0.904439
O O5 0.938927 0.695744 0.786753
O O6 0.084134 0.637256 0.909114
O O7 0.960488 0.780698 0.910177
O O8 0.750000 0.662707 0.670556
O O9 0.415183 0.635874 0.667660
O O10 0.537429 0.776598 0.652585
O O11 0.979021 0.080948 0.408158
O O12 0.250000 0.000000 0.396886
O O13 0.750000 0.500000 0.331852
O O14 0.750000 0.591196 0.210430
O O15 0.500000 0.798206 0.500000
O O16 0.750000 0.812329 0.403925
O O17 0.250000 0.500000 0.911695
O O18 0.750000 0.155237 0.079855
O O19 0.500000 0.099192 0.000000
#
# Coordination Sequence:
#
# PCOD9404896 Si02
#       8
#     4   8   8   4   4   8   4   8
#     4  11  24  41  60  85 119 155 198 246 294 346
#     4  10  20  36  59  88 120 155 198 245 296 352
#     4  10  20  36  59  88 120 155 198 245 296 352
#     4  11  24  41  60  85 119 155 198 246 294 346
#     4   9  18  34  58  89 121 153 193 243 297 353
#     4  12  24  39  59  85 117 158 200 246 293 351
#     4   9  18  34  58  89 121 153 193 243 297 353
#     4  12  24  39  59  85 117 158 200 246 293 351
#
# _framework density 20.503689000000001
#
# number of rings (size 3 to 8) (size 9 to 14) (size 15 to 20)
#    0.000    1.333    1.667    5.000    0.000    6.000 
#    0.000    3.333    0.000    1.000    0.000    0.000 
#    0.000    0.000    0.000    0.000    0.000    0.000 
#
# Total GULP energy -268448.806649 kJ/mol
# GULP energy per Si atom -5592.683472 kJ/mol
# Density = 2.045702 g / cm^3
# Si number density = 20.503689 Si / 1000 Ang^3
#
#
#
# Elastic Constant Matrix: (Units=GPa)
#
#
# Indices 1 2 3 4 5 6 
#
# 1 168.0451 45.3519 38.4379 0.0000 0.0000 0.0000
# 2 45.3519 104.4907 9.8029 0.0000 0.0000 0.0000
# 3 38.4379 9.8029 27.2330 0.0000 0.0000 0.0000
# 4 0.0000 0.0000 0.0000 172.8437 0.0000 0.0000
# 5 0.0000 0.0000 0.0000 0.0000 24.8926 0.0000
# 6 0.0000 0.0000 0.0000 0.0000 0.0000 -40.3774
#
#
#
# Elastic Compliance Matrix: (Units=1/GPa)
#
#
# Indices 1 2 3 4 5 6 
#
# 1 0.009620 -0.003003 -0.012497 0.000000 0.000000 0.000000
# 2 -0.003003 0.010842 0.000336 0.000000 0.000000 0.000000
# 3 -0.012497 0.000336 0.054238 0.000000 0.000000 0.000000
# 4 0.000000 0.000000 0.000000 0.005786 0.000000 0.000000
# 5 0.000000 0.000000 0.000000 0.000000 0.040173 0.000000
# 6 0.000000 0.000000 0.000000 0.000000 0.000000 -0.024766
#
#
# Mechanical properties :
#
#
# Convention : Reuss Voigt Hill
#
# Bulk Modulus (GPa) = 22.53693 54.10601 38.32147
# Shear Modulus (GPa) = 35.45856 45.21685 40.33771
#
# Velocity S-wave (km/s) = 4.16309 4.70116 4.44028
# Velocity P-wave (km/s) = 5.84157 7.47754 6.70960
#
# Compressibility (1/GPa) = 0.04437162
#
# Stress axis : x y z
#
# Youngs Moduli (GPa) = 103.95433 92.23346 18.43732
#
# Poissons Ratio (x) = 0.27696 0.23041
# Poissons Ratio (y) = 0.31215 -0.00619
# Poissons Ratio (z) = 1.29908 -0.03095
#
# Static dielectric constant tensor:
#      x y z
#    x 1.726640 0.000000 0.000000 
#    y 0.000000 1.691780 0.000000 
#    z 0.000000 0.000000 1.726250 
# 
# From -- ./inp_files/27721.got.cif
#   From: 2010.05.17/outbox.cif.g08.bks.cpg/sg51_14_cif.got.tgz:27721.got - 2010.06.03 11:52:47.
