data_PCOD9404726
_publ_section_title
;
Structure prediction by ZEFSAII (Michael W. Deem and Ramdas Pophale) SiO2 
 PCOD9404726
Probable space group: P M M A
;
_chemical_formula_sum "Si O2"
_cell_formula_units_Z 52
_cell_length_a 8.671503
_cell_length_b 20.279794
_cell_length_c 15.125116
_cell_angle_alpha 90.000000
_cell_angle_beta 90.000000
_cell_angle_gamma 90.000000
_cell_volume 2659.846854
_symmetry_space_group_name_H-M "P M M A"
_symmetry_group_IT_number 51
_symmetry_cell_setting 'orthorhombic'
loop_
_space_group_symop_operation_xyz
x,y,z
1/2-x,-y,z
1/2+x,-y,-z
-x,y,-z
-x,-y,-z
1/2+x,y,-z
1/2-x,y,z
x,-y,z
loop_
_atom_site_type_symbol
_atom_site_label
_atom_site_fract_x
_atom_site_fract_y
_atom_site_fract_z
Si Si1 0.064900 0.836065 0.905090
Si Si2 0.563206 0.127002 0.285639
Si Si3 0.565993 0.613321 0.406652
Si Si4 0.934387 0.238841 0.593024
Si Si5 0.065827 0.427574 0.223614
Si Si6 0.434783 0.317060 0.904174
Si Si7 0.064060 0.000000 0.599253
O O1 0.250000 0.837361 0.911247
O O2 0.019537 0.876550 0.817761
O O3 0.018335 0.759365 0.889330
O O4 0.000000 0.857228 0.000000
O O5 0.750000 0.133392 0.289577
O O6 0.488207 0.191244 0.329225
O O7 0.517603 0.064328 0.344533
O O8 0.500000 0.588754 0.500000
O O9 0.750000 0.611598 0.408293
O O10 0.508221 0.688948 0.397023
O O11 0.500666 0.576203 0.322177
O O12 0.750000 0.244262 0.588793
O O13 0.000000 0.211526 0.500000
O O14 0.250000 0.421141 0.226909
O O15 0.027625 0.500000 0.185415
O O16 0.997725 0.367486 0.167856
O O17 0.250000 0.319429 0.904422
O O18 0.500000 0.336031 0.000000
O O19 0.000000 0.000000 0.500000
O O20 0.250000 0.000000 0.593920
#
# Coordination Sequence:
#
# PCOD9404726 Si02
#       7
#     8   8   8   8   8   8   4
#     4   9  19  35  57  83 111 141 179 228 280 332
#     4  10  20  36  56  81 113 151 191 232 280 331
#     4  11  22  38  59  82 110 144 184 232 284 339
#     4  11  21  34  55  83 112 143 181 230 284 337
#     4  11  24  40  57  80 111 147 188 233 281 338
#     4  10  20  36  59  85 112 145 184 232 288 343
#     4  10  22  38  57  80 114 156 195 234 277 330
#
# _framework density 19.549999
#
# number of rings (size 3 to 8) (size 9 to 14) (size 15 to 20)
#    0.000    1.692    0.000    6.000    0.000    6.154 
#    0.000    0.385    0.000    0.000    0.000    0.000 
#    0.000    0.000    0.000    0.000    0.000    0.000 
#
# Total GULP energy -290590.467048 kJ/mol
# GULP energy per Si atom -5588.278212 kJ/mol
# Density = 1.950550 g / cm^3
# Si number density = 19.549999 Si / 1000 Ang^3
#
#
#
# Elastic Constant Matrix: (Units=GPa)
#
#
# Indices 1 2 3 4 5 6 
#
# 1 50.9536 16.0567 24.5388 0.0000 0.0000 0.0000
# 2 16.0567 52.3094 51.2617 0.0000 0.0000 0.0000
# 3 24.5388 51.2617 153.9144 0.0000 0.0000 0.0000
# 4 0.0000 0.0000 0.0000 8.7253 0.0000 0.0000
# 5 0.0000 0.0000 0.0000 0.0000 37.9920 0.0000
# 6 0.0000 0.0000 0.0000 0.0000 0.0000 89.5028
#
#
#
# Elastic Compliance Matrix: (Units=1/GPa)
#
#
# Indices 1 2 3 4 5 6 
#
# 1 0.022086 -0.004942 -0.001875 0.000000 0.000000 0.000000
# 2 -0.004942 0.029485 -0.009032 0.000000 0.000000 0.000000
# 3 -0.001875 -0.009032 0.009804 0.000000 0.000000 0.000000
# 4 0.000000 0.000000 0.000000 0.114609 0.000000 0.000000
# 5 0.000000 0.000000 0.000000 0.000000 0.026321 0.000000
# 6 0.000000 0.000000 0.000000 0.000000 0.000000 0.011173
#
#
# Mechanical properties :
#
#
# Convention : Reuss Voigt Hill
#
# Bulk Modulus (GPa) = 33.69605 48.98797 41.34201
# Shear Modulus (GPa) = 19.60244 38.26536 28.93390
#
# Velocity S-wave (km/s) = 3.16995 4.42895 3.85124
# Velocity P-wave (km/s) = 5.53817 7.16005 6.40069
#
# Compressibility (1/GPa) = 0.02967707
#
# Stress axis : x y z
#
# Youngs Moduli (GPa) = 45.27731 33.91520 101.99536
#
# Poissons Ratio (x) = 0.16760 0.19128
# Poissons Ratio (y) = 0.22374 0.92126
# Poissons Ratio (z) = 0.08491 0.30633
#
# Static dielectric constant tensor:
#      x y z
#    x 1.653770 0.000000 0.000000 
#    y 0.000000 1.687890 0.000000 
#    z 0.000000 0.000000 1.671780 
# 
# From -- ./inp_files/21589.got.cif
#   From: 2010.05.17/outbox.cif.g08.bks.cpg/sg51_11_cif.got.tgz:21589.got - 2010.06.03 11:52:47.
