data_PCOD9404844
_publ_section_title
;
Structure prediction by ZEFSAII (Michael W. Deem and Ramdas Pophale) SiO2 
 PCOD9404844
Probable space group: P M M A
;
_chemical_formula_sum "Si O2"
_cell_formula_units_Z 40
_cell_length_a 16.589964
_cell_length_b 7.746364
_cell_length_c 14.332209
_cell_angle_alpha 90.000000
_cell_angle_beta 90.000000
_cell_angle_gamma 90.000000
_cell_volume 1841.859408
_symmetry_space_group_name_H-M "P M M A"
_symmetry_group_IT_number 51
_symmetry_cell_setting 'orthorhombic'
loop_
_space_group_symop_operation_xyz
x,y,z
1/2-x,-y,z
1/2+x,-y,-z
-x,y,-z
-x,-y,-z
1/2+x,y,-z
1/2-x,y,z
x,-y,z
loop_
_atom_site_type_symbol
_atom_site_label
_atom_site_fract_x
_atom_site_fract_y
_atom_site_fract_z
Si Si1 0.896899 0.201745 0.128300
Si Si2 0.944735 0.301354 0.766797
Si Si3 0.156082 0.794631 0.067004
Si Si4 0.250000 0.295678 0.529085
Si Si5 0.080375 0.711568 0.443694
Si Si6 0.250000 0.789748 0.745912
O O1 0.828262 0.271569 0.197045
O O2 0.982159 0.214971 0.177956
O O3 0.876727 0.000000 0.115931
O O4 0.892598 0.272813 0.023214
O O5 0.968722 0.500000 0.754727
O O6 0.869478 0.289302 0.836170
O O7 0.927557 0.232015 0.663851
O O8 0.250000 0.769538 0.045982
O O9 0.141478 0.000000 0.078994
O O10 0.250000 0.500000 0.508640
O O11 0.334609 0.227703 0.487259
O O12 0.250000 0.271051 0.639971
O O13 0.081670 0.500000 0.445970
O O14 0.000000 0.764820 0.500000
O O15 0.250000 0.000000 0.742651
#
# Coordination Sequence:
#
# PCOD9404844 Si02
#       6
#     8   8   8   4   8   4
#     4  10  20  38  60  82 112 152 193 230 280 346
#     4  11  23  36  57  87 117 147 189 240 287 330
#     4  10  21  39  60  82 112 155 196 227 275 348
#     4  10  20  36  59  80 108 152 191 230 291 350
#     4   9  19  36  56  80 111 149 192 231 276 345
#     4  10  20  36  59  86 112 142 189 246 287 326
#
# _framework density 21.717182000000001
#
# number of rings (size 3 to 8) (size 9 to 14) (size 15 to 20)
#    0.000    2.000    1.000    2.400    1.400    6.000 
#    0.000    2.000    0.000    5.400    0.000    0.000 
#    0.000    0.000    0.000    0.000    0.000    0.000 
#
# Total GULP energy -223422.993883 kJ/mol
# GULP energy per Si atom -5585.574847 kJ/mol
# Density = 2.166775 g / cm^3
# Si number density = 21.717182 Si / 1000 Ang^3
#
#
#
# Elastic Constant Matrix: (Units=GPa)
#
#
# Indices 1 2 3 4 5 6 
#
# 1 105.7619 10.8213 62.9266 0.0000 0.0000 0.0000
# 2 10.8213 21.5929 5.4020 0.0000 0.0000 0.0000
# 3 62.9266 5.4020 192.6137 0.0000 0.0000 0.0000
# 4 0.0000 0.0000 0.0000 22.8599 0.0000 0.0000
# 5 0.0000 0.0000 0.0000 0.0000 30.0411 0.0000
# 6 0.0000 0.0000 0.0000 0.0000 0.0000 783.2994
#
#
#
# Elastic Compliance Matrix: (Units=1/GPa)
#
#
# Indices 1 2 3 4 5 6 
#
# 1 0.012288 -0.005190 -0.003869 0.000000 0.000000 0.000000
# 2 -0.005190 0.048831 0.000326 0.000000 0.000000 0.000000
# 3 -0.003869 0.000326 0.006447 0.000000 0.000000 0.000000
# 4 0.000000 0.000000 0.000000 0.043745 0.000000 0.000000
# 5 0.000000 0.000000 0.000000 0.000000 0.033288 0.000000
# 6 0.000000 0.000000 0.000000 0.000000 0.000000 0.001277
#
#
# Mechanical properties :
#
#
# Convention : Reuss Voigt Hill
#
# Bulk Modulus (GPa) = 19.96028 53.14092 36.55060
# Shear Modulus (GPa) = 27.77143 183.29464 105.53304
#
# Velocity S-wave (km/s) = 3.57988 9.19695 6.97852
# Velocity P-wave (km/s) = 5.12819 11.71756 9.04432
#
# Compressibility (1/GPa) = 0.05009951
#
# Stress axis : x y z
#
# Youngs Moduli (GPa) = 81.37854 20.47880 155.12092
#
# Poissons Ratio (x) = 0.10629 0.60016
# Poissons Ratio (y) = 0.42238 -0.05060
# Poissons Ratio (z) = 0.31485 -0.00668
#
# Static dielectric constant tensor:
#      x y z
#    x 1.774910 0.000000 0.000000 
#    y 0.000000 1.815430 0.000000 
#    z 0.000000 0.000000 1.770830 
# 
# From -- ./inp_files/23777.got.cif
#   From: 2010.05.17/outbox.cif.g08.bks.cpg/sg51_12_cif.got.tgz:23777.got - 2010.06.03 11:52:47.
