data_PCOD9404374
_publ_section_title
;
Structure prediction by ZEFSAII (Michael W. Deem and Ramdas Pophale) SiO2 
 PCOD9404374
Probable space group: P M M A
;
_chemical_formula_sum "Si O2"
_cell_formula_units_Z 48
_cell_length_a 8.745184
_cell_length_b 16.831830
_cell_length_c 18.789662
_cell_angle_alpha 90.000000
_cell_angle_beta 90.000000
_cell_angle_gamma 90.000000
_cell_volume 2765.790340
_symmetry_space_group_name_H-M "P M M A"
_symmetry_group_IT_number 51
_symmetry_cell_setting 'orthorhombic'
loop_
_space_group_symop_operation_xyz
x,y,z
1/2-x,-y,z
1/2+x,-y,-z
-x,y,-z
-x,-y,-z
1/2+x,y,-z
1/2-x,y,z
x,-y,z
loop_
_atom_site_type_symbol
_atom_site_label
_atom_site_fract_x
_atom_site_fract_y
_atom_site_fract_z
Si Si1 0.566618 0.737503 0.296733
Si Si2 0.566385 0.673725 0.076952
Si Si3 0.066900 0.408225 0.215163
Si Si4 0.932587 0.000000 0.820897
Si Si5 0.566883 0.833799 0.154950
Si Si6 0.566276 0.837355 0.578809
Si Si7 0.935702 0.000000 0.656224
O O1 0.750000 0.736214 0.301004
O O2 0.505536 0.652235 0.271790
O O3 0.523300 0.798339 0.232595
O O4 0.494485 0.768916 0.369191
O O5 0.750000 0.667480 0.077606
O O6 0.498321 0.618195 0.138532
O O7 0.525343 0.764384 0.099479
O O8 0.500000 0.654760 0.000000
O O9 0.250000 0.398908 0.214869
O O10 0.029816 0.500000 0.229264
O O11 0.991454 0.918905 0.855785
O O12 0.750000 0.000000 0.820637
O O13 0.987985 0.000000 0.738198
O O14 0.750000 0.842622 0.153918
O O15 0.500000 0.830857 0.500000
O O16 0.750000 0.836011 0.576550
O O17 0.516070 0.920950 0.614581
O O18 0.750000 0.000000 0.657825
#
# Coordination Sequence:
#
# PCOD9404374 Si02
#       7
#     8   8   8   4   8   8   4
#     4  10  20  35  55  79 106 141 181 221 268 317
#     4  10  21  37  57  81 110 143 178 217 267 320
#     4  10  21  37  59  86 112 140 174 214 263 318
#     4  11  19  30  51  77 101 135 183 228 269 312
#     4   9  19  34  51  74 103 137 178 223 267 314
#     4  11  21  35  52  76 111 147 185 226 270 320
#     4   9  19  32  48  75 108 142 181 227 272 313
#
# _framework density 17.354893000000001
#
# number of rings (size 3 to 8) (size 9 to 14) (size 15 to 20)
#    0.000    2.000    1.667    3.500    0.000    5.000 
#    0.000    1.667    0.000    0.500    0.000    0.000 
#    0.000    0.000    0.000    0.000    0.000    0.000 
#
# Total GULP energy -268005.158705 kJ/mol
# GULP energy per Si atom -5583.440806 kJ/mol
# Density = 1.731539 g / cm^3
# Si number density = 17.354893 Si / 1000 Ang^3
#
#
#
# Elastic Constant Matrix: (Units=GPa)
#
#
# Indices 1 2 3 4 5 6 
#
# 1 46.6353 38.3467 16.4133 0.0000 0.0000 0.0000
# 2 38.3467 120.7042 28.2169 0.0000 0.0000 0.0000
# 3 16.4133 28.2169 68.4183 0.0000 0.0000 0.0000
# 4 0.0000 0.0000 0.0000 12.6311 0.0000 0.0000
# 5 0.0000 0.0000 0.0000 0.0000 26.8540 0.0000
# 6 0.0000 0.0000 0.0000 0.0000 0.0000 27.5231
#
#
#
# Elastic Compliance Matrix: (Units=1/GPa)
#
#
# Indices 1 2 3 4 5 6 
#
# 1 0.029802 -0.008628 -0.003591 0.000000 0.000000 0.000000
# 2 -0.008628 0.011667 -0.002742 0.000000 0.000000 0.000000
# 3 -0.003591 -0.002742 0.016608 0.000000 0.000000 0.000000
# 4 0.000000 0.000000 0.000000 0.079170 0.000000 0.000000
# 5 0.000000 0.000000 0.000000 0.000000 0.037238 0.000000
# 6 0.000000 0.000000 0.000000 0.000000 0.000000 0.036333
#
#
# Mechanical properties :
#
#
# Convention : Reuss Voigt Hill
#
# Bulk Modulus (GPa) = 35.51789 44.63464 40.07627
# Shear Modulus (GPa) = 19.99008 23.58703 21.78856
#
# Velocity S-wave (km/s) = 3.39756 3.69060 3.54711
# Velocity P-wave (km/s) = 5.99177 6.62837 6.31809
#
# Compressibility (1/GPa) = 0.02815482
#
# Stress axis : x y z
#
# Youngs Moduli (GPa) = 33.55533 85.71350 60.21149
#
# Poissons Ratio (x) = 0.73956 0.21621
# Poissons Ratio (y) = 0.28952 0.16508
# Poissons Ratio (z) = 0.12049 0.23500
#
# Static dielectric constant tensor:
#      x y z
#    x 1.575310 0.000000 0.000000 
#    y 0.000000 1.582050 0.000000 
#    z 0.000000 0.000000 1.567180 
# 
# From -- ./inp_files/27657.got.cif
#   From: 2010.05.17/outbox.cif.g08.bks.cpg/sg51_14_cif.got.tgz:27657.got - 2010.06.03 11:52:47.
