data_PCOD9404352
_publ_section_title
;
Structure prediction by ZEFSAII (Michael W. Deem and Ramdas Pophale) SiO2 
 PCOD9404352
Probable space group: P M M A
;
_chemical_formula_sum "Si O2"
_cell_formula_units_Z 56
_cell_length_a 8.635124
_cell_length_b 24.544075
_cell_length_c 14.750548
_cell_angle_alpha 90.000000
_cell_angle_beta 90.000000
_cell_angle_gamma 90.000000
_cell_volume 3126.247827
_symmetry_space_group_name_H-M "P M M A"
_symmetry_group_IT_number 51
_symmetry_cell_setting 'orthorhombic'
loop_
_space_group_symop_operation_xyz
x,y,z
1/2-x,-y,z
1/2+x,-y,-z
-x,y,-z
-x,-y,-z
1/2+x,y,-z
1/2-x,y,z
x,-y,z
loop_
_atom_site_type_symbol
_atom_site_label
_atom_site_fract_x
_atom_site_fract_y
_atom_site_fract_z
Si Si1 0.935561 0.351318 0.898390
Si Si2 0.562809 0.143134 0.254634
Si Si3 0.437230 0.731695 0.754476
Si Si4 0.435459 0.354357 0.601574
Si Si5 0.435419 0.939399 0.398727
Si Si6 0.936707 0.061121 0.100369
Si Si7 0.562924 0.437191 0.745646
O O1 0.750000 0.349952 0.902360
O O2 0.982750 0.402853 0.835229
O O3 0.995459 0.299217 0.841864
O O4 0.000000 0.353826 0.000000
O O5 0.750000 0.143153 0.256376
O O6 0.511767 0.205742 0.251871
O O7 0.502906 0.109091 0.339574
O O8 0.510494 0.108253 0.167697
O O9 0.250000 0.730295 0.760758
O O10 0.481727 0.697199 0.664833
O O11 0.500000 0.351716 0.500000
O O12 0.250000 0.355953 0.597475
O O13 0.495684 0.406387 0.658110
O O14 0.500000 0.935523 0.500000
O O15 0.250000 0.936655 0.399882
O O16 0.480869 0.000000 0.363600
O O17 0.750000 0.061909 0.097999
O O18 0.984714 0.000000 0.130004
O O19 0.000000 0.069613 0.000000
O O20 0.750000 0.435361 0.740039
O O21 0.514302 0.500000 0.750538
#
# Coordination Sequence:
#
# PCOD9404352 Si02
#       7
#     8   8   8   8   8   8   8
#     4  10  20  35  56  79 106 142 178 215 261 309
#     4  10  20  35  55  78 104 134 171 217 267 314
#     4   9  20  37  54  76 105 136 175 221 263 308
#     4  10  20  35  55  77 104 139 175 212 258 309
#     4  10  21  36  54  77 105 137 173 214 261 315
#     4   9  18  32  50  72  99 131 165 204 252 305
#     4   9  19  36  56  80 109 138 173 216 258 305
#
# _framework density 17.912846999999999
#
# number of rings (size 3 to 8) (size 9 to 14) (size 15 to 20)
#    0.000    2.429    0.000    1.714    0.000    5.714 
#    0.000    4.286    0.000    0.000    0.000    0.000 
#    0.000    0.000    0.000    0.000    0.000    0.000 
#
# Total GULP energy -312442.027965 kJ/mol
# GULP energy per Si atom -5579.321928 kJ/mol
# Density = 1.787208 g / cm^3
# Si number density = 17.912847 Si / 1000 Ang^3
#
#
#
# Elastic Constant Matrix: (Units=GPa)
#
#
# Indices 1 2 3 4 5 6 
#
# 1 15.2741 36.9792 30.9362 0.0000 0.0000 0.0000
# 2 36.9792 193.8347 100.3574 0.0000 0.0000 0.0000
# 3 30.9362 100.3574 160.4184 0.0000 0.0000 0.0000
# 4 0.0000 0.0000 0.0000 17.1458 0.0000 0.0000
# 5 0.0000 0.0000 0.0000 0.0000 27.9020 0.0000
# 6 0.0000 0.0000 0.0000 0.0000 0.0000 33.2578
#
#
#
# Elastic Compliance Matrix: (Units=1/GPa)
#
#
# Indices 1 2 3 4 5 6 
#
# 1 0.144142 -0.019386 -0.015669 0.000000 0.000000 0.000000
# 2 -0.019386 0.010238 -0.002666 0.000000 0.000000 0.000000
# 3 -0.015669 -0.002666 0.010923 0.000000 0.000000 0.000000
# 4 0.000000 0.000000 0.000000 0.058323 0.000000 0.000000
# 5 0.000000 0.000000 0.000000 0.000000 0.035840 0.000000
# 6 0.000000 0.000000 0.000000 0.000000 0.000000 0.030068
#
#
# Mechanical properties :
#
#
# Convention : Reuss Voigt Hill
#
# Bulk Modulus (GPa) = 11.12845 78.45252 44.79049
# Shear Modulus (GPa) = 12.66043 29.07810 20.86926
#
# Velocity S-wave (km/s) = 2.66142 4.03340 3.41698
# Velocity P-wave (km/s) = 3.95856 8.09833 6.37390
#
# Compressibility (1/GPa) = 0.08985975
#
# Stress axis : x y z
#
# Youngs Moduli (GPa) = 6.93760 97.67590 91.54600
#
# Poissons Ratio (x) = 1.89357 1.43446
# Poissons Ratio (y) = 0.13449 0.24408
# Poissons Ratio (z) = 0.10871 0.26043
#
# Static dielectric constant tensor:
#      x y z
#    x 1.600980 0.000000 0.000000 
#    y 0.000000 1.611570 0.000000 
#    z 0.000000 0.000000 1.590940 
# 
# From -- ./inp_files/21729.got.cif
#   From: 2010.05.17/outbox.cif.g08.bks.cpg/sg51_11_cif.got.tgz:21729.got - 2010.06.03 11:52:47.
