data_PCOD9404466
_publ_section_title
;
Structure prediction by ZEFSAII (Michael W. Deem and Ramdas Pophale) SiO2 
 PCOD9404466
Probable space group: P M M A
;
_chemical_formula_sum "Si O2"
_cell_formula_units_Z 64
_cell_length_a 29.859946
_cell_length_b 9.128780
_cell_length_c 12.651574
_cell_angle_alpha 90.000000
_cell_angle_beta 90.000000
_cell_angle_gamma 90.000000
_cell_volume 3448.627753
_symmetry_space_group_name_H-M "P M M A"
_symmetry_group_IT_number 51
_symmetry_cell_setting 'orthorhombic'
loop_
_space_group_symop_operation_xyz
x,y,z
1/2-x,-y,z
1/2+x,-y,-z
-x,y,-z
-x,-y,-z
1/2+x,y,-z
1/2-x,y,z
x,-y,z
loop_
_atom_site_type_symbol
_atom_site_label
_atom_site_fract_x
_atom_site_fract_y
_atom_site_fract_z
Si Si1 0.802219 0.823149 0.275902
Si Si2 0.304500 0.831919 0.490380
Si Si3 0.047150 0.326182 0.715853
Si Si4 0.198587 0.324442 0.276309
Si Si5 0.049182 0.823790 0.270687
Si Si6 0.872568 0.675014 0.125648
Si Si7 0.119972 0.676779 0.119360
Si Si8 0.054490 0.832669 0.505689
O O1 0.750000 0.782195 0.263525
O O2 0.818238 0.776692 0.393689
O O3 0.832507 0.755270 0.185603
O O4 0.804559 0.000000 0.274522
O O5 0.250000 0.832630 0.493833
O O6 0.317389 0.740606 0.387988
O O7 0.319254 0.000000 0.477506
O O8 0.039123 0.500000 0.710338
O O9 0.082303 0.295032 0.808518
O O10 0.066247 0.269366 0.603663
O O11 0.000528 0.243019 0.735369
O O12 0.250000 0.275692 0.258043
O O13 0.198853 0.500000 0.284334
O O14 0.165429 0.284052 0.181848
O O15 0.079940 0.755909 0.180535
O O16 0.068478 0.786668 0.387937
O O17 0.047039 0.000000 0.265180
O O18 0.864798 0.500000 0.129201
O O19 0.877237 0.717792 0.003434
O O20 0.114027 0.500000 0.125653
O O21 0.000000 0.833906 0.500000
O O22 0.068928 0.000000 0.526227
#
# Coordination Sequence:
#
# PCOD9404466 Si02
#       8
#     8   8   8   8   8   8   8   8
#     4   9  19  36  57  81 109 141 176 216 264 316
#     4   8  15  30  52  78 108 139 170 208 260 318
#     4  10  20  35  56  81 109 140 176 218 265 318
#     4   9  18  33  54  79 105 135 173 216 260 308
#     4  10  21  37  57  81 108 138 174 217 267 320
#     4  10  23  39  54  77 107 142 184 224 263 311
#     4  10  22  39  55  74 105 143 182 222 263 310
#     4   8  16  32  53  79 109 137 169 212 263 320
#
# _framework density 18.558105999999999
#
# number of rings (size 3 to 8) (size 9 to 14) (size 15 to 20)
#    0.000    2.750    0.000    2.250    0.000    7.500 
#    0.000   10.000    0.000    1.500    0.000    0.000 
#    0.000    0.000    0.000    0.000    0.000    0.000 
#
# Total GULP energy -357092.726219 kJ/mol
# GULP energy per Si atom -5579.573847 kJ/mol
# Density = 1.851587 g / cm^3
# Si number density = 18.558106 Si / 1000 Ang^3
#
#
#
# Elastic Constant Matrix: (Units=GPa)
#
#
# Indices 1 2 3 4 5 6 
#
# 1 97.0900 46.2719 82.5921 0.0000 0.0000 0.0000
# 2 46.2719 36.9499 66.4987 0.0000 0.0000 0.0000
# 3 82.5921 66.4987 204.7725 0.0000 0.0000 0.0000
# 4 0.0000 0.0000 0.0000 46.7011 0.0000 0.0000
# 5 0.0000 0.0000 0.0000 0.0000 31.2723 0.0000
# 6 0.0000 0.0000 0.0000 0.0000 0.0000 11.1073
#
#
#
# Elastic Compliance Matrix: (Units=1/GPa)
#
#
# Indices 1 2 3 4 5 6 
#
# 1 0.025550 -0.032365 0.000205 0.000000 0.000000 0.000000
# 2 -0.032365 0.106124 -0.021409 0.000000 0.000000 0.000000
# 3 0.000205 -0.021409 0.011753 0.000000 0.000000 0.000000
# 4 0.000000 0.000000 0.000000 0.021413 0.000000 0.000000
# 5 0.000000 0.000000 0.000000 0.000000 0.031977 0.000000
# 6 0.000000 0.000000 0.000000 0.000000 0.000000 0.090031
#
#
# Mechanical properties :
#
#
# Convention : Reuss Voigt Hill
#
# Bulk Modulus (GPa) = 27.55661 81.05975 54.30818
# Shear Modulus (GPa) = 12.31277 27.37944 19.84610
#
# Velocity S-wave (km/s) = 2.57859 3.84518 3.27372
# Velocity P-wave (km/s) = 4.87304 7.96791 6.60432
#
# Compressibility (1/GPa) = 0.03628893
#
# Stress axis : x y z
#
# Youngs Moduli (GPa) = 39.13889 9.42296 85.08330
#
# Poissons Ratio (x) = 0.30498 -0.01745
# Poissons Ratio (y) = 1.26673 1.82155
# Poissons Ratio (z) = -0.00803 0.20174
#
# Static dielectric constant tensor:
#      x y z
#    x 1.658770 0.000000 0.000000 
#    y 0.000000 1.619740 0.000000 
#    z 0.000000 0.000000 1.629260 
# 
# From -- ./inp_files/19518.got.cif
#   From: 2010.05.17/outbox.cif.g08.bks.cpg/sg51_10_cif.got.tgz:19518.got - 2010.06.03 11:52:47.
