data_PCOD9404343
_publ_section_title
;
Structure prediction by ZEFSAII (Michael W. Deem and Ramdas Pophale) SiO2 
 PCOD9404343
Probable space group: P M M A
;
_chemical_formula_sum "Si O2"
_cell_formula_units_Z 64
_cell_length_a 18.463181
_cell_length_b 9.278619
_cell_length_c 21.265973
_cell_angle_alpha 90.000000
_cell_angle_beta 90.000000
_cell_angle_gamma 90.000000
_cell_volume 3643.133848
_symmetry_space_group_name_H-M "P M M A"
_symmetry_group_IT_number 51
_symmetry_cell_setting 'orthorhombic'
loop_
_space_group_symop_operation_xyz
x,y,z
1/2-x,-y,z
1/2+x,-y,-z
-x,y,-z
-x,-y,-z
1/2+x,y,-z
1/2-x,y,z
x,-y,z
loop_
_atom_site_type_symbol
_atom_site_label
_atom_site_fract_x
_atom_site_fract_y
_atom_site_fract_z
Si Si1 0.167289 0.674997 0.435061
Si Si2 0.836957 0.671200 0.196484
Si Si3 0.415799 0.172307 0.689815
Si Si4 0.665503 0.671513 0.805800
Si Si5 0.161651 0.834543 0.068438
Si Si6 0.338142 0.666139 0.945428
Si Si7 0.837317 0.668438 0.422925
Si Si8 0.069680 0.673739 0.316946
O O1 0.250000 0.724979 0.424320
O O2 0.169890 0.500000 0.434717
O O3 0.143830 0.714162 0.505738
O O4 0.114038 0.717194 0.379335
O O5 0.750000 0.688396 0.201679
O O6 0.852036 0.500000 0.205376
O O7 0.876180 0.764880 0.248602
O O8 0.859455 0.710672 0.125120
O O9 0.373089 0.232999 0.629337
O O10 0.495498 0.240497 0.687377
O O11 0.417180 0.000000 0.690436
O O12 0.750000 0.709489 0.794480
O O13 0.662773 0.500000 0.817069
O O14 0.639508 0.751351 0.868557
O O15 0.618475 0.702854 0.744416
O O16 0.250000 0.829154 0.067551
O O17 0.139530 0.000000 0.071067
O O18 0.136552 0.760829 0.003840
O O19 0.250000 0.668880 0.945505
O O20 0.359600 0.500000 0.954856
O O21 0.750000 0.673562 0.418240
O O22 0.858654 0.500000 0.413851
O O23 0.056834 0.500000 0.319506
#
# Coordination Sequence:
#
# PCOD9404343 Si02
#       8
#     8   8   8   8   8   8   8   8
#     4   8  15  31  58  87 105 122 161 215 260 297
#     4   9  18  34  56  78  99 128 169 215 260 304
#     4  12  25  36  48  71 106 142 173 207 247 297
#     4   9  17  30  51  77 101 128 166 212 257 299
#     4   9  16  25  41  69 104 137 165 197 242 298
#     4   8  14  26  46  72  99 125 158 205 255 299
#     4   9  18  35  59  82 103 129 164 208 255 302
#     4  10  20  35  55  76 101 134 171 211 254 300
#
# _framework density 17.567294
#
# number of rings (size 3 to 8) (size 9 to 14) (size 15 to 20)
#    0.000    2.750    0.000    3.750    0.000    6.500 
#    0.000    4.375    0.000    2.625    0.000    5.250 
#    0.000    0.000    0.000    0.000    0.000    0.000 
#
# Total GULP energy -356854.807759 kJ/mol
# GULP energy per Si atom -5575.856371 kJ/mol
# Density = 1.752731 g / cm^3
# Si number density = 17.567294 Si / 1000 Ang^3
#
#
#
# Elastic Constant Matrix: (Units=GPa)
#
#
# Indices 1 2 3 4 5 6 
#
# 1 46.8229 46.9019 69.1776 0.0000 0.0000 0.0000
# 2 46.9019 75.9226 94.8652 0.0000 0.0000 0.0000
# 3 69.1776 94.8652 191.7117 0.0000 0.0000 0.0000
# 4 0.0000 0.0000 0.0000 -7.2971 0.0000 0.0000
# 5 0.0000 0.0000 0.0000 0.0000 -7.8669 0.0000
# 6 0.0000 0.0000 0.0000 0.0000 0.0000 10.0215
#
#
#
# Elastic Compliance Matrix: (Units=1/GPa)
#
#
# Indices 1 2 3 4 5 6 
#
# 1 0.061271 -0.026789 -0.008853 0.000000 0.000000 0.000000
# 2 -0.026789 0.046219 -0.013204 0.000000 0.000000 0.000000
# 3 -0.008853 -0.013204 0.014945 0.000000 0.000000 0.000000
# 4 0.000000 0.000000 0.000000 -0.137041 0.000000 0.000000
# 5 0.000000 0.000000 0.000000 0.000000 -0.127115 0.000000
# 6 0.000000 0.000000 0.000000 0.000000 0.000000 0.099786
#
#
# Mechanical properties :
#
#
# Convention : Reuss Voigt Hill
#
# Bulk Modulus (GPa) = 40.41639 81.81629 61.11634
# Shear Modulus (GPa) = 78.12056 5.87232 41.99644
#
# Velocity S-wave (km/s) = 6.67577 1.83030 4.89468
# Velocity P-wave (km/s) = 9.08172 7.15128 8.17369
#
# Compressibility (1/GPa) = 0.02474243
#
# Stress axis : x y z
#
# Youngs Moduli (GPa) = 16.32094 21.63625 66.91371
#
# Poissons Ratio (x) = 0.57960 0.59241
# Poissons Ratio (y) = 0.43721 0.88354
# Poissons Ratio (z) = 0.14449 0.28569
#
# Static dielectric constant tensor:
#      x y z
#    x 1.602260 0.000000 0.000000 
#    y 0.000000 1.576920 0.000000 
#    z 0.000000 0.000000 1.599470 
# 
# From -- ./inp_files/33856.got.cif
#   From: 2010.05.17/outbox.cif.g08.bks.cpg/sg51_17_cif.got.tgz:33856.got - 2010.06.03 11:52:47.
