data_PCOD9404930
_publ_section_title
;
Structure prediction by ZEFSAII (Michael W. Deem and Ramdas Pophale) SiO2 
 PCOD9404930
Probable space group: P M M A
;
_chemical_formula_sum "Si O2"
_cell_formula_units_Z 48
_cell_length_a 8.681839
_cell_length_b 10.084155
_cell_length_c 29.661298
_cell_angle_alpha 90.000000
_cell_angle_beta 90.000000
_cell_angle_gamma 90.000000
_cell_volume 2596.817280
_symmetry_space_group_name_H-M "P M M A"
_symmetry_group_IT_number 51
_symmetry_cell_setting 'orthorhombic'
loop_
_space_group_symop_operation_xyz
x,y,z
1/2-x,-y,z
1/2+x,-y,-z
-x,y,-z
-x,-y,-z
1/2+x,y,-z
1/2-x,y,z
x,-y,z
loop_
_atom_site_type_symbol
_atom_site_label
_atom_site_fract_x
_atom_site_fract_y
_atom_site_fract_z
Si Si1 0.933350 0.343604 0.194058
Si Si2 0.933625 0.249203 0.896643
Si Si3 0.436359 0.845295 0.374435
Si Si4 0.566181 0.000000 0.050494
Si Si5 0.565174 0.650919 0.449654
Si Si6 0.564159 0.346829 0.707179
Si Si7 0.565544 0.500000 0.050446
O O1 0.750000 0.325519 0.191291
O O2 0.966838 0.500000 0.185717
O O3 0.015710 0.260144 0.155336
O O4 0.992474 0.314783 0.244267
O O5 0.750000 0.248423 0.899944
O O6 0.003148 0.374532 0.922572
O O7 0.004833 0.124903 0.921982
O O8 0.250000 0.844008 0.376331
O O9 0.499896 0.763056 0.416809
O O10 0.482933 0.759687 0.330446
O O11 0.485080 0.000000 0.373250
O O12 0.750000 0.000000 0.048240
O O13 0.500000 0.000000 0.000000
O O14 0.500000 0.668112 0.500000
O O15 0.750000 0.658028 0.450671
O O16 0.521664 0.500000 0.434813
O O17 0.750000 0.343651 0.710793
O O18 0.520831 0.500000 0.695464
O O19 0.750000 0.500000 0.049469
O O20 0.500000 0.500000 0.000000
#
# Coordination Sequence:
#
# PCOD9404930 Si02
#       7
#     8   8   8   4   8   8   4
#     4  10  20  36  60  89 120 153 195 247 301 353
#     4  12  24  41  64  91 121 158 201 246 297 357
#     4  10  21  37  57  84 119 158 198 243 295 353
#     4  12  26  46  66  88 122 160 200 244 295 358
#     4  10  21  37  59  86 115 151 197 247 297 353
#     4   9  18  34  57  82 111 151 197 243 293 349
#     4  12  24  40  62  92 124 158 198 246 299 352
#
# _framework density 18.484165000000001
#
# number of rings (size 3 to 8) (size 9 to 14) (size 15 to 20)
#    0.000    1.500    0.833    5.000    0.000    3.667 
#    1.500    1.667    0.000    0.000    0.000    0.000 
#    0.000    0.000    0.000    0.000    0.000    0.000 
#
# Total GULP energy -268235.369375 kJ/mol
# GULP energy per Si atom -5588.236862 kJ/mol
# Density = 1.844209 g / cm^3
# Si number density = 18.484165 Si / 1000 Ang^3
#
#
#
# Elastic Constant Matrix: (Units=GPa)
#
#
# Indices 1 2 3 4 5 6 
#
# 1 94.4219 62.7649 59.2687 0.0000 0.0000 0.0000
# 2 62.7649 174.7215 106.4692 0.0000 0.0000 0.0000
# 3 59.2687 106.4692 151.9464 0.0000 0.0000 0.0000
# 4 0.0000 0.0000 0.0000 29.0356 0.0000 0.0000
# 5 0.0000 0.0000 0.0000 0.0000 35.8576 0.0000
# 6 0.0000 0.0000 0.0000 0.0000 0.0000 27.1082
#
#
#
# Elastic Compliance Matrix: (Units=1/GPa)
#
#
# Indices 1 2 3 4 5 6 
#
# 1 0.014970 -0.003175 -0.003614 0.000000 0.000000 0.000000
# 2 -0.003175 0.010662 -0.006232 0.000000 0.000000 0.000000
# 3 -0.003614 -0.006232 0.012358 0.000000 0.000000 0.000000
# 4 0.000000 0.000000 0.000000 0.034440 0.000000 0.000000
# 5 0.000000 0.000000 0.000000 0.000000 0.027888 0.000000
# 6 0.000000 0.000000 0.000000 0.000000 0.000000 0.036889
#
#
# Mechanical properties :
#
#
# Convention : Reuss Voigt Hill
#
# Bulk Modulus (GPa) = 83.70786 97.56616 90.63701
# Shear Modulus (GPa) = 29.89836 31.23941 30.56889
#
# Velocity S-wave (km/s) = 4.02619 4.11550 4.07109
# Velocity P-wave (km/s) = 8.18524 8.68800 8.44037
#
# Compressibility (1/GPa) = 0.01194631
#
# Stress axis : x y z
#
# Youngs Moduli (GPa) = 66.79932 93.79403 80.91924
#
# Poissons Ratio (x) = 0.29781 0.29248
# Poissons Ratio (y) = 0.21210 0.50430
# Poissons Ratio (z) = 0.24144 0.58454
#
# Static dielectric constant tensor:
#      x y z
#    x 1.616270 0.000000 0.000000 
#    y 0.000000 1.615270 0.000000 
#    z 0.000000 0.000000 1.613520 
# 
# From -- ./inp_files/37208.got.cif
#   From: 2010.05.17/outbox.cif.g08.bks.cpg/sg51_19_cif.got.tgz:37208.got - 2010.06.03 11:52:47.
