data_PCOD9404576
_publ_section_title
;
Structure prediction by ZEFSAII (Michael W. Deem and Ramdas Pophale) SiO2 
 PCOD9404576
Probable space group: P M M A
;
_chemical_formula_sum "Si O2"
_cell_formula_units_Z 56
_cell_length_a 8.472605
_cell_length_b 20.150191
_cell_length_c 16.022148
_cell_angle_alpha 90.000000
_cell_angle_beta 90.000000
_cell_angle_gamma 90.000000
_cell_volume 2735.374953
_symmetry_space_group_name_H-M "P M M A"
_symmetry_group_IT_number 51
_symmetry_cell_setting 'orthorhombic'
loop_
_space_group_symop_operation_xyz
x,y,z
1/2-x,-y,z
1/2+x,-y,-z
-x,y,-z
-x,-y,-z
1/2+x,y,-z
1/2-x,y,z
x,-y,z
loop_
_atom_site_type_symbol
_atom_site_label
_atom_site_fract_x
_atom_site_fract_y
_atom_site_fract_z
Si Si1 0.573786 0.920811 0.916393
Si Si2 0.939558 0.711659 0.091212
Si Si3 0.564755 0.576146 0.353413
Si Si4 0.560298 0.575137 0.836074
Si Si5 0.065270 0.073032 0.739673
Si Si6 0.567629 0.294873 0.587694
Si Si7 0.439424 0.215130 0.740551
O O1 0.750000 0.895125 0.898012
O O2 0.456179 0.916628 0.839005
O O3 0.591054 0.000000 0.929724
O O4 0.500000 0.891639 0.000000
O O5 0.750000 0.712815 0.091301
O O6 0.995819 0.757658 0.169252
O O7 0.996695 0.636462 0.110230
O O8 0.000000 0.731780 0.000000
O O9 0.750000 0.593281 0.361419
O O10 0.542438 0.500000 0.378370
O O11 0.514593 0.581291 0.256187
O O12 0.460328 0.626525 0.405622
O O13 0.750000 0.580374 0.829529
O O14 0.522888 0.500000 0.866750
O O15 0.250000 0.069834 0.718081
O O16 0.996997 0.143150 0.710005
O O17 0.995343 0.000000 0.719357
O O18 0.500000 0.270314 0.500000
O O19 0.750000 0.278537 0.593924
O O20 0.479735 0.266110 0.668099
O O21 0.250000 0.209029 0.747501
#
# Coordination Sequence:
#
# PCOD9404576 Si02
#       7
#     8   8   8   8   8   8   8
#     4   9  16  26  42  67 101 139 180 227 276 331
#     4  11  23  38  58  82 116 160 207 256 303 356
#     4  10  20  36  60  90 125 162 199 243 296 352
#     4  10  20  35  57  85 117 155 202 253 303 354
#     4   9  18  34  57  83 111 146 186 232 292 357
#     4  12  25  41  65  92 122 160 201 246 296 355
#     4  10  22  41  62  87 121 157 196 246 300 358
#
# _framework density 20.472512999999999
#
# number of rings (size 3 to 8) (size 9 to 14) (size 15 to 20)
#    0.000    1.857    1.429    3.000    0.000    5.714 
#    0.000    1.429    0.000    0.429    0.000    0.000 
#    0.000    0.000    0.000    0.000    0.000    0.000 
#
# Total GULP energy -312447.824011 kJ/mol
# GULP energy per Si atom -5579.425429 kJ/mol
# Density = 2.042592 g / cm^3
# Si number density = 20.472513 Si / 1000 Ang^3
#
#
#
# Elastic Constant Matrix: (Units=GPa)
#
#
# Indices 1 2 3 4 5 6 
#
# 1 24.6745 11.6835 -6.1585 0.0000 0.0000 0.0000
# 2 11.6835 109.9856 21.3207 0.0000 0.0000 0.0000
# 3 -6.1585 21.3207 63.2516 0.0000 0.0000 0.0000
# 4 0.0000 0.0000 0.0000 -4.4929 0.0000 0.0000
# 5 0.0000 0.0000 0.0000 0.0000 24.1858 0.0000
# 6 0.0000 0.0000 0.0000 0.0000 0.0000 9.1141
#
#
#
# Elastic Compliance Matrix: (Units=1/GPa)
#
#
# Indices 1 2 3 4 5 6 
#
# 1 0.044978 -0.006020 0.006409 0.000000 0.000000 0.000000
# 2 -0.006020 0.010534 -0.004137 0.000000 0.000000 0.000000
# 3 0.006409 -0.004137 0.017828 0.000000 0.000000 0.000000
# 4 0.000000 0.000000 0.000000 -0.222572 0.000000 0.000000
# 5 0.000000 0.000000 0.000000 0.000000 0.041347 0.000000
# 6 0.000000 0.000000 0.000000 0.000000 0.000000 0.109720
#
#
# Mechanical properties :
#
#
# Convention : Reuss Voigt Hill
#
# Bulk Modulus (GPa) = 15.18771 27.95591 21.57181
# Shear Modulus (GPa) = 159.85371 17.16580 88.50975
#
# Velocity S-wave (km/s) = 8.84599 2.89879 6.58235
# Velocity P-wave (km/s) = 10.57214 4.98889 8.26617
#
# Compressibility (1/GPa) = 0.06584269
#
# Stress axis : x y z
#
# Youngs Moduli (GPa) = 22.23320 94.93506 56.09076
#
# Poissons Ratio (x) = 0.57153 -0.35946
# Poissons Ratio (y) = 0.13385 0.23203
# Poissons Ratio (z) = -0.14248 0.39272
#
# Static dielectric constant tensor:
#      x y z
#    x 1.720020 0.000000 0.000000 
#    y 0.000000 1.804780 0.000000 
#    z 0.000000 0.000000 1.714790 
# 
# From -- ./inp_files/21783.got.cif
#   From: 2010.05.17/outbox.cif.g08.bks.cpg/sg51_11_cif.got.tgz:21783.got - 2010.06.03 11:52:47.
