data_PCOD9404972
_publ_section_title
;
Structure prediction by ZEFSAII (Michael W. Deem and Ramdas Pophale) SiO2 
 PCOD9404972
Probable space group: P M M A
;
_chemical_formula_sum "Si O2"
_cell_formula_units_Z 52
_cell_length_a 11.397735
_cell_length_b 8.305305
_cell_length_c 28.186320
_cell_angle_alpha 90.000000
_cell_angle_beta 90.000000
_cell_angle_gamma 90.000000
_cell_volume 2668.163995
_symmetry_space_group_name_H-M "P M M A"
_symmetry_group_IT_number 51
_symmetry_cell_setting 'orthorhombic'
loop_
_space_group_symop_operation_xyz
x,y,z
1/2-x,-y,z
1/2+x,-y,-z
-x,y,-z
-x,-y,-z
1/2+x,y,-z
1/2-x,y,z
x,-y,z
loop_
_atom_site_type_symbol
_atom_site_label
_atom_site_fract_x
_atom_site_fract_y
_atom_site_fract_z
Si Si1 0.115132 0.811015 0.323878
Si Si2 0.498701 0.686106 0.228505
Si Si3 0.750000 0.818542 0.227792
Si Si4 0.044991 0.682306 0.599715
Si Si5 0.389617 0.181085 0.134317
Si Si6 0.113188 0.692579 0.030257
Si Si7 0.250000 0.323994 0.675970
Si Si8 0.607138 0.000000 0.461828
O O1 0.250000 0.772748 0.312996
O O2 0.041462 0.776894 0.276193
O O3 0.072936 0.717572 0.370752
O O4 0.103980 0.000000 0.334843
O O5 0.487117 0.500000 0.239969
O O6 0.631231 0.729803 0.214844
O O7 0.425535 0.731187 0.182299
O O8 0.750000 0.812347 0.285155
O O9 0.750000 0.000000 0.210205
O O10 0.044788 0.500000 0.578610
O O11 0.139932 0.682793 0.641808
O O12 0.081704 0.832956 0.566842
O O13 0.250000 0.169282 0.135166
O O14 0.416804 0.268612 0.085000
O O15 0.439837 0.000000 0.134376
O O16 0.250000 0.751292 0.020916
O O17 0.118078 0.500000 0.023701
O O18 0.000000 0.753211 0.000000
O O19 0.250000 0.500000 0.700567
O O20 0.500000 0.000000 0.500000
O O21 0.750000 0.000000 0.474395
#
# Coordination Sequence:
#
# PCOD9404972 Si02
#       8
#     8   8   4   8   8   8   4   4
#     4  11  23  38  60  93 131 169 211 261 316 375
#     4  12  24  38  56  84 122 164 208 254 307 372
#     4  12  24  36  58  86 122 162 206 254 306 359
#     4  11  23  42  70  98 127 168 216 262 317 384
#     4  10  21  38  59  82 114 157 202 249 305 370
#     4   9  18  35  59  85 112 148 195 251 314 378
#     4  10  20  36  62  94 120 154 206 253 297 362
#     4  12  28  48  74 102 136 176 220 272 333 388
#
# _framework density 19.489056000000001
#
# number of rings (size 3 to 8) (size 9 to 14) (size 15 to 20)
#    0.000    1.231    3.077    3.462    1.077    5.231 
#    1.385    0.000    0.000    0.000    0.000    0.000 
#    0.000    0.000    0.000    0.000    0.000    0.000 
#
# Total GULP energy -289893.565407 kJ/mol
# GULP energy per Si atom -5574.876258 kJ/mol
# Density = 1.944470 g / cm^3
# Si number density = 19.489056 Si / 1000 Ang^3
#
#
#
# Elastic Constant Matrix: (Units=GPa)
#
#
# Indices 1 2 3 4 5 6 
#
# 1 81.8884 22.7395 33.1735 0.0000 0.0000 0.0000
# 2 22.7395 73.9596 20.3031 0.0000 0.0000 0.0000
# 3 33.1735 20.3031 63.0092 0.0000 0.0000 0.0000
# 4 0.0000 0.0000 0.0000 15.3253 0.0000 0.0000
# 5 0.0000 0.0000 0.0000 0.0000 37.0414 0.0000
# 6 0.0000 0.0000 0.0000 0.0000 0.0000 180.4070
#
#
#
# Elastic Compliance Matrix: (Units=1/GPa)
#
#
# Indices 1 2 3 4 5 6 
#
# 1 0.016059 -0.002870 -0.007530 0.000000 0.000000 0.000000
# 2 -0.002870 0.015346 -0.003434 0.000000 0.000000 0.000000
# 3 -0.007530 -0.003434 0.020942 0.000000 0.000000 0.000000
# 4 0.000000 0.000000 0.000000 0.065252 0.000000 0.000000
# 5 0.000000 0.000000 0.000000 0.000000 0.026997 0.000000
# 6 0.000000 0.000000 0.000000 0.000000 0.000000 0.005543
#
#
# Mechanical properties :
#
#
# Convention : Reuss Voigt Hill
#
# Bulk Modulus (GPa) = 40.52088 41.25438 40.88763
# Shear Modulus (GPa) = 26.87697 56.06416 41.47057
#
# Velocity S-wave (km/s) = 3.71763 5.36931 4.61791
# Velocity P-wave (km/s) = 6.26613 7.72355 7.03269
#
# Compressibility (1/GPa) = 0.02467863
#
# Stress axis : x y z
#
# Youngs Moduli (GPa) = 62.26919 65.16353 47.75189
#
# Poissons Ratio (x) = 0.18705 0.35958
# Poissons Ratio (y) = 0.17874 0.16396
# Poissons Ratio (z) = 0.46889 0.22375
#
# Static dielectric constant tensor:
#      x y z
#    x 1.626130 0.000000 0.000000 
#    y 0.000000 1.717460 0.000000 
#    z 0.000000 0.000000 1.657040 
# 
# From -- ./inp_files/36580.got.cif
#   From: 2010.05.17/outbox.cif.g08.bks.cpg/sg51_19_cif.got.tgz:36580.got - 2010.06.03 11:52:47.
