data_PCOD9404051
_publ_section_title
;
Structure prediction by ZEFSAII (Michael W. Deem and Ramdas Pophale) SiO2 
 PCOD9404051
Probable space group: P M M A
;
_chemical_formula_sum "Si O2"
_cell_formula_units_Z 46
_cell_length_a 7.781438
_cell_length_b 23.354676
_cell_length_c 13.695604
_cell_angle_alpha 90.000000
_cell_angle_beta 90.000000
_cell_angle_gamma 90.000000
_cell_volume 2488.942699
_symmetry_space_group_name_H-M "P M M A"
_symmetry_group_IT_number 51
_symmetry_cell_setting 'orthorhombic'
loop_
_space_group_symop_operation_xyz
x,y,z
1/2-x,-y,z
1/2+x,-y,-z
-x,y,-z
-x,-y,-z
1/2+x,y,-z
1/2-x,y,z
x,-y,z
loop_
_atom_site_type_symbol
_atom_site_label
_atom_site_fract_x
_atom_site_fract_y
_atom_site_fract_z
Si Si1 0.545644 0.668248 0.608692
Si Si2 0.957053 0.500000 0.113624
Si Si3 0.540431 0.791134 0.686884
Si Si4 0.049794 0.084589 0.613856
Si Si5 0.050453 0.620893 0.811009
Si Si6 0.447994 0.743175 0.110762
Si Si7 0.250000 0.000000 0.322540
O O1 0.500000 0.649926 0.500000
O O2 0.750000 0.665997 0.622483
O O3 0.491681 0.734295 0.626210
O O4 0.465491 0.631400 0.695574
O O5 0.750000 0.500000 0.127212
O O6 0.022901 0.559373 0.159271
O O7 0.000000 0.500000 0.000000
O O8 0.750000 0.794916 0.685099
O O9 0.467191 0.848925 0.642584
O O10 0.475508 0.778204 0.797571
O O11 0.250000 0.067313 0.627231
O O12 0.000000 0.076484 0.500000
O O13 0.904318 0.049366 0.671460
O O14 0.250000 0.622306 0.839741
O O15 0.969271 0.675981 0.863653
O O16 0.250000 0.757339 0.115414
O O17 0.500000 0.754591 0.000000
#
# Coordination Sequence:
#
# PCOD9404051 Si02
#       7
#     8   4   8   8   8   8   2
#     4  10  20  34  55  78 108 143 180 218 274 320
#     4  10  22  36  53  76 103 138 179 224 276 330
#     4   9  19  36  52  78 112 142 177 226 270 325
#     4  12  23  35  57  80 112 153 188 223 273 324
#     4  10  20  35  53  76 106 140 180 225 271 329
#     4  10  20  34  55  80 112 141 176 222 280 325
#     4  12  24  40  54  78 122 144 194 226 270 310
#
# _framework density 18.481742000000001
#
# number of rings (size 3 to 8) (size 9 to 14) (size 15 to 20)
#    0.000    1.739    1.739    4.174    0.000    8.348 
#    0.000    0.435    0.000    0.000    0.000    0.609 
#    0.000    0.000    0.000    0.000    0.000    0.000 
#
# Total GULP energy -256129.671471 kJ/mol
# GULP energy per Si atom -5568.036336 kJ/mol
# Density = 1.843968 g / cm^3
# Si number density = 18.481742 Si / 1000 Ang^3
#
#
#
# Elastic Constant Matrix: (Units=GPa)
#
#
# Indices 1 2 3 4 5 6 
#
# 1 73.1923 5.9228 -0.8975 0.0000 0.0000 0.0000
# 2 5.9228 84.5737 8.2328 0.0000 0.0000 0.0000
# 3 -0.8975 8.2328 62.8920 0.0000 0.0000 0.0000
# 4 0.0000 0.0000 0.0000 566.9651 0.0000 0.0000
# 5 0.0000 0.0000 0.0000 0.0000 21.5907 0.0000
# 6 0.0000 0.0000 0.0000 0.0000 0.0000 19.5496
#
#
#
# Elastic Compliance Matrix: (Units=1/GPa)
#
#
# Indices 1 2 3 4 5 6 
#
# 1 0.013747 -0.000994 0.000326 0.000000 0.000000 0.000000
# 2 -0.000994 0.012049 -0.001591 0.000000 0.000000 0.000000
# 3 0.000326 -0.001591 0.016113 0.000000 0.000000 0.000000
# 4 0.000000 0.000000 0.000000 0.001764 0.000000 0.000000
# 5 0.000000 0.000000 0.000000 0.000000 0.046316 0.000000
# 6 0.000000 0.000000 0.000000 0.000000 0.000000 0.051152
#
#
# Mechanical properties :
#
#
# Convention : Reuss Voigt Hill
#
# Bulk Modulus (GPa) = 26.74519 27.46378 27.10449
# Shear Modulus (GPa) = 31.62094 135.44775 83.53435
#
# Velocity S-wave (km/s) = 4.14082 8.57009 6.73026
# Velocity P-wave (km/s) = 6.11265 10.62171 8.66560
#
# Compressibility (1/GPa) = 0.03738989
#
# Stress axis : x y z
#
# Youngs Moduli (GPa) = 72.74251 82.99739 62.06073
#
# Poissons Ratio (x) = 0.08254 -0.02025
# Poissons Ratio (y) = 0.07234 0.09876
# Poissons Ratio (z) = -0.02374 0.13208
#
# Static dielectric constant tensor:
#      x y z
#    x 1.668200 0.000000 0.000000 
#    y 0.000000 1.638970 0.000000 
#    z 0.000000 0.000000 1.662060 
# 
# From -- ./inp_files/21470.got.cif
#   From: 2010.05.17/outbox.cif.g08.bks.cpg/sg51_11_cif.got.tgz:21470.got - 2010.06.03 11:52:47.
