data_PCOD9404987
_publ_section_title
;
Structure prediction by ZEFSAII (Michael W. Deem and Ramdas Pophale) SiO2 
 PCOD9404987
Probable space group: P M M A
;
_chemical_formula_sum "Si O2"
_cell_formula_units_Z 40
_cell_length_a 10.226555
_cell_length_b 9.330403
_cell_length_c 25.285648
_cell_angle_alpha 90.000000
_cell_angle_beta 90.000000
_cell_angle_gamma 90.000000
_cell_volume 2412.702913
_symmetry_space_group_name_H-M "P M M A"
_symmetry_group_IT_number 51
_symmetry_cell_setting 'orthorhombic'
loop_
_space_group_symop_operation_xyz
x,y,z
1/2-x,-y,z
1/2+x,-y,-z
-x,y,-z
-x,-y,-z
1/2+x,y,-z
1/2-x,y,z
x,-y,z
loop_
_atom_site_type_symbol
_atom_site_label
_atom_site_fract_x
_atom_site_fract_y
_atom_site_fract_z
Si Si1 0.598814 0.824946 0.454183
Si Si2 0.409053 0.164975 0.663095
Si Si3 0.095245 0.329732 0.767385
Si Si4 0.019624 0.330311 0.883737
Si Si5 0.750000 0.171289 0.055234
Si Si6 0.250000 0.666230 0.054480
O O1 0.500000 0.778792 0.500000
O O2 0.750000 0.781259 0.463159
O O3 0.554642 0.779362 0.395265
O O4 0.599070 0.000000 0.453172
O O5 0.250000 0.166283 0.662929
O O6 0.451821 0.252101 0.714389
O O7 0.451031 0.000000 0.667948
O O8 0.250000 0.296563 0.774965
O O9 0.084398 0.500000 0.759882
O O10 0.023661 0.290862 0.821813
O O11 0.056162 0.500000 0.887101
O O12 0.124351 0.236832 0.915209
O O13 0.878717 0.313567 0.910226
O O14 0.750000 0.000000 0.056887
O O15 0.750000 0.229869 0.995495
O O16 0.250000 0.500000 0.035394
#
# Coordination Sequence:
#
# PCOD9404987 Si02
#       6
#     8   8   8   8   4   4
#     4   8  13  22  38  60  85 115 151 189 225 266
#     4   8  14  24  40  64  91 117 151 193 235 277
#     4   9  16  28  48  71  94 119 155 201 239 276
#     4  10  20  37  57  77  99 129 171 209 242 290
#     4  12  24  36  54  80 106 132 161 200 251 298
#     4  10  22  38  58  76  98 134 169 204 245 290
#
# _framework density 16.578917000000001
#
# number of rings (size 3 to 8) (size 9 to 14) (size 15 to 20)
#    0.000    2.800    1.000    2.700    0.000    4.000 
#    0.000    0.000    2.200    0.600    0.000    0.000 
#    0.000    0.000    0.000    0.000    0.000    0.000 
#
# Total GULP energy -222854.471783 kJ/mol
# GULP energy per Si atom -5571.361795 kJ/mol
# Density = 1.654118 g / cm^3
# Si number density = 16.578917 Si / 1000 Ang^3
#
#
#
# Elastic Constant Matrix: (Units=GPa)
#
#
# Indices 1 2 3 4 5 6 
#
# 1 69.3363 42.9225 60.4619 0.0000 0.0000 0.0000
# 2 42.9225 51.1770 67.6628 0.0000 0.0000 0.0000
# 3 60.4619 67.6628 187.7529 0.0000 0.0000 0.0000
# 4 0.0000 0.0000 0.0000 28.1527 0.0000 0.0000
# 5 0.0000 0.0000 0.0000 0.0000 18.3143 0.0000
# 6 0.0000 0.0000 0.0000 0.0000 0.0000 4.5885
#
#
#
# Elastic Compliance Matrix: (Units=1/GPa)
#
#
# Indices 1 2 3 4 5 6 
#
# 1 0.030123 -0.023760 -0.001138 0.000000 0.000000 0.000000
# 2 -0.023760 0.056065 -0.012553 0.000000 0.000000 0.000000
# 3 -0.001138 -0.012553 0.010217 0.000000 0.000000 0.000000
# 4 0.000000 0.000000 0.000000 0.035521 0.000000 0.000000
# 5 0.000000 0.000000 0.000000 0.000000 0.054602 0.000000
# 6 0.000000 0.000000 0.000000 0.000000 0.000000 0.217938
#
#
# Mechanical properties :
#
#
# Convention : Reuss Voigt Hill
#
# Bulk Modulus (GPa) = 46.50710 72.26228 59.38469
# Shear Modulus (GPa) = 10.27674 19.35905 14.81789
#
# Velocity S-wave (km/s) = 2.49242 3.42086 2.99286
# Velocity P-wave (km/s) = 6.03288 7.69964 6.91665
#
# Compressibility (1/GPa) = 0.02150209
#
# Stress axis : x y z
#
# Youngs Moduli (GPa) = 33.19669 17.83638 97.88038
#
# Poissons Ratio (x) = 0.42380 0.11137
# Poissons Ratio (y) = 0.78877 1.22873
# Poissons Ratio (z) = 0.03777 0.22391
#
# Static dielectric constant tensor:
#      x y z
#    x 1.542380 0.000000 0.000000 
#    y 0.000000 1.555830 0.000000 
#    z 0.000000 0.000000 1.570450 
# 
# From -- ./inp_files/35995.got.cif
#   From: 2010.05.17/outbox.cif.g08.bks.cpg/sg51_18_cif.got.tgz:35995.got - 2010.06.03 11:52:47.
