data_PCOD9404129
_publ_section_title
;
Structure prediction by ZEFSAII (Michael W. Deem and Ramdas Pophale) SiO2 
 PCOD9404129
Probable space group: P M M A
;
_chemical_formula_sum "Si O2"
_cell_formula_units_Z 44
_cell_length_a 9.558069
_cell_length_b 7.869264
_cell_length_c 30.545177
_cell_angle_alpha 90.000000
_cell_angle_beta 90.000000
_cell_angle_gamma 90.000000
_cell_volume 2297.454520
_symmetry_space_group_name_H-M "P M M A"
_symmetry_group_IT_number 51
_symmetry_cell_setting 'orthorhombic'
loop_
_space_group_symop_operation_xyz
x,y,z
1/2-x,-y,z
1/2+x,-y,-z
-x,y,-z
-x,-y,-z
1/2+x,y,-z
1/2-x,y,z
x,-y,z
loop_
_atom_site_type_symbol
_atom_site_label
_atom_site_fract_x
_atom_site_fract_y
_atom_site_fract_z
Si Si1 0.582787 0.000000 0.454863
Si Si2 0.592147 0.202859 0.959816
Si Si3 0.085019 0.694033 0.610662
Si Si4 0.590066 0.795215 0.220881
Si Si5 0.090475 0.297766 0.877334
Si Si6 0.412152 0.206611 0.304104
O O1 0.500000 0.000000 0.500000
O O2 0.548942 0.166214 0.425809
O O3 0.750000 0.000000 0.462830
O O4 0.750000 0.272071 0.959382
O O5 0.512083 0.231267 0.914446
O O6 0.602466 0.000000 0.966140
O O7 0.500000 0.272488 0.000000
O O8 0.250000 0.717693 0.621403
O O9 0.066040 0.500000 0.595398
O O10 0.994253 0.725466 0.653856
O O11 0.750000 0.733591 0.227228
O O12 0.545179 0.745460 0.172043
O O13 0.489794 0.736578 0.259755
O O14 0.593015 0.000000 0.222577
O O15 0.250000 0.230759 0.883059
O O16 0.095581 0.500000 0.881413
O O17 0.250000 0.257125 0.304477
O O18 0.417902 0.000000 0.305658
#
# Coordination Sequence:
#
# PCOD9404129 Si02
#       6
#     4   8   8   8   8   8
#     4  10  22  40  62  88 120 156 196 244 293 346
#     4  10  21  37  58  81 103 132 173 221 272 328
#     4  10  21  38  61  87 116 155 200 242 288 346
#     4   9  18  33  54  78 108 150 193 230 272 327
#     4  10  21  36  54  78 109 143 179 221 270 326
#     4  10  20  34  55  84 117 151 189 236 289 340
#
# _framework density 19.151631999999999
#
# number of rings (size 3 to 8) (size 9 to 14) (size 15 to 20)
#    0.000    2.182    0.909    1.636    0.000    6.182 
#    0.000    3.636    0.000    0.000    0.000    0.000 
#    0.000    0.000    0.000    0.000    0.000    0.000 
#
# Total GULP energy -245702.953751 kJ/mol
# GULP energy per Si atom -5584.158040 kJ/mol
# Density = 1.910804 g / cm^3
# Si number density = 19.151632 Si / 1000 Ang^3
#
#
#
# Elastic Constant Matrix: (Units=GPa)
#
#
# Indices 1 2 3 4 5 6 
#
# 1 119.4543 43.0657 116.2124 0.0000 0.0000 0.0000
# 2 43.0657 56.3734 42.5675 0.0000 0.0000 0.0000
# 3 116.2124 42.5675 177.2408 0.0000 0.0000 0.0000
# 4 0.0000 0.0000 0.0000 -33.5492 0.0000 0.0000
# 5 0.0000 0.0000 0.0000 0.0000 34.6935 0.0000
# 6 0.0000 0.0000 0.0000 0.0000 0.0000 16.6265
#
#
#
# Elastic Compliance Matrix: (Units=1/GPa)
#
#
# Indices 1 2 3 4 5 6 
#
# 1 0.026123 -0.008579 -0.015068 0.000000 0.000000 0.000000
# 2 -0.008579 0.024486 -0.000256 0.000000 0.000000 0.000000
# 3 -0.015068 -0.000256 0.015583 0.000000 0.000000 0.000000
# 4 0.000000 0.000000 0.000000 -0.029807 0.000000 0.000000
# 5 0.000000 0.000000 0.000000 0.000000 0.028824 0.000000
# 6 0.000000 0.000000 0.000000 0.000000 0.000000 0.060145
#
#
# Mechanical properties :
#
#
# Convention : Reuss Voigt Hill
#
# Bulk Modulus (GPa) = 54.38629 84.08444 69.23536
# Shear Modulus (GPa) = 27.88800 13.63567 20.76184
#
# Velocity S-wave (km/s) = 3.82012 2.67120 3.29610
# Velocity P-wave (km/s) = 6.92222 7.31530 7.12147
#
# Compressibility (1/GPa) = 0.01838699
#
# Stress axis : x y z
#
# Youngs Moduli (GPa) = 38.27980 40.84035 64.17124
#
# Poissons Ratio (x) = 0.35036 0.96694
# Poissons Ratio (y) = 0.32839 0.01642
# Poissons Ratio (z) = 0.57681 0.01045
#
# Static dielectric constant tensor:
#      x y z
#    x 1.663470 0.000000 0.000000 
#    y 0.000000 1.692430 0.000000 
#    z 0.000000 0.000000 1.618680 
# 
# From -- ./inp_files/36819.got.cif
#   From: 2010.05.17/outbox.cif.g08.bks.cpg/sg51_19_cif.got.tgz:36819.got - 2010.06.03 11:52:47.
