data_PCOD9404569
_publ_section_title
;
Structure prediction by ZEFSAII (Michael W. Deem and Ramdas Pophale) SiO2 
 PCOD9404569
Probable space group: P M M A
;
_chemical_formula_sum "Si O2"
_cell_formula_units_Z 44
_cell_length_a 14.805805
_cell_length_b 13.174166
_cell_length_c 9.815533
_cell_angle_alpha 90.000000
_cell_angle_beta 90.000000
_cell_angle_gamma 90.000000
_cell_volume 1914.560278
_symmetry_space_group_name_H-M "P M M A"
_symmetry_group_IT_number 51
_symmetry_cell_setting 'orthorhombic'
loop_
_space_group_symop_operation_xyz
x,y,z
1/2-x,-y,z
1/2+x,-y,-z
-x,y,-z
-x,-y,-z
1/2+x,y,-z
1/2-x,y,z
x,-y,z
loop_
_atom_site_type_symbol
_atom_site_label
_atom_site_fract_x
_atom_site_fract_y
_atom_site_fract_z
Si Si1 0.097225 0.389755 0.166348
Si Si2 0.359324 0.889704 0.352923
Si Si3 0.857493 0.324373 0.533979
Si Si4 0.608207 0.386100 0.243030
Si Si5 0.601748 0.177378 0.949042
Si Si6 0.750000 0.782373 0.135713
O O1 0.123383 0.500000 0.111838
O O2 0.128065 0.379980 0.322663
O O3 0.134355 0.293395 0.086518
O O4 0.988798 0.380362 0.169786
O O5 0.250000 0.885921 0.350710
O O6 0.387757 0.791833 0.439493
O O7 0.390213 0.876695 0.196857
O O8 0.387182 0.000000 0.406189
O O9 0.750000 0.325951 0.504737
O O10 0.906071 0.372578 0.405142
O O11 0.643978 0.500000 0.220007
O O12 0.671719 0.294588 0.198797
O O13 0.500000 0.174109 0.000000
O O14 0.670866 0.146441 0.064806
#
# Coordination Sequence:
#
# PCOD9404569 Si02
#       6
#     8   8   8   8   8   4
#     4  10  22  36  54  82 115 156 198 238 281 335
#     4   9  19  38  64  88 111 147 192 242 297 345
#     4  10  20  35  57  85 114 147 193 242 288 344
#     4  11  22  37  57  82 119 162 197 231 284 347
#     4  11  22  39  60  85 119 153 195 242 286 344
#     4  12  23  38  55  84 116 158 193 238 285 342
#
# _framework density 22.981779
#
# number of rings (size 3 to 8) (size 9 to 14) (size 15 to 20)
#    0.000    1.636    3.636    1.364    1.273    4.727 
#    0.000    0.000    0.000   10.909    0.000    0.000 
#    0.000    0.000    0.000    0.000    0.000    0.000 
#
# Total GULP energy -245049.313768 kJ/mol
# GULP energy per Si atom -5569.302586 kJ/mol
# Density = 2.292947 g / cm^3
# Si number density = 22.981779 Si / 1000 Ang^3
#
#
#
# Elastic Constant Matrix: (Units=GPa)
#
#
# Indices 1 2 3 4 5 6 
#
# 1 70.7327 2.1702 4.5504 0.0000 0.0000 0.0000
# 2 2.1702 82.6039 -2.8718 0.0000 0.0000 0.0000
# 3 4.5504 -2.8718 75.4133 0.0000 0.0000 0.0000
# 4 0.0000 0.0000 0.0000 -13.8666 0.0000 0.0000
# 5 0.0000 0.0000 0.0000 0.0000 22.3288 0.0000
# 6 0.0000 0.0000 0.0000 0.0000 0.0000 6.3048
#
#
#
# Elastic Compliance Matrix: (Units=1/GPa)
#
#
# Indices 1 2 3 4 5 6 
#
# 1 0.014206 -0.000404 -0.000873 0.000000 0.000000 0.000000
# 2 -0.000404 0.012133 0.000486 0.000000 0.000000 0.000000
# 3 -0.000873 0.000486 0.013331 0.000000 0.000000 0.000000
# 4 0.000000 0.000000 0.000000 -0.072116 0.000000 0.000000
# 5 0.000000 0.000000 0.000000 0.000000 0.044785 0.000000
# 6 0.000000 0.000000 0.000000 0.000000 0.000000 0.158609
#
#
# Mechanical properties :
#
#
# Convention : Reuss Voigt Hill
#
# Bulk Modulus (GPa) = 26.25244 26.27194 26.26219
# Shear Modulus (GPa) = 26.99402 17.94681 22.47042
#
# Velocity S-wave (km/s) = 3.43094 2.79752 3.13029
# Velocity P-wave (km/s) = 5.20990 4.67881 4.95148
#
# Compressibility (1/GPa) = 0.03809170
#
# Stress axis : x y z
#
# Youngs Moduli (GPa) = 70.39155 82.41655 75.01069
#
# Poissons Ratio (x) = 0.03326 0.06545
# Poissons Ratio (y) = 0.02841 -0.03649
# Poissons Ratio (z) = 0.06142 -0.04009
#
# Static dielectric constant tensor:
#      x y z
#    x 1.841940 0.000000 0.000000 
#    y 0.000000 1.901130 0.000000 
#    z 0.000000 0.000000 1.894100 
# 
# From -- ./inp_files/16338.got.cif
#   From: 2010.05.17/outbox.cif.g08.bks.cpg/sg51_9_cif.got.tgz:16338.got - 2010.06.03 11:52:47.
