data_PCOD9404897
_publ_section_title
;
Structure prediction by ZEFSAII (Michael W. Deem and Ramdas Pophale) SiO2 
 PCOD9404897
Probable space group: P M M A
;
_chemical_formula_sum "Si O2"
_cell_formula_units_Z 64
_cell_length_a 17.197324
_cell_length_b 20.836183
_cell_length_c 8.543308
_cell_angle_alpha 90.000000
_cell_angle_beta 90.000000
_cell_angle_gamma 90.000000
_cell_volume 3061.294423
_symmetry_space_group_name_H-M "P M M A"
_symmetry_group_IT_number 51
_symmetry_cell_setting 'orthorhombic'
loop_
_space_group_symop_operation_xyz
x,y,z
1/2-x,-y,z
1/2+x,-y,-z
-x,y,-z
-x,-y,-z
1/2+x,y,-z
1/2-x,y,z
x,-y,z
loop_
_atom_site_type_symbol
_atom_site_label
_atom_site_fract_x
_atom_site_fract_y
_atom_site_fract_z
Si Si1 0.412706 0.275317 0.953700
Si Si2 0.098429 0.074994 0.662730
Si Si3 0.591196 0.573765 0.526687
Si Si4 0.081732 0.887468 0.310903
Si Si5 0.838707 0.367893 0.821476
Si Si6 0.333527 0.767599 0.356856
Si Si7 0.663718 0.689796 0.341279
Si Si8 0.841360 0.135616 0.013893
O O1 0.403949 0.289700 0.772676
O O2 0.362123 0.211910 0.992518
O O3 0.500000 0.261346 0.000000
O O4 0.383136 0.342476 0.027565
O O5 0.119383 0.091002 0.479502
O O6 0.134832 0.111910 0.811779
O O7 0.006014 0.088401 0.680132
O O8 0.114441 0.000000 0.684142
O O9 0.500000 0.587937 0.500000
O O10 0.605398 0.500000 0.482710
O O11 0.615298 0.584834 0.707483
O O12 0.642486 0.623706 0.427496
O O13 0.093080 0.810936 0.321743
O O14 0.117506 0.899581 0.136460
O O15 0.750000 0.389322 0.849335
O O16 0.835246 0.300112 0.729219
O O17 0.250000 0.799912 0.318318
O O18 0.332426 0.747310 0.535631
O O19 0.750000 0.684850 0.266526
O O20 0.750000 0.126574 0.998215
#
# Coordination Sequence:
#
# PCOD9404897 Si02
#       8
#     8   8   8   8   8   8   8   8
#     4  12  23  38  61  93 129 159 202 255 327 393
#     4  11  27  47  65  93 130 168 220 276 323 389
#     4  10  21  39  60  87 124 169 219 262 304 367
#     4  11  21  41  70  94 123 169 214 265 330 396
#     4  10  20  36  59  88 125 159 196 256 315 371
#     4   9  18  34  58  90 123 152 195 252 314 379
#     4  10  21  37  60  89 126 168 206 261 323 381
#     4  12  26  43  67  98 132 171 215 269 332 401
#
# _framework density 20.906188
#
# number of rings (size 3 to 8) (size 9 to 14) (size 15 to 20)
#    0.000    1.375    1.250    6.000    0.000    5.750 
#    9.000    0.625    0.000    7.125    0.000    0.000 
#    0.000    0.000    0.000    0.000    0.000    0.000 
#
# Total GULP energy -356821.067683 kJ/mol
# GULP energy per Si atom -5575.329183 kJ/mol
# Density = 2.085860 g / cm^3
# Si number density = 20.906188 Si / 1000 Ang^3
#
#
#
# Elastic Constant Matrix: (Units=GPa)
#
#
# Indices 1 2 3 4 5 6 
#
# 1 56.9998 9.3247 16.3185 0.0000 0.0000 0.0000
# 2 9.3247 54.9741 13.2571 0.0000 0.0000 0.0000
# 3 16.3185 13.2571 114.0105 0.0000 0.0000 0.0000
# 4 0.0000 0.0000 0.0000 24.0917 0.0000 0.0000
# 5 0.0000 0.0000 0.0000 0.0000 20.9924 0.0000
# 6 0.0000 0.0000 0.0000 0.0000 0.0000 -11.2924
#
#
#
# Elastic Compliance Matrix: (Units=1/GPa)
#
#
# Indices 1 2 3 4 5 6 
#
# 1 0.018646 -0.002592 -0.002367 0.000000 0.000000 0.000000
# 2 -0.002592 0.019075 -0.001847 0.000000 0.000000 0.000000
# 3 -0.002367 -0.001847 0.009325 0.000000 0.000000 0.000000
# 4 0.000000 0.000000 0.000000 0.041508 0.000000 0.000000
# 5 0.000000 0.000000 0.000000 0.000000 0.047636 0.000000
# 6 0.000000 0.000000 0.000000 0.000000 0.000000 -0.088555
#
#
# Mechanical properties :
#
#
# Convention : Reuss Voigt Hill
#
# Bulk Modulus (GPa) = 29.91032 33.75388 31.83210
# Shear Modulus (GPa) = 69.06853 19.23062 44.14957
#
# Velocity S-wave (km/s) = 5.75405 3.03620 4.60041
# Velocity P-wave (km/s) = 7.64745 5.33590 6.59375
#
# Compressibility (1/GPa) = 0.03343328
#
# Stress axis : x y z
#
# Youngs Moduli (GPa) = 53.63171 52.42339 107.24145
#
# Poissons Ratio (x) = 0.13587 0.25388
# Poissons Ratio (y) = 0.13900 0.19809
# Poissons Ratio (z) = 0.12697 0.09683
#
# Static dielectric constant tensor:
#      x y z
#    x 1.707010 0.000000 0.000000 
#    y 0.000000 1.727340 0.000000 
#    z 0.000000 0.000000 1.864570 
# 
# From -- ./inp_files/10089.got.cif
#   From: 2010.05.17/outbox.cif.g08.bks.cpg/sg51_6_cif.got.tgz:10089.got - 2010.06.03 11:52:47.
