data_PCOD9404917
_publ_section_title
;
Structure prediction by ZEFSAII (Michael W. Deem and Ramdas Pophale) SiO2 
 PCOD9404917
Probable space group: P M M A
;
_chemical_formula_sum "Si O2"
_cell_formula_units_Z 64
_cell_length_a 8.713424
_cell_length_b 24.384189
_cell_length_c 15.840756
_cell_angle_alpha 90.000000
_cell_angle_beta 90.000000
_cell_angle_gamma 90.000000
_cell_volume 3365.681905
_symmetry_space_group_name_H-M "P M M A"
_symmetry_group_IT_number 51
_symmetry_cell_setting 'orthorhombic'
loop_
_space_group_symop_operation_xyz
x,y,z
1/2-x,-y,z
1/2+x,-y,-z
-x,y,-z
-x,-y,-z
1/2+x,y,-z
1/2-x,y,z
x,-y,z
loop_
_atom_site_type_symbol
_atom_site_label
_atom_site_fract_x
_atom_site_fract_y
_atom_site_fract_z
Si Si1 0.933313 0.748984 0.648079
Si Si2 0.433744 0.751206 0.150907
Si Si3 0.434947 0.631088 0.089924
Si Si4 0.066533 0.134525 0.909941
Si Si5 0.565040 0.435663 0.743885
Si Si6 0.067345 0.633493 0.589563
Si Si7 0.434317 0.135394 0.589568
Si Si8 0.062940 0.937109 0.749917
O O1 0.750000 0.748488 0.635652
O O2 0.964048 0.749076 0.748736
O O3 0.004399 0.694457 0.608422
O O4 0.003870 0.803767 0.608803
O O5 0.250000 0.756669 0.139698
O O6 0.483266 0.693672 0.110104
O O7 0.514163 0.803682 0.110838
O O8 0.250000 0.630376 0.086506
O O9 0.482091 0.593198 0.168488
O O10 0.500000 0.613466 0.000000
O O11 0.250000 0.132758 0.913224
O O12 0.013059 0.095682 0.833299
O O13 0.000000 0.117573 0.000000
O O14 0.750000 0.429217 0.736486
O O15 0.529372 0.500000 0.744717
O O16 0.488785 0.405011 0.665477
O O17 0.250000 0.634625 0.585732
O O18 0.000000 0.614724 0.500000
O O19 0.500000 0.116682 0.500000
O O20 0.250000 0.136626 0.586636
O O21 0.483622 0.096057 0.666398
O O22 0.250000 0.937345 0.750576
O O23 0.011150 0.000000 0.749424
#
# Coordination Sequence:
#
# PCOD9404917 Si02
#       8
#     8   8   8   8   8   8   8   8
#     4  11  21  38  63  90 123 157 194 241 297 357
#     4  10  20  36  60  87 120 155 192 240 297 355
#     4  10  21  38  59  89 121 157 197 240 295 351
#     4  11  22  37  59  87 118 153 197 241 295 355
#     4  10  22  43  66  87 119 162 206 252 301 350
#     4  12  25  41  64  92 124 158 199 246 298 359
#     4  11  22  38  60  89 120 155 197 241 295 354
#     4   9  20  39  60  82 114 156 200 247 296 350
#
# _framework density 19.015463
#
# number of rings (size 3 to 8) (size 9 to 14) (size 15 to 20)
#    0.000    1.500    2.500    3.000    0.000    3.750 
#    0.000    0.000    0.000    5.250    0.000    0.000 
#    0.000    0.000    0.000    0.000    0.000    0.000 
#
# Total GULP energy -357813.803955 kJ/mol
# GULP energy per Si atom -5590.840687 kJ/mol
# Density = 1.897218 g / cm^3
# Si number density = 19.015463 Si / 1000 Ang^3
#
#
#
# Elastic Constant Matrix: (Units=GPa)
#
#
# Indices 1 2 3 4 5 6 
#
# 1 44.9267 41.9439 58.9047 0.0000 0.0000 0.0000
# 2 41.9439 138.5160 91.3236 0.0000 0.0000 0.0000
# 3 58.9047 91.3236 199.5110 0.0000 0.0000 0.0000
# 4 0.0000 0.0000 0.0000 -3.0201 0.0000 0.0000
# 5 0.0000 0.0000 0.0000 0.0000 28.1192 0.0000
# 6 0.0000 0.0000 0.0000 0.0000 0.0000 -51.1324
#
#
#
# Elastic Compliance Matrix: (Units=1/GPa)
#
#
# Indices 1 2 3 4 5 6 
#
# 1 0.039659 -0.006143 -0.008897 0.000000 0.000000 0.000000
# 2 -0.006143 0.011291 -0.003355 0.000000 0.000000 0.000000
# 3 -0.008897 -0.003355 0.009175 0.000000 0.000000 0.000000
# 4 0.000000 0.000000 0.000000 -0.331120 0.000000 0.000000
# 5 0.000000 0.000000 0.000000 0.000000 0.035563 0.000000
# 6 0.000000 0.000000 0.000000 0.000000 0.000000 -0.019557
#
#
# Mechanical properties :
#
#
# Convention : Reuss Voigt Hill
#
# Bulk Modulus (GPa) = 42.85419 85.25533 64.05476
# Shear Modulus (GPa) = -23.76194 7.51212 -8.12491
#
# Velocity S-wave (km/s) = -3.53882 1.98975 -2.06932
# Velocity P-wave (km/s) = 2.42647 7.08596 5.29616
#
# Compressibility (1/GPa) = 0.02333494
#
# Stress axis : x y z
#
# Youngs Moduli (GPa) = 25.21485 88.56321 108.99552
#
# Poissons Ratio (x) = 0.54406 0.96976
# Poissons Ratio (y) = 0.15490 0.36565
# Poissons Ratio (z) = 0.22434 0.29710
#
# Static dielectric constant tensor:
#      x y z
#    x 1.643790 0.000000 0.000000 
#    y 0.000000 1.631260 0.000000 
#    z 0.000000 0.000000 1.654130 
# 
# From -- ./inp_files/22348.got.cif
#   From: 2010.05.17/outbox.cif.g08.bks.cpg/sg51_12_cif.got.tgz:22348.got - 2010.06.03 11:52:47.
