data_PCOD9404481
_publ_section_title
;
Structure prediction by ZEFSAII (Michael W. Deem and Ramdas Pophale) SiO2 
 PCOD9404481
Probable space group: P M M A
;
_chemical_formula_sum "Si O2"
_cell_formula_units_Z 36
_cell_length_a 9.310360
_cell_length_b 7.739143
_cell_length_c 25.650667
_cell_angle_alpha 90.000000
_cell_angle_beta 90.000000
_cell_angle_gamma 90.000000
_cell_volume 1848.238481
_symmetry_space_group_name_H-M "P M M A"
_symmetry_group_IT_number 51
_symmetry_cell_setting 'orthorhombic'
loop_
_space_group_symop_operation_xyz
x,y,z
1/2-x,-y,z
1/2+x,-y,-z
-x,y,-z
-x,-y,-z
1/2+x,y,-z
1/2-x,y,z
x,-y,z
loop_
_atom_site_type_symbol
_atom_site_label
_atom_site_fract_x
_atom_site_fract_y
_atom_site_fract_z
Si Si1 0.923576 0.000000 0.056109
Si Si2 0.583403 0.291479 0.334938
Si Si3 0.412952 0.797053 0.231904
Si Si4 0.417518 0.289191 0.550955
Si Si5 0.578365 0.696488 0.882031
O O1 0.983504 0.167409 0.086704
O O2 0.750000 0.000000 0.052594
O O3 0.000000 0.000000 0.000000
O O4 0.750000 0.239280 0.331988
O O5 0.578645 0.500000 0.334589
O O6 0.502106 0.229568 0.284061
O O7 0.527051 0.233916 0.391902
O O8 0.250000 0.738695 0.242197
O O9 0.463072 0.705389 0.179146
O O10 0.411645 0.000000 0.219333
O O11 0.500000 0.226353 0.500000
O O12 0.250000 0.242671 0.547612
O O13 0.424204 0.500000 0.550518
O O14 0.750000 0.740643 0.884928
O O15 0.561259 0.500000 0.900836
#
# Coordination Sequence:
#
# PCOD9404481 Si02
#       5
#     4   8   8   8   8
#     4  12  26  44  68  96 132 170 207 252 297 350
#     4   9  18  31  47  72 106 139 176 226 284 347
#     4  10  20  35  56  81 112 148 189 236 287 345
#     4   8  14  25  41  63  93 129 169 219 278 338
#     4  10  21  41  68  94 125 165 207 253 304 357
#
# _framework density 19.478003999999999
#
# number of rings (size 3 to 8) (size 9 to 14) (size 15 to 20)
#    0.000    2.444    1.111    3.000    0.000    4.444 
#    0.000    2.222    0.000    0.667    0.000    0.000 
#    0.000    0.000    0.000    0.000    0.000    0.000 
#
# Total GULP energy -200835.395291 kJ/mol
# GULP energy per Si atom -5578.760980 kJ/mol
# Density = 1.943367 g / cm^3
# Si number density = 19.478004 Si / 1000 Ang^3
#
#
#
# Elastic Constant Matrix: (Units=GPa)
#
#
# Indices 1 2 3 4 5 6 
#
# 1 78.7304 39.4465 77.0537 0.0000 0.0000 0.0000
# 2 39.4465 71.7168 46.8881 0.0000 0.0000 0.0000
# 3 77.0537 46.8881 157.3909 0.0000 0.0000 0.0000
# 4 0.0000 0.0000 0.0000 22.8851 0.0000 0.0000
# 5 0.0000 0.0000 0.0000 0.0000 39.2324 0.0000
# 6 0.0000 0.0000 0.0000 0.0000 0.0000 18.7367
#
#
#
# Elastic Compliance Matrix: (Units=1/GPa)
#
#
# Indices 1 2 3 4 5 6 
#
# 1 0.027550 -0.007868 -0.011144 0.000000 0.000000 0.000000
# 2 -0.007868 0.019563 -0.001976 0.000000 0.000000 0.000000
# 3 -0.011144 -0.001976 0.012398 0.000000 0.000000 0.000000
# 4 0.000000 0.000000 0.000000 0.043696 0.000000 0.000000
# 5 0.000000 0.000000 0.000000 0.000000 0.025489 0.000000
# 6 0.000000 0.000000 0.000000 0.000000 0.000000 0.053371
#
#
# Mechanical properties :
#
#
# Convention : Reuss Voigt Hill
#
# Bulk Modulus (GPa) = 57.02612 70.51275 63.76943
# Shear Modulus (GPa) = 21.74966 25.80084 23.77525
#
# Velocity S-wave (km/s) = 3.34522 3.64347 3.49753
# Velocity P-wave (km/s) = 6.65293 7.34709 7.00861
#
# Compressibility (1/GPa) = 0.01753583
#
# Stress axis : x y z
#
# Youngs Moduli (GPa) = 36.29770 51.11617 80.65812
#
# Poissons Ratio (x) = 0.40216 0.89883
# Poissons Ratio (y) = 0.28558 0.15941
# Poissons Ratio (z) = 0.40449 0.10102
#
# Static dielectric constant tensor:
#      x y z
#    x 1.656140 0.000000 0.000000 
#    y 0.000000 1.720900 0.000000 
#    z 0.000000 0.000000 1.684250 
# 
# From -- ./inp_files/34314.got.cif
#   From: 2010.05.17/outbox.cif.g08.bks.cpg/sg51_18_cif.got.tgz:34314.got - 2010.06.03 11:52:47.
