data_PCOD9404607
_publ_section_title
;
Structure prediction by ZEFSAII (Michael W. Deem and Ramdas Pophale) SiO2 
 PCOD9404607
Probable space group: P M M A
;
_chemical_formula_sum "Si O2"
_cell_formula_units_Z 44
_cell_length_a 9.459500
_cell_length_b 7.876994
_cell_length_c 30.772866
_cell_angle_alpha 90.000000
_cell_angle_beta 90.000000
_cell_angle_gamma 90.000000
_cell_volume 2292.960862
_symmetry_space_group_name_H-M "P M M A"
_symmetry_group_IT_number 51
_symmetry_cell_setting 'orthorhombic'
loop_
_space_group_symop_operation_xyz
x,y,z
1/2-x,-y,z
1/2+x,-y,-z
-x,y,-z
-x,-y,-z
1/2+x,y,-z
1/2-x,y,z
x,-y,z
loop_
_atom_site_type_symbol
_atom_site_label
_atom_site_fract_x
_atom_site_fract_y
_atom_site_fract_z
Si Si1 0.914106 0.793511 0.695865
Si Si2 0.580967 0.000000 0.454745
Si Si3 0.088239 0.297837 0.136727
Si Si4 0.089871 0.203136 0.779465
Si Si5 0.417030 0.694167 0.610127
Si Si6 0.088826 0.795407 0.040976
O O1 0.750000 0.742835 0.697485
O O2 0.997612 0.734171 0.738754
O O3 0.991672 0.726549 0.653067
O O4 0.918657 0.000000 0.694526
O O5 0.500000 0.000000 0.500000
O O6 0.546065 0.166322 0.426077
O O7 0.750000 0.000000 0.462127
O O8 0.250000 0.230181 0.140985
O O9 0.095097 0.500000 0.139060
O O10 0.033678 0.249739 0.088814
O O11 0.990167 0.236912 0.175611
O O12 0.250000 0.270970 0.779363
O O13 0.098502 0.000000 0.774500
O O14 0.250000 0.717586 0.620591
O O15 0.436498 0.500000 0.595224
O O16 0.250000 0.731819 0.038559
O O17 0.092194 0.000000 0.038425
O O18 0.000000 0.732031 0.000000
#
# Coordination Sequence:
#
# PCOD9404607 Si02
#       6
#     8   4   8   8   8   8
#     4  10  20  35  58  86 115 149 190 236 287 341
#     4  10  22  40  62  88 122 160 200 248 295 346
#     4  10  21  36  53  75 106 142 179 222 272 326
#     4  10  21  36  56  81 109 145 187 229 275 329
#     4  10  21  38  61  88 119 158 200 243 294 348
#     4   9  18  33  53  75  99 130 170 217 267 322
#
# _framework density 19.189163000000001
#
# number of rings (size 3 to 8) (size 9 to 14) (size 15 to 20)
#    0.000    2.182    0.909    1.636    0.000    6.182 
#    0.000    1.818    0.000    0.000    0.000    0.000 
#    0.000    0.000    0.000    0.000    0.000    0.000 
#
# Total GULP energy -245676.870422 kJ/mol
# GULP energy per Si atom -5583.565237 kJ/mol
# Density = 1.914549 g / cm^3
# Si number density = 19.189163 Si / 1000 Ang^3
#
#
#
# Elastic Constant Matrix: (Units=GPa)
#
#
# Indices 1 2 3 4 5 6 
#
# 1 109.8170 40.6560 107.5221 0.0000 0.0000 0.0000
# 2 40.6560 56.9757 45.2579 0.0000 0.0000 0.0000
# 3 107.5221 45.2579 200.0731 0.0000 0.0000 0.0000
# 4 0.0000 0.0000 0.0000 -20.6910 0.0000 0.0000
# 5 0.0000 0.0000 0.0000 0.0000 41.6242 0.0000
# 6 0.0000 0.0000 0.0000 0.0000 0.0000 17.3456
#
#
#
# Elastic Compliance Matrix: (Units=1/GPa)
#
#
# Indices 1 2 3 4 5 6 
#
# 1 0.021587 -0.007544 -0.009894 0.000000 0.000000 0.000000
# 2 -0.007544 0.024032 -0.001382 0.000000 0.000000 0.000000
# 3 -0.009894 -0.001382 0.010628 0.000000 0.000000 0.000000
# 4 0.000000 0.000000 0.000000 -0.048330 0.000000 0.000000
# 5 0.000000 0.000000 0.000000 0.000000 0.024024 0.000000
# 6 0.000000 0.000000 0.000000 0.000000 0.000000 0.057651
#
#
# Mechanical properties :
#
#
# Convention : Reuss Voigt Hill
#
# Bulk Modulus (GPa) = 53.74550 83.74864 68.74707
# Shear Modulus (GPa) = 37.47117 19.21776 28.34447
#
# Velocity S-wave (km/s) = 4.42376 3.16807 3.84749
# Velocity P-wave (km/s) = 7.35948 7.55782 7.45931
#
# Compressibility (1/GPa) = 0.01860621
#
# Stress axis : x y z
#
# Youngs Moduli (GPa) = 46.32491 41.61068 94.08907
#
# Poissons Ratio (x) = 0.31391 0.93096
# Poissons Ratio (y) = 0.34947 0.13003
# Poissons Ratio (z) = 0.45836 0.05751
#
# Static dielectric constant tensor:
#      x y z
#    x 1.668730 0.000000 0.000000 
#    y 0.000000 1.690400 0.000000 
#    z 0.000000 0.000000 1.625230 
# 
# From -- ./inp_files/36794.got.cif
#   From: 2010.05.17/outbox.cif.g08.bks.cpg/sg51_19_cif.got.tgz:36794.got - 2010.06.03 11:52:47.
