data_PCOD9404161
_publ_section_title
;
Structure prediction by ZEFSAII (Michael W. Deem and Ramdas Pophale) SiO2 
 PCOD9404161
Probable space group: P M M A
;
_chemical_formula_sum "Si O2"
_cell_formula_units_Z 48
_cell_length_a 15.429553
_cell_length_b 7.610394
_cell_length_c 19.266156
_cell_angle_alpha 90.000000
_cell_angle_beta 90.000000
_cell_angle_gamma 90.000000
_cell_volume 2262.327936
_symmetry_space_group_name_H-M "P M M A"
_symmetry_group_IT_number 51
_symmetry_cell_setting 'orthorhombic'
loop_
_space_group_symop_operation_xyz
x,y,z
1/2-x,-y,z
1/2+x,-y,-z
-x,y,-z
-x,-y,-z
1/2+x,y,-z
1/2-x,y,z
x,-y,z
loop_
_atom_site_type_symbol
_atom_site_label
_atom_site_fract_x
_atom_site_fract_y
_atom_site_fract_z
Si Si1 0.903818 0.791021 0.007944
Si Si2 0.750000 0.788217 0.750045
Si Si3 0.105668 0.293850 0.360310
Si Si4 0.250000 0.204736 0.626819
Si Si5 0.250000 0.784344 0.090145
Si Si6 0.929337 0.706282 0.301187
Si Si7 0.750000 0.285998 0.534962
Si Si8 0.151974 0.712501 0.836066
O O1 0.834005 0.723276 0.952745
O O2 0.908663 0.000000 0.995514
O O3 0.872157 0.764468 0.086336
O O4 0.000000 0.716414 0.000000
O O5 0.666111 0.723942 0.707676
O O6 0.750000 0.730291 0.829819
O O7 0.750000 0.000000 0.748124
O O8 0.094109 0.500000 0.376760
O O9 0.164987 0.222196 0.422921
O O10 0.011201 0.217626 0.342860
O O11 0.338333 0.281152 0.658702
O O12 0.250000 0.231655 0.544379
O O13 0.250000 0.000000 0.643444
O O14 0.250000 0.000000 0.089489
O O15 0.949443 0.500000 0.292073
O O16 0.912006 0.779179 0.224003
O O17 0.750000 0.500000 0.537865
O O18 0.250000 0.771659 0.820512
O O19 0.151958 0.500000 0.833191
#
# Coordination Sequence:
#
# PCOD9404161 Si02
#       8
#     8   4   8   4   4   8   4   8
#     4  10  21  36  55  77 107 150 193 230 274 334
#     4  10  20  34  56  82 116 150 182 238 296 336
#     4   9  20  39  63  87 110 147 196 231 272 339
#     4  12  25  38  57  89 121 150 187 230 278 340
#     4   9  19  35  49  73 109 145 186 229 278 330
#     4  10  21  40  62  84 115 152 189 235 284 334
#     4   9  19  39  62  84 114 149 187 229 274 332
#     4  10  20  36  57  81 110 144 183 234 289 331
#
# _framework density 21.217082000000001
#
# number of rings (size 3 to 8) (size 9 to 14) (size 15 to 20)
#    0.000    2.167    1.667    1.500    2.333    3.667 
#    0.000    5.000    0.000    0.000    0.000    0.000 
#    0.000    0.000    0.000    0.000    0.000    0.000 
#
# Total GULP energy -268000.064697 kJ/mol
# GULP energy per Si atom -5583.334681 kJ/mol
# Density = 2.116879 g / cm^3
# Si number density = 21.217082 Si / 1000 Ang^3
#
#
#
# Elastic Constant Matrix: (Units=GPa)
#
#
# Indices 1 2 3 4 5 6 
#
# 1 109.5426 -19.2674 14.6780 0.0000 0.0000 0.0000
# 2 -19.2674 38.7935 -30.7871 0.0000 0.0000 0.0000
# 3 14.6780 -30.7871 102.7625 0.0000 0.0000 0.0000
# 4 0.0000 0.0000 0.0000 28.2474 0.0000 0.0000
# 5 0.0000 0.0000 0.0000 0.0000 19.5288 0.0000
# 6 0.0000 0.0000 0.0000 0.0000 0.0000 84.1474
#
#
#
# Elastic Compliance Matrix: (Units=1/GPa)
#
#
# Indices 1 2 3 4 5 6 
#
# 1 0.010003 0.005030 0.000078 0.000000 0.000000 0.000000
# 2 0.005030 0.036348 0.010171 0.000000 0.000000 0.000000
# 3 0.000078 0.010171 0.012767 0.000000 0.000000 0.000000
# 4 0.000000 0.000000 0.000000 0.035402 0.000000 0.000000
# 5 0.000000 0.000000 0.000000 0.000000 0.051206 0.000000
# 6 0.000000 0.000000 0.000000 0.000000 0.000000 0.011884
#
#
# Mechanical properties :
#
#
# Convention : Reuss Voigt Hill
#
# Bulk Modulus (GPa) = 11.15103 20.03840 15.59471
# Shear Modulus (GPa) = 31.85864 45.48303 38.67083
#
# Velocity S-wave (km/s) = 3.87920 4.63503 4.27386
# Velocity P-wave (km/s) = 5.03302 6.17330 5.63209
#
# Compressibility (1/GPa) = 0.08967781
#
# Stress axis : x y z
#
# Youngs Moduli (GPa) = 99.96835 27.51189 78.32554
#
# Poissons Ratio (x) = -0.13839 -0.00613
# Poissons Ratio (y) = -0.50287 -0.79666
# Poissons Ratio (z) = -0.00782 -0.27983
#
# Static dielectric constant tensor:
#      x y z
#    x 1.769090 0.000000 0.000000 
#    y 0.000000 1.804530 0.000000 
#    z 0.000000 0.000000 1.731710 
# 
# From -- ./inp_files/29695.got.cif
#   From: 2010.05.17/outbox.cif.g08.bks.cpg/sg51_15_cif.got.tgz:29695.got - 2010.06.03 11:52:47.
