data_PCOD9404354
_publ_section_title
;
Structure prediction by ZEFSAII (Michael W. Deem and Ramdas Pophale) SiO2 
 PCOD9404354
Probable space group: P M M A
;
_chemical_formula_sum "Si O2"
_cell_formula_units_Z 64
_cell_length_a 19.042753
_cell_length_b 9.526188
_cell_length_c 20.670166
_cell_angle_alpha 90.000000
_cell_angle_beta 90.000000
_cell_angle_gamma 90.000000
_cell_volume 3749.668262
_symmetry_space_group_name_H-M "P M M A"
_symmetry_group_IT_number 51
_symmetry_cell_setting 'orthorhombic'
loop_
_space_group_symop_operation_xyz
x,y,z
1/2-x,-y,z
1/2+x,-y,-z
-x,y,-z
-x,-y,-z
1/2+x,y,-z
1/2-x,y,z
x,-y,z
loop_
_atom_site_type_symbol
_atom_site_label
_atom_site_fract_x
_atom_site_fract_y
_atom_site_fract_z
Si Si1 0.065725 0.667881 0.820603
Si Si2 0.835449 0.160957 0.421101
Si Si3 0.422559 0.167232 0.201421
Si Si4 0.666030 0.166369 0.273867
Si Si5 0.667290 0.833915 0.670311
Si Si6 0.831602 0.167252 0.926623
Si Si7 0.664378 0.339058 0.543684
Si Si8 0.422764 0.333084 0.972906
O O1 0.062735 0.500000 0.811673
O O2 0.124994 0.738704 0.776565
O O3 0.079853 0.695635 0.896557
O O4 0.992236 0.740645 0.802471
O O5 0.750000 0.161623 0.421565
O O6 0.855736 0.200324 0.347960
O O7 0.859685 0.261638 0.478393
O O8 0.857104 0.000000 0.433295
O O9 0.378302 0.195644 0.266265
O O10 0.374778 0.197675 0.138719
O O11 0.439425 0.000000 0.200561
O O12 0.750000 0.185802 0.268681
O O13 0.651898 0.000000 0.263734
O O14 0.750000 0.805225 0.683099
O O15 0.644346 0.745371 0.608059
O O16 0.661668 0.000000 0.655673
O O17 0.750000 0.203502 0.918248
O O18 0.836406 0.000000 0.937908
O O19 0.866044 0.249106 0.985937
O O20 0.750000 0.337613 0.542333
O O21 0.641498 0.500000 0.545912
O O22 0.413366 0.500000 0.982712
O O23 0.500000 0.295629 0.000000
#
# Coordination Sequence:
#
# PCOD9404354 Si02
#       8
#     8   8   8   8   8   8   8   8
#     4  11  23  37  56  79 106 141 179 217 260 315
#     4   8  14  27  48  72  99 133 171 211 258 313
#     4  10  20  35  55  77 105 141 179 218 263 315
#     4   9  19  36  57  81 108 137 173 219 268 318
#     4   9  17  30  49  73 103 139 177 218 263 312
#     4  10  21  36  57  86 112 135 173 225 273 314
#     4   9  16  25  41  70 105 138 173 214 259 307
#     4  10  21  39  57  75 105 143 181 216 257 317
#
# _framework density 17.068176000000001
#
# number of rings (size 3 to 8) (size 9 to 14) (size 15 to 20)
#    0.000    2.500    1.250    1.875    0.000    6.250 
#    0.000    3.750    0.000    3.000    0.000    5.250 
#    0.000    0.000    0.000    0.000    0.000    0.000 
#
# Total GULP energy -356955.614587 kJ/mol
# GULP energy per Si atom -5577.431478 kJ/mol
# Density = 1.702933 g / cm^3
# Si number density = 17.068176 Si / 1000 Ang^3
#
#
#
# Elastic Constant Matrix: (Units=GPa)
#
#
# Indices 1 2 3 4 5 6 
#
# 1 64.6622 53.7635 60.6170 0.0000 0.0000 0.0000
# 2 53.7635 81.6730 97.8132 0.0000 0.0000 0.0000
# 3 60.6170 97.8132 162.6880 0.0000 0.0000 0.0000
# 4 0.0000 0.0000 0.0000 21.0407 0.0000 0.0000
# 5 0.0000 0.0000 0.0000 0.0000 9.3519 0.0000
# 6 0.0000 0.0000 0.0000 0.0000 0.0000 20.7964
#
#
#
# Elastic Compliance Matrix: (Units=1/GPa)
#
#
# Indices 1 2 3 4 5 6 
#
# 1 0.034532 -0.026156 0.002859 0.000000 0.000000 0.000000
# 2 -0.026156 0.063548 -0.028461 0.000000 0.000000 0.000000
# 3 0.002859 -0.028461 0.022193 0.000000 0.000000 0.000000
# 4 0.000000 0.000000 0.000000 0.047527 0.000000 0.000000
# 5 0.000000 0.000000 0.000000 0.000000 0.106931 0.000000
# 6 0.000000 0.000000 0.000000 0.000000 0.000000 0.048085
#
#
# Mechanical properties :
#
#
# Convention : Reuss Voigt Hill
#
# Bulk Modulus (GPa) = 59.67679 81.49005 70.58342
# Shear Modulus (GPa) = 11.57629 16.69308 14.13468
#
# Velocity S-wave (km/s) = 2.60713 3.13073 2.88085
# Velocity P-wave (km/s) = 6.64097 7.80488 7.24633
#
# Compressibility (1/GPa) = 0.01675693
#
# Stress axis : x y z
#
# Youngs Moduli (GPa) = 28.95854 15.73622 45.05906
#
# Poissons Ratio (x) = 0.41160 -0.12884
# Poissons Ratio (y) = 0.75745 1.28243
# Poissons Ratio (z) = -0.08280 0.44787
#
# Static dielectric constant tensor:
#      x y z
#    x 1.562910 0.000000 0.000000 
#    y 0.000000 1.565330 0.000000 
#    z 0.000000 0.000000 1.562330 
# 
# From -- ./inp_files/33752.got.cif
#   From: 2010.05.17/outbox.cif.g08.bks.cpg/sg51_17_cif.got.tgz:33752.got - 2010.06.03 11:52:47.
