data_PCOD9404950
_publ_section_title
;
Structure prediction by ZEFSAII (Michael W. Deem and Ramdas Pophale) SiO2 
 PCOD9404950
Probable space group: P M M A
;
_chemical_formula_sum "Si O2"
_cell_formula_units_Z 56
_cell_length_a 16.104030
_cell_length_b 8.833816
_cell_length_c 20.409178
_cell_angle_alpha 90.000000
_cell_angle_beta 90.000000
_cell_angle_gamma 90.000000
_cell_volume 2903.410435
_symmetry_space_group_name_H-M "P M M A"
_symmetry_group_IT_number 51
_symmetry_cell_setting 'orthorhombic'
loop_
_space_group_symop_operation_xyz
x,y,z
1/2-x,-y,z
1/2+x,-y,-z
-x,y,-z
-x,-y,-z
1/2+x,y,-z
1/2-x,y,z
x,-y,z
loop_
_atom_site_type_symbol
_atom_site_label
_atom_site_fract_x
_atom_site_fract_y
_atom_site_fract_z
Si Si1 0.489660 0.319677 0.923687
Si Si2 0.567398 0.676998 0.294188
Si Si3 0.002961 0.823939 0.574104
Si Si4 0.877928 0.332783 0.753187
Si Si5 0.846629 0.818206 0.169803
Si Si6 0.341043 0.175815 0.124205
Si Si7 0.158884 0.329901 0.395677
O O1 0.479058 0.500000 0.918629
O O2 0.413373 0.245516 0.883200
O O3 0.578644 0.269638 0.895938
O O4 0.500000 0.277173 0.000000
O O5 0.589098 0.500000 0.299394
O O6 0.555446 0.744764 0.367553
O O7 0.476015 0.686185 0.260699
O O8 0.627531 0.758964 0.242360
O O9 0.000000 0.760481 0.500000
O O10 0.906920 0.799606 0.591834
O O11 0.026700 0.000000 0.571948
O O12 0.864261 0.500000 0.783592
O O13 0.842691 0.202038 0.798007
O O14 0.837262 0.335722 0.682504
O O15 0.750000 0.776436 0.155824
O O16 0.852657 0.000000 0.169180
O O17 0.250000 0.225073 0.099114
O O18 0.351954 0.000000 0.107401
O O19 0.250000 0.304883 0.423956
O O20 0.129281 0.500000 0.415835
#
# Coordination Sequence:
#
# PCOD9404950 Si02
#       7
#     8   8   8   8   8   8   8
#     4  11  25  44  65  89 120 162 209 256 309 370
#     4  10  20  36  61  89 118 157 202 250 303 360
#     4  10  21  36  55  81 116 159 202 247 304 366
#     4   9  17  31  53  81 113 147 182 226 283 345
#     4  11  24  42  67  97 127 163 209 264 323 380
#     4  11  23  36  55  86 121 156 193 236 292 357
#     4   9  18  32  51  77 108 143 185 233 285 345
#
# _framework density 19.287661
#
# number of rings (size 3 to 8) (size 9 to 14) (size 15 to 20)
#    0.000    1.857    1.429    3.429    0.000    8.286 
#    0.000    3.571    0.000    0.857    0.000    0.000 
#    0.000    0.000    0.000    0.000    0.000    0.000 
#
# Total GULP energy -311935.151870 kJ/mol
# GULP energy per Si atom -5570.270569 kJ/mol
# Density = 1.924376 g / cm^3
# Si number density = 19.287661 Si / 1000 Ang^3
#
#
#
# Elastic Constant Matrix: (Units=GPa)
#
#
# Indices 1 2 3 4 5 6 
#
# 1 106.1218 27.7417 48.4376 0.0000 0.0000 0.0000
# 2 27.7417 46.1495 41.2803 0.0000 0.0000 0.0000
# 3 48.4376 41.2803 112.3295 0.0000 0.0000 0.0000
# 4 0.0000 0.0000 0.0000 297.7626 0.0000 0.0000
# 5 0.0000 0.0000 0.0000 0.0000 -1.4963 0.0000
# 6 0.0000 0.0000 0.0000 0.0000 0.0000 56.4519
#
#
#
# Elastic Compliance Matrix: (Units=1/GPa)
#
#
# Indices 1 2 3 4 5 6 
#
# 1 0.012188 -0.003911 -0.003818 0.000000 0.000000 0.000000
# 2 -0.003911 0.033535 -0.010637 0.000000 0.000000 0.000000
# 3 -0.003818 -0.010637 0.014458 0.000000 0.000000 0.000000
# 4 0.000000 0.000000 0.000000 0.003358 0.000000 0.000000
# 5 0.000000 0.000000 0.000000 0.000000 -0.668297 0.000000
# 6 0.000000 0.000000 0.000000 0.000000 0.000000 0.017714
#
#
# Mechanical properties :
#
#
# Convention : Reuss Voigt Hill
#
# Bulk Modulus (GPa) = 42.64860 55.50221 49.07540
# Shear Modulus (GPa) = -9.21670 80.35305 35.56817
#
# Velocity S-wave (km/s) = -2.18836 6.46148 4.29895
# Velocity P-wave (km/s) = 3.97173 9.19273 7.08099
#
# Compressibility (1/GPa) = 0.02344743
#
# Stress axis : x y z
#
# Youngs Moduli (GPa) = 82.04492 29.81989 69.16581
#
# Poissons Ratio (x) = 0.11663 0.26410
# Poissons Ratio (y) = 0.32090 0.73573
# Poissons Ratio (z) = 0.31328 0.31720
#
# Static dielectric constant tensor:
#      x y z
#    x 1.722610 0.000000 0.000000 
#    y 0.000000 1.681180 0.000000 
#    z 0.000000 0.000000 1.745910 
# 
# From -- ./inp_files/33485.got.cif
#   From: 2010.05.17/outbox.cif.g08.bks.cpg/sg51_17_cif.got.tgz:33485.got - 2010.06.03 11:52:47.
