data_PCOD9404177
_publ_section_title
;
Structure prediction by ZEFSAII (Michael W. Deem and Ramdas Pophale) SiO2 
 PCOD9404177
Probable space group: P M M A
;
_chemical_formula_sum "Si O2"
_cell_formula_units_Z 40
_cell_length_a 15.857150
_cell_length_b 8.697120
_cell_length_c 15.782120
_cell_angle_alpha 90.000000
_cell_angle_beta 90.000000
_cell_angle_gamma 90.000000
_cell_volume 2176.536417
_symmetry_space_group_name_H-M "P M M A"
_symmetry_group_IT_number 51
_symmetry_cell_setting 'orthorhombic'
loop_
_space_group_symop_operation_xyz
x,y,z
1/2-x,-y,z
1/2+x,-y,-z
-x,y,-z
-x,-y,-z
1/2+x,y,-z
1/2-x,y,z
x,-y,z
loop_
_atom_site_type_symbol
_atom_site_label
_atom_site_fract_x
_atom_site_fract_y
_atom_site_fract_z
Si Si1 0.750000 0.184594 0.160806
Si Si2 0.750000 0.816997 0.962399
Si Si3 0.158263 0.170432 0.304635
Si Si4 0.508807 0.822353 0.405990
Si Si5 0.424748 0.684863 0.768007
Si Si6 0.902717 0.322131 0.855415
O O1 0.835351 0.251157 0.201516
O O2 0.750000 0.000000 0.169417
O O3 0.750000 0.224320 0.061222
O O4 0.663015 0.756036 0.919914
O O5 0.750000 0.000000 0.953414
O O6 0.250000 0.184558 0.342941
O O7 0.143239 0.298676 0.234712
O O8 0.086472 0.174542 0.372898
O O9 0.152966 0.000000 0.262037
O O10 0.500000 0.753890 0.500000
O O11 0.557062 0.740593 0.328392
O O12 0.539693 0.000000 0.413028
O O13 0.425309 0.500000 0.769443
O O14 0.502406 0.736740 0.830959
O O15 0.910438 0.500000 0.879387
#
# Coordination Sequence:
#
# PCOD9404177 Si02
#       6
#     4   4   8   8   8   8
#     4  11  25  43  61  82 111 154 199 235 280 343
#     4  11  23  37  57  86 117 148 189 239 284 335
#     4   9  16  28  49  76 108 144 180 223 276 328
#     4   9  18  34  55  82 114 148 189 233 277 332
#     4  10  22  40  61  84 116 153 190 237 292 343
#     4  10  20  34  56  85 114 147 184 229 284 338
#
# _framework density 18.377821999999998
#
# number of rings (size 3 to 8) (size 9 to 14) (size 15 to 20)
#    0.000    2.200    1.000    1.800    0.000    5.200 
#    1.800    4.000    0.000    0.000    0.000    0.000 
#    0.000    0.000    0.000    0.000    0.000    0.000 
#
# Total GULP energy -222684.781132 kJ/mol
# GULP energy per Si atom -5567.119528 kJ/mol
# Density = 1.833599 g / cm^3
# Si number density = 18.377822 Si / 1000 Ang^3
#
#
#
# Elastic Constant Matrix: (Units=GPa)
#
#
# Indices 1 2 3 4 5 6 
#
# 1 152.9289 40.5975 80.4146 0.0000 0.0000 0.0000
# 2 40.5975 41.3773 37.1182 0.0000 0.0000 0.0000
# 3 80.4146 37.1182 125.6148 0.0000 0.0000 0.0000
# 4 0.0000 0.0000 0.0000 -20.8538 0.0000 0.0000
# 5 0.0000 0.0000 0.0000 0.0000 -11.3576 0.0000
# 6 0.0000 0.0000 0.0000 0.0000 0.0000 8.9378
#
#
#
# Elastic Compliance Matrix: (Units=1/GPa)
#
#
# Indices 1 2 3 4 5 6 
#
# 1 0.010854 -0.006009 -0.005173 0.000000 0.000000 0.000000
# 2 -0.006009 0.036212 -0.006853 0.000000 0.000000 0.000000
# 3 -0.005173 -0.006853 0.013297 0.000000 0.000000 0.000000
# 4 0.000000 0.000000 0.000000 -0.047953 0.000000 0.000000
# 5 0.000000 0.000000 0.000000 0.000000 -0.088047 0.000000
# 6 0.000000 0.000000 0.000000 0.000000 0.000000 0.111884
#
#
# Mechanical properties :
#
#
# Convention : Reuss Voigt Hill
#
# Bulk Modulus (GPa) = 41.16491 70.68685 55.92588
# Shear Modulus (GPa) = 62.17617 6.13133 34.15375
#
# Velocity S-wave (km/s) = 5.82285 1.82853 4.31562
# Velocity P-wave (km/s) = 8.22529 6.55779 7.43841
#
# Compressibility (1/GPa) = 0.02429254
#
# Stress axis : x y z
#
# Youngs Moduli (GPa) = 92.12917 27.61525 75.20237
#
# Poissons Ratio (x) = 0.16595 0.38901
# Poissons Ratio (y) = 0.55364 0.51539
# Poissons Ratio (z) = 0.47657 0.18926
#
# Static dielectric constant tensor:
#      x y z
#    x 1.655830 0.000000 0.000000 
#    y 0.000000 1.673610 0.000000 
#    z 0.000000 0.000000 1.619670 
# 
# From -- ./inp_files/23831.got.cif
#   From: 2010.05.17/outbox.cif.g08.bks.cpg/sg51_12_cif.got.tgz:23831.got - 2010.06.03 11:52:47.
