data_PCOD9404276
_publ_section_title
;
Structure prediction by ZEFSAII (Michael W. Deem and Ramdas Pophale) SiO2 
 PCOD9404276
Probable space group: P M M A
;
_chemical_formula_sum "Si O2"
_cell_formula_units_Z 56
_cell_length_a 14.456183
_cell_length_b 19.551371
_cell_length_c 9.619036
_cell_angle_alpha 90.000000
_cell_angle_beta 90.000000
_cell_angle_gamma 90.000000
_cell_volume 2718.706993
_symmetry_space_group_name_H-M "P M M A"
_symmetry_group_IT_number 51
_symmetry_cell_setting 'orthorhombic'
loop_
_space_group_symop_operation_xyz
x,y,z
1/2-x,-y,z
1/2+x,-y,-z
-x,y,-z
-x,-y,-z
1/2+x,y,-z
1/2-x,y,z
x,-y,z
loop_
_atom_site_type_symbol
_atom_site_label
_atom_site_fract_x
_atom_site_fract_y
_atom_site_fract_z
Si Si1 0.092609 0.926114 0.595529
Si Si2 0.033183 0.923200 0.151865
Si Si3 0.639127 0.334806 0.194896
Si Si4 0.141289 0.202167 0.281056
Si Si5 0.495582 0.418996 0.338201
Si Si6 0.359330 0.340510 0.126673
Si Si7 0.644676 0.227181 0.421543
O O1 0.145539 0.855053 0.590152
O O2 0.000000 0.920853 0.500000
O O3 0.056437 0.929209 0.751969
O O4 0.136070 0.000000 0.558894
O O5 0.095554 0.866885 0.226699
O O6 0.075250 0.000000 0.144794
O O7 0.000000 0.902113 0.000000
O O8 0.750000 0.334827 0.191852
O O9 0.594427 0.397847 0.275527
O O10 0.607910 0.267670 0.286003
O O11 0.610138 0.342362 0.034196
O O12 0.250000 0.188463 0.304470
O O13 0.133264 0.261374 0.168999
O O14 0.100336 0.233100 0.425087
O O15 0.500000 0.396981 0.500000
O O16 0.479736 0.500000 0.334598
O O17 0.420286 0.382732 0.237567
O O18 0.250000 0.360011 0.136991
O O19 0.750000 0.253263 0.434951
#
# Coordination Sequence:
#
# PCOD9404276 Si02
#       7
#     8   8   8   8   8   8   8
#     4  10  20  35  53  77 111 150 197 251 307 364
#     4  10  22  37  53  79 113 153 201 251 308 369
#     4  10  23  42  64  93 128 164 206 257 309 368
#     4  10  21  37  58  83 113 153 198 247 303 360
#     4  11  25  43  67  98 128 165 207 246 301 368
#     4  10  23  42  64  93 128 165 207 256 308 367
#     4  10  21  36  57  85 115 152 199 249 302 359
#
# _framework density 20.598026000000001
#
# number of rings (size 3 to 8) (size 9 to 14) (size 15 to 20)
#    0.000    1.857    1.429    1.286    4.000    4.571 
#    0.000    4.286    0.000    2.571    0.000    0.000 
#    0.000    0.000    0.000    0.000    0.000    0.000 
#
# Total GULP energy -312105.326227 kJ/mol
# GULP energy per Si atom -5573.309397 kJ/mol
# Density = 2.055114 g / cm^3
# Si number density = 20.598026 Si / 1000 Ang^3
#
#
#
# Elastic Constant Matrix: (Units=GPa)
#
#
# Indices 1 2 3 4 5 6 
#
# 1 50.6517 27.0223 38.9457 0.0000 0.0000 0.0000
# 2 27.0223 77.4281 43.3164 0.0000 0.0000 0.0000
# 3 38.9457 43.3164 184.5297 0.0000 0.0000 0.0000
# 4 0.0000 0.0000 0.0000 30.9276 0.0000 0.0000
# 5 0.0000 0.0000 0.0000 0.0000 28.3872 0.0000
# 6 0.0000 0.0000 0.0000 0.0000 0.0000 121.3037
#
#
#
# Elastic Compliance Matrix: (Units=1/GPa)
#
#
# Indices 1 2 3 4 5 6 
#
# 1 0.026540 -0.007055 -0.003945 0.000000 0.000000 0.000000
# 2 -0.007055 0.016743 -0.002441 0.000000 0.000000 0.000000
# 3 -0.003945 -0.002441 0.006825 0.000000 0.000000 0.000000
# 4 0.000000 0.000000 0.000000 0.032334 0.000000 0.000000
# 5 0.000000 0.000000 0.000000 0.000000 0.035227 0.000000
# 6 0.000000 0.000000 0.000000 0.000000 0.000000 0.008244
#
#
# Mechanical properties :
#
#
# Convention : Reuss Voigt Hill
#
# Bulk Modulus (GPa) = 43.05776 59.01982 51.03879
# Shear Modulus (GPa) = 31.14527 49.67869 40.41198
#
# Velocity S-wave (km/s) = 3.89273 4.91635 4.43418
# Velocity P-wave (km/s) = 6.41511 7.80658 7.14480
#
# Compressibility (1/GPa) = 0.02322462
#
# Stress axis : x y z
#
# Youngs Moduli (GPa) = 37.67880 59.72558 146.52244
#
# Poissons Ratio (x) = 0.42139 0.57806
# Poissons Ratio (y) = 0.26584 0.35770
# Poissons Ratio (z) = 0.14865 0.14580
#
# Static dielectric constant tensor:
#      x y z
#    x 1.790610 0.000000 0.000000 
#    y 0.000000 1.748760 0.000000 
#    z 0.000000 0.000000 1.788320 
# 
# From -- ./inp_files/8561.got.cif
#   From: 2010.05.17/outbox.cif.g08.bks.cpg/sg51_5_cif.got.tgz:8561.got - 2010.06.03 11:52:47.
