data_PCOD9404864
_publ_section_title
;
Structure prediction by ZEFSAII (Michael W. Deem and Ramdas Pophale) SiO2 
 PCOD9404864
Probable space group: P M M A
;
_chemical_formula_sum "Si O2"
_cell_formula_units_Z 48
_cell_length_a 8.705419
_cell_length_b 18.545579
_cell_length_c 15.519697
_cell_angle_alpha 90.000000
_cell_angle_beta 90.000000
_cell_angle_gamma 90.000000
_cell_volume 2505.609077
_symmetry_space_group_name_H-M "P M M A"
_symmetry_group_IT_number 51
_symmetry_cell_setting 'orthorhombic'
loop_
_space_group_symop_operation_xyz
x,y,z
1/2-x,-y,z
1/2+x,-y,-z
-x,y,-z
-x,-y,-z
1/2+x,y,-z
1/2-x,y,z
x,-y,z
loop_
_atom_site_type_symbol
_atom_site_label
_atom_site_fract_x
_atom_site_fract_y
_atom_site_fract_z
Si Si1 0.565428 0.192624 0.092645
Si Si2 0.934433 0.361111 0.093392
Si Si3 0.066485 0.307890 0.592791
Si Si4 0.433058 0.582492 0.268565
Si Si5 0.065472 0.918156 0.760585
Si Si6 0.567128 0.852154 0.592000
O O1 0.750000 0.189156 0.089013
O O2 0.524081 0.276430 0.107481
O O3 0.513242 0.140146 0.168788
O O4 0.500000 0.170915 0.000000
O O5 0.750000 0.367472 0.093392
O O6 0.005878 0.404619 0.172138
O O7 0.000000 0.382202 0.000000
O O8 0.250000 0.303838 0.588827
O O9 0.000000 0.331303 0.500000
O O10 0.013779 0.361870 0.667138
O O11 0.000085 0.227935 0.608957
O O12 0.250000 0.594056 0.270696
O O13 0.464892 0.500000 0.294364
O O14 0.250000 0.910303 0.749956
O O15 0.986500 0.901992 0.669918
O O16 0.034751 0.000000 0.788899
O O17 0.500000 0.876082 0.500000
O O18 0.750000 0.848098 0.586655
#
# Coordination Sequence:
#
# PCOD9404864 Si02
#       6
#     8   8   8   8   8   8
#     4   9  19  35  56  82 110 144 186 233 281 330
#     4  10  20  36  59  84 112 148 193 242 290 341
#     4  11  22  39  63  88 115 148 189 234 282 337
#     4  11  24  40  58  84 118 153 190 234 285 340
#     4  10  21  37  56  81 116 154 190 232 284 339
#     4  11  22  38  61  86 113 146 188 236 284 336
#
# _framework density 19.157018000000001
#
# number of rings (size 3 to 8) (size 9 to 14) (size 15 to 20)
#    0.000    1.667    0.000    6.000    0.000    5.667 
#    0.000    0.000    0.000    0.000    0.000    0.000 
#    0.000    0.000    0.000    0.000    0.000    0.000 
#
# Total GULP energy -268329.232864 kJ/mol
# GULP energy per Si atom -5590.192351 kJ/mol
# Density = 1.911342 g / cm^3
# Si number density = 19.157018 Si / 1000 Ang^3
#
#
#
# Elastic Constant Matrix: (Units=GPa)
#
#
# Indices 1 2 3 4 5 6 
#
# 1 68.7972 13.3451 9.6784 0.0000 0.0000 0.0000
# 2 13.3451 14.0758 8.5226 0.0000 0.0000 0.0000
# 3 9.6784 8.5226 50.8996 0.0000 0.0000 0.0000
# 4 0.0000 0.0000 0.0000 -30.7200 0.0000 0.0000
# 5 0.0000 0.0000 0.0000 0.0000 37.8448 0.0000
# 6 0.0000 0.0000 0.0000 0.0000 0.0000 17.1225
#
#
#
# Elastic Compliance Matrix: (Units=1/GPa)
#
#
# Indices 1 2 3 4 5 6 
#
# 1 0.017829 -0.016526 -0.000623 0.000000 0.000000 0.000000
# 2 -0.016526 0.094377 -0.012660 0.000000 0.000000 0.000000
# 3 -0.000623 -0.012660 0.021885 0.000000 0.000000 0.000000
# 4 0.000000 0.000000 0.000000 -0.032552 0.000000 0.000000
# 5 0.000000 0.000000 0.000000 0.000000 0.026424 0.000000
# 6 0.000000 0.000000 0.000000 0.000000 0.000000 0.058403
#
#
# Mechanical properties :
#
#
# Convention : Reuss Voigt Hill
#
# Bulk Modulus (GPa) = 13.42775 21.87384 17.65080
# Shear Modulus (GPa) = 18.46332 11.66456 15.06394
#
# Velocity S-wave (km/s) = 3.10786 2.47025 2.80722
# Velocity P-wave (km/s) = 4.46127 4.42483 4.44309
#
# Compressibility (1/GPa) = 0.07447263
#
# Stress axis : x y z
#
# Youngs Moduli (GPa) = 56.08917 10.59580 45.69385
#
# Poissons Ratio (x) = 0.17511 0.02847
# Poissons Ratio (y) = 0.92693 0.57849
# Poissons Ratio (z) = 0.03494 0.13414
#
# Static dielectric constant tensor:
#      x y z
#    x 1.637830 0.000000 0.000000 
#    y 0.000000 1.660260 0.000000 
#    z 0.000000 0.000000 1.641970 
# 
# From -- ./inp_files/21087.got.cif
#   From: 2010.05.17/outbox.cif.g08.bks.cpg/sg51_11_cif.got.tgz:21087.got - 2010.06.03 11:52:47.
