data_PCOD9404151
_publ_section_title
;
Structure prediction by ZEFSAII (Michael W. Deem and Ramdas Pophale) SiO2 
 PCOD9404151
Probable space group: P M M A
;
_chemical_formula_sum "Si O2"
_cell_formula_units_Z 48
_cell_length_a 8.834171
_cell_length_b 18.953620
_cell_length_c 16.298069
_cell_angle_alpha 90.000000
_cell_angle_beta 90.000000
_cell_angle_gamma 90.000000
_cell_volume 2728.940853
_symmetry_space_group_name_H-M "P M M A"
_symmetry_group_IT_number 51
_symmetry_cell_setting 'orthorhombic'
loop_
_space_group_symop_operation_xyz
x,y,z
1/2-x,-y,z
1/2+x,-y,-z
-x,y,-z
-x,-y,-z
1/2+x,y,-z
1/2-x,y,z
x,-y,z
loop_
_atom_site_type_symbol
_atom_site_label
_atom_site_fract_x
_atom_site_fract_y
_atom_site_fract_z
Si Si1 0.571740 0.500000 0.133796
Si Si2 0.934395 0.147221 0.855709
Si Si3 0.568971 0.267323 0.731543
Si Si4 0.434136 0.500000 0.676706
Si Si5 0.583891 0.362247 0.883713
Si Si6 0.934272 0.000000 0.093477
Si Si7 0.000000 0.243716 0.000000
Si Si8 0.431440 0.646294 0.590170
O O1 0.750000 0.500000 0.135375
O O2 0.515311 0.500000 0.228612
O O3 0.517371 0.428000 0.093516
O O4 0.750000 0.149582 0.873487
O O5 0.957779 0.190342 0.771363
O O6 0.997721 0.068732 0.861428
O O7 0.028611 0.189884 0.925545
O O8 0.750000 0.274263 0.721077
O O9 0.522031 0.322839 0.802837
O O10 0.486530 0.290870 0.649445
O O11 0.250000 0.500000 0.677402
O O12 0.481907 0.571547 0.630688
O O13 0.750000 0.390344 0.864987
O O14 0.598361 0.301167 0.951202
O O15 0.750000 0.000000 0.091658
O O16 0.000000 0.000000 0.000000
O O17 0.500000 0.652577 0.500000
O O18 0.250000 0.646015 0.586080
#
# Coordination Sequence:
#
# PCOD9404151 Si02
#       8
#     4   8   8   4   8   4   4   8
#     4  11  21  35  53  72  96 135 184 235 282 327
#     4  10  21  38  59  82 113 147 182 221 268 321
#     4   9  19  36  56  79 106 141 178 219 272 327
#     4   9  19  34  49  73 104 135 175 221 275 328
#     4  10  21  36  53  74 100 135 182 231 279 329
#     4  12  24  36  56  86 119 150 185 222 266 316
#     4  10  20  34  56  76 104 140 182 224 270 322
#     4  11  21  35  54  79 110 141 180 227 273 327
#
# _framework density 17.589241999999999
#
# number of rings (size 3 to 8) (size 9 to 14) (size 15 to 20)
#    0.000    1.833    2.500    3.250    0.000    3.000 
#    0.000    6.250    0.000    0.000    0.000    0.583 
#    0.000    0.000    0.000    0.000    0.000    0.000 
#
# Total GULP energy -267349.865427 kJ/mol
# GULP energy per Si atom -5569.788863 kJ/mol
# Density = 1.754921 g / cm^3
# Si number density = 17.589242 Si / 1000 Ang^3
#
#
#
# Elastic Constant Matrix: (Units=GPa)
#
#
# Indices 1 2 3 4 5 6 
#
# 1 45.6885 49.5761 37.9710 0.0000 0.0000 0.0000
# 2 49.5761 151.3154 56.3398 0.0000 0.0000 0.0000
# 3 37.9710 56.3398 114.4569 0.0000 0.0000 0.0000
# 4 0.0000 0.0000 0.0000 16.9078 0.0000 0.0000
# 5 0.0000 0.0000 0.0000 0.0000 57.1810 0.0000
# 6 0.0000 0.0000 0.0000 0.0000 0.0000-1126.1451
#
#
#
# Elastic Compliance Matrix: (Units=1/GPa)
#
#
# Indices 1 2 3 4 5 6 
#
# 1 0.039412 -0.009850 -0.008227 0.000000 0.000000 0.000000
# 2 -0.009850 0.010553 -0.001927 0.000000 0.000000 0.000000
# 3 -0.008227 -0.001927 0.012415 0.000000 0.000000 0.000000
# 4 0.000000 0.000000 0.000000 0.059144 0.000000 0.000000
# 5 0.000000 0.000000 0.000000 0.000000 0.017488 0.000000
# 6 0.000000 0.000000 0.000000 0.000000 0.000000 -0.000888
#
#
# Mechanical properties :
#
#
# Convention : Reuss Voigt Hill
#
# Bulk Modulus (GPa) = 44.69599 66.58163 55.63881
# Shear Modulus (GPa) = 26.94121 -199.23966 -86.14922
#
# Velocity S-wave (km/s) = 3.91792 -10.65455 -7.00605
# Velocity P-wave (km/s) = 6.77739 10.65005 5.80907
#
# Compressibility (1/GPa) = 0.02237337
#
# Stress axis : x y z
#
# Youngs Moduli (GPa) = 25.37287 94.75661 80.55007
#
# Poissons Ratio (x) = 0.93333 0.66265
# Poissons Ratio (y) = 0.24992 0.15523
# Poissons Ratio (z) = 0.20873 0.18260
#
# Static dielectric constant tensor:
#      x y z
#    x 1.607530 0.000000 0.000000 
#    y 0.000000 1.601840 0.000000 
#    z 0.000000 0.000000 1.602740 
# 
# From -- ./inp_files/21281.got.cif
#   From: 2010.05.17/outbox.cif.g08.bks.cpg/sg51_11_cif.got.tgz:21281.got - 2010.06.03 11:52:47.
