data_PCOD9404922
_publ_section_title
;
Structure prediction by ZEFSAII (Michael W. Deem and Ramdas Pophale) SiO2 
 PCOD9404922
Probable space group: P M M A
;
_chemical_formula_sum "Si O2"
_cell_formula_units_Z 40
_cell_length_a 8.698888
_cell_length_b 12.859614
_cell_length_c 19.592269
_cell_angle_alpha 90.000000
_cell_angle_beta 90.000000
_cell_angle_gamma 90.000000
_cell_volume 2191.676278
_symmetry_space_group_name_H-M "P M M A"
_symmetry_group_IT_number 51
_symmetry_cell_setting 'orthorhombic'
loop_
_space_group_symop_operation_xyz
x,y,z
1/2-x,-y,z
1/2+x,-y,-z
-x,y,-z
-x,-y,-z
1/2+x,y,-z
1/2-x,y,z
x,-y,z
loop_
_atom_site_type_symbol
_atom_site_label
_atom_site_fract_x
_atom_site_fract_y
_atom_site_fract_z
Si Si1 0.934675 0.693933 0.339478
Si Si2 0.434927 0.000000 0.076564
Si Si3 0.933823 0.500000 0.576121
Si Si4 0.933957 0.878535 0.574868
Si Si5 0.065523 0.772251 0.076669
Si Si6 0.564694 0.620786 0.189086
O O1 0.750000 0.688933 0.344343
O O2 0.979006 0.673475 0.260956
O O3 0.005602 0.601353 0.384396
O O4 0.994254 0.802201 0.369582
O O5 0.481421 0.112691 0.105159
O O6 0.250000 0.000000 0.074253
O O7 0.500000 0.000000 0.000000
O O8 0.750000 0.500000 0.574272
O O9 0.000000 0.500000 0.500000
O O10 0.750000 0.866842 0.573756
O O11 0.000000 0.851683 0.500000
O O12 0.970473 0.000000 0.587721
O O13 0.250000 0.768166 0.073183
O O14 0.004182 0.683715 0.126202
O O15 0.000000 0.762001 0.000000
O O16 0.750000 0.623175 0.184423
O O17 0.516748 0.500000 0.189528
#
# Coordination Sequence:
#
# PCOD9404922 Si02
#       6
#     8   4   4   8   8   8
#     4  11  22  40  61  83 116 154 195 242 293 344
#     4   8  16  32  54  82 114 144 177 226 277 326
#     4  12  24  38  60  88 117 150 195 240 290 346
#     4  10  21  38  60  87 118 153 193 239 290 346
#     4  10  20  36  60  88 117 150 191 234 283 337
#     4  10  22  41  60  80 113 153 192 237 288 339
#
# _framework density 18.250871
#
# number of rings (size 3 to 8) (size 9 to 14) (size 15 to 20)
#    0.000    1.800    1.000    3.300    0.000    4.400 
#    1.800    0.000    0.000    0.000    0.000    0.000 
#    0.000    0.000    0.000    0.000    0.000    0.000 
#
# Total GULP energy -223339.515021 kJ/mol
# GULP energy per Si atom -5583.487876 kJ/mol
# Density = 1.820933 g / cm^3
# Si number density = 18.250871 Si / 1000 Ang^3
#
#
#
# Elastic Constant Matrix: (Units=GPa)
#
#
# Indices 1 2 3 4 5 6 
#
# 1 54.6318 48.3076 46.1118 0.0000 0.0000 0.0000
# 2 48.3076 142.5075 92.5848 0.0000 0.0000 0.0000
# 3 46.1118 92.5848 133.7329 0.0000 0.0000 0.0000
# 4 0.0000 0.0000 0.0000 -15.7050 0.0000 0.0000
# 5 0.0000 0.0000 0.0000 0.0000 30.8587 0.0000
# 6 0.0000 0.0000 0.0000 0.0000 0.0000 72.7865
#
#
#
# Elastic Compliance Matrix: (Units=1/GPa)
#
#
# Indices 1 2 3 4 5 6 
#
# 1 0.028322 -0.005918 -0.005668 0.000000 0.000000 0.000000
# 2 -0.005918 0.013990 -0.007645 0.000000 0.000000 0.000000
# 3 -0.005668 -0.007645 0.014725 0.000000 0.000000 0.000000
# 4 0.000000 0.000000 0.000000 -0.063674 0.000000 0.000000
# 5 0.000000 0.000000 0.000000 0.000000 0.032406 0.000000
# 6 0.000000 0.000000 0.000000 0.000000 0.000000 0.013739
#
#
# Mechanical properties :
#
#
# Convention : Reuss Voigt Hill
#
# Bulk Modulus (GPa) = 53.83888 78.32006 66.07947
# Shear Modulus (GPa) = 59.41018 27.17924 43.29471
#
# Velocity S-wave (km/s) = 5.71162 3.86321 4.87581
# Velocity P-wave (km/s) = 8.54753 7.93129 8.24517
#
# Compressibility (1/GPa) = 0.01857394
#
# Stress axis : x y z
#
# Youngs Moduli (GPa) = 35.30872 71.47954 67.91278
#
# Poissons Ratio (x) = 0.42301 0.38496
# Poissons Ratio (y) = 0.20895 0.51919
# Poissons Ratio (z) = 0.20015 0.54646
#
# Static dielectric constant tensor:
#      x y z
#    x 1.614660 0.000000 0.000000 
#    y 0.000000 1.640540 0.000000 
#    z 0.000000 0.000000 1.586150 
# 
# From -- ./inp_files/31404.got.cif
#   From: 2010.05.17/outbox.cif.g08.bks.cpg/sg51_16_cif.got.tgz:31404.got - 2010.06.03 11:52:47.
