data_PCOD9404110
_publ_section_title
;
Structure prediction by ZEFSAII (Michael W. Deem and Ramdas Pophale) SiO2 
 PCOD9404110
Probable space group: P M M A
;
_chemical_formula_sum "Si O2"
_cell_formula_units_Z 64
_cell_length_a 9.473670
_cell_length_b 24.396549
_cell_length_c 14.603827
_cell_angle_alpha 90.000000
_cell_angle_beta 90.000000
_cell_angle_gamma 90.000000
_cell_volume 3375.307389
_symmetry_space_group_name_H-M "P M M A"
_symmetry_group_IT_number 51
_symmetry_cell_setting 'orthorhombic'
loop_
_space_group_symop_operation_xyz
x,y,z
1/2-x,-y,z
1/2+x,-y,-z
-x,y,-z
-x,-y,-z
1/2+x,y,-z
1/2-x,y,z
x,-y,z
loop_
_atom_site_type_symbol
_atom_site_label
_atom_site_fract_x
_atom_site_fract_y
_atom_site_fract_z
Si Si1 0.414064 0.109414 0.909526
Si Si2 0.584017 0.064559 0.736438
Si Si3 0.913349 0.242411 0.089824
Si Si4 0.581702 0.156867 0.594836
Si Si5 0.412746 0.255462 0.268749
Si Si6 0.912954 0.433113 0.086969
Si Si7 0.412563 0.645619 0.411702
Si Si8 0.415664 0.434300 0.708492
O O1 0.250000 0.093056 0.915041
O O2 0.489167 0.085469 0.820033
O O3 0.418846 0.175792 0.905529
O O4 0.500000 0.092263 0.000000
O O5 0.750000 0.074820 0.758407
O O6 0.552309 0.099443 0.645473
O O7 0.564710 0.000000 0.722577
O O8 0.750000 0.258981 0.084316
O O9 0.988134 0.262758 0.181740
O O10 0.000000 0.259437 0.000000
O O11 0.500000 0.162965 0.500000
O O12 0.750000 0.161654 0.578271
O O13 0.543841 0.203613 0.668951
O O14 0.250000 0.246071 0.238439
O O15 0.416188 0.307395 0.335170
O O16 0.750000 0.417093 0.077782
O O17 0.917071 0.500000 0.085757
O O18 0.962349 0.417071 0.188639
O O19 0.000000 0.413077 0.000000
O O20 0.500000 0.663749 0.500000
O O21 0.250000 0.634508 0.435698
O O22 0.489310 0.593542 0.367551
O O23 0.250000 0.419415 0.698307
O O24 0.424344 0.500000 0.703582
#
# Coordination Sequence:
#
# PCOD9404110 Si02
#       8
#     8   8   8   8   8   8   8   8
#     4  10  20  34  55  83 113 148 187 229 279 336
#     4  10  21  37  56  79 110 149 190 234 285 338
#     4  10  20  34  58  89 118 150 187 228 278 336
#     4  10  21  37  58  81 108 142 183 233 285 339
#     4  10  21  39  61  85 114 148 186 231 282 335
#     4   8  14  26  47  76 108 142 180 221 265 315
#     4  11  24  40  60  86 114 147 188 236 289 340
#     4   9  19  37  59  83 115 155 195 235 282 336
#
# _framework density 18.961234999999999
#
# number of rings (size 3 to 8) (size 9 to 14) (size 15 to 20)
#    0.000    2.250    1.250    2.250    0.000    4.750 
#    0.000    1.875    0.000    1.500    0.000    0.000 
#    0.000    0.000    0.000    0.000    0.000    0.000 
#
# Total GULP energy -357366.900654 kJ/mol
# GULP energy per Si atom -5583.857823 kJ/mol
# Density = 1.891808 g / cm^3
# Si number density = 18.961235 Si / 1000 Ang^3
#
#
#
# Elastic Constant Matrix: (Units=GPa)
#
#
# Indices 1 2 3 4 5 6 
#
# 1 106.8187 24.0310 76.9186 0.0000 0.0000 0.0000
# 2 24.0310 25.6603 14.5430 0.0000 0.0000 0.0000
# 3 76.9186 14.5430 120.3991 0.0000 0.0000 0.0000
# 4 0.0000 0.0000 0.0000 15.8983 0.0000 0.0000
# 5 0.0000 0.0000 0.0000 0.0000 42.9430 0.0000
# 6 0.0000 0.0000 0.0000 0.0000 0.0000 15.5851
#
#
#
# Elastic Compliance Matrix: (Units=1/GPa)
#
#
# Indices 1 2 3 4 5 6 
#
# 1 0.020581 -0.012691 -0.011615 0.000000 0.000000 0.000000
# 2 -0.012691 0.049661 0.002109 0.000000 0.000000 0.000000
# 3 -0.011615 0.002109 0.015472 0.000000 0.000000 0.000000
# 4 0.000000 0.000000 0.000000 0.062900 0.000000 0.000000
# 5 0.000000 0.000000 0.000000 0.000000 0.023287 0.000000
# 6 0.000000 0.000000 0.000000 0.000000 0.000000 0.064164
#
#
# Mechanical properties :
#
#
# Convention : Reuss Voigt Hill
#
# Bulk Modulus (GPa) = 24.20206 53.76257 38.98231
# Shear Modulus (GPa) = 16.99349 24.04432 20.51891
#
# Velocity S-wave (km/s) = 2.99695 3.56487 3.29317
# Velocity P-wave (km/s) = 4.97667 6.73498 5.92145
#
# Compressibility (1/GPa) = 0.04131880
#
# Stress axis : x y z
#
# Youngs Moduli (GPa) = 48.58889 20.13670 64.63468
#
# Poissons Ratio (x) = 0.25556 0.75076
# Poissons Ratio (y) = 0.61665 -0.13634
# Poissons Ratio (z) = 0.56438 -0.04248
#
# Static dielectric constant tensor:
#      x y z
#    x 1.640530 0.000000 0.000000 
#    y 0.000000 1.670470 0.000000 
#    z 0.000000 0.000000 1.629160 
# 
# From -- ./inp_files/22304.got.cif
#   From: 2010.05.17/outbox.cif.g08.bks.cpg/sg51_12_cif.got.tgz:22304.got - 2010.06.03 11:52:47.
