data_PCOD9404278
_publ_section_title
;
Structure prediction by ZEFSAII (Michael W. Deem and Ramdas Pophale) SiO2 
 PCOD9404278
Probable space group: P M M A
;
_chemical_formula_sum "Si O2"
_cell_formula_units_Z 48
_cell_length_a 17.942694
_cell_length_b 13.645783
_cell_length_c 9.605326
_cell_angle_alpha 90.000000
_cell_angle_beta 90.000000
_cell_angle_gamma 90.000000
_cell_volume 2351.788273
_symmetry_space_group_name_H-M "P M M A"
_symmetry_group_IT_number 51
_symmetry_cell_setting 'orthorhombic'
loop_
_space_group_symop_operation_xyz
x,y,z
1/2-x,-y,z
1/2+x,-y,-z
-x,y,-z
-x,-y,-z
1/2+x,y,-z
1/2-x,y,z
x,-y,z
loop_
_atom_site_type_symbol
_atom_site_label
_atom_site_fract_x
_atom_site_fract_y
_atom_site_fract_z
Si Si1 0.666050 0.892714 0.977318
Si Si2 0.572888 0.388175 0.595560
Si Si3 0.486293 0.306721 0.835207
Si Si4 0.667424 0.267918 0.215059
Si Si5 0.049833 0.109598 0.274999
Si Si6 0.664785 0.202215 0.523631
O O1 0.750000 0.887517 0.919345
O O2 0.658384 0.806387 0.086594
O O3 0.657802 0.000000 0.045522
O O4 0.606896 0.887218 0.854985
O O5 0.500000 0.363967 0.500000
O O6 0.593592 0.500000 0.568091
O O7 0.545461 0.372680 0.753782
O O8 0.638300 0.311365 0.567291
O O9 0.402602 0.339486 0.798030
O O10 0.495471 0.199102 0.762533
O O11 0.500000 0.302133 0.000000
O O12 0.750000 0.312823 0.209496
O O13 0.663743 0.206127 0.357190
O O14 0.101526 0.133911 0.408191
O O15 0.017753 0.000000 0.284528
O O16 0.750000 0.180500 0.568279
#
# Coordination Sequence:
#
# PCOD9404278 Si02
#       6
#     8   8   8   8   8   8
#     4   9  17  30  48  73 107 147 189 229 275 329
#     4  10  21  39  62  85 114 145 184 236 291 351
#     4  11  21  37  59  86 114 151 195 239 285 341
#     4  10  20  35  53  78 112 148 189 237 286 339
#     4  10  21  34  54  83 115 153 194 236 279 332
#     4  10  21  37  59  84 115 151 190 237 288 344
#
# _framework density 20.41
#
# number of rings (size 3 to 8) (size 9 to 14) (size 15 to 20)
#    0.000    2.000    3.333    0.500    0.000    3.333 
#    0.000    2.500    0.000    0.500    0.000    0.000 
#    0.000    0.000    0.000    0.000    0.000    0.000 
#
# Total GULP energy -267798.099191 kJ/mol
# GULP energy per Si atom -5579.127066 kJ/mol
# Density = 2.036355 g / cm^3
# Si number density = 20.410000 Si / 1000 Ang^3
#
#
#
# Elastic Constant Matrix: (Units=GPa)
#
#
# Indices 1 2 3 4 5 6 
#
# 1 71.4478 -9.4566 5.5189 0.0000 0.0000 0.0000
# 2 -9.4566 41.1043 -7.2800 0.0000 0.0000 0.0000
# 3 5.5189 -7.2800 64.6883 0.0000 0.0000 0.0000
# 4 0.0000 0.0000 0.0000 3.9456 0.0000 0.0000
# 5 0.0000 0.0000 0.0000 0.0000 23.1698 0.0000
# 6 0.0000 0.0000 0.0000 0.0000 0.0000 32.5650
#
#
#
# Elastic Compliance Matrix: (Units=1/GPa)
#
#
# Indices 1 2 3 4 5 6 
#
# 1 0.014485 0.003177 -0.000878 0.000000 0.000000 0.000000
# 2 0.003177 0.025520 0.002601 0.000000 0.000000 0.000000
# 3 -0.000878 0.002601 0.015826 0.000000 0.000000 0.000000
# 4 0.000000 0.000000 0.000000 0.253449 0.000000 0.000000
# 5 0.000000 0.000000 0.000000 0.000000 0.043160 0.000000
# 6 0.000000 0.000000 0.000000 0.000000 0.000000 0.030708
#
#
# Mechanical properties :
#
#
# Convention : Reuss Voigt Hill
#
# Bulk Modulus (GPa) = 15.23695 17.20057 16.21876
# Shear Modulus (GPa) = 12.65103 24.49995 18.57549
#
# Velocity S-wave (km/s) = 2.49237 3.46842 3.02009
# Velocity P-wave (km/s) = 3.97041 4.94831 4.48609
#
# Compressibility (1/GPa) = 0.06562993
#
# Stress axis : x y z
#
# Youngs Moduli (GPa) = 69.03915 39.18509 63.18563
#
# Poissons Ratio (x) = -0.12448 0.05549
# Poissons Ratio (y) = -0.21932 -0.16434
# Poissons Ratio (z) = 0.06063 -0.10192
#
# Static dielectric constant tensor:
#      x y z
#    x 1.755370 0.000000 0.000000 
#    y 0.000000 1.721970 0.000000 
#    z 0.000000 0.000000 1.731880 
# 
# From -- ./inp_files/10831.got.cif
#   From: 2010.05.17/outbox.cif.g08.bks.cpg/sg51_6_cif.got.tgz:10831.got - 2010.06.03 11:52:47.
