data_PCOD9404881
_publ_section_title
;
Structure prediction by ZEFSAII (Michael W. Deem and Ramdas Pophale) SiO2 
 PCOD9404881
Probable space group: P M M A
;
_chemical_formula_sum "Si O2"
_cell_formula_units_Z 56
_cell_length_a 14.444565
_cell_length_b 14.681728
_cell_length_c 13.971441
_cell_angle_alpha 90.000000
_cell_angle_beta 90.000000
_cell_angle_gamma 90.000000
_cell_volume 2962.939901
_symmetry_space_group_name_H-M "P M M A"
_symmetry_group_IT_number 51
_symmetry_cell_setting 'orthorhombic'
loop_
_space_group_symop_operation_xyz
x,y,z
1/2-x,-y,z
1/2+x,-y,-z
-x,y,-z
-x,-y,-z
1/2+x,y,-z
1/2-x,y,z
x,-y,z
loop_
_atom_site_type_symbol
_atom_site_label
_atom_site_fract_x
_atom_site_fract_y
_atom_site_fract_z
Si Si1 0.649909 0.341273 0.185239
Si Si2 0.945137 0.896009 0.862731
Si Si3 0.464569 0.602230 0.102068
Si Si4 0.610378 0.395569 0.384175
Si Si5 0.357435 0.847279 0.933401
Si Si6 0.353621 0.739280 0.227981
Si Si7 0.887294 0.604446 0.602835
O O1 0.750000 0.383400 0.162624
O O2 0.558032 0.398011 0.164101
O O3 0.644896 0.329748 0.300231
O O4 0.643205 0.251150 0.119456
O O5 0.919641 0.826840 0.777908
O O6 0.055481 0.895846 0.881825
O O7 0.914784 0.000000 0.849177
O O8 0.891617 0.854729 0.956155
O O9 0.428052 0.500000 0.091664
O O10 0.391747 0.668217 0.149769
O O11 0.500000 0.636016 0.000000
O O12 0.638142 0.500000 0.360563
O O13 0.640384 0.377694 0.493110
O O14 0.498847 0.393881 0.388916
O O15 0.250000 0.880195 0.927187
O O16 0.250000 0.768833 0.205702
O O17 0.354134 0.681546 0.325264
O O18 0.859484 0.500000 0.627945
#
# Coordination Sequence:
#
# PCOD9404881 Si02
#       7
#     8   8   8   8   8   8   8
#     4  11  21  34  56  83 115 154 189 228 281 337
#     4  11  23  39  60  86 116 148 188 244 302 350
#     4  11  23  38  54  75 112 155 195 236 276 331
#     4   9  17  32  55  83 116 151 193 239 281 333
#     4  10  20  36  59  86 116 149 186 232 286 349
#     4  12  24  38  57  81 113 151 194 243 295 350
#     4   9  18  34  57  83 114 154 193 236 287 338
#
# _framework density 18.900147
#
# number of rings (size 3 to 8) (size 9 to 14) (size 15 to 20)
#    0.000    1.571    2.857    3.857    0.000    6.571 
#    0.000    2.857    0.000    0.000    0.000    9.000 
#    0.000    9.143    0.000    0.000    0.000    0.000 
#
# Total GULP energy -312262.214434 kJ/mol
# GULP energy per Si atom -5576.110972 kJ/mol
# Density = 1.885713 g / cm^3
# Si number density = 18.900147 Si / 1000 Ang^3
#
#
#
# Elastic Constant Matrix: (Units=GPa)
#
#
# Indices 1 2 3 4 5 6 
#
# 1 107.5476 17.7727 12.7162 0.0000 0.0000 0.0000
# 2 17.7727 85.4931 45.2403 0.0000 0.0000 0.0000
# 3 12.7162 45.2403 92.3397 0.0000 0.0000 0.0000
# 4 0.0000 0.0000 0.0000 11.2753 0.0000 0.0000
# 5 0.0000 0.0000 0.0000 0.0000 6.1839 0.0000
# 6 0.0000 0.0000 0.0000 0.0000 0.0000 19.3481
#
#
#
# Elastic Compliance Matrix: (Units=1/GPa)
#
#
# Indices 1 2 3 4 5 6 
#
# 1 0.009644 -0.001758 -0.000467 0.000000 0.000000 0.000000
# 2 -0.001758 0.016111 -0.007651 0.000000 0.000000 0.000000
# 3 -0.000467 -0.007651 0.014643 0.000000 0.000000 0.000000
# 4 0.000000 0.000000 0.000000 0.088690 0.000000 0.000000
# 5 0.000000 0.000000 0.000000 0.000000 0.161709 0.000000
# 6 0.000000 0.000000 0.000000 0.000000 0.000000 0.051685
#
#
# Mechanical properties :
#
#
# Convention : Reuss Voigt Hill
#
# Bulk Modulus (GPa) = 48.43647 48.53764 48.48706
# Shear Modulus (GPa) = 13.54592 21.33820 17.44206
#
# Velocity S-wave (km/s) = 2.68005 3.36370 3.04115
# Velocity P-wave (km/s) = 5.93802 6.38927 6.16777
#
# Compressibility (1/GPa) = 0.02064560
#
# Stress axis : x y z
#
# Youngs Moduli (GPa) = 103.69263 62.06899 68.29430
#
# Poissons Ratio (x) = 0.10910 0.03189
# Poissons Ratio (y) = 0.18227 0.52254
# Poissons Ratio (z) = 0.04841 0.47491
#
# Static dielectric constant tensor:
#      x y z
#    x 1.724210 0.000000 0.000000 
#    y 0.000000 1.648910 0.000000 
#    z 0.000000 0.000000 1.697450 
# 
# From -- ./inp_files/24263.got.cif
#   From: 2010.05.17/outbox.cif.g08.bks.cpg/sg51_13_cif.got.tgz:24263.got - 2010.06.03 11:52:47.
