data_PCOD9404944
_publ_section_title
;
Structure prediction by ZEFSAII (Michael W. Deem and Ramdas Pophale) SiO2 
 PCOD9404944
Probable space group: P M M A
;
_chemical_formula_sum "Si O2"
_cell_formula_units_Z 48
_cell_length_a 23.925160
_cell_length_b 7.822095
_cell_length_c 11.181016
_cell_angle_alpha 90.000000
_cell_angle_beta 90.000000
_cell_angle_gamma 90.000000
_cell_volume 2092.469835
_symmetry_space_group_name_H-M "P M M A"
_symmetry_group_IT_number 51
_symmetry_cell_setting 'orthorhombic'
loop_
_space_group_symop_operation_xyz
x,y,z
1/2-x,-y,z
1/2+x,-y,-z
-x,y,-z
-x,-y,-z
1/2+x,y,-z
1/2-x,y,z
x,-y,z
loop_
_atom_site_type_symbol
_atom_site_label
_atom_site_fract_x
_atom_site_fract_y
_atom_site_fract_z
Si Si1 0.424390 0.301564 0.580274
Si Si2 0.314150 0.206849 0.691985
Si Si3 0.984953 0.804800 0.182849
Si Si4 0.187369 0.202366 0.170940
Si Si5 0.088263 0.301296 0.321641
Si Si6 0.623525 0.791211 0.062059
O O1 0.442931 0.500000 0.591690
O O2 0.357802 0.288165 0.600279
O O3 0.451268 0.202511 0.691090
O O4 0.435829 0.233536 0.447386
O O5 0.250000 0.259129 0.678012
O O6 0.337754 0.250600 0.823921
O O7 0.316890 0.000000 0.680596
O O8 0.939892 0.731537 0.089123
O O9 0.043494 0.720980 0.215844
O O10 0.997403 0.000000 0.150200
O O11 0.250000 0.272127 0.183662
O O12 0.147038 0.224166 0.283490
O O13 0.192433 0.000000 0.149272
O O14 0.153731 0.273176 0.056597
O O15 0.097182 0.500000 0.343164
O O16 0.619809 0.000000 0.057697
#
# Coordination Sequence:
#
# PCOD9404944 Si02
#       6
#     8   8   8   8   8   8
#     4  10  21  36  53  76 110 149 183 219 272 329
#     4   9  17  31  54  82 109 139 180 230 278 324
#     4  10  20  36  61  88 110 135 175 227 276 324
#     4  10  21  38  60  82 106 142 186 225 262 314
#     4  11  24  39  54  76 112 152 183 218 267 322
#     4   8  16  33  57  84 110 136 171 222 280 325
#
# _framework density 22.939399999999999
#
# number of rings (size 3 to 8) (size 9 to 14) (size 15 to 20)
#    0.000    2.333    0.000    3.500    0.000    8.667 
#    0.000   10.833    0.000    4.000    0.000    0.000 
#    0.000    0.000    0.000    0.000    0.000    0.000 
#
# Total GULP energy -268156.966409 kJ/mol
# GULP energy per Si atom -5586.603467 kJ/mol
# Density = 2.288719 g / cm^3
# Si number density = 22.939400 Si / 1000 Ang^3
#
#
#
# Elastic Constant Matrix: (Units=GPa)
#
#
# Indices 1 2 3 4 5 6 
#
# 1 129.4996 -2.9370 23.1853 0.0000 0.0000 0.0000
# 2 -2.9370 29.9709 4.0740 0.0000 0.0000 0.0000
# 3 23.1853 4.0740 73.0963 0.0000 0.0000 0.0000
# 4 0.0000 0.0000 0.0000 24.9154 0.0000 0.0000
# 5 0.0000 0.0000 0.0000 0.0000 24.3549 0.0000
# 6 0.0000 0.0000 0.0000 0.0000 0.0000 30.2039
#
#
#
# Elastic Compliance Matrix: (Units=1/GPa)
#
#
# Indices 1 2 3 4 5 6 
#
# 1 0.008227 0.001170 -0.002675 0.000000 0.000000 0.000000
# 2 0.001170 0.033787 -0.002254 0.000000 0.000000 0.000000
# 3 -0.002675 -0.002254 0.014655 0.000000 0.000000 0.000000
# 4 0.000000 0.000000 0.000000 0.040136 0.000000 0.000000
# 5 0.000000 0.000000 0.000000 0.000000 0.041060 0.000000
# 6 0.000000 0.000000 0.000000 0.000000 0.000000 0.033108
#
#
# Mechanical properties :
#
#
# Convention : Reuss Voigt Hill
#
# Bulk Modulus (GPa) = 20.34568 31.24571 25.79570
# Shear Modulus (GPa) = 25.65756 29.77780 27.71768
#
# Velocity S-wave (km/s) = 3.34802 3.60683 3.47983
# Velocity P-wave (km/s) = 4.88203 5.56743 5.23595
#
# Compressibility (1/GPa) = 0.04915048
#
# Stress axis : x y z
#
# Youngs Moduli (GPa) = 121.54409 29.59744 68.23770
#
# Poissons Ratio (x) = -0.03462 0.18253
# Poissons Ratio (y) = -0.14219 0.15382
# Poissons Ratio (z) = 0.32511 0.06672
#
# Static dielectric constant tensor:
#      x y z
#    x 1.863260 0.000000 0.000000 
#    y 0.000000 1.816400 0.000000 
#    z 0.000000 0.000000 1.884590 
# 
# From -- ./inp_files/18588.got.cif
#   From: 2010.05.17/outbox.cif.g08.bks.cpg/sg51_10_cif.got.tgz:18588.got - 2010.06.03 11:52:47.
