data_PCOD9404730
_publ_section_title
;
Structure prediction by ZEFSAII (Michael W. Deem and Ramdas Pophale) SiO2 
 PCOD9404730
Probable space group: P M M A
;
_chemical_formula_sum "Si O2"
_cell_formula_units_Z 40
_cell_length_a 8.575872
_cell_length_b 26.121412
_cell_length_c 9.747393
_cell_angle_alpha 90.000000
_cell_angle_beta 90.000000
_cell_angle_gamma 90.000000
_cell_volume 2183.551382
_symmetry_space_group_name_H-M "P M M A"
_symmetry_group_IT_number 51
_symmetry_cell_setting 'orthorhombic'
loop_
_space_group_symop_operation_xyz
x,y,z
1/2-x,-y,z
1/2+x,-y,-z
-x,y,-z
-x,-y,-z
1/2+x,y,-z
1/2-x,y,z
x,-y,z
loop_
_atom_site_type_symbol
_atom_site_label
_atom_site_fract_x
_atom_site_fract_y
_atom_site_fract_z
Si Si1 0.562392 0.294163 0.348425
Si Si2 0.564083 0.500000 0.845632
Si Si3 0.062377 0.589299 0.653678
Si Si4 0.938060 0.797940 0.152742
Si Si5 0.936679 0.000000 0.344734
Si Si6 0.936715 0.090554 0.845123
O O1 0.500000 0.284096 0.500000
O O2 0.750000 0.293687 0.351445
O O3 0.515439 0.352202 0.310457
O O4 0.511565 0.249313 0.247136
O O5 0.750000 0.500000 0.848782
O O6 0.504365 0.450771 0.761517
O O7 0.500000 0.500000 0.000000
O O8 0.250000 0.585893 0.651861
O O9 0.000000 0.578571 0.500000
O O10 0.750000 0.801336 0.151845
O O11 0.006839 0.852703 0.196623
O O12 0.000000 0.788937 0.000000
O O13 0.000000 0.000000 0.500000
O O14 0.997502 0.950985 0.260038
O O15 0.750000 0.000000 0.347118
O O16 0.750000 0.088406 0.848709
O O17 0.000000 0.081165 0.000000
#
# Coordination Sequence:
#
# PCOD9404730 Si02
#       6
#     8   4   8   8   4   8
#     4   9  20  36  57  83 113 146 186 229 275 328
#     4  12  25  40  57  82 112 146 184 232 285 336
#     4  10  20  38  60  84 112 148 189 231 276 333
#     4  10  20  36  56  83 114 148 188 232 277 330
#     4  12  25  42  61  86 116 148 186 234 285 336
#     4  11  22  39  61  86 114 151 192 233 278 333
#
# _framework density 18.318781999999999
#
# number of rings (size 3 to 8) (size 9 to 14) (size 15 to 20)
#    0.000    1.600    0.000    6.600    0.000    4.000 
#    0.000    4.000    0.000    0.000    0.000    0.000 
#    0.000    0.000    0.000    0.000    0.000    0.000 
#
# Total GULP energy -223521.376798 kJ/mol
# GULP energy per Si atom -5588.034420 kJ/mol
# Density = 1.827709 g / cm^3
# Si number density = 18.318782 Si / 1000 Ang^3
#
#
#
# Elastic Constant Matrix: (Units=GPa)
#
#
# Indices 1 2 3 4 5 6 
#
# 1 125.1870 69.6992 60.7829 0.0000 0.0000 0.0000
# 2 69.6992 193.9596 142.0807 0.0000 0.0000 0.0000
# 3 60.7829 142.0807 137.1079 0.0000 0.0000 0.0000
# 4 0.0000 0.0000 0.0000 31.8643 0.0000 0.0000
# 5 0.0000 0.0000 0.0000 0.0000 35.6677 0.0000
# 6 0.0000 0.0000 0.0000 0.0000 0.0000 32.8809
#
#
#
# Elastic Compliance Matrix: (Units=1/GPa)
#
#
# Indices 1 2 3 4 5 6 
#
# 1 0.010280 -0.001477 -0.003027 0.000000 0.000000 0.000000
# 2 -0.001477 0.021614 -0.021743 0.000000 0.000000 0.000000
# 3 -0.003027 -0.021743 0.031167 0.000000 0.000000 0.000000
# 4 0.000000 0.000000 0.000000 0.031383 0.000000 0.000000
# 5 0.000000 0.000000 0.000000 0.000000 0.028037 0.000000
# 6 0.000000 0.000000 0.000000 0.000000 0.000000 0.030413
#
#
# Mechanical properties :
#
#
# Convention : Reuss Voigt Hill
#
# Bulk Modulus (GPa) = 94.63199 111.26447 102.94823
# Shear Modulus (GPa) = 23.93393 32.32870 28.13132
#
# Velocity S-wave (km/s) = 3.61851 4.20549 3.92299
# Velocity P-wave (km/s) = 8.32038 9.18974 8.76584
#
# Compressibility (1/GPa) = 0.01056725
#
# Stress axis : x y z
#
# Youngs Moduli (GPa) = 97.27656 46.26731 32.08531
#
# Poissons Ratio (x) = 0.06832 0.09713
# Poissons Ratio (y) = 0.14364 0.69762
# Poissons Ratio (z) = 0.29447 1.00598
#
# Static dielectric constant tensor:
#      x y z
#    x 1.614940 0.000000 0.000000 
#    y 0.000000 1.636530 0.000000 
#    z 0.000000 0.000000 1.590650 
# 
# From -- ./inp_files/5624.got.cif
#   From: 2010.05.17/outbox.cif.g08.bks.cpg/sg51_3_cif.got.tgz:5624.got - 2010.06.03 11:52:47.
