data_PCOD9404747
_publ_section_title
;
Structure prediction by ZEFSAII (Michael W. Deem and Ramdas Pophale) SiO2 
 PCOD9404747
Probable space group: P M M A
;
_chemical_formula_sum "Si O2"
_cell_formula_units_Z 64
_cell_length_a 9.747848
_cell_length_b 18.534759
_cell_length_c 19.759656
_cell_angle_alpha 90.000000
_cell_angle_beta 90.000000
_cell_angle_gamma 90.000000
_cell_volume 3570.056354
_symmetry_space_group_name_H-M "P M M A"
_symmetry_group_IT_number 51
_symmetry_cell_setting 'orthorhombic'
loop_
_space_group_symop_operation_xyz
x,y,z
1/2-x,-y,z
1/2+x,-y,-z
-x,y,-z
-x,-y,-z
1/2+x,y,-z
1/2-x,y,z
x,-y,z
loop_
_atom_site_type_symbol
_atom_site_label
_atom_site_fract_x
_atom_site_fract_y
_atom_site_fract_z
Si Si1 0.902716 0.414088 0.440626
Si Si2 0.412627 0.914103 0.320043
Si Si3 0.587237 0.836519 0.203233
Si Si4 0.590495 0.084599 0.060703
Si Si5 0.591805 0.305215 0.812136
Si Si6 0.404587 0.344289 0.343392
Si Si7 0.089363 0.200704 0.432623
Si Si8 0.412800 0.415702 0.066677
O O1 0.750000 0.383341 0.444067
O O2 0.893520 0.500000 0.448931
O O3 0.000000 0.385060 0.500000
O O4 0.979913 0.396379 0.371839
O O5 0.250000 0.901635 0.304650
O O6 0.506974 0.878857 0.262256
O O7 0.441154 0.871768 0.389902
O O8 0.434521 0.000000 0.324784
O O9 0.750000 0.830136 0.218319
O O10 0.571330 0.878933 0.132822
O O11 0.514485 0.760059 0.191201
O O12 0.750000 0.090523 0.041926
O O13 0.556383 0.000000 0.068143
O O14 0.500000 0.115594 0.000000
O O15 0.750000 0.279934 0.823657
O O16 0.590280 0.338590 0.737011
O O17 0.558286 0.363128 0.870307
O O18 0.250000 0.367902 0.363243
O O19 0.429338 0.266996 0.379713
O O20 0.250000 0.200294 0.451173
O O21 0.000000 0.207495 0.500000
O O22 0.250000 0.410099 0.051950
O O23 0.441179 0.500000 0.083409
O O24 0.500000 0.396989 0.000000
#
# Coordination Sequence:
#
# PCOD9404747 Si02
#       8
#     8   8   8   8   8   8   8   8
#     4  10  21  36  54  79 111 145 184 227 273 332
#     4  10  21  39  61  82 109 148 191 234 284 344
#     4  11  22  36  56  83 116 149 184 233 287 336
#     4   9  19  35  53  76 107 142 182 226 271 324
#     4  10  21  38  59  83 113 148 189 231 274 333
#     4  10  20  36  57  80 110 146 186 236 282 331
#     4  10  21  37  56  82 111 143 186 231 283 339
#     4   9  19  37  61  87 116 153 195 238 284 334
#
# _framework density 17.926888999999999
#
# number of rings (size 3 to 8) (size 9 to 14) (size 15 to 20)
#    0.000    2.125    1.250    1.500    0.000    6.750 
#    0.000    5.000    0.000    1.500    0.000    0.000 
#    0.000    0.000    0.000    0.000    0.000    0.000 
#
# Total GULP energy -357064.300289 kJ/mol
# GULP energy per Si atom -5579.129692 kJ/mol
# Density = 1.788609 g / cm^3
# Si number density = 17.926889 Si / 1000 Ang^3
#
#
#
# Elastic Constant Matrix: (Units=GPa)
#
#
# Indices 1 2 3 4 5 6 
#
# 1 96.9132 45.6406 70.0883 0.0000 0.0000 0.0000
# 2 45.6406 52.4005 43.7864 0.0000 0.0000 0.0000
# 3 70.0883 43.7864 119.8235 0.0000 0.0000 0.0000
# 4 0.0000 0.0000 0.0000 26.1585 0.0000 0.0000
# 5 0.0000 0.0000 0.0000 0.0000 33.5557 0.0000
# 6 0.0000 0.0000 0.0000 0.0000 0.0000 26.7477
#
#
#
# Elastic Compliance Matrix: (Units=1/GPa)
#
#
# Indices 1 2 3 4 5 6 
#
# 1 0.022274 -0.012256 -0.008550 0.000000 0.000000 0.000000
# 2 -0.012256 0.034216 -0.005335 0.000000 0.000000 0.000000
# 3 -0.008550 -0.005335 0.015296 0.000000 0.000000 0.000000
# 4 0.000000 0.000000 0.000000 0.038228 0.000000 0.000000
# 5 0.000000 0.000000 0.000000 0.000000 0.029801 0.000000
# 6 0.000000 0.000000 0.000000 0.000000 0.000000 0.037386
#
#
# Mechanical properties :
#
#
# Convention : Reuss Voigt Hill
#
# Bulk Modulus (GPa) = 51.26838 65.35198 58.31018
# Shear Modulus (GPa) = 21.18779 24.60052 22.89416
#
# Velocity S-wave (km/s) = 3.44161 3.70843 3.57751
# Velocity P-wave (km/s) = 6.66735 7.40746 7.04713
#
# Compressibility (1/GPa) = 0.01950520
#
# Stress axis : x y z
#
# Youngs Moduli (GPa) = 44.89589 29.22581 65.37594
#
# Poissons Ratio (x) = 0.35819 0.55896
# Poissons Ratio (y) = 0.55024 0.34876
# Poissons Ratio (z) = 0.38386 0.15591
#
# Static dielectric constant tensor:
#      x y z
#    x 1.617630 0.000000 0.000000 
#    y 0.000000 1.625190 0.000000 
#    z 0.000000 0.000000 1.596270 
# 
# From -- ./inp_files/32396.got.cif
#   From: 2010.05.17/outbox.cif.g08.bks.cpg/sg51_17_cif.got.tgz:32396.got - 2010.06.03 11:52:47.
