data_PCOD9404768
_publ_section_title
;
Structure prediction by ZEFSAII (Michael W. Deem and Ramdas Pophale) SiO2 
 PCOD9404768
Probable space group: P M M A
;
_chemical_formula_sum "Si O2"
_cell_formula_units_Z 40
_cell_length_a 8.605146
_cell_length_b 26.157807
_cell_length_c 9.448115
_cell_angle_alpha 90.000000
_cell_angle_beta 90.000000
_cell_angle_gamma 90.000000
_cell_volume 2126.692723
_symmetry_space_group_name_H-M "P M M A"
_symmetry_group_IT_number 51
_symmetry_cell_setting 'orthorhombic'
loop_
_space_group_symop_operation_xyz
x,y,z
1/2-x,-y,z
1/2+x,-y,-z
-x,y,-z
-x,-y,-z
1/2+x,y,-z
1/2-x,y,z
x,-y,z
loop_
_atom_site_type_symbol
_atom_site_label
_atom_site_fract_x
_atom_site_fract_y
_atom_site_fract_z
Si Si1 0.437341 0.193114 0.655910
Si Si2 0.936680 0.310220 0.343044
Si Si3 0.063483 0.401622 0.158176
Si Si4 0.562370 0.000000 0.341264
Si Si5 0.062196 0.098108 0.842058
Si Si6 0.062514 0.500000 0.341107
O O1 0.500000 0.180403 0.500000
O O2 0.250000 0.191935 0.650450
O O3 0.483817 0.251518 0.689208
O O4 0.489419 0.150980 0.768589
O O5 0.750000 0.313008 0.344814
O O6 0.000000 0.322442 0.500000
O O7 0.002870 0.350086 0.231223
O O8 0.250000 0.400926 0.154133
O O9 0.013099 0.449612 0.254904
O O10 0.000000 0.406997 0.000000
O O11 0.500000 0.000000 0.500000
O O12 0.512742 0.949566 0.255281
O O13 0.750000 0.000000 0.346746
O O14 0.250000 0.098004 0.846661
O O15 0.000000 0.093052 0.000000
O O16 0.250000 0.500000 0.346859
O O17 0.000000 0.500000 0.500000
#
# Coordination Sequence:
#
# PCOD9404768 Si02
#       6
#     8   8   8   4   8   4
#     4   9  19  35  55  79 108 141 181 223 266 316
#     4  10  20  36  57  82 111 145 184 227 270 320
#     4  11  23  39  58  83 113 146 182 224 273 324
#     4  10  21  36  56  80 106 136 177 222 266 318
#     4  10  21  36  53  78 109 141 177 220 267 319
#     4  10  23  40  60  84 110 142 181 222 269 322
#
# _framework density 18.808547999999998
#
# number of rings (size 3 to 8) (size 9 to 14) (size 15 to 20)
#    0.000    2.000    0.000    3.000    0.000    6.400 
#    0.000    2.000    0.000    0.000    0.000    0.000 
#    0.000    0.000    0.000    0.000    0.000    0.000 
#
# Total GULP energy -223471.637637 kJ/mol
# GULP energy per Si atom -5586.790941 kJ/mol
# Density = 1.876574 g / cm^3
# Si number density = 18.808548 Si / 1000 Ang^3
#
#
#
# Elastic Constant Matrix: (Units=GPa)
#
#
# Indices 1 2 3 4 5 6 
#
# 1 24.6689 32.2434 34.8514 0.0000 0.0000 0.0000
# 2 32.2434 134.3928 121.9621 0.0000 0.0000 0.0000
# 3 34.8514 121.9621 198.4114 0.0000 0.0000 0.0000
# 4 0.0000 0.0000 0.0000 2.3383 0.0000 0.0000
# 5 0.0000 0.0000 0.0000 0.0000 40.1289 0.0000
# 6 0.0000 0.0000 0.0000 0.0000 0.0000 7.1604
#
#
#
# Elastic Compliance Matrix: (Units=1/GPa)
#
#
# Indices 1 2 3 4 5 6 
#
# 1 0.060325 -0.010985 -0.003844 0.000000 0.000000 0.000000
# 2 -0.010985 0.018829 -0.009644 0.000000 0.000000 0.000000
# 3 -0.003844 -0.009644 0.011644 0.000000 0.000000 0.000000
# 4 0.000000 0.000000 0.000000 0.427667 0.000000 0.000000
# 5 0.000000 0.000000 0.000000 0.000000 0.024920 0.000000
# 6 0.000000 0.000000 0.000000 0.000000 0.000000 0.139658
#
#
# Mechanical properties :
#
#
# Convention : Reuss Voigt Hill
#
# Bulk Modulus (GPa) = 23.89423 81.73187 52.81305
# Shear Modulus (GPa) = 6.70297 21.15325 13.92811
#
# Velocity S-wave (km/s) = 1.88985 3.35724 2.72420
# Velocity P-wave (km/s) = 4.18253 7.65356 6.16727
#
# Compressibility (1/GPa) = 0.04185111
#
# Stress axis : x y z
#
# Youngs Moduli (GPa) = 16.57689 53.11089 85.88460
#
# Poissons Ratio (x) = 0.58340 0.33015
# Poissons Ratio (y) = 0.18209 0.82830
# Poissons Ratio (z) = 0.06372 0.51222
#
# Static dielectric constant tensor:
#      x y z
#    x 1.640760 0.000000 0.000000 
#    y 0.000000 1.659180 0.000000 
#    z 0.000000 0.000000 1.596860 
# 
# From -- ./inp_files/5588.got.cif
#   From: 2010.05.17/outbox.cif.g08.bks.cpg/sg51_3_cif.got.tgz:5588.got - 2010.06.03 11:52:47.
