data_PCOD9404418
_publ_section_title
;
Structure prediction by ZEFSAII (Michael W. Deem and Ramdas Pophale) SiO2 
 PCOD9404418
Probable space group: P M M A
;
_chemical_formula_sum "Si O2"
_cell_formula_units_Z 64
_cell_length_a 26.834801
_cell_length_b 13.063663
_cell_length_c 9.221703
_cell_angle_alpha 90.000000
_cell_angle_beta 90.000000
_cell_angle_gamma 90.000000
_cell_volume 3232.767553
_symmetry_space_group_name_H-M "P M M A"
_symmetry_group_IT_number 51
_symmetry_cell_setting 'orthorhombic'
loop_
_space_group_symop_operation_xyz
x,y,z
1/2-x,-y,z
1/2+x,-y,-z
-x,y,-z
-x,-y,-z
1/2+x,y,-z
1/2-x,y,z
x,-y,z
loop_
_atom_site_type_symbol
_atom_site_label
_atom_site_fract_x
_atom_site_fract_y
_atom_site_fract_z
Si Si1 0.142032 0.118497 0.195535
Si Si2 0.963885 0.380145 0.636525
Si Si3 0.135536 0.382825 0.549585
Si Si4 0.604375 0.385857 0.116070
Si Si5 0.545550 0.231913 0.910434
Si Si6 0.307003 0.183683 0.471212
Si Si7 0.691643 0.281376 0.003745
Si Si8 0.691995 0.892754 0.209966
O O1 0.087089 0.152235 0.145501
O O2 0.153067 0.134554 0.364169
O O3 0.152950 0.000000 0.158450
O O4 0.178330 0.205719 0.127596
O O5 0.972429 0.500000 0.677605
O O6 0.908388 0.372464 0.568950
O O7 0.969223 0.303448 0.772232
O O8 0.000000 0.357027 0.500000
O O9 0.154180 0.500000 0.545726
O O10 0.113274 0.367496 0.712083
O O11 0.176927 0.299052 0.511648
O O12 0.583523 0.500000 0.103259
O O13 0.656804 0.378314 0.027870
O O14 0.570607 0.306057 0.030349
O O15 0.500000 0.183768 0.000000
O O16 0.250000 0.179420 0.416088
O O17 0.308506 0.121148 0.619884
O O18 0.750000 0.304419 0.009659
O O19 0.673052 0.208469 0.135426
O O20 0.750000 0.896232 0.163455
O O21 0.667685 0.000000 0.168331
#
# Coordination Sequence:
#
# PCOD9404418 Si02
#       8
#     8   8   8   8   8   8   8   8
#     4  11  24  41  61  84 114 153 197 250 307 362
#     4  10  20  36  62  91 119 154 195 241 295 355
#     4  10  20  36  56  85 122 156 194 240 291 353
#     4  10  21  36  58  88 123 161 200 241 291 352
#     4  11  23  40  63  90 118 154 195 253 307 365
#     4  11  21  36  57  84 116 156 201 244 294 353
#     4  10  20  35  55  83 117 155 198 241 289 346
#     4   9  17  30  51  77 105 141 190 243 285 327
#
# _framework density 19.797277999999999
#
# number of rings (size 3 to 8) (size 9 to 14) (size 15 to 20)
#    0.000    1.750    2.500    2.250    0.000    4.750 
#    0.000    1.250    0.000    1.875    0.000    0.000 
#    0.000    0.000    0.000    0.000    0.000    0.000 
#
# Total GULP energy -356770.408636 kJ/mol
# GULP energy per Si atom -5574.537635 kJ/mol
# Density = 1.975222 g / cm^3
# Si number density = 19.797278 Si / 1000 Ang^3
#
#
#
# Elastic Constant Matrix: (Units=GPa)
#
#
# Indices 1 2 3 4 5 6 
#
# 1 51.4018 0.4977 3.8299 0.0000 0.0000 0.0000
# 2 0.4977 63.7856 6.9001 0.0000 0.0000 0.0000
# 3 3.8299 6.9001 61.0179 0.0000 0.0000 0.0000
# 4 0.0000 0.0000 0.0000 28.0470 0.0000 0.0000
# 5 0.0000 0.0000 0.0000 0.0000 29.6978 0.0000
# 6 0.0000 0.0000 0.0000 0.0000 0.0000 -33.6045
#
#
#
# Elastic Compliance Matrix: (Units=1/GPa)
#
#
# Indices 1 2 3 4 5 6 
#
# 1 0.019546 -0.000020 -0.001225 0.000000 0.000000 0.000000
# 2 -0.000020 0.015872 -0.001794 0.000000 0.000000 0.000000
# 3 -0.001225 -0.001794 0.016668 0.000000 0.000000 0.000000
# 4 0.000000 0.000000 0.000000 0.035654 0.000000 0.000000
# 5 0.000000 0.000000 0.000000 0.000000 0.033673 0.000000
# 6 0.000000 0.000000 0.000000 0.000000 0.000000 -0.029758
#
#
# Mechanical properties :
#
#
# Convention : Reuss Voigt Hill
#
# Bulk Modulus (GPa) = 21.73456 22.07341 21.90399
# Shear Modulus (GPa) = 44.22119 15.82657 30.02388
#
# Velocity S-wave (km/s) = 4.73133 2.83049 3.89854
# Velocity P-wave (km/s) = 6.39138 4.67506 5.59937
#
# Compressibility (1/GPa) = 0.04600966
#
# Stress axis : x y z
#
# Youngs Moduli (GPa) = 51.16134 63.00526 59.99411
#
# Poissons Ratio (x) = 0.00126 0.07347
# Poissons Ratio (y) = 0.00103 0.10760
# Poissons Ratio (z) = 0.06265 0.11300
#
# Static dielectric constant tensor:
#      x y z
#    x 1.711590 0.000000 0.000000 
#    y 0.000000 1.723990 0.000000 
#    z 0.000000 0.000000 1.751620 
# 
# From -- ./inp_files/13169.got.cif
#   From: 2010.05.17/outbox.cif.g08.bks.cpg/sg51_7_cif.got.tgz:13169.got - 2010.06.03 11:52:47.
