data_PCOD9404172
_publ_section_title
;
Structure prediction by ZEFSAII (Michael W. Deem and Ramdas Pophale) SiO2 
 PCOD9404172
Probable space group: P M M A
;
_chemical_formula_sum "Si O2"
_cell_formula_units_Z 48
_cell_length_a 8.722891
_cell_length_b 20.783160
_cell_length_c 14.736209
_cell_angle_alpha 90.000000
_cell_angle_beta 90.000000
_cell_angle_gamma 90.000000
_cell_volume 2671.516120
_symmetry_space_group_name_H-M "P M M A"
_symmetry_group_IT_number 51
_symmetry_cell_setting 'orthorhombic'
loop_
_space_group_symop_operation_xyz
x,y,z
1/2-x,-y,z
1/2+x,-y,-z
-x,y,-z
-x,-y,-z
1/2+x,y,-z
1/2-x,y,z
x,-y,z
loop_
_atom_site_type_symbol
_atom_site_label
_atom_site_fract_x
_atom_site_fract_y
_atom_site_fract_z
Si Si1 0.433441 0.757150 0.593482
Si Si2 0.932512 0.427549 0.214909
Si Si3 0.433274 0.386924 0.403823
Si Si4 0.933411 0.074798 0.900973
Si Si5 0.432893 0.810824 0.788697
Si Si6 0.066987 0.690112 0.101097
O O1 0.500000 0.784910 0.500000
O O2 0.250000 0.747542 0.585832
O O3 0.512692 0.687479 0.605081
O O4 0.465067 0.798911 0.682535
O O5 0.750000 0.415814 0.217539
O O6 0.959494 0.500000 0.180629
O O7 0.998169 0.421990 0.316566
O O8 0.010581 0.373412 0.153655
O O9 0.500000 0.410462 0.500000
O O10 0.250000 0.390665 0.404489
O O11 0.750000 0.080609 0.903568
O O12 0.001651 0.123013 0.827472
O O13 0.973076 0.000000 0.883554
O O14 0.000000 0.091979 0.000000
O O15 0.250000 0.808868 0.801363
O O16 0.506239 0.752023 0.844446
O O17 0.250000 0.691511 0.098068
O O18 0.000000 0.690842 0.000000
#
# Coordination Sequence:
#
# PCOD9404172 Si02
#       6
#     8   8   8   8   8   8
#     4  10  20  34  56  84 117 150 188 235 285 339
#     4  11  24  42  61  82 112 148 189 239 292 348
#     4  11  21  35  58  84 114 149 187 234 288 346
#     4  10  21  37  58  86 121 158 196 238 285 340
#     4  11  22  37  60  88 120 154 191 237 285 338
#     4  12  25  41  62  85 113 148 190 239 288 342
#
# _framework density 17.967327000000001
#
# number of rings (size 3 to 8) (size 9 to 14) (size 15 to 20)
#    0.000    1.167    1.667    6.500    0.000    5.000 
#    0.000    0.000    0.000    0.500    0.000    0.000 
#    0.000    0.000    0.000    0.000    0.000    0.000 
#
# Total GULP energy -268409.690279 kJ/mol
# GULP energy per Si atom -5591.868547 kJ/mol
# Density = 1.792643 g / cm^3
# Si number density = 17.967327 Si / 1000 Ang^3
#
#
#
# Elastic Constant Matrix: (Units=GPa)
#
#
# Indices 1 2 3 4 5 6 
#
# 1 108.5600 50.9805 59.3974 0.0000 0.0000 0.0000
# 2 50.9805 83.4609 62.6418 0.0000 0.0000 0.0000
# 3 59.3974 62.6418 133.4717 0.0000 0.0000 0.0000
# 4 0.0000 0.0000 0.0000 -265.1457 0.0000 0.0000
# 5 0.0000 0.0000 0.0000 0.0000 36.1640 0.0000
# 6 0.0000 0.0000 0.0000 0.0000 0.0000 30.8460
#
#
#
# Elastic Compliance Matrix: (Units=1/GPa)
#
#
# Indices 1 2 3 4 5 6 
#
# 1 0.013840 -0.005915 -0.003383 0.000000 0.000000 0.000000
# 2 -0.005915 0.021025 -0.007236 0.000000 0.000000 0.000000
# 3 -0.003383 -0.007236 0.012394 0.000000 0.000000 0.000000
# 4 0.000000 0.000000 0.000000 -0.003772 0.000000 0.000000
# 5 0.000000 0.000000 0.000000 0.000000 0.027652 0.000000
# 6 0.000000 0.000000 0.000000 0.000000 0.000000 0.032419
#
#
# Mechanical properties :
#
#
# Convention : Reuss Voigt Hill
#
# Bulk Modulus (GPa) = 70.46170 74.61469 72.53819
# Shear Modulus (GPa) = 35.37168 -29.46228 2.95470
#
# Velocity S-wave (km/s) = 4.44178 -4.05380 1.28377
# Velocity P-wave (km/s) = 8.09985 4.43927 6.53126
#
# Compressibility (1/GPa) = 0.01419211
#
# Stress axis : x y z
#
# Youngs Moduli (GPa) = 72.25344 47.56195 80.68662
#
# Poissons Ratio (x) = 0.28132 0.27298
# Poissons Ratio (y) = 0.42736 0.58381
# Poissons Ratio (z) = 0.24445 0.34414
#
# Static dielectric constant tensor:
#      x y z
#    x 1.598620 0.000000 0.000000 
#    y 0.000000 1.602130 0.000000 
#    z 0.000000 0.000000 1.608340 
# 
# From -- ./inp_files/21051.got.cif
#   From: 2010.05.17/outbox.cif.g08.bks.cpg/sg51_11_cif.got.tgz:21051.got - 2010.06.03 11:52:47.
