data_PCOD9404614
_publ_section_title
;
Structure prediction by ZEFSAII (Michael W. Deem and Ramdas Pophale) SiO2 
 PCOD9404614
Probable space group: P M M A
;
_chemical_formula_sum "Si O2"
_cell_formula_units_Z 48
_cell_length_a 16.769240
_cell_length_b 15.629121
_cell_length_c 9.919303
_cell_angle_alpha 90.000000
_cell_angle_beta 90.000000
_cell_angle_gamma 90.000000
_cell_volume 2599.735056
_symmetry_space_group_name_H-M "P M M A"
_symmetry_group_IT_number 51
_symmetry_cell_setting 'orthorhombic'
loop_
_space_group_symop_operation_xyz
x,y,z
1/2-x,-y,z
1/2+x,-y,-z
-x,y,-z
-x,-y,-z
1/2+x,y,-z
1/2-x,y,z
x,-y,z
loop_
_atom_site_type_symbol
_atom_site_label
_atom_site_fract_x
_atom_site_fract_y
_atom_site_fract_z
Si Si1 0.341185 0.771540 0.493935
Si Si2 0.037629 0.333046 0.136400
Si Si3 0.344413 0.817371 0.062784
Si Si4 0.085813 0.185652 0.772828
Si Si5 0.581981 0.405174 0.584448
Si Si6 0.930908 0.096280 0.695257
O O1 0.250000 0.789720 0.457417
O O2 0.357061 0.788972 0.650906
O O3 0.363144 0.674061 0.457943
O O4 0.399239 0.833541 0.409915
O O5 0.113032 0.273146 0.098269
O O6 0.060932 0.394368 0.257867
O O7 0.971367 0.266449 0.192495
O O8 0.000000 0.371440 0.000000
O O9 0.250000 0.813079 0.078672
O O10 0.383288 0.884299 0.166592
O O11 0.369024 0.837965 0.909630
O O12 0.023691 0.113571 0.725103
O O13 0.500000 0.396789 0.500000
O O14 0.615152 0.500000 0.558751
O O15 0.917190 0.000000 0.648449
#
# Coordination Sequence:
#
# PCOD9404614 Si02
#       6
#     8   8   8   8   8   8
#     4  12  23  38  59  86 121 153 190 245 298 342
#     4   9  18  34  58  84 113 148 190 238 282 340
#     4  10  20  35  58  87 116 148 190 238 293 346
#     4  10  20  38  59  82 113 153 199 231 283 347
#     4  11  21  37  61  87 118 156 198 239 284 347
#     4  11  23  39  61  85 115 154 196 242 290 345
#
# _framework density 18.463418999999998
#
# number of rings (size 3 to 8) (size 9 to 14) (size 15 to 20)
#    0.000    1.500    5.000    3.000    0.000    4.667 
#    0.000    0.000    0.000    3.000    0.000    0.000 
#    0.000    0.000    0.000    0.000    0.000    0.000 
#
# Total GULP energy -268014.054643 kJ/mol
# GULP energy per Si atom -5583.626138 kJ/mol
# Density = 1.842140 g / cm^3
# Si number density = 18.463419 Si / 1000 Ang^3
#
#
#
# Elastic Constant Matrix: (Units=GPa)
#
#
# Indices 1 2 3 4 5 6 
#
# 1 64.6162 13.1246 4.5231 0.0000 0.0000 0.0000
# 2 13.1246 83.0169 17.5831 0.0000 0.0000 0.0000
# 3 4.5231 17.5831 87.1890 0.0000 0.0000 0.0000
# 4 0.0000 0.0000 0.0000 2.9385 0.0000 0.0000
# 5 0.0000 0.0000 0.0000 0.0000 20.8819 0.0000
# 6 0.0000 0.0000 0.0000 0.0000 0.0000 6.1844
#
#
#
# Elastic Compliance Matrix: (Units=1/GPa)
#
#
# Indices 1 2 3 4 5 6 
#
# 1 0.015999 -0.002459 -0.000334 0.000000 0.000000 0.000000
# 2 -0.002459 0.012961 -0.002486 0.000000 0.000000 0.000000
# 3 -0.000334 -0.002486 0.011988 0.000000 0.000000 0.000000
# 4 0.000000 0.000000 0.000000 0.340309 0.000000 0.000000
# 5 0.000000 0.000000 0.000000 0.000000 0.047888 0.000000
# 6 0.000000 0.000000 0.000000 0.000000 0.000000 0.161698
#
#
# Mechanical properties :
#
#
# Convention : Reuss Voigt Hill
#
# Bulk Modulus (GPa) = 32.90566 33.92039 33.41303
# Shear Modulus (GPa) = 8.17620 19.30705 13.74162
#
# Velocity S-wave (km/s) = 2.10664 3.23722 2.73108
# Velocity P-wave (km/s) = 4.87627 5.69073 5.29917
#
# Compressibility (1/GPa) = 0.03038991
#
# Stress axis : x y z
#
# Youngs Moduli (GPa) = 62.50486 77.15441 83.41631
#
# Poissons Ratio (x) = 0.18969 0.02787
# Poissons Ratio (y) = 0.15367 0.20739
# Poissons Ratio (z) = 0.02089 0.19183
#
# Static dielectric constant tensor:
#      x y z
#    x 1.609830 0.000000 0.000000 
#    y 0.000000 1.628580 0.000000 
#    z 0.000000 0.000000 1.656710 
# 
# From -- ./inp_files/9614.got.cif
#   From: 2010.05.17/outbox.cif.g08.bks.cpg/sg51_5_cif.got.tgz:9614.got - 2010.06.03 11:52:47.
