data_PCOD9404605
_publ_section_title
;
Structure prediction by ZEFSAII (Michael W. Deem and Ramdas Pophale) SiO2 
 PCOD9404605
Probable space group: P M M A
;
_chemical_formula_sum "Si O2"
_cell_formula_units_Z 40
_cell_length_a 18.039739
_cell_length_b 7.595736
_cell_length_c 12.650682
_cell_angle_alpha 90.000000
_cell_angle_beta 90.000000
_cell_angle_gamma 90.000000
_cell_volume 1733.460902
_symmetry_space_group_name_H-M "P M M A"
_symmetry_group_IT_number 51
_symmetry_cell_setting 'orthorhombic'
loop_
_space_group_symop_operation_xyz
x,y,z
1/2-x,-y,z
1/2+x,-y,-z
-x,y,-z
-x,-y,-z
1/2+x,y,-z
1/2-x,y,z
x,-y,z
loop_
_atom_site_type_symbol
_atom_site_label
_atom_site_fract_x
_atom_site_fract_y
_atom_site_fract_z
Si Si1 0.918314 0.214792 0.538265
Si Si2 0.606878 0.799648 0.772822
Si Si3 0.051681 0.702419 0.851322
Si Si4 0.169399 0.295416 0.011580
Si Si5 0.334111 0.786584 0.670464
O O1 0.896940 0.278245 0.655055
O O2 0.860307 0.261218 0.447293
O O3 0.000000 0.272271 0.500000
O O4 0.921531 0.000000 0.544859
O O5 0.522718 0.797271 0.816034
O O6 0.633517 0.000000 0.764397
O O7 0.655443 0.712081 0.863652
O O8 0.029736 0.500000 0.874210
O O9 0.098645 0.779313 0.949220
O O10 0.108822 0.709520 0.754214
O O11 0.250000 0.217320 0.985170
O O12 0.171235 0.500000 0.979050
O O13 0.250000 0.732429 0.691367
O O14 0.338370 0.000000 0.678575
#
# Coordination Sequence:
#
# PCOD9404605 Si02
#       5
#     8   8   8   8   8
#     4   9  17  34  57  81 114 150 183 227 287 346
#     4  11  22  37  62  90 115 147 194 243 285 336
#     4  11  22  38  60  84 115 155 195 233 285 348
#     4  10  23  42  59  79 115 158 193 232 289 349
#     4  10  20  35  58  86 114 148 192 242 292 339
#
# _framework density 23.075225
#
# number of rings (size 3 to 8) (size 9 to 14) (size 15 to 20)
#    0.000    1.800    2.000    2.400    0.000    6.400 
#    0.000    5.000    0.000    0.000    0.000    0.000 
#    0.000    0.000    0.000    0.000    0.000    0.000 
#
# Total GULP energy -223647.167175 kJ/mol
# GULP energy per Si atom -5591.179179 kJ/mol
# Density = 2.302270 g / cm^3
# Si number density = 23.075225 Si / 1000 Ang^3
#
#
#
# Elastic Constant Matrix: (Units=GPa)
#
#
# Indices 1 2 3 4 5 6 
#
# 1 52.8648 -6.8205 -0.9127 0.0000 0.0000 0.0000
# 2 -6.8205 54.4694 -4.7697 0.0000 0.0000 0.0000
# 3 -0.9127 -4.7697 129.1974 0.0000 0.0000 0.0000
# 4 0.0000 0.0000 0.0000 21.9949 0.0000 0.0000
# 5 0.0000 0.0000 0.0000 0.0000 1561.1884 0.0000
# 6 0.0000 0.0000 0.0000 0.0000 0.0000 -38.8754
#
#
#
# Elastic Compliance Matrix: (Units=1/GPa)
#
#
# Indices 1 2 3 4 5 6 
#
# 1 0.019233 0.002428 0.000226 0.000000 0.000000 0.000000
# 2 0.002428 0.018725 0.000708 0.000000 0.000000 0.000000
# 3 0.000226 0.000708 0.007768 0.000000 0.000000 0.000000
# 4 0.000000 0.000000 0.000000 0.045465 0.000000 0.000000
# 5 0.000000 0.000000 0.000000 0.000000 0.000641 0.000000
# 6 0.000000 0.000000 0.000000 0.000000 0.000000 -0.025723
#
#
# Mechanical properties :
#
#
# Convention : Reuss Voigt Hill
#
# Bulk Modulus (GPa) = 19.06570 23.50289 21.28430
# Shear Modulus (GPa) = 65.04660 325.46387 195.25523
#
# Velocity S-wave (km/s) = 5.31509 11.88911 9.20872
# Velocity P-wave (km/s) = 6.77844 14.09522 11.05944
#
# Compressibility (1/GPa) = 0.05245021
#
# Stress axis : x y z
#
# Youngs Moduli (GPa) = 51.99304 53.40456 128.73591
#
# Poissons Ratio (x) = -0.12967 -0.02903
# Poissons Ratio (y) = -0.12624 -0.09120
# Poissons Ratio (z) = -0.01172 -0.03783
#
# Static dielectric constant tensor:
#      x y z
#    x 1.833640 0.000000 0.000000 
#    y 0.000000 1.883040 0.000000 
#    z 0.000000 0.000000 1.854920 
# 
# From -- ./inp_files/17059.got.cif
#   From: 2010.05.17/outbox.cif.g08.bks.cpg/sg51_9_cif.got.tgz:17059.got - 2010.06.03 11:52:47.
