data_PCOD9404776
_publ_section_title
;
Structure prediction by ZEFSAII (Michael W. Deem and Ramdas Pophale) SiO2 
 PCOD9404776
Probable space group: P M M A
;
_chemical_formula_sum "Si O2"
_cell_formula_units_Z 36
_cell_length_a 8.669526
_cell_length_b 23.742090
_cell_length_c 9.492125
_cell_angle_alpha 90.000000
_cell_angle_beta 90.000000
_cell_angle_gamma 90.000000
_cell_volume 1953.789400
_symmetry_space_group_name_H-M "P M M A"
_symmetry_group_IT_number 51
_symmetry_cell_setting 'orthorhombic'
loop_
_space_group_symop_operation_xyz
x,y,z
1/2-x,-y,z
1/2+x,-y,-z
-x,y,-z
-x,-y,-z
1/2+x,y,-z
1/2-x,y,z
x,-y,z
loop_
_atom_site_type_symbol
_atom_site_label
_atom_site_fract_x
_atom_site_fract_y
_atom_site_fract_z
Si Si1 0.436186 0.896522 0.658276
Si Si2 0.065117 0.337239 0.843743
Si Si3 0.065360 0.562589 0.342539
Si Si4 0.435210 0.000000 0.159006
Si Si5 0.435567 0.789989 0.843480
O O1 0.500000 0.900668 0.500000
O O2 0.250000 0.900603 0.655499
O O3 0.481522 0.837471 0.731964
O O4 0.503617 0.945917 0.755638
O O5 0.250000 0.339614 0.845617
O O6 0.018149 0.273528 0.800621
O O7 0.001080 0.386249 0.746306
O O8 0.000000 0.345474 0.000000
O O9 0.250000 0.566195 0.346239
O O10 0.023405 0.500000 0.286338
O O11 0.000000 0.566022 0.500000
O O12 0.250000 0.000000 0.155078
O O13 0.500000 0.000000 0.000000
O O14 0.250000 0.791082 0.853490
O O15 0.500000 0.801503 0.000000
#
# Coordination Sequence:
#
# PCOD9404776 Si02
#       5
#     8   8   8   4   8
#     4  11  23  40  60  86 118 152 189 231 279 329
#     4  10  20  36  57  83 113 146 185 230 278 329
#     4  10  21  37  56  79 108 144 185 229 279 335
#     4  12  25  42  63  88 116 150 190 232 279 332
#     4   9  20  37  58  83 112 146 186 229 276 331
#
# _framework density 18.425732
#
# number of rings (size 3 to 8) (size 9 to 14) (size 15 to 20)
#    0.000    1.778    0.000    4.000    0.000    7.111 
#    0.000    2.222    0.000    0.000    0.000    0.000 
#    0.000    0.000    0.000    0.000    0.000    0.000 
#
# Total GULP energy -201089.077910 kJ/mol
# GULP energy per Si atom -5585.807720 kJ/mol
# Density = 1.838379 g / cm^3
# Si number density = 18.425732 Si / 1000 Ang^3
#
#
#
# Elastic Constant Matrix: (Units=GPa)
#
#
# Indices 1 2 3 4 5 6 
#
# 1 77.7223 66.4699 52.5856 0.0000 0.0000 0.0000
# 2 66.4699 188.8427 124.1781 0.0000 0.0000 0.0000
# 3 52.5856 124.1781 140.2742 0.0000 0.0000 0.0000
# 4 0.0000 0.0000 0.0000 56.3411 0.0000 0.0000
# 5 0.0000 0.0000 0.0000 0.0000 38.0286 0.0000
# 6 0.0000 0.0000 0.0000 0.0000 0.0000 33.7989
#
#
#
# Elastic Compliance Matrix: (Units=1/GPa)
#
#
# Indices 1 2 3 4 5 6 
#
# 1 0.018874 -0.004764 -0.002858 0.000000 0.000000 0.000000
# 2 -0.004764 0.013875 -0.010497 0.000000 0.000000 0.000000
# 3 -0.002858 -0.010497 0.017492 0.000000 0.000000 0.000000
# 4 0.000000 0.000000 0.000000 0.017749 0.000000 0.000000
# 5 0.000000 0.000000 0.000000 0.000000 0.026296 0.000000
# 6 0.000000 0.000000 0.000000 0.000000 0.000000 0.029587
#
#
# Mechanical properties :
#
#
# Convention : Reuss Voigt Hill
#
# Bulk Modulus (GPa) = 71.40889 99.25626 85.33258
# Shear Modulus (GPa) = 30.34367 36.54074 33.44221
#
# Velocity S-wave (km/s) = 4.06249 4.45807 4.26487
# Velocity P-wave (km/s) = 7.80027 8.97131 8.40621
#
# Compressibility (1/GPa) = 0.01400386
#
# Stress axis : x y z
#
# Youngs Moduli (GPa) = 52.98164 72.07429 57.16737
#
# Poissons Ratio (x) = 0.34337 0.16340
# Poissons Ratio (y) = 0.25241 0.60006
# Poissons Ratio (z) = 0.15143 0.75653
#
# Static dielectric constant tensor:
#      x y z
#    x 1.618890 0.000000 0.000000 
#    y 0.000000 1.650410 0.000000 
#    z 0.000000 0.000000 1.581680 
# 
# From -- ./inp_files/5277.got.cif
#   From: 2010.05.17/outbox.cif.g08.bks.cpg/sg51_3_cif.got.tgz:5277.got - 2010.06.03 11:52:47.
