data_PCOD9404708
_publ_section_title
;
Structure prediction by ZEFSAII (Michael W. Deem and Ramdas Pophale) SiO2 
 PCOD9404708
Probable space group: P M M A
;
_chemical_formula_sum "Si O2"
_cell_formula_units_Z 56
_cell_length_a 18.555122
_cell_length_b 14.673804
_cell_length_c 12.644362
_cell_angle_alpha 90.000000
_cell_angle_beta 90.000000
_cell_angle_gamma 90.000000
_cell_volume 3442.733844
_symmetry_space_group_name_H-M "P M M A"
_symmetry_group_IT_number 51
_symmetry_cell_setting 'orthorhombic'
loop_
_space_group_symop_operation_xyz
x,y,z
1/2-x,-y,z
1/2+x,-y,-z
-x,y,-z
-x,-y,-z
1/2+x,y,-z
1/2-x,y,z
x,-y,z
loop_
_atom_site_type_symbol
_atom_site_label
_atom_site_fract_x
_atom_site_fract_y
_atom_site_fract_z
Si Si1 0.163606 0.394328 0.843907
Si Si2 0.593783 0.775940 0.812862
Si Si3 0.163656 0.602403 0.093394
Si Si4 0.423255 0.221369 0.781214
Si Si5 0.928075 0.893446 0.431856
Si Si6 0.164487 0.104628 0.366252
Si Si7 0.412899 0.895661 0.985558
O O1 0.250000 0.382456 0.831318
O O2 0.146878 0.500000 0.815975
O O3 0.119482 0.316544 0.783751
O O4 0.146554 0.383019 0.969131
O O5 0.628194 0.678497 0.835166
O O6 0.507952 0.764893 0.804754
O O7 0.623779 0.825863 0.709720
O O8 0.613692 0.839645 0.913128
O O9 0.250000 0.607158 0.102253
O O10 0.140571 0.500000 0.121285
O O11 0.418749 0.168766 0.670311
O O12 0.395632 0.157463 0.877530
O O13 0.862600 0.883869 0.513989
O O14 0.000000 0.871833 0.500000
O O15 0.934371 0.000000 0.399571
O O16 0.250000 0.115548 0.357664
O O17 0.145440 0.000000 0.335772
O O18 0.387369 0.000000 0.983736
O O19 0.500000 0.898193 0.000000
#
# Coordination Sequence:
#
# PCOD9404708 Si02
#       7
#     8   8   8   8   8   8   8
#     4   9  19  36  55  76 106 143 182 224 273 330
#     4  11  19  31  52  80 111 139 170 221 272 321
#     4   9  18  33  52  74 106 146 180 214 264 324
#     4  11  20  32  55  81 106 139 181 222 272 322
#     4  10  20  36  56  77 106 145 186 225 264 311
#     4  10  21  36  55  79 106 143 188 225 261 313
#     4   9  18  29  44  74 111 142 169 204 258 322
#
# _framework density 16.266141999999999
#
# number of rings (size 3 to 8) (size 9 to 14) (size 15 to 20)
#    0.000    2.143    2.857    2.143    0.000    2.286 
#    0.000    1.429    0.000    3.429    0.000    2.000 
#    0.000    0.000    0.000    0.000    0.000    0.000 
#
# Total GULP energy -312333.462869 kJ/mol
# GULP energy per Si atom -5577.383266 kJ/mol
# Density = 1.622912 g / cm^3
# Si number density = 16.266142 Si / 1000 Ang^3
#
#
#
# Elastic Constant Matrix: (Units=GPa)
#
#
# Indices 1 2 3 4 5 6 
#
# 1 39.5031 45.7056 24.8073 0.0000 0.0000 0.0000
# 2 45.7056 145.1770 71.9732 0.0000 0.0000 0.0000
# 3 24.8073 71.9732 87.3172 0.0000 0.0000 0.0000
# 4 0.0000 0.0000 0.0000 17.0069 0.0000 0.0000
# 5 0.0000 0.0000 0.0000 0.0000 19.1897 0.0000
# 6 0.0000 0.0000 0.0000 0.0000 0.0000 28.3625
#
#
#
# Elastic Compliance Matrix: (Units=1/GPa)
#
#
# Indices 1 2 3 4 5 6 
#
# 1 0.039961 -0.011757 -0.001663 0.000000 0.000000 0.000000
# 2 -0.011757 0.015107 -0.009112 0.000000 0.000000 0.000000
# 3 -0.001663 -0.009112 0.019436 0.000000 0.000000 0.000000
# 4 0.000000 0.000000 0.000000 0.058800 0.000000 0.000000
# 5 0.000000 0.000000 0.000000 0.000000 0.052111 0.000000
# 6 0.000000 0.000000 0.000000 0.000000 0.000000 0.035258
#
#
# Mechanical properties :
#
#
# Convention : Reuss Voigt Hill
#
# Bulk Modulus (GPa) = 33.96595 61.88549 47.92572
# Shear Modulus (GPa) = 18.14563 21.54589 19.84576
#
# Velocity S-wave (km/s) = 3.34360 3.64343 3.49673
# Velocity P-wave (km/s) = 5.98606 7.47179 6.76981
#
# Compressibility (1/GPa) = 0.02944125
#
# Stress axis : x y z
#
# Youngs Moduli (GPa) = 25.02435 66.19518 51.45186
#
# Poissons Ratio (x) = 0.77823 0.08554
# Poissons Ratio (y) = 0.29420 0.46883
# Poissons Ratio (z) = 0.04160 0.60317
#
# Static dielectric constant tensor:
#      x y z
#    x 1.546160 0.000000 0.000000 
#    y 0.000000 1.539100 0.000000 
#    z 0.000000 0.000000 1.525210 
# 
# From -- ./inp_files/18211.got.cif
#   From: 2010.05.17/outbox.cif.g08.bks.cpg/sg51_10_cif.got.tgz:18211.got - 2010.06.03 11:52:47.
