data_PCOD9404705
_publ_section_title
;
Structure prediction by ZEFSAII (Michael W. Deem and Ramdas Pophale) SiO2 
 PCOD9404705
Probable space group: P M M A
;
_chemical_formula_sum "Si O2"
_cell_formula_units_Z 48
_cell_length_a 8.171271
_cell_length_b 32.047732
_cell_length_c 9.858454
_cell_angle_alpha 90.000000
_cell_angle_beta 90.000000
_cell_angle_gamma 90.000000
_cell_volume 2581.640281
_symmetry_space_group_name_H-M "P M M A"
_symmetry_group_IT_number 51
_symmetry_cell_setting 'orthorhombic'
loop_
_space_group_symop_operation_xyz
x,y,z
1/2-x,-y,z
1/2+x,-y,-z
-x,y,-z
-x,-y,-z
1/2+x,y,-z
1/2-x,y,z
x,-y,z
loop_
_atom_site_type_symbol
_atom_site_label
_atom_site_fract_x
_atom_site_fract_y
_atom_site_fract_z
Si Si1 0.448044 0.864213 0.656408
Si Si2 0.052283 0.789900 0.847026
Si Si3 0.054280 0.695308 0.846838
Si Si4 0.447621 0.955198 0.657891
Si Si5 0.947788 0.452398 0.848024
Si Si6 0.444853 0.620960 0.345005
O O1 0.500000 0.860255 0.500000
O O2 0.250000 0.864008 0.660288
O O3 0.508193 0.825332 0.744613
O O4 0.503792 0.909929 0.710359
O O5 0.250000 0.789490 0.841212
O O6 0.995124 0.742606 0.817077
O O7 0.000000 0.799777 0.000000
O O8 0.250000 0.695524 0.844569
O O9 0.993936 0.661977 0.738522
O O10 0.000000 0.684481 0.000000
O O11 0.500000 0.955251 0.500000
O O12 0.250000 0.955335 0.664225
O O13 0.505336 0.000000 0.716076
O O14 0.750000 0.452693 0.844591
O O15 0.004730 0.500000 0.823904
O O16 0.009169 0.419345 0.737782
O O17 0.000000 0.440137 0.000000
O O18 0.500000 0.622066 0.500000
O O19 0.250000 0.618308 0.344297
#
# Coordination Sequence:
#
# PCOD9404705 Si02
#       6
#     8   8   8   8   8   8
#     4   9  17  29  45  68  95 121 154 195 239 286
#     4   9  19  34  51  71  95 126 162 199 239 287
#     4  10  20  36  56  76  99 129 168 209 249 296
#     4   8  13  22  38  60  86 116 149 187 231 278
#     4   9  19  36  57  80 105 135 172 210 247 291
#     4  11  23  37  54  78 108 139 170 207 253 299
#
# _framework density 18.592828999999998
#
# number of rings (size 3 to 8) (size 9 to 14) (size 15 to 20)
#    0.000    2.667    0.000    1.500    0.000    5.000 
#    0.000    1.667    0.000    0.500    0.000    0.000 
#    0.000    0.000    0.000    0.000    0.000    0.000 
#
# Total GULP energy -267524.099643 kJ/mol
# GULP energy per Si atom -5573.418743 kJ/mol
# Density = 1.855051 g / cm^3
# Si number density = 18.592829 Si / 1000 Ang^3
#
#
#
# Elastic Constant Matrix: (Units=GPa)
#
#
# Indices 1 2 3 4 5 6 
#
# 1 15.1616 18.0385 11.8334 0.0000 0.0000 0.0000
# 2 18.0385 173.7668 121.2677 0.0000 0.0000 0.0000
# 3 11.8334 121.2677 122.1875 0.0000 0.0000 0.0000
# 4 0.0000 0.0000 0.0000 37.5315 0.0000 0.0000
# 5 0.0000 0.0000 0.0000 0.0000 26.2796 0.0000
# 6 0.0000 0.0000 0.0000 0.0000 0.0000 21.4727
#
#
#
# Elastic Compliance Matrix: (Units=1/GPa)
#
#
# Indices 1 2 3 4 5 6 
#
# 1 0.075336 -0.008878 0.001515 0.000000 0.000000 0.000000
# 2 -0.008878 0.019769 -0.018760 0.000000 0.000000 0.000000
# 3 0.001515 -0.018760 0.026656 0.000000 0.000000 0.000000
# 4 0.000000 0.000000 0.000000 0.026644 0.000000 0.000000
# 5 0.000000 0.000000 0.000000 0.000000 0.038052 0.000000
# 6 0.000000 0.000000 0.000000 0.000000 0.000000 0.046571
#
#
# Mechanical properties :
#
#
# Convention : Reuss Voigt Hill
#
# Bulk Modulus (GPa) = 14.38537 68.15502 41.27020
# Shear Modulus (GPa) = 16.21032 27.72186 21.96609
#
# Velocity S-wave (km/s) = 2.95593 3.86553 3.44092
# Velocity P-wave (km/s) = 4.40498 7.52724 6.16698
#
# Compressibility (1/GPa) = 0.06951505
#
# Stress axis : x y z
#
# Youngs Moduli (GPa) = 13.27388 50.58529 37.51466
#
# Poissons Ratio (x) = 0.44908 -0.05683
# Poissons Ratio (y) = 0.11784 0.70378
# Poissons Ratio (z) = -0.02011 0.94898
#
# Static dielectric constant tensor:
#      x y z
#    x 1.654820 0.000000 0.000000 
#    y 0.000000 1.706460 0.000000 
#    z 0.000000 0.000000 1.590420 
# 
# From -- ./inp_files/6065.got.cif
#   From: 2010.05.17/outbox.cif.g08.bks.cpg/sg51_4_cif.got.tgz:6065.got - 2010.06.03 11:52:47.
