data_PCOD9404975
_publ_section_title
;
Structure prediction by ZEFSAII (Michael W. Deem and Ramdas Pophale) SiO2 
 PCOD9404975
Probable space group: P M M A
;
_chemical_formula_sum "Si O2"
_cell_formula_units_Z 48
_cell_length_a 15.148839
_cell_length_b 17.679813
_cell_length_c 8.688597
_cell_angle_alpha 90.000000
_cell_angle_beta 90.000000
_cell_angle_gamma 90.000000
_cell_volume 2327.055124
_symmetry_space_group_name_H-M "P M M A"
_symmetry_group_IT_number 51
_symmetry_cell_setting 'orthorhombic'
loop_
_space_group_symop_operation_xyz
x,y,z
1/2-x,-y,z
1/2+x,-y,-z
-x,y,-z
-x,-y,-z
1/2+x,y,-z
1/2-x,y,z
x,-y,z
loop_
_atom_site_type_symbol
_atom_site_label
_atom_site_fract_x
_atom_site_fract_y
_atom_site_fract_z
Si Si1 0.413996 0.721520 0.894537
Si Si2 0.464829 0.355159 0.341721
Si Si3 0.473128 0.916173 0.179055
Si Si4 0.847874 0.139689 0.291670
Si Si5 0.352184 0.203058 0.360259
Si Si6 0.349431 0.581737 0.087654
O O1 0.452753 0.683189 0.742550
O O2 0.360542 0.793635 0.835621
O O3 0.500000 0.740300 0.000000
O O4 0.362944 0.655829 0.984242
O O5 0.500000 0.387734 0.500000
O O6 0.396357 0.285642 0.363297
O O7 0.419079 0.411670 0.224394
O O8 0.566482 0.911310 0.267362
O O9 0.409414 0.851897 0.249387
O O10 0.433409 0.000000 0.198315
O O11 0.500000 0.907298 0.000000
O O12 0.750000 0.106038 0.272419
O O13 0.853892 0.172157 0.464940
O O14 0.250000 0.206579 0.309585
O O15 0.250000 0.583631 0.148780
O O16 0.361605 0.500000 0.007300
#
# Coordination Sequence:
#
# PCOD9404975 Si02
#       6
#     8   8   8   8   8   8
#     4  10  20  36  63  89 123 162 207 257 313 371
#     4  11  20  37  63  90 124 161 211 262 309 372
#     4  11  25  44  63  89 127 166 206 254 310 368
#     4  11  22  38  63  94 125 161 211 258 308 369
#     4  11  23  40  65  94 124 162 208 257 313 371
#     4  10  23  41  59  88 128 168 212 261 315 376
#
# _framework density 20.626927999999999
#
# number of rings (size 3 to 8) (size 9 to 14) (size 15 to 20)
#    0.000    1.333    3.333    2.000    2.333    6.000 
#    0.000    3.333    0.000    2.000    0.000    0.000 
#    0.000    0.000    0.000    0.000    0.000    0.000 
#
# Total GULP energy -268018.091251 kJ/mol
# GULP energy per Si atom -5583.710234 kJ/mol
# Density = 2.057998 g / cm^3
# Si number density = 20.626928 Si / 1000 Ang^3
#
#
#
# Elastic Constant Matrix: (Units=GPa)
#
#
# Indices 1 2 3 4 5 6 
#
# 1 90.1418 11.1792 8.8261 0.0000 0.0000 0.0000
# 2 11.1792 87.1895 4.1671 0.0000 0.0000 0.0000
# 3 8.8261 4.1671 66.8198 0.0000 0.0000 0.0000
# 4 0.0000 0.0000 0.0000 7.8707 0.0000 0.0000
# 5 0.0000 0.0000 0.0000 0.0000 23.2291 0.0000
# 6 0.0000 0.0000 0.0000 0.0000 0.0000 14.3752
#
#
#
# Elastic Compliance Matrix: (Units=1/GPa)
#
#
# Indices 1 2 3 4 5 6 
#
# 1 0.011406 -0.001395 -0.001420 0.000000 0.000000 0.000000
# 2 -0.001395 0.011674 -0.000544 0.000000 0.000000 0.000000
# 3 -0.001420 -0.000544 0.015187 0.000000 0.000000 0.000000
# 4 0.000000 0.000000 0.000000 0.127053 0.000000 0.000000
# 5 0.000000 0.000000 0.000000 0.000000 0.043049 0.000000
# 6 0.000000 0.000000 0.000000 0.000000 0.000000 0.069564
#
#
# Mechanical properties :
#
#
# Convention : Reuss Voigt Hill
#
# Bulk Modulus (GPa) = 31.69492 32.49954 32.09723
# Shear Modulus (GPa) = 16.93960 23.76026 20.34993
#
# Velocity S-wave (km/s) = 2.86883 3.39765 3.14438
# Velocity P-wave (km/s) = 5.13544 5.58410 5.36446
#
# Compressibility (1/GPa) = 0.03155080
#
# Stress axis : x y z
#
# Youngs Moduli (GPa) = 87.67637 85.65991 65.84559
#
# Poissons Ratio (x) = 0.11946 0.09347
# Poissons Ratio (y) = 0.12227 0.03581
# Poissons Ratio (z) = 0.12446 0.04658
#
# Static dielectric constant tensor:
#      x y z
#    x 1.722430 0.000000 0.000000 
#    y 0.000000 1.798620 0.000000 
#    z 0.000000 0.000000 1.747540 
# 
# From -- ./inp_files/8237.got.cif
#   From: 2010.05.17/outbox.cif.g08.bks.cpg/sg51_5_cif.got.tgz:8237.got - 2010.06.03 11:52:47.
