data_PCOD9404158
_publ_section_title
;
Structure prediction by ZEFSAII (Michael W. Deem and Ramdas Pophale) SiO2 
 PCOD9404158
Probable space group: P M M A
;
_chemical_formula_sum "Si O2"
_cell_formula_units_Z 56
_cell_length_a 14.787780
_cell_length_b 9.478641
_cell_length_c 22.903052
_cell_angle_alpha 90.000000
_cell_angle_beta 90.000000
_cell_angle_gamma 90.000000
_cell_volume 3210.276317
_symmetry_space_group_name_H-M "P M M A"
_symmetry_group_IT_number 51
_symmetry_cell_setting 'orthorhombic'
loop_
_space_group_symop_operation_xyz
x,y,z
1/2-x,-y,z
1/2+x,-y,-z
-x,y,-z
-x,-y,-z
1/2+x,y,-z
1/2-x,y,z
x,-y,z
loop_
_atom_site_type_symbol
_atom_site_label
_atom_site_fract_x
_atom_site_fract_y
_atom_site_fract_z
Si Si1 0.978313 0.830792 0.292981
Si Si2 0.944659 0.169151 0.159152
Si Si3 0.750000 0.331379 0.984298
Si Si4 0.250000 0.168034 0.893593
Si Si5 0.639870 0.661591 0.516295
Si Si6 0.142313 0.331286 0.614236
Si Si7 0.354074 0.168222 0.369753
Si Si8 0.052799 0.331575 0.060265
O O1 0.964627 0.789882 0.225810
O O2 0.910023 0.752050 0.336129
O O3 0.078516 0.798725 0.317076
O O4 0.964339 0.000000 0.297130
O O5 0.840896 0.201035 0.142065
O O6 0.008402 0.247893 0.113240
O O7 0.957271 0.000000 0.154064
O O8 0.750000 0.500000 0.995452
O O9 0.841860 0.297641 0.949858
O O10 0.750000 0.251454 0.045788
O O11 0.250000 0.000000 0.905454
O O12 0.750000 0.660740 0.514777
O O13 0.610238 0.500000 0.525142
O O14 0.611760 0.709519 0.451584
O O15 0.613895 0.756190 0.571039
O O16 0.250000 0.305752 0.618737
O O17 0.128371 0.500000 0.619370
O O18 0.250000 0.210097 0.358227
O O19 0.355621 0.000000 0.378879
O O20 0.043886 0.500000 0.069730
O O21 0.000000 0.297992 0.000000
#
# Coordination Sequence:
#
# PCOD9404158 Si02
#       8
#     8   8   4   4   8   8   8   8
#     4  10  22  37  53  76 106 143 181 218 262 312
#     4  10  22  38  55  80 112 144 180 219 260 312
#     4  10  20  36  58  86 114 140 173 216 267 316
#     4  10  20  34  56  82 110 142 175 214 261 314
#     4   8  15  30  52  76 102 132 170 218 272 322
#     4   9  19  35  53  77 108 139 173 217 267 320
#     4   9  18  34  54  74 100 135 178 224 267 315
#     4  10  20  36  59  84 112 143 176 218 265 311
#
# _framework density 17.44398
#
# number of rings (size 3 to 8) (size 9 to 14) (size 15 to 20)
#    0.000    2.571    1.429    0.857    1.000    3.429 
#    1.286    4.286    0.000    0.000    0.000    0.000 
#    0.000    0.000    0.000    0.000    0.000    0.000 
#
# Total GULP energy -312410.857510 kJ/mol
# GULP energy per Si atom -5578.765313 kJ/mol
# Density = 1.740428 g / cm^3
# Si number density = 17.443980 Si / 1000 Ang^3
#
#
#
# Elastic Constant Matrix: (Units=GPa)
#
#
# Indices 1 2 3 4 5 6 
#
# 1 130.9095 49.8081 95.2012 0.0000 0.0000 0.0000
# 2 49.8081 27.3907 63.6702 0.0000 0.0000 0.0000
# 3 95.2012 63.6702 181.9943 0.0000 0.0000 0.0000
# 4 0.0000 0.0000 0.0000 140.2824 0.0000 0.0000
# 5 0.0000 0.0000 0.0000 0.0000 29.7587 0.0000
# 6 0.0000 0.0000 0.0000 0.0000 0.0000 21.2968
#
#
#
# Elastic Compliance Matrix: (Units=1/GPa)
#
#
# Indices 1 2 3 4 5 6 
#
# 1 0.035870 -0.115707 0.021716 0.000000 0.000000 0.000000
# 2 -0.115707 0.568710 -0.138435 0.000000 0.000000 0.000000
# 3 0.021716 -0.138435 0.042566 0.000000 0.000000 0.000000
# 4 0.000000 0.000000 0.000000 0.007128 0.000000 0.000000
# 5 0.000000 0.000000 0.000000 0.000000 0.033604 0.000000
# 6 0.000000 0.000000 0.000000 0.000000 0.000000 0.046955
#
#
# Mechanical properties :
#
#
# Convention : Reuss Voigt Hill
#
# Bulk Modulus (GPa) = 5.48565 84.18375 44.83470
# Shear Modulus (GPa) = 3.96684 47.04189 25.50436
#
# Velocity S-wave (km/s) = 1.50963 5.19865 3.82785
# Velocity P-wave (km/s) = 2.48801 9.18688 6.73012
#
# Compressibility (1/GPa) = 0.18229365
#
# Stress axis : x y z
#
# Youngs Moduli (GPa) = 27.87826 1.75837 23.49283
#
# Poissons Ratio (x) = 0.20346 -0.51017
# Poissons Ratio (y) = 3.22571 3.25224
# Poissons Ratio (z) = -0.60541 0.24342
#
# Static dielectric constant tensor:
#      x y z
#    x 1.616490 0.000000 0.000000 
#    y 0.000000 1.577270 0.000000 
#    z 0.000000 0.000000 1.556890 
# 
# From -- ./inp_files/33557.got.cif
#   From: 2010.05.17/outbox.cif.g08.bks.cpg/sg51_17_cif.got.tgz:33557.got - 2010.06.03 11:52:47.
