data_PCOD9404631
_publ_section_title
;
Structure prediction by ZEFSAII (Michael W. Deem and Ramdas Pophale) SiO2 
 PCOD9404631
Probable space group: P M M A
;
_chemical_formula_sum "Si O2"
_cell_formula_units_Z 48
_cell_length_a 15.673862
_cell_length_b 14.146071
_cell_length_c 11.324191
_cell_angle_alpha 90.000000
_cell_angle_beta 90.000000
_cell_angle_gamma 90.000000
_cell_volume 2510.839996
_symmetry_space_group_name_H-M "P M M A"
_symmetry_group_IT_number 51
_symmetry_cell_setting 'orthorhombic'
loop_
_space_group_symop_operation_xyz
x,y,z
1/2-x,-y,z
1/2+x,-y,-z
-x,y,-z
-x,-y,-z
1/2+x,y,-z
1/2-x,y,z
x,-y,z
loop_
_atom_site_type_symbol
_atom_site_label
_atom_site_fract_x
_atom_site_fract_y
_atom_site_fract_z
Si Si1 0.346585 0.111301 0.757623
Si Si2 0.101777 0.213408 0.985118
Si Si3 0.345523 0.106352 0.210206
Si Si4 0.486782 0.809238 0.361118
Si Si5 0.150498 0.392449 0.827673
Si Si6 0.999474 0.602769 0.643085
O O1 0.250000 0.138917 0.724576
O O2 0.361828 0.136107 0.894131
O O3 0.421245 0.167996 0.693701
O O4 0.356532 0.000000 0.736228
O O5 0.123445 0.313879 0.923790
O O6 0.141253 0.185443 0.110265
O O7 0.000000 0.206049 0.000000
O O8 0.250000 0.113522 0.258877
O O9 0.417018 0.121083 0.308669
O O10 0.355654 0.000000 0.159617
O O11 0.500000 0.816092 0.500000
O O12 0.457272 0.702831 0.327047
O O13 0.250000 0.377075 0.798035
O O14 0.141678 0.500000 0.874460
O O15 0.090550 0.389241 0.711009
O O16 0.963330 0.500000 0.680186
O O17 0.000000 0.601208 0.500000
#
# Coordination Sequence:
#
# PCOD9404631 Si02
#       6
#     8   8   8   8   8   8
#     4  11  23  38  59  88 120 155 199 252 301 351
#     4  12  22  37  61  87 118 157 197 247 302 360
#     4  11  24  41  61  86 119 160 203 247 298 362
#     4  11  23  40  62  88 120 159 200 250 307 360
#     4  10  20  35  58  89 123 158 201 254 308 362
#     4   9  18  35  59  86 118 156 200 245 295 356
#
# _framework density 19.117108999999999
#
# number of rings (size 3 to 8) (size 9 to 14) (size 15 to 20)
#    0.000    1.333    3.333    2.500    0.000    4.333 
#    0.000    5.000    0.000    2.500    0.000    0.000 
#    0.000    0.000    0.000    0.000    0.000    0.000 
#
# Total GULP energy -267549.618456 kJ/mol
# GULP energy per Si atom -5573.950384 kJ/mol
# Density = 1.907360 g / cm^3
# Si number density = 19.117109 Si / 1000 Ang^3
#
#
#
# Elastic Constant Matrix: (Units=GPa)
#
#
# Indices 1 2 3 4 5 6 
#
# 1 95.7451 31.8717 35.4306 0.0000 0.0000 0.0000
# 2 31.8717 116.2580 29.3788 0.0000 0.0000 0.0000
# 3 35.4306 29.3788 77.9570 0.0000 0.0000 0.0000
# 4 0.0000 0.0000 0.0000 24.8753 0.0000 0.0000
# 5 0.0000 0.0000 0.0000 0.0000 -10.6675 0.0000
# 6 0.0000 0.0000 0.0000 0.0000 0.0000 87.8178
#
#
#
# Elastic Compliance Matrix: (Units=1/GPa)
#
#
# Indices 1 2 3 4 5 6 
#
# 1 0.013092 -0.002305 -0.005082 0.000000 0.000000 0.000000
# 2 -0.002305 0.009913 -0.002688 0.000000 0.000000 0.000000
# 3 -0.005082 -0.002688 0.016150 0.000000 0.000000 0.000000
# 4 0.000000 0.000000 0.000000 0.040201 0.000000 0.000000
# 5 0.000000 0.000000 0.000000 0.000000 -0.093742 0.000000
# 6 0.000000 0.000000 0.000000 0.000000 0.000000 0.011387
#
#
# Mechanical properties :
#
#
# Convention : Reuss Voigt Hill
#
# Bulk Modulus (GPa) = 52.61596 53.70249 53.15923
# Shear Modulus (GPa) = 212.90253 33.29039 123.09646
#
# Velocity S-wave (km/s) = 10.56453 4.17753 8.03309
# Velocity P-wave (km/s) = 13.28138 7.17086 10.67278
#
# Compressibility (1/GPa) = 0.01900564
#
# Stress axis : x y z
#
# Youngs Moduli (GPa) = 76.38171 100.88000 61.91899
#
# Poissons Ratio (x) = 0.23253 0.31465
# Poissons Ratio (y) = 0.17606 0.16644
# Poissons Ratio (z) = 0.38814 0.27118
#
# Static dielectric constant tensor:
#      x y z
#    x 1.643250 0.000000 0.000000 
#    y 0.000000 1.705910 0.000000 
#    z 0.000000 0.000000 1.671990 
# 
# From -- ./inp_files/16437.got.cif
#   From: 2010.05.17/outbox.cif.g08.bks.cpg/sg51_9_cif.got.tgz:16437.got - 2010.06.03 11:52:47.
