data_PCOD9404372
_publ_section_title
;
Structure prediction by ZEFSAII (Michael W. Deem and Ramdas Pophale) SiO2 
 PCOD9404372
Probable space group: P M M A
;
_chemical_formula_sum "Si O2"
_cell_formula_units_Z 44
_cell_length_a 8.575898
_cell_length_b 29.284052
_cell_length_c 9.763948
_cell_angle_alpha 90.000000
_cell_angle_beta 90.000000
_cell_angle_gamma 90.000000
_cell_volume 2452.089029
_symmetry_space_group_name_H-M "P M M A"
_symmetry_group_IT_number 51
_symmetry_cell_setting 'orthorhombic'
loop_
_space_group_symop_operation_xyz
x,y,z
1/2-x,-y,z
1/2+x,-y,-z
-x,y,-z
-x,-y,-z
1/2+x,y,-z
1/2-x,y,z
x,-y,z
loop_
_atom_site_type_symbol
_atom_site_label
_atom_site_fract_x
_atom_site_fract_y
_atom_site_fract_z
Si Si1 0.561275 0.815836 0.845841
Si Si2 0.938707 0.100122 0.655458
Si Si3 0.563295 0.370479 0.651763
Si Si4 0.938175 0.266626 0.652243
Si Si5 0.562170 0.000000 0.654934
Si Si6 0.063340 0.448890 0.846426
O O1 0.750000 0.815999 0.849884
O O2 0.510246 0.859607 0.756192
O O3 0.510448 0.770568 0.763100
O O4 0.500000 0.816959 0.000000
O O5 0.750000 0.101240 0.648486
O O6 0.987197 0.049661 0.709941
O O7 0.000000 0.106056 0.500000
O O8 0.500000 0.379531 0.500000
O O9 0.750000 0.371660 0.650467
O O10 0.513892 0.318514 0.688015
O O11 0.501023 0.408652 0.753335
O O12 0.750000 0.265468 0.646390
O O13 0.000000 0.255972 0.500000
O O14 0.500000 0.000000 0.500000
O O15 0.750000 0.000000 0.654717
O O16 0.750000 0.446831 0.151330
O O17 0.017218 0.500000 0.797742
O O18 0.000000 0.443885 0.000000
#
# Coordination Sequence:
#
# PCOD9404372 Si02
#       6
#     8   8   8   8   4   8
#     4  10  21  35  49  70 100 132 166 203 245 294
#     4   9  17  30  50  73  97 126 162 203 246 293
#     4  10  20  35  55  79 106 134 167 209 254 301
#     4   9  19  35  54  76 100 128 165 206 249 297
#     4   8  14  26  45  70  96 122 156 200 245 288
#     4  10  21  37  56  78 105 138 174 210 250 298
#
# _framework density 17.943884000000001
#
# number of rings (size 3 to 8) (size 9 to 14) (size 15 to 20)
#    0.000    2.545    0.000    1.636    0.000    4.364 
#    0.000    2.273    0.000    0.000    0.000    0.000 
#    0.000    0.000    0.000    0.000    0.000    0.000 
#
# Total GULP energy -245327.341904 kJ/mol
# GULP energy per Si atom -5575.621407 kJ/mol
# Density = 1.790304 g / cm^3
# Si number density = 17.943884 Si / 1000 Ang^3
#
#
#
# Elastic Constant Matrix: (Units=GPa)
#
#
# Indices 1 2 3 4 5 6 
#
# 1 18.9515 36.6409 23.9556 0.0000 0.0000 0.0000
# 2 36.6409 190.2718 122.7162 0.0000 0.0000 0.0000
# 3 23.9556 122.7162 117.7213 0.0000 0.0000 0.0000
# 4 0.0000 0.0000 0.0000 -14.6464 0.0000 0.0000
# 5 0.0000 0.0000 0.0000 0.0000 33.7667 0.0000
# 6 0.0000 0.0000 0.0000 0.0000 0.0000 59.6315
#
#
#
# Elastic Compliance Matrix: (Units=1/GPa)
#
#
# Indices 1 2 3 4 5 6 
#
# 1 0.084084 -0.015737 -0.000706 0.000000 0.000000 0.000000
# 2 -0.015737 0.018984 -0.016587 0.000000 0.000000 0.000000
# 3 -0.000706 -0.016587 0.025929 0.000000 0.000000 0.000000
# 4 0.000000 0.000000 0.000000 -0.068276 0.000000 0.000000
# 5 0.000000 0.000000 0.000000 0.000000 0.029615 0.000000
# 6 0.000000 0.000000 0.000000 0.000000 0.000000 0.016770
#
#
# Mechanical properties :
#
#
# Convention : Reuss Voigt Hill
#
# Bulk Modulus (GPa) = 15.88885 77.06335 46.47610
# Shear Modulus (GPa) = 25.75389 25.32581 25.53985
#
# Velocity S-wave (km/s) = 3.79257 3.76092 3.77678
# Velocity P-wave (km/s) = 5.29643 7.86762 6.70640
#
# Compressibility (1/GPa) = 0.06293723
#
# Stress axis : x y z
#
# Youngs Moduli (GPa) = 11.89285 52.67594 38.56636
#
# Poissons Ratio (x) = 0.82894 0.02724
# Poissons Ratio (y) = 0.18715 0.63971
# Poissons Ratio (z) = 0.00840 0.87374
#
# Static dielectric constant tensor:
#      x y z
#    x 1.612240 0.000000 0.000000 
#    y 0.000000 1.654720 0.000000 
#    z 0.000000 0.000000 1.556380 
# 
# From -- ./inp_files/5703.got.cif
#   From: 2010.05.17/outbox.cif.g08.bks.cpg/sg51_3_cif.got.tgz:5703.got - 2010.06.03 11:52:47.
