data_PCOD9404796
_publ_section_title
;
Structure prediction by ZEFSAII (Michael W. Deem and Ramdas Pophale) SiO2 
 PCOD9404796
Probable space group: P M M A
;
_chemical_formula_sum "Si O2"
_cell_formula_units_Z 40
_cell_length_a 14.868016
_cell_length_b 8.044410
_cell_length_c 17.770029
_cell_angle_alpha 90.000000
_cell_angle_beta 90.000000
_cell_angle_gamma 90.000000
_cell_volume 2125.373951
_symmetry_space_group_name_H-M "P M M A"
_symmetry_group_IT_number 51
_symmetry_cell_setting 'orthorhombic'
loop_
_space_group_symop_operation_xyz
x,y,z
1/2-x,-y,z
1/2+x,-y,-z
-x,y,-z
-x,-y,-z
1/2+x,y,-z
1/2-x,y,z
x,-y,z
loop_
_atom_site_type_symbol
_atom_site_label
_atom_site_fract_x
_atom_site_fract_y
_atom_site_fract_z
Si Si1 0.013597 0.699726 0.882124
Si Si2 0.556865 0.700628 0.572340
Si Si3 0.440221 0.802160 0.714198
Si Si4 0.750000 0.700965 0.522819
Si Si5 0.647010 0.703293 0.987074
Si Si6 0.250000 0.798903 0.652204
O O1 0.012752 0.500000 0.886264
O O2 0.029032 0.748132 0.796561
O O3 0.095164 0.755535 0.936675
O O4 0.919288 0.756116 0.919279
O O5 0.500000 0.759845 0.500000
O O6 0.557697 0.500000 0.569567
O O7 0.509111 0.750434 0.649112
O O8 0.658834 0.760566 0.562176
O O9 0.341060 0.736435 0.691762
O O10 0.434662 0.000000 0.713976
O O11 0.750000 0.500000 0.525580
O O12 0.750000 0.749750 0.435268
O O13 0.750000 0.760796 0.982409
O O14 0.649207 0.500000 0.986802
O O15 0.250000 0.000000 0.655612
#
# Coordination Sequence:
#
# PCOD9404796 Si02
#       6
#     8   8   8   4   8   4
#     4   9  18  33  55  81 106 134 175 219 262 314
#     4  10  20  36  58  81 106 136 177 223 268 314
#     4  11  23  37  53  77 111 145 177 217 264 316
#     4  10  20  36  58  82 103 132 177 228 271 312
#     4   8  15  31  55  81 106 134 170 216 266 313
#     4  10  22  36  52  76 107 142 177 216 267 320
#
# _framework density 18.820219000000002
#
# number of rings (size 3 to 8) (size 9 to 14) (size 15 to 20)
#    0.000    2.400    2.000    1.800    1.400    2.000 
#    1.800    2.000    0.000    1.200    0.000    0.000 
#    0.000    0.000    0.000    0.000    0.000    0.000 
#
# Total GULP energy -223181.904212 kJ/mol
# GULP energy per Si atom -5579.547605 kJ/mol
# Density = 1.877738 g / cm^3
# Si number density = 18.820219 Si / 1000 Ang^3
#
#
#
# Elastic Constant Matrix: (Units=GPa)
#
#
# Indices 1 2 3 4 5 6 
#
# 1 226.8528 19.2216 129.4216 0.0000 0.0000 0.0000
# 2 19.2216 8.4073 5.5333 0.0000 0.0000 0.0000
# 3 129.4216 5.5333 193.1614 0.0000 0.0000 0.0000
# 4 0.0000 0.0000 0.0000-5969.9667 0.0000 0.0000
# 5 0.0000 0.0000 0.0000 0.0000 11.1558 0.0000
# 6 0.0000 0.0000 0.0000 0.0000 0.0000 10.9489
#
#
#
# Elastic Compliance Matrix: (Units=1/GPa)
#
#
# Indices 1 2 3 4 5 6 
#
# 1 0.009012 -0.016950 -0.005553 0.000000 0.000000 0.000000
# 2 -0.016950 0.153109 0.006971 0.000000 0.000000 0.000000
# 3 -0.005553 0.006971 0.008698 0.000000 0.000000 0.000000
# 4 0.000000 0.000000 0.000000 -0.000168 0.000000 0.000000
# 5 0.000000 0.000000 0.000000 0.000000 0.089640 0.000000
# 6 0.000000 0.000000 0.000000 0.000000 0.000000 0.091333
#
#
# Mechanical properties :
#
#
# Convention : Reuss Voigt Hill
#
# Bulk Modulus (GPa) = 7.15537 81.86381 44.50959
# Shear Modulus (GPa) = 11.64757 -1171.28939 -579.82091
#
# Velocity S-wave (km/s) = 2.49044 -24.97415 -17.57136
# Velocity P-wave (km/s) = 3.47562 28.07167 19.69694
#
# Compressibility (1/GPa) = 0.13975517
#
# Stress axis : x y z
#
# Youngs Moduli (GPa) = 110.95938 6.53129 114.97105
#
# Poissons Ratio (x) = 0.11071 0.63842
# Poissons Ratio (y) = 1.88078 -0.80146
# Poissons Ratio (z) = 0.61614 -0.04553
#
# Static dielectric constant tensor:
#      x y z
#    x 1.669820 0.000000 0.000000 
#    y 0.000000 1.667230 0.000000 
#    z 0.000000 0.000000 1.620270 
# 
# From -- ./inp_files/23740.got.cif
#   From: 2010.05.17/outbox.cif.g08.bks.cpg/sg51_12_cif.got.tgz:23740.got - 2010.06.03 11:52:47.
