data_PCOD9404546
_publ_section_title
;
Structure prediction by ZEFSAII (Michael W. Deem and Ramdas Pophale) SiO2 
 PCOD9404546
Probable space group: P M M A
;
_chemical_formula_sum "Si O2"
_cell_formula_units_Z 36
_cell_length_a 8.835332
_cell_length_b 14.700970
_cell_length_c 14.775209
_cell_angle_alpha 90.000000
_cell_angle_beta 90.000000
_cell_angle_gamma 90.000000
_cell_volume 1919.121618
_symmetry_space_group_name_H-M "P M M A"
_symmetry_group_IT_number 51
_symmetry_cell_setting 'orthorhombic'
loop_
_space_group_symop_operation_xyz
x,y,z
1/2-x,-y,z
1/2+x,-y,-z
-x,y,-z
-x,-y,-z
1/2+x,y,-z
1/2-x,y,z
x,-y,z
loop_
_atom_site_type_symbol
_atom_site_label
_atom_site_fract_x
_atom_site_fract_y
_atom_site_fract_z
Si Si1 0.069142 0.000000 0.901325
Si Si2 0.429043 0.346429 0.227729
Si Si3 0.432651 0.852686 0.752826
Si Si4 0.432761 0.000000 0.601241
Si Si5 0.431496 0.500000 0.899606
Si Si6 0.919433 0.607465 0.412434
O O1 0.027554 0.086073 0.839696
O O2 0.250000 0.000000 0.909601
O O3 0.000000 0.000000 0.000000
O O4 0.250000 0.350250 0.212977
O O5 0.488642 0.243487 0.232798
O O6 0.510742 0.410999 0.154708
O O7 0.475219 0.383554 0.325995
O O8 0.250000 0.841771 0.750258
O O9 0.474743 0.911420 0.662934
O O10 0.500000 0.000000 0.500000
O O11 0.250000 0.000000 0.594951
O O12 0.250000 0.500000 0.902009
O O13 0.500000 0.500000 0.000000
O O14 0.750000 0.645067 0.396494
O O15 0.901893 0.500000 0.428842
O O16 0.000000 0.649267 0.500000
#
# Coordination Sequence:
#
# PCOD9404546 Si02
#       6
#     4   8   8   4   4   8
#     4   9  19  37  62  86 112 147 187 239 297 354
#     4  12  24  39  61  90 123 160 202 249 300 360
#     4   9  20  39  59  84 119 159 198 240 297 360
#     4   9  19  37  62  88 120 161 203 247 299 356
#     4  12  26  46  67  88 117 158 204 256 310 364
#     4  10  20  35  57  83 114 154 196 241 290 339
#
# _framework density 18.758583000000002
#
# number of rings (size 3 to 8) (size 9 to 14) (size 15 to 20)
#    0.000    1.778    1.111    5.000    0.000    4.444 
#    0.000    6.667    0.000    0.000    0.000    0.000 
#    0.000    0.000    0.000    0.000    0.000    0.000 
#
# Total GULP energy -200888.431979 kJ/mol
# GULP energy per Si atom -5580.234222 kJ/mol
# Density = 1.871589 g / cm^3
# Si number density = 18.758583 Si / 1000 Ang^3
#
#
#
# Elastic Constant Matrix: (Units=GPa)
#
#
# Indices 1 2 3 4 5 6 
#
# 1 116.6046 65.3543 62.6269 0.0000 0.0000 0.0000
# 2 65.3543 119.4607 68.1956 0.0000 0.0000 0.0000
# 3 62.6269 68.1956 179.8714 0.0000 0.0000 0.0000
# 4 0.0000 0.0000 0.0000 492.9064 0.0000 0.0000
# 5 0.0000 0.0000 0.0000 0.0000 35.2776 0.0000
# 6 0.0000 0.0000 0.0000 0.0000 0.0000 23.8775
#
#
#
# Elastic Compliance Matrix: (Units=1/GPa)
#
#
# Indices 1 2 3 4 5 6 
#
# 1 0.013106 -0.005826 -0.002354 0.000000 0.000000 0.000000
# 2 -0.005826 0.013273 -0.003004 0.000000 0.000000 0.000000
# 3 -0.002354 -0.003004 0.007518 0.000000 0.000000 0.000000
# 4 0.000000 0.000000 0.000000 0.002029 0.000000 0.000000
# 5 0.000000 0.000000 0.000000 0.000000 0.028347 0.000000
# 6 0.000000 0.000000 0.000000 0.000000 0.000000 0.041880
#
#
# Mechanical properties :
#
#
# Convention : Reuss Voigt Hill
#
# Bulk Modulus (GPa) = 86.73948 89.81002 88.27475
# Shear Modulus (GPa) = 37.77477 125.06296 81.41886
#
# Velocity S-wave (km/s) = 4.49233 8.17401 6.59528
# Velocity P-wave (km/s) = 8.55852 11.70755 10.25463
#
# Compressibility (1/GPa) = 0.01152878
#
# Stress axis : x y z
#
# Youngs Moduli (GPa) = 76.30247 75.34136 133.01258
#
# Poissons Ratio (x) = 0.43893 0.31315
# Poissons Ratio (y) = 0.44453 0.39954
# Poissons Ratio (z) = 0.17964 0.22631
#
# Static dielectric constant tensor:
#      x y z
#    x 1.650770 0.000000 0.000000 
#    y 0.000000 1.628280 0.000000 
#    z 0.000000 0.000000 1.639640 
# 
# From -- ./inp_files/20417.got.cif
#   From: 2010.05.17/outbox.cif.g08.bks.cpg/sg51_11_cif.got.tgz:20417.got - 2010.06.03 11:52:47.
