data_PCOD9404625
_publ_section_title
;
Structure prediction by ZEFSAII (Michael W. Deem and Ramdas Pophale) SiO2 
 PCOD9404625
Probable space group: P M M A
;
_chemical_formula_sum "Si O2"
_cell_formula_units_Z 64
_cell_length_a 8.434652
_cell_length_b 14.892844
_cell_length_c 26.023541
_cell_angle_alpha 90.000000
_cell_angle_beta 90.000000
_cell_angle_gamma 90.000000
_cell_volume 3268.971992
_symmetry_space_group_name_H-M "P M M A"
_symmetry_group_IT_number 51
_symmetry_cell_setting 'orthorhombic'
loop_
_space_group_symop_operation_xyz
x,y,z
1/2-x,-y,z
1/2+x,-y,-z
-x,y,-z
-x,-y,-z
1/2+x,y,-z
1/2-x,y,z
x,-y,z
loop_
_atom_site_type_symbol
_atom_site_label
_atom_site_fract_x
_atom_site_fract_y
_atom_site_fract_z
Si Si1 0.938502 0.784995 0.751414
Si Si2 0.439018 0.399182 0.588631
Si Si3 0.441421 0.595634 0.941040
Si Si4 0.941003 0.100192 0.154863
Si Si5 0.558652 0.599976 0.705251
Si Si6 0.439256 0.104542 0.653953
Si Si7 0.558356 0.792529 0.058168
Si Si8 0.562842 0.210130 0.555238
O O1 0.750000 0.783839 0.757301
O O2 0.992661 0.683018 0.740253
O O3 0.011726 0.830673 0.801181
O O4 0.982284 0.843787 0.701499
O O5 0.250000 0.391617 0.581704
O O6 0.489030 0.500000 0.572214
O O7 0.480388 0.391651 0.649150
O O8 0.522093 0.315634 0.561649
O O9 0.250000 0.595374 0.940516
O O10 0.495274 0.500000 0.917606
O O11 0.492836 0.693309 0.921605
O O12 0.500000 0.594863 0.000000
O O13 0.750000 0.097254 0.153395
O O14 0.996395 0.134281 0.099143
O O15 0.999873 0.000000 0.166591
O O16 0.750000 0.606033 0.698234
O O17 0.522439 0.500000 0.725334
O O18 0.250000 0.107671 0.661007
O O19 0.483320 0.155806 0.601678
O O20 0.488127 0.000000 0.652157
O O21 0.750000 0.793650 0.056597
O O22 0.500000 0.805232 0.000000
O O23 0.500000 0.179612 0.500000
O O24 0.750000 0.198065 0.558496
#
# Coordination Sequence:
#
# PCOD9404625 Si02
#       8
#     8   8   8   8   8   8   8   8
#     4  11  22  37  61  90 116 147 188 237 283 334
#     4  10  20  35  58  88 120 155 196 239 285 344
#     4   8  13  23  42  68  97 129 167 212 262 317
#     4  10  22  39  56  77 110 151 190 234 290 345
#     4   9  18  34  57  85 117 152 186 225 282 345
#     4  11  24  42  64  88 115 150 191 239 297 355
#     4   9  18  33  53  77 106 142 184 228 279 339
#     4  12  25  41  61  86 119 158 198 245 295 346
#
# _framework density 19.578022000000001
#
# number of rings (size 3 to 8) (size 9 to 14) (size 15 to 20)
#    0.000    2.000    1.250    2.625    0.000    5.250 
#    0.000    0.625    0.000    0.750    0.000    3.500 
#    0.000    0.000    0.000    0.000    0.000    0.000 
#
# Total GULP energy -357178.556605 kJ/mol
# GULP energy per Si atom -5580.914947 kJ/mol
# Density = 1.953346 g / cm^3
# Si number density = 19.578022 Si / 1000 Ang^3
#
#
#
# Elastic Constant Matrix: (Units=GPa)
#
#
# Indices 1 2 3 4 5 6 
#
# 1 11.8836 7.6030 -5.2744 0.0000 0.0000 0.0000
# 2 7.6030 98.3886 36.3177 0.0000 0.0000 0.0000
# 3 -5.2744 36.3177 81.9564 0.0000 0.0000 0.0000
# 4 0.0000 0.0000 0.0000 3.8398 0.0000 0.0000
# 5 0.0000 0.0000 0.0000 0.0000 25.6110 0.0000
# 6 0.0000 0.0000 0.0000 0.0000 0.0000 25.2546
#
#
#
# Elastic Compliance Matrix: (Units=1/GPa)
#
#
# Indices 1 2 3 4 5 6 
#
# 1 0.096680 -0.011678 0.011397 0.000000 0.000000 0.000000
# 2 -0.011678 0.013562 -0.006761 0.000000 0.000000 0.000000
# 3 0.011397 -0.006761 0.015931 0.000000 0.000000 0.000000
# 4 0.000000 0.000000 0.000000 0.260431 0.000000 0.000000
# 5 0.000000 0.000000 0.000000 0.000000 0.039046 0.000000
# 6 0.000000 0.000000 0.000000 0.000000 0.000000 0.039597
#
#
# Mechanical properties :
#
#
# Convention : Reuss Voigt Hill
#
# Bulk Modulus (GPa) = 8.92155 29.94682 19.43418
# Shear Modulus (GPa) = 9.67691 21.17988 15.42840
#
# Velocity S-wave (km/s) = 2.22564 3.29267 2.81026
# Velocity P-wave (km/s) = 3.34237 5.45756 4.52528
#
# Compressibility (1/GPa) = 0.11208810
#
# Stress axis : x y z
#
# Youngs Moduli (GPa) = 10.34344 73.73563 62.76976
#
# Poissons Ratio (x) = 0.86107 -0.71537
# Poissons Ratio (y) = 0.12079 0.42441
# Poissons Ratio (z) = -0.11788 0.49855
#
# Static dielectric constant tensor:
#      x y z
#    x 1.674130 0.000000 0.000000 
#    y 0.000000 1.732580 0.000000 
#    z 0.000000 0.000000 1.661610 
# 
# From -- ./inp_files/34823.got.cif
#   From: 2010.05.17/outbox.cif.g08.bks.cpg/sg51_18_cif.got.tgz:34823.got - 2010.06.03 11:52:47.
