data_PCOD9404969
_publ_section_title
;
Structure prediction by ZEFSAII (Michael W. Deem and Ramdas Pophale) SiO2 
 PCOD9404969
Probable space group: P M M A
;
_chemical_formula_sum "Si O2"
_cell_formula_units_Z 48
_cell_length_a 18.269785
_cell_length_b 15.286488
_cell_length_c 9.140050
_cell_angle_alpha 90.000000
_cell_angle_beta 90.000000
_cell_angle_gamma 90.000000
_cell_volume 2552.640925
_symmetry_space_group_name_H-M "P M M A"
_symmetry_group_IT_number 51
_symmetry_cell_setting 'orthorhombic'
loop_
_space_group_symop_operation_xyz
x,y,z
1/2-x,-y,z
1/2+x,-y,-z
-x,y,-z
-x,-y,-z
1/2+x,y,-z
1/2-x,y,z
x,-y,z
loop_
_atom_site_type_symbol
_atom_site_label
_atom_site_fract_x
_atom_site_fract_y
_atom_site_fract_z
Si Si1 0.835316 0.500000 0.686367
Si Si2 0.667049 0.838006 0.784886
Si Si3 0.919376 0.000000 0.292791
Si Si4 0.074339 0.156349 0.925686
Si Si5 0.543061 0.685407 0.285006
Si Si6 0.408138 0.000000 0.371290
Si Si7 0.003746 0.500000 0.172428
Si Si8 0.619242 0.687111 0.578823
O O1 0.750000 0.500000 0.741395
O O2 0.908931 0.500000 0.788489
O O3 0.848418 0.410023 0.598300
O O4 0.750000 0.865207 0.808012
O O5 0.664122 0.754539 0.677380
O O6 0.623983 0.914161 0.702875
O O7 0.629839 0.824603 0.942577
O O8 0.901425 0.084985 0.194672
O O9 0.887522 0.000000 0.456766
O O10 0.005785 0.000000 0.333327
O O11 0.054469 0.246304 0.844428
O O12 0.000000 0.120811 0.000000
O O13 0.537419 0.585223 0.234153
O O14 0.604813 0.702627 0.407454
O O15 0.462511 0.697618 0.354176
O O16 0.000000 0.500000 0.000000
#
# Coordination Sequence:
#
# PCOD9404969 Si02
#       8
#     4   8   4   8   8   4   4   8
#     4  10  21  37  59  85 119 163 200 240 302 361
#     4  12  25  40  59  87 124 163 196 241 308 367
#     4  11  22  38  66  93 114 146 205 255 295 338
#     4  12  21  38  62  91 122 155 198 250 295 356
#     4  10  20  36  62  91 116 150 204 256 297 332
#     4  11  22  41  63  90 115 152 200 252 294 356
#     4  10  21  35  61  93 126 154 201 257 297 351
#     4  10  20  38  61  88 116 154 204 252 291 353
#
# _framework density 18.804054000000001
#
# number of rings (size 3 to 8) (size 9 to 14) (size 15 to 20)
#    0.000    1.167    3.333    3.500    2.333    4.667 
#    0.000    5.000    0.000    3.000    0.000    0.000 
#    0.000    0.000    0.000    0.000    0.000    0.000 
#
# Total GULP energy -267774.786310 kJ/mol
# GULP energy per Si atom -5578.641381 kJ/mol
# Density = 1.876126 g / cm^3
# Si number density = 18.804054 Si / 1000 Ang^3
#
#
#
# Elastic Constant Matrix: (Units=GPa)
#
#
# Indices 1 2 3 4 5 6 
#
# 1 54.7638 13.7198 24.7309 0.0000 0.0000 0.0000
# 2 13.7198 107.9150 45.9593 0.0000 0.0000 0.0000
# 3 24.7309 45.9593 130.3772 0.0000 0.0000 0.0000
# 4 0.0000 0.0000 0.0000 -5.4847 0.0000 0.0000
# 5 0.0000 0.0000 0.0000 0.0000 14.7007 0.0000
# 6 0.0000 0.0000 0.0000 0.0000 0.0000 -24.1556
#
#
#
# Elastic Compliance Matrix: (Units=1/GPa)
#
#
# Indices 1 2 3 4 5 6 
#
# 1 0.020080 -0.001095 -0.003423 0.000000 0.000000 0.000000
# 2 -0.001095 0.010963 -0.003657 0.000000 0.000000 0.000000
# 3 -0.003423 -0.003657 0.009608 0.000000 0.000000 0.000000
# 4 0.000000 0.000000 0.000000 -0.182325 0.000000 0.000000
# 5 0.000000 0.000000 0.000000 0.000000 0.068024 0.000000
# 6 0.000000 0.000000 0.000000 0.000000 0.000000 -0.041398
#
#
# Mechanical properties :
#
#
# Convention : Reuss Voigt Hill
#
# Bulk Modulus (GPa) = 41.14883 51.31955 46.23419
# Shear Modulus (GPa) = -55.18991 10.92181 -22.13405
#
# Velocity S-wave (km/s) = -5.42344 2.41264 -3.43460
# Velocity P-wave (km/s) = 4.15786 5.92555 2.98532
#
# Compressibility (1/GPa) = 0.02430203
#
# Stress axis : x y z
#
# Youngs Moduli (GPa) = 49.79989 91.21426 104.07518
#
# Poissons Ratio (x) = 0.09989 0.35624
# Poissons Ratio (y) = 0.05454 0.38059
# Poissons Ratio (z) = 0.17046 0.33356
#
# Static dielectric constant tensor:
#      x y z
#    x 1.655510 0.000000 0.000000 
#    y 0.000000 1.652230 0.000000 
#    z 0.000000 0.000000 1.652550 
# 
# From -- ./inp_files/9731.got.cif
#   From: 2010.05.17/outbox.cif.g08.bks.cpg/sg51_5_cif.got.tgz:9731.got - 2010.06.03 11:52:47.
