data_PCOD9404213
_publ_section_title
;
Structure prediction by ZEFSAII (Michael W. Deem and Ramdas Pophale) SiO2 
 PCOD9404213
Probable space group: P M M A
;
_chemical_formula_sum "Si O2"
_cell_formula_units_Z 56
_cell_length_a 14.631640
_cell_length_b 7.714992
_cell_length_c 22.719208
_cell_angle_alpha 90.000000
_cell_angle_beta 90.000000
_cell_angle_gamma 90.000000
_cell_volume 2564.612028
_symmetry_space_group_name_H-M "P M M A"
_symmetry_group_IT_number 51
_symmetry_cell_setting 'orthorhombic'
loop_
_space_group_symop_operation_xyz
x,y,z
1/2-x,-y,z
1/2+x,-y,-z
-x,y,-z
-x,-y,-z
1/2+x,y,-z
1/2-x,y,z
x,-y,z
loop_
_atom_site_type_symbol
_atom_site_label
_atom_site_fract_x
_atom_site_fract_y
_atom_site_fract_z
Si Si1 0.651072 0.209113 0.276627
Si Si2 0.346607 0.789771 0.861551
Si Si3 0.554018 0.300544 0.710100
Si Si4 0.353968 0.787831 0.535296
Si Si5 0.354241 0.291261 0.170019
Si Si6 0.548198 0.204371 0.582667
Si Si7 0.516511 0.208562 0.933722
O O1 0.750000 0.264850 0.301441
O O2 0.652537 0.250654 0.207147
O O3 0.555216 0.283607 0.295914
O O4 0.646543 0.000000 0.283924
O O5 0.250000 0.731852 0.887423
O O6 0.433350 0.720546 0.894754
O O7 0.349014 0.000000 0.864781
O O8 0.580684 0.500000 0.711183
O O9 0.587655 0.225458 0.773059
O O10 0.587572 0.228407 0.647878
O O11 0.250000 0.729325 0.549007
O O12 0.385111 0.733717 0.469330
O O13 0.443010 0.730604 0.573495
O O14 0.350442 0.000000 0.538888
O O15 0.250000 0.231751 0.175896
O O16 0.355785 0.500000 0.172013
O O17 0.395362 0.244244 0.106322
O O18 0.540309 0.000000 0.572808
O O19 0.510148 0.000000 0.936860
O O20 0.500000 0.272999 0.000000
#
# Coordination Sequence:
#
# PCOD9404213 Si02
#       7
#     8   8   8   8   8   8   8
#     4   9  17  31  53  76  99 134 175 213 262 326
#     4   8  14  27  48  73 102 132 161 201 258 320
#     4  11  22  35  53  78 111 146 182 229 275 316
#     4   8  15  31  54  78 105 137 176 222 267 314
#     4  10  23  42  58  74 106 153 195 227 266 320
#     4   9  18  32  53  80 106 137 179 222 265 320
#     4  10  20  34  57  87 112 135 172 226 280 327
#
# _framework density 21.835661000000002
#
# number of rings (size 3 to 8) (size 9 to 14) (size 15 to 20)
#    0.000    2.714    1.429    2.143    0.000    3.143 
#    0.000    4.286    0.000    1.286    0.000    0.000 
#    0.000    0.000    0.000    0.000    0.000    0.000 
#
# Total GULP energy -311999.308413 kJ/mol
# GULP energy per Si atom -5571.416222 kJ/mol
# Density = 2.178596 g / cm^3
# Si number density = 21.835661 Si / 1000 Ang^3
#
#
#
# Elastic Constant Matrix: (Units=GPa)
#
#
# Indices 1 2 3 4 5 6 
#
# 1 91.4986 -1.0520 42.2371 0.0000 0.0000 0.0000
# 2 -1.0520 24.9077 6.4984 0.0000 0.0000 0.0000
# 3 42.2371 6.4984 134.5645 0.0000 0.0000 0.0000
# 4 0.0000 0.0000 0.0000 22.3118 0.0000 0.0000
# 5 0.0000 0.0000 0.0000 0.0000 17.9073 0.0000
# 6 0.0000 0.0000 0.0000 0.0000 0.0000 13.4996
#
#
#
# Elastic Compliance Matrix: (Units=1/GPa)
#
#
# Indices 1 2 3 4 5 6 
#
# 1 0.012845 0.001615 -0.004110 0.000000 0.000000 0.000000
# 2 0.001615 0.040863 -0.002480 0.000000 0.000000 0.000000
# 3 -0.004110 -0.002480 0.008841 0.000000 0.000000 0.000000
# 4 0.000000 0.000000 0.000000 0.044819 0.000000 0.000000
# 5 0.000000 0.000000 0.000000 0.000000 0.055843 0.000000
# 6 0.000000 0.000000 0.000000 0.000000 0.000000 0.074076
#
#
# Mechanical properties :
#
#
# Convention : Reuss Voigt Hill
#
# Bulk Modulus (GPa) = 19.01178 38.48201 28.74689
# Shear Modulus (GPa) = 18.88421 24.29623 21.59022
#
# Velocity S-wave (km/s) = 2.94400 3.33931 3.14787
# Velocity P-wave (km/s) = 4.50353 5.70349 5.13865
#
# Compressibility (1/GPa) = 0.05259898
#
# Stress axis : x y z
#
# Youngs Moduli (GPa) = 77.85258 24.47172 113.10794
#
# Poissons Ratio (x) = -0.03951 0.46484
# Poissons Ratio (y) = -0.12571 0.28053
# Poissons Ratio (z) = 0.31995 0.06070
#
# Static dielectric constant tensor:
#      x y z
#    x 1.821480 0.000000 0.000000 
#    y 0.000000 1.828480 0.000000 
#    z 0.000000 0.000000 1.818710 
# 
# From -- ./inp_files/33360.got.cif
#   From: 2010.05.17/outbox.cif.g08.bks.cpg/sg51_17_cif.got.tgz:33360.got - 2010.06.03 11:52:47.
