data_PCOD9404851
_publ_section_title
;
Structure prediction by ZEFSAII (Michael W. Deem and Ramdas Pophale) SiO2 
 PCOD9404851
Probable space group: P M M A
;
_chemical_formula_sum "Si O2"
_cell_formula_units_Z 48
_cell_length_a 17.670474
_cell_length_b 9.199732
_cell_length_c 15.609209
_cell_angle_alpha 90.000000
_cell_angle_beta 90.000000
_cell_angle_gamma 90.000000
_cell_volume 2537.489600
_symmetry_space_group_name_H-M "P M M A"
_symmetry_group_IT_number 51
_symmetry_cell_setting 'orthorhombic'
loop_
_space_group_symop_operation_xyz
x,y,z
1/2-x,-y,z
1/2+x,-y,-z
-x,y,-z
-x,-y,-z
1/2+x,y,-z
1/2-x,y,z
x,-y,z
loop_
_atom_site_type_symbol
_atom_site_label
_atom_site_fract_x
_atom_site_fract_y
_atom_site_fract_z
Si Si1 0.098856 0.827032 0.675797
Si Si2 0.658356 0.330843 0.155531
Si Si3 0.441113 0.327269 0.355385
Si Si4 0.161200 0.671961 0.189160
Si Si5 0.842208 0.832951 0.982968
Si Si6 0.164247 0.670181 0.516720
O O1 0.124646 0.756489 0.765044
O O2 0.151607 0.767776 0.599590
O O3 0.015808 0.767371 0.652991
O O4 0.100786 0.000000 0.680846
O O5 0.750000 0.323351 0.160020
O O6 0.636470 0.500000 0.159742
O O7 0.634226 0.259726 0.065515
O O8 0.460164 0.500000 0.356340
O O9 0.387418 0.300473 0.273699
O O10 0.395016 0.295631 0.441985
O O11 0.250000 0.704942 0.204868
O O12 0.156377 0.500000 0.169250
O O13 0.134234 0.761770 0.106781
O O14 0.750000 0.830815 0.982495
O O15 0.866533 0.000000 0.990023
O O16 0.250000 0.685529 0.483898
O O17 0.153843 0.500000 0.540684
#
# Coordination Sequence:
#
# PCOD9404851 Si02
#       6
#     8   8   8   8   8   8
#     4  12  25  38  54  80 115 150 182 222 275 332
#     4  10  20  36  59  83 107 141 187 234 276 322
#     4  10  21  38  59  82 111 147 185 226 271 321
#     4   9  17  32  56  84 111 142 184 230 273 320
#     4   9  17  30  51  81 115 147 179 221 274 327
#     4  10  21  39  63  87 109 139 183 230 273 321
#
# _framework density 18.916333999999999
#
# number of rings (size 3 to 8) (size 9 to 14) (size 15 to 20)
#    0.000    2.000    0.000    4.000    0.000   10.667 
#    0.000    0.833    0.000    8.000    0.000    0.000 
#    0.000    0.000    0.000    0.000    0.000    0.000 
#
# Total GULP energy -268177.370671 kJ/mol
# GULP energy per Si atom -5587.028556 kJ/mol
# Density = 1.887328 g / cm^3
# Si number density = 18.916334 Si / 1000 Ang^3
#
#
#
# Elastic Constant Matrix: (Units=GPa)
#
#
# Indices 1 2 3 4 5 6 
#
# 1 35.6900 22.9919 5.0157 0.0000 0.0000 0.0000
# 2 22.9919 85.2571 43.0719 0.0000 0.0000 0.0000
# 3 5.0157 43.0719 83.5929 0.0000 0.0000 0.0000
# 4 0.0000 0.0000 0.0000 -21.6052 0.0000 0.0000
# 5 0.0000 0.0000 0.0000 0.0000 -9.4968 0.0000
# 6 0.0000 0.0000 0.0000 0.0000 0.0000 13.9617
#
#
#
# Elastic Compliance Matrix: (Units=1/GPa)
#
#
# Indices 1 2 3 4 5 6 
#
# 1 0.034740 -0.011242 0.003708 0.000000 0.000000 0.000000
# 2 -0.011242 0.019495 -0.009370 0.000000 0.000000 0.000000
# 3 0.003708 -0.009370 0.016568 0.000000 0.000000 0.000000
# 4 0.000000 0.000000 0.000000 -0.046285 0.000000 0.000000
# 5 0.000000 0.000000 0.000000 0.000000 -0.105299 0.000000
# 6 0.000000 0.000000 0.000000 0.000000 0.000000 0.071625
#
#
# Mechanical properties :
#
#
# Convention : Reuss Voigt Hill
#
# Bulk Modulus (GPa) = 27.03078 38.52210 32.77644
# Shear Modulus (GPa) = 135.19437 5.46931 70.33184
#
# Velocity S-wave (km/s) = 8.46314 1.70223 6.10420
# Velocity P-wave (km/s) = 10.47952 4.92668 8.18818
#
# Compressibility (1/GPa) = 0.03699486
#
# Stress axis : x y z
#
# Youngs Moduli (GPa) = 28.78520 51.29582 60.35596
#
# Poissons Ratio (x) = 0.57666 -0.22380
# Poissons Ratio (y) = 0.32360 0.56555
# Poissons Ratio (z) = -0.10674 0.48066
#
# Static dielectric constant tensor:
#      x y z
#    x 1.662870 0.000000 0.000000 
#    y 0.000000 1.631380 0.000000 
#    z 0.000000 0.000000 1.624830 
# 
# From -- ./inp_files/24677.got.cif
#   From: 2010.05.17/outbox.cif.g08.bks.cpg/sg51_13_cif.got.tgz:24677.got - 2010.06.03 11:52:47.
