data_PCOD9404988
_publ_section_title
;
Structure prediction by ZEFSAII (Michael W. Deem and Ramdas Pophale) SiO2 
 PCOD9404988
Probable space group: P M M A
;
_chemical_formula_sum "Si O2"
_cell_formula_units_Z 48
_cell_length_a 8.697736
_cell_length_b 31.357223
_cell_length_c 9.805631
_cell_angle_alpha 90.000000
_cell_angle_beta 90.000000
_cell_angle_gamma 90.000000
_cell_volume 2674.356885
_symmetry_space_group_name_H-M "P M M A"
_symmetry_group_IT_number 51
_symmetry_cell_setting 'orthorhombic'
loop_
_space_group_symop_operation_xyz
x,y,z
1/2-x,-y,z
1/2+x,-y,-z
-x,y,-z
-x,-y,-z
1/2+x,y,-z
1/2-x,y,z
x,-y,z
loop_
_atom_site_type_symbol
_atom_site_label
_atom_site_fract_x
_atom_site_fract_y
_atom_site_fract_z
Si Si1 0.433497 0.134656 0.653395
Si Si2 0.434600 0.380090 0.348253
Si Si3 0.565066 0.793560 0.849501
Si Si4 0.934439 0.046655 0.654214
Si Si5 0.566230 0.550087 0.148087
Si Si6 0.065181 0.695435 0.149134
O O1 0.500000 0.138148 0.500000
O O2 0.250000 0.134329 0.647313
O O3 0.494649 0.173590 0.742780
O O4 0.492900 0.089488 0.714380
O O5 0.500000 0.379463 0.500000
O O6 0.250000 0.380695 0.353237
O O7 0.493767 0.420799 0.264350
O O8 0.484970 0.338386 0.262326
O O9 0.750000 0.796859 0.849678
O O10 0.522135 0.744321 0.817818
O O11 0.500000 0.802740 0.000000
O O12 0.750000 0.050967 0.649096
O O13 0.000000 0.045373 0.500000
O O14 0.970979 0.000000 0.716069
O O15 0.750000 0.555030 0.146895
O O16 0.530255 0.500000 0.169027
O O17 0.500000 0.562488 0.000000
O O18 0.250000 0.693809 0.140697
O O19 0.000000 0.684714 0.000000
#
# Coordination Sequence:
#
# PCOD9404988 Si02
#       6
#     8   8   8   8   8   8
#     4  11  21  33  51  77 107 140 177 219 267 315
#     4  11  23  38  56  82 114 147 182 222 272 322
#     4  10  20  37  57  79 107 139 177 218 264 318
#     4   9  16  27  45  70 100 134 172 215 262 312
#     4  10  21  38  60  85 112 145 185 226 268 317
#     4   9  20  37  58  81 105 137 177 220 264 316
#
# _framework density 17.948240999999999
#
# number of rings (size 3 to 8) (size 9 to 14) (size 15 to 20)
#    0.000    2.000    0.000    5.000    0.000    6.333 
#    0.000    1.667    0.000    0.500    0.000    0.000 
#    0.000    0.000    0.000    0.000    0.000    0.000 
#
# Total GULP energy -267934.507489 kJ/mol
# GULP energy per Si atom -5581.968906 kJ/mol
# Density = 1.790739 g / cm^3
# Si number density = 17.948241 Si / 1000 Ang^3
#
#
#
# Elastic Constant Matrix: (Units=GPa)
#
#
# Indices 1 2 3 4 5 6 
#
# 1 86.4356 61.1084 49.9025 0.0000 0.0000 0.0000
# 2 61.1084 139.6601 103.9144 0.0000 0.0000 0.0000
# 3 49.9025 103.9144 122.5412 0.0000 0.0000 0.0000
# 4 0.0000 0.0000 0.0000 31.6807 0.0000 0.0000
# 5 0.0000 0.0000 0.0000 0.0000 31.8606 0.0000
# 6 0.0000 0.0000 0.0000 0.0000 0.0000 40.8583
#
#
#
# Elastic Compliance Matrix: (Units=1/GPa)
#
#
# Indices 1 2 3 4 5 6 
#
# 1 0.016874 -0.006152 -0.001655 0.000000 0.000000 0.000000
# 2 -0.006152 0.021645 -0.015850 0.000000 0.000000 0.000000
# 3 -0.001655 -0.015850 0.022275 0.000000 0.000000 0.000000
# 4 0.000000 0.000000 0.000000 0.031565 0.000000 0.000000
# 5 0.000000 0.000000 0.000000 0.000000 0.031387 0.000000
# 6 0.000000 0.000000 0.000000 0.000000 0.000000 0.024475
#
#
# Mechanical properties :
#
#
# Convention : Reuss Voigt Hill
#
# Bulk Modulus (GPa) = 74.17787 86.49860 80.33824
# Shear Modulus (GPa) = 24.99669 29.79402 27.39536
#
# Velocity S-wave (km/s) = 3.73595 4.07873 3.91110
# Velocity P-wave (km/s) = 7.74779 8.39520 8.07798
#
# Compressibility (1/GPa) = 0.01348111
#
# Stress axis : x y z
#
# Youngs Moduli (GPa) = 59.26268 46.20015 44.89397
#
# Poissons Ratio (x) = 0.28423 0.07429
# Poissons Ratio (y) = 0.36459 0.71155
# Poissons Ratio (z) = 0.09806 0.73225
#
# Static dielectric constant tensor:
#      x y z
#    x 1.598540 0.000000 0.000000 
#    y 0.000000 1.645330 0.000000 
#    z 0.000000 0.000000 1.574040 
# 
# From -- ./inp_files/5978.got.cif
#   From: 2010.05.17/outbox.cif.g08.bks.cpg/sg51_3_cif.got.tgz:5978.got - 2010.06.03 11:52:47.
