data_PCOD9404555
_publ_section_title
;
Structure prediction by ZEFSAII (Michael W. Deem and Ramdas Pophale) SiO2 
 PCOD9404555
Probable space group: P M M A
;
_chemical_formula_sum "Si O2"
_cell_formula_units_Z 48
_cell_length_a 17.946637
_cell_length_b 9.114235
_cell_length_c 15.767800
_cell_angle_alpha 90.000000
_cell_angle_beta 90.000000
_cell_angle_gamma 90.000000
_cell_volume 2579.136950
_symmetry_space_group_name_H-M "P M M A"
_symmetry_group_IT_number 51
_symmetry_cell_setting 'orthorhombic'
loop_
_space_group_symop_operation_xyz
x,y,z
1/2-x,-y,z
1/2+x,-y,-z
-x,y,-z
-x,-y,-z
1/2+x,y,-z
1/2-x,y,z
x,-y,z
loop_
_atom_site_type_symbol
_atom_site_label
_atom_site_fract_x
_atom_site_fract_y
_atom_site_fract_z
Si Si1 0.659242 0.168743 0.476680
Si Si2 0.574066 0.824146 0.151692
Si Si3 0.839883 0.328673 0.304094
Si Si4 0.661790 0.674842 0.649185
Si Si5 0.585691 0.324339 0.826931
Si Si6 0.836660 0.173434 0.981162
O O1 0.750000 0.171177 0.477337
O O2 0.636255 0.261177 0.394439
O O3 0.635634 0.240271 0.565443
O O4 0.635488 0.000000 0.469665
O O5 0.623542 0.760494 0.227857
O O6 0.493233 0.752037 0.157589
O O7 0.569129 0.000000 0.157996
O O8 0.612743 0.788318 0.061936
O O9 0.750000 0.317849 0.298863
O O10 0.860276 0.500000 0.298997
O O11 0.750000 0.705277 0.662011
O O12 0.654687 0.500000 0.634811
O O13 0.617618 0.713975 0.734129
O O14 0.578780 0.500000 0.831427
O O15 0.640627 0.266637 0.899729
O O16 0.750000 0.194916 0.002670
O O17 0.847836 0.000000 0.962758
#
# Coordination Sequence:
#
# PCOD9404555 Si02
#       6
#     8   8   8   8   8   8
#     4   9  17  30  52  82 112 143 182 228 275 324
#     4  11  23  39  58  81 113 151 188 228 276 330
#     4  10  20  35  57  84 113 146 185 230 279 330
#     4   9  18  34  55  79 109 145 184 227 276 328
#     4  11  23  38  57  83 115 149 185 228 279 333
#     4  10  22  40  61  84 110 143 184 229 277 330
#
# _framework density 18.610878
#
# number of rings (size 3 to 8) (size 9 to 14) (size 15 to 20)
#    0.000    2.000    0.000    3.500    0.000    9.333 
#    0.000    2.500    0.000    5.000    0.000    0.000 
#    0.000    0.000    0.000    0.000    0.000    0.000 
#
# Total GULP energy -268143.967130 kJ/mol
# GULP energy per Si atom -5586.332649 kJ/mol
# Density = 1.856852 g / cm^3
# Si number density = 18.610878 Si / 1000 Ang^3
#
#
#
# Elastic Constant Matrix: (Units=GPa)
#
#
# Indices 1 2 3 4 5 6 
#
# 1 14.4327 1.0305 -11.6794 0.0000 0.0000 0.0000
# 2 1.0305 35.4286 13.6056 0.0000 0.0000 0.0000
# 3 -11.6794 13.6056 66.9048 0.0000 0.0000 0.0000
# 4 0.0000 0.0000 0.0000 39.1353 0.0000 0.0000
# 5 0.0000 0.0000 0.0000 0.0000 -13.4081 0.0000
# 6 0.0000 0.0000 0.0000 0.0000 0.0000 28.8071
#
#
#
# Elastic Compliance Matrix: (Units=1/GPa)
#
#
# Indices 1 2 3 4 5 6 
#
# 1 0.083065 -0.008661 0.016262 0.000000 0.000000 0.000000
# 2 -0.008661 0.031520 -0.007922 0.000000 0.000000 0.000000
# 3 0.016262 -0.007922 0.019396 0.000000 0.000000 0.000000
# 4 0.000000 0.000000 0.000000 0.025552 0.000000 0.000000
# 5 0.000000 0.000000 0.000000 0.000000 -0.074582 0.000000
# 6 0.000000 0.000000 0.000000 0.000000 0.000000 0.034714
#
#
# Mechanical properties :
#
#
# Convention : Reuss Voigt Hill
#
# Bulk Modulus (GPa) = 7.49968 13.63106 10.56537
# Shear Modulus (GPa) = 30.34824 18.49415 24.42119
#
# Velocity S-wave (km/s) = 4.04254 3.15576 3.62636
# Velocity P-wave (km/s) = 5.08212 4.54077 4.81906
#
# Compressibility (1/GPa) = 0.13333897
#
# Stress axis : x y z
#
# Youngs Moduli (GPa) = 12.03877 31.72597 51.55609
#
# Poissons Ratio (x) = 0.27478 -0.83839
# Poissons Ratio (y) = 0.10427 0.40842
# Poissons Ratio (z) = -0.19577 0.25133
#
# Static dielectric constant tensor:
#      x y z
#    x 1.639930 0.000000 0.000000 
#    y 0.000000 1.619930 0.000000 
#    z 0.000000 0.000000 1.611760 
# 
# From -- ./inp_files/24743.got.cif
#   From: 2010.05.17/outbox.cif.g08.bks.cpg/sg51_13_cif.got.tgz:24743.got - 2010.06.03 11:52:47.
