data_PCOD9404584
_publ_section_title
;
Structure prediction by ZEFSAII (Michael W. Deem and Ramdas Pophale) SiO2 
 PCOD9404584
Probable space group: P M M A
;
_chemical_formula_sum "Si O2"
_cell_formula_units_Z 48
_cell_length_a 8.818700
_cell_length_b 20.447425
_cell_length_c 14.699013
_cell_angle_alpha 90.000000
_cell_angle_beta 90.000000
_cell_angle_gamma 90.000000
_cell_volume 2650.521715
_symmetry_space_group_name_H-M "P M M A"
_symmetry_group_IT_number 51
_symmetry_cell_setting 'orthorhombic'
loop_
_space_group_symop_operation_xyz
x,y,z
1/2-x,-y,z
1/2+x,-y,-z
-x,y,-z
-x,-y,-z
1/2+x,y,-z
1/2-x,y,z
x,-y,z
loop_
_atom_site_type_symbol
_atom_site_label
_atom_site_fract_x
_atom_site_fract_y
_atom_site_fract_z
Si Si1 0.430258 0.922635 0.401485
Si Si2 0.070735 0.425557 0.713373
Si Si3 0.568922 0.692037 0.600675
Si Si4 0.928211 0.232415 0.903378
Si Si5 0.928168 0.390329 0.903305
Si Si6 0.569222 0.188804 0.283322
O O1 0.500000 0.905657 0.500000
O O2 0.250000 0.910553 0.402778
O O3 0.508840 0.878446 0.325855
O O4 0.455484 0.000000 0.386723
O O5 0.250000 0.410600 0.709555
O O6 0.047399 0.500000 0.681912
O O7 0.980774 0.373506 0.653237
O O8 0.014011 0.419804 0.817156
O O9 0.500000 0.692066 0.500000
O O10 0.750000 0.696810 0.597173
O O11 0.502502 0.752933 0.656833
O O12 0.750000 0.216972 0.900684
O O13 0.942632 0.311358 0.894960
O O14 0.013052 0.199677 0.819275
O O15 0.000000 0.213896 0.000000
O O16 0.750000 0.406721 0.900864
O O17 0.000000 0.409564 0.000000
O O18 0.750000 0.192157 0.288158
#
# Coordination Sequence:
#
# PCOD9404584 Si02
#       6
#     8   8   8   8   8   8
#     4  10  21  38  60  88 124 162 200 242 288 342
#     4  11  24  41  60  83 113 149 190 238 293 352
#     4  12  25  42  62  85 113 148 192 242 291 345
#     4  10  20  35  57  87 119 153 192 238 288 344
#     4  10  20  35  58  84 114 150 188 236 289 347
#     4  12  23  37  61  90 122 157 194 240 288 342
#
# _framework density 18.109642000000001
#
# number of rings (size 3 to 8) (size 9 to 14) (size 15 to 20)
#    0.000    1.167    1.667    5.500    0.000    4.333 
#    0.000    0.000    0.000    0.500    0.000    0.000 
#    0.000    0.000    0.000    0.000    0.000    0.000 
#
# Total GULP energy -268504.916276 kJ/mol
# GULP energy per Si atom -5593.852422 kJ/mol
# Density = 1.806842 g / cm^3
# Si number density = 18.109642 Si / 1000 Ang^3
#
#
#
# Elastic Constant Matrix: (Units=GPa)
#
#
# Indices 1 2 3 4 5 6 
#
# 1 160.9699 63.3304 69.3231 0.0000 0.0000 0.0000
# 2 63.3304 60.5753 54.5758 0.0000 0.0000 0.0000
# 3 69.3231 54.5758 140.2358 0.0000 0.0000 0.0000
# 4 0.0000 0.0000 0.0000 47.4845 0.0000 0.0000
# 5 0.0000 0.0000 0.0000 0.0000 39.5831 0.0000
# 6 0.0000 0.0000 0.0000 0.0000 0.0000 37.4931
#
#
#
# Elastic Compliance Matrix: (Units=1/GPa)
#
#
# Indices 1 2 3 4 5 6 
#
# 1 0.010740 -0.009926 -0.001447 0.000000 0.000000 0.000000
# 2 -0.009926 0.034595 -0.008557 0.000000 0.000000 0.000000
# 3 -0.001447 -0.008557 0.011176 0.000000 0.000000 0.000000
# 4 0.000000 0.000000 0.000000 0.021059 0.000000 0.000000
# 5 0.000000 0.000000 0.000000 0.000000 0.025263 0.000000
# 6 0.000000 0.000000 0.000000 0.000000 0.000000 0.026672
#
#
# Mechanical properties :
#
#
# Convention : Reuss Voigt Hill
#
# Bulk Modulus (GPa) = 60.04831 81.80439 70.92635
# Shear Modulus (GPa) = 28.58550 36.54892 32.56721
#
# Velocity S-wave (km/s) = 3.97730 4.49731 4.24528
# Velocity P-wave (km/s) = 7.37035 8.49927 7.95486
#
# Compressibility (1/GPa) = 0.01665326
#
# Stress axis : x y z
#
# Youngs Moduli (GPa) = 93.10714 28.90629 89.47781
#
# Poissons Ratio (x) = 0.28691 0.12944
# Poissons Ratio (y) = 0.92414 0.76564
# Poissons Ratio (z) = 0.13469 0.24734
#
# Static dielectric constant tensor:
#      x y z
#    x 1.600350 0.000000 0.000000 
#    y 0.000000 1.614470 0.000000 
#    z 0.000000 0.000000 1.590230 
# 
# From -- ./inp_files/21088.got.cif
#   From: 2010.05.17/outbox.cif.g08.bks.cpg/sg51_11_cif.got.tgz:21088.got - 2010.06.03 11:52:47.
