data_PCOD9404034
_publ_section_title
;
Structure prediction by ZEFSAII (Michael W. Deem and Ramdas Pophale) SiO2 
 PCOD9404034
Probable space group: P M M A
;
_chemical_formula_sum "Si O2"
_cell_formula_units_Z 56
_cell_length_a 22.720321
_cell_length_b 8.920483
_cell_length_c 15.430492
_cell_angle_alpha 90.000000
_cell_angle_beta 90.000000
_cell_angle_gamma 90.000000
_cell_volume 3127.394057
_symmetry_space_group_name_H-M "P M M A"
_symmetry_group_IT_number 51
_symmetry_cell_setting 'orthorhombic'
loop_
_space_group_symop_operation_xyz
x,y,z
1/2-x,-y,z
1/2+x,-y,-z
-x,y,-z
-x,-y,-z
1/2+x,y,-z
1/2-x,y,z
x,-y,z
loop_
_atom_site_type_symbol
_atom_site_label
_atom_site_fract_x
_atom_site_fract_y
_atom_site_fract_z
Si Si1 0.130876 0.677108 0.328963
Si Si2 0.250000 0.178357 0.623360
Si Si3 0.069415 0.173929 0.483713
Si Si4 0.750000 0.675088 0.563626
Si Si5 0.570441 0.327298 0.017643
Si Si6 0.873673 0.321138 0.349166
Si Si7 0.949203 0.821283 0.196570
Si Si8 0.912673 0.178631 0.838583
O O1 0.118800 0.500000 0.324538
O O2 0.083954 0.759696 0.390101
O O3 0.192767 0.699266 0.377607
O O4 0.127896 0.747795 0.234208
O O5 0.250000 0.223348 0.521471
O O6 0.190747 0.249277 0.662612
O O7 0.250000 0.000000 0.632976
O O8 0.102964 0.267783 0.557032
O O9 0.000000 0.181119 0.500000
O O10 0.088103 0.000000 0.488882
O O11 0.750000 0.500000 0.534732
O O12 0.589197 0.500000 0.025868
O O13 0.578778 0.238314 0.106899
O O14 0.500000 0.326789 0.000000
O O15 0.597231 0.248551 0.933248
O O16 0.870383 0.500000 0.346351
O O17 0.918600 0.259508 0.277120
O O18 0.019249 0.789663 0.189308
O O19 0.942125 0.000000 0.204598
O O20 0.905858 0.000000 0.841533
#
# Coordination Sequence:
#
# PCOD9404034 Si02
#       8
#     8   4   8   4   8   8   8   8
#     4  11  22  36  56  79 108 143 184 231 278 329
#     4  12  24  40  62  81 104 143 190 234 280 330
#     4  11  23  37  53  78 112 146 181 224 276 332
#     4  10  22  40  58  79 106 141 186 236 280 324
#     4   9  17  31  53  81 112 146 184 224 272 332
#     4  12  24  38  57  81 111 145 186 232 277 329
#     4  10  20  35  55  82 115 149 184 225 276 332
#     4  10  20  34  54  82 116 149 184 226 275 333
#
# _framework density 17.906283999999999
#
# number of rings (size 3 to 8) (size 9 to 14) (size 15 to 20)
#    0.000    1.429    1.429    4.929    0.000    8.571 
#    0.000    0.000    0.000    0.857    0.000    5.000 
#    0.000    0.000    0.000    0.000    0.000    0.000 
#
# Total GULP energy -312955.189923 kJ/mol
# GULP energy per Si atom -5588.485534 kJ/mol
# Density = 1.786553 g / cm^3
# Si number density = 17.906284 Si / 1000 Ang^3
#
#
#
# Elastic Constant Matrix: (Units=GPa)
#
#
# Indices 1 2 3 4 5 6 
#
# 1 25.3709 22.3154 -10.0087 0.0000 0.0000 0.0000
# 2 22.3154 105.5869 19.2607 0.0000 0.0000 0.0000
# 3 -10.0087 19.2607 67.7902 0.0000 0.0000 0.0000
# 4 0.0000 0.0000 0.0000 37.2438 0.0000 0.0000
# 5 0.0000 0.0000 0.0000 0.0000 13.4222 0.0000
# 6 0.0000 0.0000 0.0000 0.0000 0.0000 16.2527
#
#
#
# Elastic Compliance Matrix: (Units=1/GPa)
#
#
# Indices 1 2 3 4 5 6 
#
# 1 0.056913 -0.014303 0.012467 0.000000 0.000000 0.000000
# 2 -0.014303 0.013583 -0.005971 0.000000 0.000000 0.000000
# 3 0.012467 -0.005971 0.018288 0.000000 0.000000 0.000000
# 4 0.000000 0.000000 0.000000 0.026850 0.000000 0.000000
# 5 0.000000 0.000000 0.000000 0.000000 0.074503 0.000000
# 6 0.000000 0.000000 0.000000 0.000000 0.000000 0.061528
#
#
# Mechanical properties :
#
#
# Convention : Reuss Voigt Hill
#
# Bulk Modulus (GPa) = 13.66665 29.09810 21.38238
# Shear Modulus (GPa) = 17.14265 24.52911 20.83588
#
# Velocity S-wave (km/s) = 3.09747 3.70518 3.41487
# Velocity P-wave (km/s) = 4.52121 5.88132 5.24553
#
# Compressibility (1/GPa) = 0.07317081
#
# Stress axis : x y z
#
# Youngs Moduli (GPa) = 17.57060 73.62231 54.67931
#
# Poissons Ratio (x) = 1.05298 -0.68166
# Poissons Ratio (y) = 0.25130 0.32648
# Poissons Ratio (z) = -0.21904 0.43959
#
# Static dielectric constant tensor:
#      x y z
#    x 1.610880 0.000000 0.000000 
#    y 0.000000 1.598640 0.000000 
#    z 0.000000 0.000000 1.590540 
# 
# From -- ./inp_files/25904.got.cif
#   From: 2010.05.17/outbox.cif.g08.bks.cpg/sg51_13_cif.got.tgz:25904.got - 2010.06.03 11:52:47.
