data_PCOD9404189
_publ_section_title
;
Structure prediction by ZEFSAII (Michael W. Deem and Ramdas Pophale) SiO2 
 PCOD9404189
Probable space group: P M M A
;
_chemical_formula_sum "Si O2"
_cell_formula_units_Z 40
_cell_length_a 14.681173
_cell_length_b 11.986161
_cell_length_c 10.439955
_cell_angle_alpha 90.000000
_cell_angle_beta 90.000000
_cell_angle_gamma 90.000000
_cell_volume 1837.128311
_symmetry_space_group_name_H-M "P M M A"
_symmetry_group_IT_number 51
_symmetry_cell_setting 'orthorhombic'
loop_
_space_group_symop_operation_xyz
x,y,z
1/2-x,-y,z
1/2+x,-y,-z
-x,y,-z
-x,-y,-z
1/2+x,y,-z
1/2-x,y,z
x,-y,z
loop_
_atom_site_type_symbol
_atom_site_label
_atom_site_fract_x
_atom_site_fract_y
_atom_site_fract_z
Si Si1 0.613012 0.869497 0.256441
Si Si2 0.598093 0.500000 0.930919
Si Si3 0.611474 0.257259 0.998829
Si Si4 0.890318 0.267652 0.505533
Si Si5 0.147193 0.500000 0.359817
Si Si6 0.890754 0.873552 0.747013
O O1 0.640644 0.808701 0.125206
O O2 0.641062 0.789427 0.373822
O O3 0.501936 0.872518 0.255812
O O4 0.641464 0.000000 0.266521
O O5 0.589877 0.500000 0.774167
O O6 0.500000 0.500000 0.000000
O O7 0.641616 0.384727 0.979169
O O8 0.500000 0.258479 0.000000
O O9 0.638869 0.190164 0.873251
O O10 0.865946 0.392208 0.550199
O O11 0.859626 0.188974 0.620827
O O12 0.000000 0.266336 0.500000
O O13 0.250000 0.500000 0.310171
O O14 0.860940 0.000000 0.749055
#
# Coordination Sequence:
#
# PCOD9404189 Si02
#       6
#     8   4   8   8   4   8
#     4   9  17  28  48  84 121 150 188 249 302 345
#     4  10  20  34  58  84 114 155 209 253 291 351
#     4   9  16  27  47  78 117 151 190 241 297 342
#     4  10  20  34  56  86 117 155 202 245 290 351
#     4  12  25  42  60  87 122 160 200 254 307 362
#     4   9  15  26  47  78 116 153 192 245 299 344
#
# _framework density 21.773112000000001
#
# number of rings (size 3 to 8) (size 9 to 14) (size 15 to 20)
#    0.000    2.400    2.000    1.500    2.800    5.600 
#    0.000    0.000    0.000    4.800    0.000    0.000 
#    0.000    0.000    0.000    0.000    0.000    0.000 
#
# Total GULP energy -223353.057283 kJ/mol
# GULP energy per Si atom -5583.826432 kJ/mol
# Density = 2.172356 g / cm^3
# Si number density = 21.773112 Si / 1000 Ang^3
#
#
#
# Elastic Constant Matrix: (Units=GPa)
#
#
# Indices 1 2 3 4 5 6 
#
# 1 79.9740 16.5857 19.7780 0.0000 0.0000 0.0000
# 2 16.5857 235.1357 113.7746 0.0000 0.0000 0.0000
# 3 19.7780 113.7746 211.6247 0.0000 0.0000 0.0000
# 4 0.0000 0.0000 0.0000 44.0693 0.0000 0.0000
# 5 0.0000 0.0000 0.0000 0.0000 -15.0368 0.0000
# 6 0.0000 0.0000 0.0000 0.0000 0.0000 -56.6809
#
#
#
# Elastic Compliance Matrix: (Units=1/GPa)
#
#
# Indices 1 2 3 4 5 6 
#
# 1 0.012833 -0.000439 -0.000963 0.000000 0.000000 0.000000
# 2 -0.000439 0.005763 -0.003057 0.000000 0.000000 0.000000
# 3 -0.000963 -0.003057 0.006459 0.000000 0.000000 0.000000
# 4 0.000000 0.000000 0.000000 0.022692 0.000000 0.000000
# 5 0.000000 0.000000 0.000000 0.000000 -0.066504 0.000000
# 6 0.000000 0.000000 0.000000 0.000000 0.000000 -0.017643
#
#
# Mechanical properties :
#
#
# Convention : Reuss Voigt Hill
#
# Bulk Modulus (GPa) = 61.97304 91.89010 76.93157
# Shear Modulus (GPa) = -226.23666 19.57673 -103.32996
#
# Velocity S-wave (km/s) = -10.20451 3.00179 -6.89642
# Velocity P-wave (km/s) = 10.50323 7.36949 5.29190
#
# Compressibility (1/GPa) = 0.01613605
#
# Stress axis : x y z
#
# Youngs Moduli (GPa) = 77.92189 173.51413 154.82002
#
# Poissons Ratio (x) = 0.07619 0.14914
# Poissons Ratio (y) = 0.03422 0.47335
# Poissons Ratio (z) = 0.07506 0.53050
#
# Static dielectric constant tensor:
#      x y z
#    x 1.877440 0.000000 0.000000 
#    y 0.000000 1.760620 0.000000 
#    z 0.000000 0.000000 1.743640 
# 
# From -- ./inp_files/10679.got.cif
#   From: 2010.05.17/outbox.cif.g08.bks.cpg/sg51_6_cif.got.tgz:10679.got - 2010.06.03 11:52:47.
