data_PCOD9404852
_publ_section_title
;
Structure prediction by ZEFSAII (Michael W. Deem and Ramdas Pophale) SiO2 
 PCOD9404852
Probable space group: P M M A
;
_chemical_formula_sum "Si O2"
_cell_formula_units_Z 64
_cell_length_a 24.680844
_cell_length_b 8.901893
_cell_length_c 16.363665
_cell_angle_alpha 90.000000
_cell_angle_beta 90.000000
_cell_angle_gamma 90.000000
_cell_volume 3595.199186
_symmetry_space_group_name_H-M "P M M A"
_symmetry_group_IT_number 51
_symmetry_cell_setting 'orthorhombic'
loop_
_space_group_symop_operation_xyz
x,y,z
1/2-x,-y,z
1/2+x,-y,-z
-x,y,-z
-x,-y,-z
1/2+x,y,-z
1/2-x,y,z
x,-y,z
loop_
_atom_site_type_symbol
_atom_site_label
_atom_site_fract_x
_atom_site_fract_y
_atom_site_fract_z
Si Si1 0.613865 0.676375 0.111221
Si Si2 0.102004 0.175070 0.622990
Si Si3 0.973555 0.819518 0.222009
Si Si4 0.688190 0.179893 0.976067
Si Si5 0.939846 0.322203 0.532555
Si Si6 0.188503 0.679536 0.204090
Si Si7 0.813659 0.172661 0.242971
Si Si8 0.412688 0.180007 0.293738
O O1 0.608325 0.500000 0.097676
O O2 0.557890 0.744331 0.146648
O O3 0.656732 0.713561 0.183064
O O4 0.641196 0.754737 0.033205
O O5 0.058651 0.218954 0.693740
O O6 0.097771 0.273498 0.542673
O O7 0.159378 0.186250 0.668433
O O8 0.091561 0.000000 0.602470
O O9 0.035951 0.777711 0.236279
O O10 0.969576 0.000000 0.213357
O O11 0.750000 0.216308 0.006225
O O12 0.683313 0.248110 0.885745
O O13 0.684155 0.000000 0.973108
O O14 0.937125 0.500000 0.547721
O O15 0.926198 0.235484 0.615214
O O16 0.000000 0.284538 0.500000
O O17 0.250000 0.712161 0.233016
O O18 0.182713 0.500000 0.198075
O O19 0.142197 0.746839 0.261141
O O20 0.750000 0.192693 0.243871
O O21 0.825691 0.000000 0.214723
O O22 0.408455 0.000000 0.292788
#
# Coordination Sequence:
#
# PCOD9404852 Si02
#       8
#     8   8   8   8   8   8   8   8
#     4  11  21  31  50  81 115 147 183 228 277 326
#     4   9  17  32  52  75 104 140 183 227 270 320
#     4   9  19  35  54  78 110 147 184 224 272 325
#     4  10  20  36  59  83 109 146 192 235 273 322
#     4  11  22  34  53  82 113 143 181 227 277 329
#     4  10  22  41  63  87 116 145 177 226 284 334
#     4   9  18  33  51  72 104 146 186 223 268 325
#     4  11  22  38  62  86 110 145 188 230 274 330
#
# _framework density 17.801517
#
# number of rings (size 3 to 8) (size 9 to 14) (size 15 to 20)
#    0.000    2.000    1.250    3.750    0.000    6.750 
#    0.000    1.250    0.000    6.000    0.000    0.000 
#    0.000    0.000    0.000    0.000    0.000    0.000 
#
# Total GULP energy -357183.280460 kJ/mol
# GULP energy per Si atom -5580.988757 kJ/mol
# Density = 1.776100 g / cm^3
# Si number density = 17.801517 Si / 1000 Ang^3
#
#
#
# Elastic Constant Matrix: (Units=GPa)
#
#
# Indices 1 2 3 4 5 6 
#
# 1 108.4126 52.0067 52.7205 0.0000 0.0000 0.0000
# 2 52.0067 70.8630 43.5373 0.0000 0.0000 0.0000
# 3 52.7205 43.5373 72.9019 0.0000 0.0000 0.0000
# 4 0.0000 0.0000 0.0000 37.1385 0.0000 0.0000
# 5 0.0000 0.0000 0.0000 0.0000 21.9043 0.0000
# 6 0.0000 0.0000 0.0000 0.0000 0.0000 21.6567
#
#
#
# Elastic Compliance Matrix: (Units=1/GPa)
#
#
# Indices 1 2 3 4 5 6 
#
# 1 0.016421 -0.007511 -0.007389 0.000000 0.000000 0.000000
# 2 -0.007511 0.025726 -0.009932 0.000000 0.000000 0.000000
# 3 -0.007389 -0.009932 0.024992 0.000000 0.000000 0.000000
# 4 0.000000 0.000000 0.000000 0.026926 0.000000 0.000000
# 5 0.000000 0.000000 0.000000 0.000000 0.045653 0.000000
# 6 0.000000 0.000000 0.000000 0.000000 0.000000 0.046175
#
#
# Mechanical properties :
#
#
# Convention : Reuss Voigt Hill
#
# Bulk Modulus (GPa) = 57.22690 60.96736 59.09713
# Shear Modulus (GPa) = 20.71398 23.06744 21.89071
#
# Velocity S-wave (km/s) = 3.41487 3.60365 3.51053
# Velocity P-wave (km/s) = 6.91125 7.18594 7.04994
#
# Compressibility (1/GPa) = 0.01747430
#
# Stress axis : x y z
#
# Youngs Moduli (GPa) = 60.89917 38.87053 40.01287
#
# Poissons Ratio (x) = 0.29197 0.29566
# Poissons Ratio (y) = 0.45744 0.39740
# Poissons Ratio (z) = 0.44999 0.38606
#
# Static dielectric constant tensor:
#      x y z
#    x 1.620630 0.000000 0.000000 
#    y 0.000000 1.601460 0.000000 
#    z 0.000000 0.000000 1.589040 
# 
# From -- ./inp_files/26165.got.cif
#   From: 2010.05.17/outbox.cif.g08.bks.cpg/sg51_14_cif.got.tgz:26165.got - 2010.06.03 11:52:47.
