data_PCOD9404616
_publ_section_title
;
Structure prediction by ZEFSAII (Michael W. Deem and Ramdas Pophale) SiO2 
 PCOD9404616
Probable space group: P M M A
;
_chemical_formula_sum "Si O2"
_cell_formula_units_Z 40
_cell_length_a 14.459160
_cell_length_b 8.983152
_cell_length_c 15.150496
_cell_angle_alpha 90.000000
_cell_angle_beta 90.000000
_cell_angle_gamma 90.000000
_cell_volume 1967.880231
_symmetry_space_group_name_H-M "P M M A"
_symmetry_group_IT_number 51
_symmetry_cell_setting 'orthorhombic'
loop_
_space_group_symop_operation_xyz
x,y,z
1/2-x,-y,z
1/2+x,-y,-z
-x,y,-z
-x,-y,-z
1/2+x,y,-z
1/2-x,y,z
x,-y,z
loop_
_atom_site_type_symbol
_atom_site_label
_atom_site_fract_x
_atom_site_fract_y
_atom_site_fract_z
Si Si1 0.957397 0.181164 0.758257
Si Si2 0.250000 0.822150 0.216623
Si Si3 0.430996 0.167407 0.580949
Si Si4 0.902903 0.321369 0.120115
Si Si5 0.250000 0.673728 0.572730
Si Si6 0.250000 0.324787 0.028012
Si Si7 0.250000 0.175618 0.760865
O O1 0.849815 0.226281 0.745121
O O2 0.017671 0.221796 0.670565
O O3 0.997988 0.257622 0.847786
O O4 0.962104 0.000000 0.766968
O O5 0.250000 0.773495 0.114681
O O6 0.250000 0.000000 0.223668
O O7 0.500000 0.158559 0.500000
O O8 0.346099 0.259717 0.542094
O O9 0.397305 0.000000 0.602146
O O10 0.902421 0.500000 0.134115
O O11 0.838110 0.229694 0.185829
O O12 0.844760 0.298556 0.029093
O O13 0.250000 0.500000 0.564111
O O14 0.250000 0.729904 0.673086
O O15 0.250000 0.500000 0.050443
O O16 0.250000 0.000000 0.749805
#
# Coordination Sequence:
#
# PCOD9404616 Si02
#       7
#     8   4   8   8   4   4   4
#     4  10  21  38  60  86 118 157 200 248 299 356
#     4  10  23  40  57  81 116 160 205 245 294 355
#     4  10  22  40  64  92 121 158 206 251 298 358
#     4  10  20  35  58  87 117 149 191 242 300 355
#     4  12  23  36  59  90 125 156 195 247 300 352
#     4   9  21  39  57  84 118 153 194 243 301 360
#     4  11  19  31  55  87 117 147 186 233 287 345
#
# _framework density 20.326439000000001
#
# number of rings (size 3 to 8) (size 9 to 14) (size 15 to 20)
#    0.000    1.800    2.000    3.000    0.000    5.200 
#    0.000    7.000    0.000    1.200    0.000    0.000 
#    0.000    0.000    0.000    0.000    0.000    0.000 
#
# Total GULP energy -222771.480333 kJ/mol
# GULP energy per Si atom -5569.287008 kJ/mol
# Density = 2.028018 g / cm^3
# Si number density = 20.326439 Si / 1000 Ang^3
#
#
#
# Elastic Constant Matrix: (Units=GPa)
#
#
# Indices 1 2 3 4 5 6 
#
# 1 202.0177 44.4337 27.8779 0.0000 0.0000 0.0000
# 2 44.4337 56.9539 11.4899 0.0000 0.0000 0.0000
# 3 27.8779 11.4899 39.1646 0.0000 0.0000 0.0000
# 4 0.0000 0.0000 0.0000 2.8075 0.0000 0.0000
# 5 0.0000 0.0000 0.0000 0.0000 3.0911 0.0000
# 6 0.0000 0.0000 0.0000 0.0000 0.0000 15.4692
#
#
#
# Elastic Compliance Matrix: (Units=1/GPa)
#
#
# Indices 1 2 3 4 5 6 
#
# 1 0.006343 -0.004292 -0.003256 0.000000 0.000000 0.000000
# 2 -0.004292 0.021567 -0.003272 0.000000 0.000000 0.000000
# 3 -0.003256 -0.003272 0.028811 0.000000 0.000000 0.000000
# 4 0.000000 0.000000 0.000000 0.356193 0.000000 0.000000
# 5 0.000000 0.000000 0.000000 0.000000 0.323507 0.000000
# 6 0.000000 0.000000 0.000000 0.000000 0.000000 0.064644
#
#
# Mechanical properties :
#
#
# Convention : Reuss Voigt Hill
#
# Bulk Modulus (GPa) = 28.50571 51.74881 40.12726
# Shear Modulus (GPa) = 5.99234 18.56255 12.27744
#
# Velocity S-wave (km/s) = 1.71885 3.02523 2.46033
# Velocity P-wave (km/s) = 4.24189 6.14141 5.27781
#
# Compressibility (1/GPa) = 0.03508069
#
# Stress axis : x y z
#
# Youngs Moduli (GPa) = 157.64318 46.36786 34.70899
#
# Poissons Ratio (x) = 0.19901 0.11302
# Poissons Ratio (y) = 0.67661 0.11357
# Poissons Ratio (z) = 0.51331 0.15171
#
# Static dielectric constant tensor:
#      x y z
#    x 1.799780 0.000000 0.000000 
#    y 0.000000 1.692470 0.000000 
#    z 0.000000 0.000000 1.407920 
# 
# From -- ./inp_files/23864.got.cif
#   From: 2010.05.17/outbox.cif.g08.bks.cpg/sg51_12_cif.got.tgz:23864.got - 2010.06.03 11:52:47.
