data_PCOD9404225
_publ_section_title
;
Structure prediction by ZEFSAII (Michael W. Deem and Ramdas Pophale) SiO2 
 PCOD9404225
Probable space group: P M M A
;
_chemical_formula_sum "Si O2"
_cell_formula_units_Z 52
_cell_length_a 8.789483
_cell_length_b 20.815168
_cell_length_c 14.262790
_cell_angle_alpha 90.000000
_cell_angle_beta 90.000000
_cell_angle_gamma 90.000000
_cell_volume 2609.442544
_symmetry_space_group_name_H-M "P M M A"
_symmetry_group_IT_number 51
_symmetry_cell_setting 'orthorhombic'
loop_
_space_group_symop_operation_xyz
x,y,z
1/2-x,-y,z
1/2+x,-y,-z
-x,y,-z
-x,-y,-z
1/2+x,y,-z
1/2-x,y,z
x,-y,z
loop_
_atom_site_type_symbol
_atom_site_label
_atom_site_fract_x
_atom_site_fract_y
_atom_site_fract_z
Si Si1 0.922373 0.704007 0.360988
Si Si2 0.576733 0.259306 0.140908
Si Si3 0.928998 0.165295 0.594520
Si Si4 0.933843 0.871942 0.804672
Si Si5 0.070080 0.391510 0.096136
Si Si6 0.932804 0.000000 0.104336
Si Si7 0.066174 0.570919 0.704011
O O1 0.750000 0.707719 0.399438
O O2 0.912890 0.721518 0.250651
O O3 0.981946 0.631029 0.360529
O O4 0.026673 0.759463 0.401749
O O5 0.750000 0.259229 0.103458
O O6 0.500189 0.189526 0.139522
O O7 0.475174 0.316031 0.099154
O O8 0.750000 0.158418 0.589008
O O9 0.978426 0.136484 0.694791
O O10 0.000000 0.137014 0.500000
O O11 0.750000 0.872052 0.810751
O O12 0.004242 0.936756 0.844414
O O13 0.250000 0.399659 0.096403
O O14 0.000196 0.420524 0.191367
O O15 0.000000 0.418350 0.000000
O O16 0.750000 0.000000 0.102497
O O17 0.000000 0.000000 0.000000
O O18 0.250000 0.575859 0.711173
O O19 0.026270 0.500000 0.668845
#
# Coordination Sequence:
#
# PCOD9404225 Si02
#       7
#     8   8   8   8   8   4   8
#     4   8  15  29  50  75 104 135 170 215 266 323
#     4   9  17  32  53  76 101 133 173 219 273 329
#     4  10  20  34  58  89 120 151 185 229 281 337
#     4  10  21  39  61  88 120 153 191 237 284 333
#     4  11  21  32  46  67  96 130 172 225 282 337
#     4  12  26  44  65  88 117 158 201 240 280 328
#     4   9  18  33  51  70  95 132 176 221 275 339
#
# _framework density 19.927626
#
# number of rings (size 3 to 8) (size 9 to 14) (size 15 to 20)
#    0.000    2.308    0.000    4.385    0.000    6.769 
#    0.000    3.462    0.000    0.462    0.000    0.000 
#    0.000    0.000    0.000    0.000    0.000    0.000 
#
# Total GULP energy -290208.043029 kJ/mol
# GULP energy per Si atom -5580.923904 kJ/mol
# Density = 1.988227 g / cm^3
# Si number density = 19.927626 Si / 1000 Ang^3
#
#
#
# Elastic Constant Matrix: (Units=GPa)
#
#
# Indices 1 2 3 4 5 6 
#
# 1 57.4279 21.6684 14.2985 0.0000 0.0000 0.0000
# 2 21.6684 134.4985 20.6165 0.0000 0.0000 0.0000
# 3 14.2985 20.6165 66.3592 0.0000 0.0000 0.0000
# 4 0.0000 0.0000 0.0000 8.5106 0.0000 0.0000
# 5 0.0000 0.0000 0.0000 0.0000 25.3756 0.0000
# 6 0.0000 0.0000 0.0000 0.0000 0.0000 24.7276
#
#
#
# Elastic Compliance Matrix: (Units=1/GPa)
#
#
# Indices 1 2 3 4 5 6 
#
# 1 0.019220 -0.002585 -0.003338 0.000000 0.000000 0.000000
# 2 -0.002585 0.008154 -0.001976 0.000000 0.000000 0.000000
# 3 -0.003338 -0.001976 0.016403 0.000000 0.000000 0.000000
# 4 0.000000 0.000000 0.000000 0.117501 0.000000 0.000000
# 5 0.000000 0.000000 0.000000 0.000000 0.039408 0.000000
# 6 0.000000 0.000000 0.000000 0.000000 0.000000 0.040441
#
#
# Mechanical properties :
#
#
# Convention : Reuss Voigt Hill
#
# Bulk Modulus (GPa) = 35.74242 41.27250 38.50746
# Shear Modulus (GPa) = 18.77924 25.16956 21.97440
#
# Velocity S-wave (km/s) = 3.07314 3.55779 3.32431
# Velocity P-wave (km/s) = 5.52877 6.13460 5.83955
#
# Compressibility (1/GPa) = 0.02797796
#
# Stress axis : x y z
#
# Youngs Moduli (GPa) = 52.03040 122.63328 60.96495
#
# Poissons Ratio (x) = 0.31697 0.20352
# Poissons Ratio (y) = 0.13448 0.12050
# Poissons Ratio (z) = 0.17369 0.24238
#
# Static dielectric constant tensor:
#      x y z
#    x 1.678410 0.000000 0.000000 
#    y 0.000000 1.712850 0.000000 
#    z 0.000000 0.000000 1.737470 
# 
# From -- ./inp_files/21549.got.cif
#   From: 2010.05.17/outbox.cif.g08.bks.cpg/sg51_11_cif.got.tgz:21549.got - 2010.06.03 11:52:47.
