data_PCOD9404909
_publ_section_title
;
Structure prediction by ZEFSAII (Michael W. Deem and Ramdas Pophale) SiO2 
 PCOD9404909
Probable space group: P M M A
;
_chemical_formula_sum "Si O2"
_cell_formula_units_Z 48
_cell_length_a 9.720144
_cell_length_b 14.159072
_cell_length_c 19.537605
_cell_angle_alpha 90.000000
_cell_angle_beta 90.000000
_cell_angle_gamma 90.000000
_cell_volume 2688.925775
_symmetry_space_group_name_H-M "P M M A"
_symmetry_group_IT_number 51
_symmetry_cell_setting 'orthorhombic'
loop_
_space_group_symop_operation_xyz
x,y,z
1/2-x,-y,z
1/2+x,-y,-z
-x,y,-z
-x,-y,-z
1/2+x,y,-z
1/2-x,y,z
x,-y,z
loop_
_atom_site_type_symbol
_atom_site_label
_atom_site_fract_x
_atom_site_fract_y
_atom_site_fract_z
Si Si1 0.086707 0.891136 0.701915
Si Si2 0.750000 0.111093 0.075494
Si Si3 0.507917 0.795000 0.159168
Si Si4 0.087127 0.610704 0.365889
Si Si5 0.084916 0.770437 0.564302
Si Si6 0.587981 0.390312 0.226213
Si Si7 0.750000 0.887040 0.911715
O O1 0.250000 0.888924 0.717430
O O2 0.068643 0.837390 0.630445
O O3 0.014696 0.838919 0.764637
O O4 0.043453 0.000000 0.697296
O O5 0.623820 0.160365 0.111849
O O6 0.750000 0.000000 0.091499
O O7 0.750000 0.120875 0.993843
O O8 0.534928 0.684136 0.170562
O O9 0.374901 0.831782 0.121651
O O10 0.250000 0.638062 0.362945
O O11 0.082320 0.500000 0.384648
O O12 0.996144 0.674331 0.416388
O O13 0.009473 0.619859 0.292737
O O14 0.250000 0.757840 0.551989
O O15 0.000000 0.810511 0.500000
O O16 0.750000 0.368779 0.242746
O O17 0.581843 0.500000 0.204917
O O18 0.750000 0.000000 0.895877
#
# Coordination Sequence:
#
# PCOD9404909 Si02
#       7
#     8   4   8   8   8   8   4
#     4  10  20  36  60  86 112 151 203 246 287 352
#     4  11  22  40  65  89 124 166 206 245 305 375
#     4  12  21  38  64  91 122 163 205 252 304 358
#     4  10  21  37  59  88 120 154 196 248 307 363
#     4  11  23  39  59  83 118 158 198 248 304 358
#     4  10  20  36  60  91 122 158 207 256 303 358
#     4  11  26  40  57  95 134 162 196 251 311 365
#
# _framework density 17.850995000000001
#
# number of rings (size 3 to 8) (size 9 to 14) (size 15 to 20)
#    0.000    1.333    3.333    3.000    1.167    3.000 
#    1.500    0.000    0.000    3.000    0.000    0.000 
#    0.000    0.000    0.000    0.000    0.000    0.000 
#
# Total GULP energy -267810.223434 kJ/mol
# GULP energy per Si atom -5579.379655 kJ/mol
# Density = 1.781037 g / cm^3
# Si number density = 17.850995 Si / 1000 Ang^3
#
#
#
# Elastic Constant Matrix: (Units=GPa)
#
#
# Indices 1 2 3 4 5 6 
#
# 1 141.5691 44.6783 47.8568 0.0000 0.0000 0.0000
# 2 44.6783 97.2081 43.6872 0.0000 0.0000 0.0000
# 3 47.8568 43.6872 86.2232 0.0000 0.0000 0.0000
# 4 0.0000 0.0000 0.0000 22.4193 0.0000 0.0000
# 5 0.0000 0.0000 0.0000 0.0000 32.8923 0.0000
# 6 0.0000 0.0000 0.0000 0.0000 0.0000-1146.7169
#
#
#
# Elastic Compliance Matrix: (Units=1/GPa)
#
#
# Indices 1 2 3 4 5 6 
#
# 1 0.009137 -0.002487 -0.003811 0.000000 0.000000 0.000000
# 2 -0.002487 0.013997 -0.005712 0.000000 0.000000 0.000000
# 3 -0.003811 -0.005712 0.016607 0.000000 0.000000 0.000000
# 4 0.000000 0.000000 0.000000 0.044604 0.000000 0.000000
# 5 0.000000 0.000000 0.000000 0.000000 0.030402 0.000000
# 6 0.000000 0.000000 0.000000 0.000000 0.000000 -0.000872
#
#
# Mechanical properties :
#
#
# Convention : Reuss Voigt Hill
#
# Bulk Modulus (GPa) = 63.60648 66.38277 64.99463
# Shear Modulus (GPa) = 34.93180 -205.69586 -85.38203
#
# Velocity S-wave (km/s) = 4.42843 -10.74614 -6.92346
# Velocity P-wave (km/s) = 7.86494 10.80300 5.23677
#
# Compressibility (1/GPa) = 0.01572167
#
# Stress axis : x y z
#
# Youngs Moduli (GPa) = 109.44698 71.44349 60.21436
#
# Poissons Ratio (x) = 0.17764 0.22950
# Poissons Ratio (y) = 0.27214 0.34394
# Poissons Ratio (z) = 0.41715 0.40808
#
# Static dielectric constant tensor:
#      x y z
#    x 1.582130 0.000000 0.000000 
#    y 0.000000 1.615550 0.000000 
#    z 0.000000 0.000000 1.595480 
# 
# From -- ./inp_files/27645.got.cif
#   From: 2010.05.17/outbox.cif.g08.bks.cpg/sg51_14_cif.got.tgz:27645.got - 2010.06.03 11:52:47.
