data_PCOD9404015
_publ_section_title
;
Structure prediction by ZEFSAII (Michael W. Deem and Ramdas Pophale) SiO2 
 PCOD9404015
Probable space group: P M M A
;
_chemical_formula_sum "Si O2"
_cell_formula_units_Z 52
_cell_length_a 8.700975
_cell_length_b 23.557569
_cell_length_c 14.569990
_cell_angle_alpha 90.000000
_cell_angle_beta 90.000000
_cell_angle_gamma 90.000000
_cell_volume 2986.466492
_symmetry_space_group_name_H-M "P M M A"
_symmetry_group_IT_number 51
_symmetry_cell_setting 'orthorhombic'
loop_
_space_group_symop_operation_xyz
x,y,z
1/2-x,-y,z
1/2+x,-y,-z
-x,y,-z
-x,-y,-z
1/2+x,y,-z
1/2-x,y,z
x,-y,z
loop_
_atom_site_type_symbol
_atom_site_label
_atom_site_fract_x
_atom_site_fract_y
_atom_site_fract_z
Si Si1 0.065971 0.778724 0.602524
Si Si2 0.435269 0.435489 0.399388
Si Si3 0.933779 0.852880 0.099193
Si Si4 0.434718 0.327099 0.284529
Si Si5 0.565283 0.113418 0.711380
Si Si6 0.066355 0.281417 0.901014
Si Si7 0.935022 0.000000 0.602427
O O1 0.250000 0.778252 0.600681
O O2 0.000000 0.781871 0.500000
O O3 0.004808 0.722259 0.652055
O O4 0.007544 0.832711 0.660006
O O5 0.500000 0.421327 0.500000
O O6 0.250000 0.435001 0.404705
O O7 0.484266 0.500000 0.376768
O O8 0.481267 0.387850 0.326438
O O9 0.750000 0.858862 0.099877
O O10 0.970289 0.785673 0.112572
O O11 0.007731 0.885823 0.184026
O O12 0.000000 0.869444 0.000000
O O13 0.250000 0.322810 0.286552
O O14 0.493830 0.316210 0.182091
O O15 0.750000 0.118345 0.709520
O O16 0.519089 0.056382 0.657824
O O17 0.250000 0.286951 0.900357
O O18 0.000000 0.297861 0.000000
O O19 0.000000 0.000000 0.500000
O O20 0.750000 0.000000 0.596757
#
# Coordination Sequence:
#
# PCOD9404015 Si02
#       7
#     8   8   8   8   8   8   4
#     4  12  24  37  53  79 112 145 182 227 278 329
#     4   9  19  35  54  78 109 147 189 229 271 323
#     4  10  20  35  57  85 114 147 182 225 276 330
#     4  11  21  34  55  82 112 146 182 226 279 329
#     4  11  22  39  60  83 112 145 184 229 276 331
#     4  10  20  34  54  81 114 146 182 225 274 331
#     4  10  24  42  61  84 109 146 189 230 274 326
#
# _framework density 17.411881000000001
#
# number of rings (size 3 to 8) (size 9 to 14) (size 15 to 20)
#    0.000    1.538    1.538    4.154    0.000    6.154 
#    0.000    0.385    0.000    0.462    0.000    0.000 
#    0.000    0.000    0.000    0.000    0.000    0.000 
#
# Total GULP energy -290567.397057 kJ/mol
# GULP energy per Si atom -5587.834559 kJ/mol
# Density = 1.737225 g / cm^3
# Si number density = 17.411881 Si / 1000 Ang^3
#
#
#
# Elastic Constant Matrix: (Units=GPa)
#
#
# Indices 1 2 3 4 5 6 
#
# 1 64.5216 41.8266 54.3169 0.0000 0.0000 0.0000
# 2 41.8266 104.8988 84.8231 0.0000 0.0000 0.0000
# 3 54.3169 84.8231 179.9690 0.0000 0.0000 0.0000
# 4 0.0000 0.0000 0.0000 28.6593 0.0000 0.0000
# 5 0.0000 0.0000 0.0000 0.0000 37.0564 0.0000
# 6 0.0000 0.0000 0.0000 0.0000 0.0000 3.8135
#
#
#
# Elastic Compliance Matrix: (Units=1/GPa)
#
#
# Indices 1 2 3 4 5 6 
#
# 1 0.022690 -0.005671 -0.004175 0.000000 0.000000 0.000000
# 2 -0.005671 0.016821 -0.006216 0.000000 0.000000 0.000000
# 3 -0.004175 -0.006216 0.009747 0.000000 0.000000 0.000000
# 4 0.000000 0.000000 0.000000 0.034893 0.000000 0.000000
# 5 0.000000 0.000000 0.000000 0.000000 0.026986 0.000000
# 6 0.000000 0.000000 0.000000 0.000000 0.000000 0.262228
#
#
# Mechanical properties :
#
#
# Convention : Reuss Voigt Hill
#
# Bulk Modulus (GPa) = 58.37044 79.03586 68.70315
# Shear Modulus (GPa) = 12.15953 25.13402 18.64677
#
# Velocity S-wave (km/s) = 2.64549 3.80346 3.27605
# Velocity P-wave (km/s) = 6.55192 8.04853 7.33848
#
# Compressibility (1/GPa) = 0.01713196
#
# Stress axis : x y z
#
# Youngs Moduli (GPa) = 44.07263 59.44950 102.59986
#
# Poissons Ratio (x) = 0.33714 0.42838
# Poissons Ratio (y) = 0.24994 0.63781
# Poissons Ratio (z) = 0.18401 0.36957
#
# Static dielectric constant tensor:
#      x y z
#    x 1.580980 0.000000 0.000000 
#    y 0.000000 1.582240 0.000000 
#    z 0.000000 0.000000 1.570630 
# 
# From -- ./inp_files/21640.got.cif
#   From: 2010.05.17/outbox.cif.g08.bks.cpg/sg51_11_cif.got.tgz:21640.got - 2010.06.03 11:52:47.
