data_PCOD9404301
_publ_section_title
;
Structure prediction by ZEFSAII (Michael W. Deem and Ramdas Pophale) SiO2 
 PCOD9404301
Probable space group: P M M A
;
_chemical_formula_sum "Si O2"
_cell_formula_units_Z 56
_cell_length_a 14.038968
_cell_length_b 8.831432
_cell_length_c 24.309383
_cell_angle_alpha 90.000000
_cell_angle_beta 90.000000
_cell_angle_gamma 90.000000
_cell_volume 3013.979191
_symmetry_space_group_name_H-M "P M M A"
_symmetry_group_IT_number 51
_symmetry_cell_setting 'orthorhombic'
loop_
_space_group_symop_operation_xyz
x,y,z
1/2-x,-y,z
1/2+x,-y,-z
-x,y,-z
-x,-y,-z
1/2+x,y,-z
1/2-x,y,z
x,-y,z
loop_
_atom_site_type_symbol
_atom_site_label
_atom_site_fract_x
_atom_site_fract_y
_atom_site_fract_z
Si Si1 0.356280 0.815390 0.030227
Si Si2 0.549485 0.184313 0.084382
Si Si3 0.365298 0.176319 0.585902
Si Si4 0.138722 0.179915 0.355977
Si Si5 0.138163 0.816949 0.800020
Si Si6 0.634071 0.673012 0.528317
Si Si7 0.960887 0.320130 0.306878
O O1 0.250000 0.763092 0.043696
O O2 0.441554 0.767303 0.070536
O O3 0.355651 0.000000 0.031060
O O4 0.386466 0.771311 0.968178
O O5 0.590772 0.233943 0.142603
O O6 0.550204 0.000000 0.085005
O O7 0.250000 0.183351 0.587689
O O8 0.397330 0.256554 0.529503
O O9 0.405867 0.255644 0.639850
O O10 0.392887 0.000000 0.585264
O O11 0.250000 0.218869 0.348316
O O12 0.110360 0.230597 0.417741
O O13 0.069000 0.263477 0.314299
O O14 0.128316 0.000000 0.350862
O O15 0.250000 0.778990 0.799802
O O16 0.086392 0.745877 0.747811
O O17 0.130542 0.000000 0.796697
O O18 0.750000 0.671479 0.526160
O O19 0.601821 0.500000 0.534931
O O20 0.956387 0.500000 0.306977
#
# Coordination Sequence:
#
# PCOD9404301 Si02
#       7
#     8   8   8   8   8   8   8
#     4   8  12  20  38  68 105 139 171 214 267 317
#     4   8  14  24  41  68 102 139 177 216 264 321
#     4  10  20  35  55  79 108 140 175 218 267 318
#     4  10  21  39  61  81 102 131 170 216 264 317
#     4  10  20  35  54  75 103 140 180 221 265 316
#     4   9  17  31  53  81 111 139 168 207 260 321
#     4  12  25  38  54  76 103 136 176 221 268 319
#
# _framework density 18.580088
#
# number of rings (size 3 to 8) (size 9 to 14) (size 15 to 20)
#    0.000    2.429    0.000    4.286    0.000    7.714 
#    0.000    3.571    0.000    2.571    0.000    2.000 
#    0.000    1.143    0.000    0.000    0.000    0.000 
#
# Total GULP energy -312701.377139 kJ/mol
# GULP energy per Si atom -5583.953163 kJ/mol
# Density = 1.853780 g / cm^3
# Si number density = 18.580088 Si / 1000 Ang^3
#
#
#
# Elastic Constant Matrix: (Units=GPa)
#
#
# Indices 1 2 3 4 5 6 
#
# 1 116.0666 37.5077 72.4125 0.0000 0.0000 0.0000
# 2 37.5077 58.4735 45.7196 0.0000 0.0000 0.0000
# 3 72.4125 45.7196 141.7914 0.0000 0.0000 0.0000
# 4 0.0000 0.0000 0.0000 -17.5225 0.0000 0.0000
# 5 0.0000 0.0000 0.0000 0.0000 26.6251 0.0000
# 6 0.0000 0.0000 0.0000 0.0000 0.0000 14.8983
#
#
#
# Elastic Compliance Matrix: (Units=1/GPa)
#
#
# Indices 1 2 3 4 5 6 
#
# 1 0.013423 -0.004346 -0.005454 0.000000 0.000000 0.000000
# 2 -0.004346 0.024274 -0.005608 0.000000 0.000000 0.000000
# 3 -0.005454 -0.005608 0.011646 0.000000 0.000000 0.000000
# 4 0.000000 0.000000 0.000000 -0.057069 0.000000 0.000000
# 5 0.000000 0.000000 0.000000 0.000000 0.037559 0.000000
# 6 0.000000 0.000000 0.000000 0.000000 0.000000 0.067122
#
#
# Mechanical properties :
#
#
# Convention : Reuss Voigt Hill
#
# Bulk Modulus (GPa) = 53.97124 69.73458 61.85291
# Shear Modulus (GPa) = 37.32924 15.51294 26.42109
#
# Velocity S-wave (km/s) = 4.48716 2.89264 3.77505
# Velocity P-wave (km/s) = 7.48045 6.98354 7.23626
#
# Compressibility (1/GPa) = 0.01852839
#
# Stress axis : x y z
#
# Youngs Moduli (GPa) = 74.50149 41.19669 85.86740
#
# Poissons Ratio (x) = 0.17903 0.46829
# Poissons Ratio (y) = 0.32377 0.48150
# Poissons Ratio (z) = 0.40630 0.23101
#
# Static dielectric constant tensor:
#      x y z
#    x 1.686770 0.000000 0.000000 
#    y 0.000000 1.615300 0.000000 
#    z 0.000000 0.000000 1.602970 
# 
# From -- ./inp_files/33478.got.cif
#   From: 2010.05.17/outbox.cif.g08.bks.cpg/sg51_17_cif.got.tgz:33478.got - 2010.06.03 11:52:47.
