data_PCOD9404235
_publ_section_title
;
Structure prediction by ZEFSAII (Michael W. Deem and Ramdas Pophale) SiO2 
 PCOD9404235
Probable space group: P M M A
;
_chemical_formula_sum "Si O2"
_cell_formula_units_Z 32
_cell_length_a 10.802518
_cell_length_b 12.474237
_cell_length_c 12.637484
_cell_angle_alpha 90.000000
_cell_angle_beta 90.000000
_cell_angle_gamma 90.000000
_cell_volume 1702.941026
_symmetry_space_group_name_H-M "P M M A"
_symmetry_group_IT_number 51
_symmetry_cell_setting 'orthorhombic'
loop_
_space_group_symop_operation_xyz
x,y,z
1/2-x,-y,z
1/2+x,-y,-z
-x,y,-z
-x,-y,-z
1/2+x,y,-z
1/2-x,y,z
x,-y,z
loop_
_atom_site_type_symbol
_atom_site_label
_atom_site_fract_x
_atom_site_fract_y
_atom_site_fract_z
Si Si1 0.394242 0.626545 0.301856
Si Si2 0.000000 0.256393 0.500000
Si Si3 0.878026 0.500000 0.069737
Si Si4 0.750000 0.876711 0.200560
Si Si5 0.750000 0.124995 0.454876
Si Si6 0.460765 0.277614 0.877984
O O1 0.250000 0.637648 0.330990
O O2 0.415854 0.500000 0.280439
O O3 0.479531 0.669625 0.396894
O O4 0.424760 0.698908 0.199450
O O5 0.875977 0.184347 0.490827
O O6 0.750000 0.500000 0.005236
O O7 0.885238 0.610552 0.131855
O O8 0.000000 0.500000 0.000000
O O9 0.750000 0.871884 0.327419
O O10 0.871910 0.816796 0.158583
O O11 0.750000 0.000000 0.167068
O O12 0.750000 0.000000 0.488552
O O13 0.500000 0.263979 0.000000
#
# Coordination Sequence:
#
# PCOD9404235 Si02
#       6
#     8   4   4   4   4   8
#     4  11  24  40  62  97 132 166 202 253 322 389
#     4  12  22  44  66  94 130 164 208 264 324 378
#     4  10  20  34  60  93 120 161 208 255 311 367
#     4  11  24  43  64  87 120 167 217 263 312 366
#     4  11  24  42  69  92 121 165 220 271 314 368
#     4  11  23  39  64  91 126 167 209 257 310 376
#
# _framework density 18.79102
#
# number of rings (size 3 to 8) (size 9 to 14) (size 15 to 20)
#    0.000    1.000    6.250    0.750    1.750    1.500 
#    0.000    1.250    0.000    0.000    0.000    0.000 
#    0.000    0.000    0.000    0.000    0.000    0.000 
#
# Total GULP energy -178552.581214 kJ/mol
# GULP energy per Si atom -5579.768163 kJ/mol
# Density = 1.874825 g / cm^3
# Si number density = 18.791020 Si / 1000 Ang^3
#
#
#
# Elastic Constant Matrix: (Units=GPa)
#
#
# Indices 1 2 3 4 5 6 
#
# 1 114.0135 44.6270 9.8566 0.0000 0.0000 0.0000
# 2 44.6270 133.2215 21.6780 0.0000 0.0000 0.0000
# 3 9.8566 21.6780 79.5700 0.0000 0.0000 0.0000
# 4 0.0000 0.0000 0.0000 25.1739 0.0000 0.0000
# 5 0.0000 0.0000 0.0000 0.0000 24.2586 0.0000
# 6 0.0000 0.0000 0.0000 0.0000 0.0000 35.0224
#
#
#
# Elastic Compliance Matrix: (Units=1/GPa)
#
#
# Indices 1 2 3 4 5 6 
#
# 1 0.010103 -0.003328 -0.000345 0.000000 0.000000 0.000000
# 2 -0.003328 0.008951 -0.002026 0.000000 0.000000 0.000000
# 3 -0.000345 -0.002026 0.013162 0.000000 0.000000 0.000000
# 4 0.000000 0.000000 0.000000 0.039724 0.000000 0.000000
# 5 0.000000 0.000000 0.000000 0.000000 0.041222 0.000000
# 6 0.000000 0.000000 0.000000 0.000000 0.000000 0.028553
#
#
# Mechanical properties :
#
#
# Convention : Reuss Voigt Hill
#
# Bulk Modulus (GPa) = 48.03575 53.23649 50.63612
# Shear Modulus (GPa) = 31.23938 33.60054 32.41996
#
# Velocity S-wave (km/s) = 4.08176 4.23320 4.15817
# Velocity P-wave (km/s) = 6.91614 7.23088 7.07526
#
# Compressibility (1/GPa) = 0.02081783
#
# Stress axis : x y z
#
# Youngs Moduli (GPa) = 98.97567 111.71969 75.97461
#
# Poissons Ratio (x) = 0.37185 0.02619
# Poissons Ratio (y) = 0.32943 0.15395
# Poissons Ratio (z) = 0.03412 0.22638
#
# Static dielectric constant tensor:
#      x y z
#    x 1.670690 0.000000 0.000000 
#    y 0.000000 1.647940 0.000000 
#    z 0.000000 0.000000 1.659370 
# 
# From -- ./inp_files/15134.got.cif
#   From: 2010.05.17/outbox.cif.g08.bks.cpg/sg51_8_cif.got.tgz:15134.got - 2010.06.03 11:52:47.
