data_PCOD9404252
_publ_section_title
;
Structure prediction by ZEFSAII (Michael W. Deem and Ramdas Pophale) SiO2 
 PCOD9404252
Probable space group: P M M A
;
_chemical_formula_sum "Si O2"
_cell_formula_units_Z 56
_cell_length_a 8.759259
_cell_length_b 22.979534
_cell_length_c 15.256372
_cell_angle_alpha 90.000000
_cell_angle_beta 90.000000
_cell_angle_gamma 90.000000
_cell_volume 3070.858852
_symmetry_space_group_name_H-M "P M M A"
_symmetry_group_IT_number 51
_symmetry_cell_setting 'orthorhombic'
loop_
_space_group_symop_operation_xyz
x,y,z
1/2-x,-y,z
1/2+x,-y,-z
-x,y,-z
-x,-y,-z
1/2+x,y,-z
1/2-x,y,z
x,-y,z
loop_
_atom_site_type_symbol
_atom_site_label
_atom_site_fract_x
_atom_site_fract_y
_atom_site_fract_z
Si Si1 0.566639 0.258173 0.093239
Si Si2 0.066249 0.564229 0.270938
Si Si3 0.067412 0.606458 0.906932
Si Si4 0.433043 0.797541 0.404572
Si Si5 0.565923 0.662956 0.594935
Si Si6 0.066849 0.159513 0.771400
Si Si7 0.931200 0.069156 0.905415
O O1 0.750000 0.256163 0.087882
O O2 0.521229 0.325492 0.105997
O O3 0.518166 0.216361 0.171967
O O4 0.500000 0.238449 0.000000
O O5 0.250000 0.568031 0.264479
O O6 0.027815 0.500000 0.306242
O O7 0.012822 0.616786 0.332888
O O8 0.996835 0.571728 0.174980
O O9 0.250000 0.603305 0.909626
O O10 0.000000 0.587262 0.000000
O O11 0.500000 0.812694 0.500000
O O12 0.250000 0.800742 0.407413
O O13 0.478221 0.729906 0.386314
O O14 0.497078 0.835591 0.325121
O O15 0.500000 0.647767 0.500000
O O16 0.750000 0.660990 0.591362
O O17 0.250000 0.158896 0.765969
O O18 0.008742 0.105151 0.827909
O O19 0.750000 0.079899 0.905955
O O20 0.957018 0.000000 0.894620
O O21 0.000000 0.086082 0.000000
#
# Coordination Sequence:
#
# PCOD9404252 Si02
#       7
#     8   8   8   8   8   8   8
#     4   9  19  32  48  74 105 134 165 207 257 310
#     4  10  21  36  52  72  99 130 167 211 257 307
#     4  10  20  35  53  72  97 130 168 209 256 309
#     4  10  20  35  55  79 107 138 174 216 264 317
#     4   9  19  35  55  78 104 135 168 208 260 315
#     4  11  21  33  53  81 111 142 178 219 264 313
#     4  10  21  37  56  80 113 152 191 227 262 303
#
# _framework density 18.235939999999999
#
# number of rings (size 3 to 8) (size 9 to 14) (size 15 to 20)
#    0.000    2.143    0.000    3.000    0.000    5.714 
#    0.000    0.000    0.000    0.429    0.000    0.000 
#    0.000    0.000    0.000    0.000    0.000    0.000 
#
# Total GULP energy -312735.741653 kJ/mol
# GULP energy per Si atom -5584.566815 kJ/mol
# Density = 1.819443 g / cm^3
# Si number density = 18.235940 Si / 1000 Ang^3
#
#
#
# Elastic Constant Matrix: (Units=GPa)
#
#
# Indices 1 2 3 4 5 6 
#
# 1 34.5895 32.8072 42.5633 0.0000 0.0000 0.0000
# 2 32.8072 55.0445 60.1826 0.0000 0.0000 0.0000
# 3 42.5633 60.1826 145.8155 0.0000 0.0000 0.0000
# 4 0.0000 0.0000 0.0000 12.5832 0.0000 0.0000
# 5 0.0000 0.0000 0.0000 0.0000 35.4185 0.0000
# 6 0.0000 0.0000 0.0000 0.0000 0.0000 0.7799
#
#
#
# Elastic Compliance Matrix: (Units=1/GPa)
#
#
# Indices 1 2 3 4 5 6 
#
# 1 0.069080 -0.034854 -0.005779 0.000000 0.000000 0.000000
# 2 -0.034854 0.050692 -0.010748 0.000000 0.000000 0.000000
# 3 -0.005779 -0.010748 0.012981 0.000000 0.000000 0.000000
# 4 0.000000 0.000000 0.000000 0.079471 0.000000 0.000000
# 5 0.000000 0.000000 0.000000 0.000000 0.028234 0.000000
# 6 0.000000 0.000000 0.000000 0.000000 0.000000 1.282277
#
#
# Mechanical properties :
#
#
# Convention : Reuss Voigt Hill
#
# Bulk Modulus (GPa) = 33.34412 56.28395 44.81404
# Shear Modulus (GPa) = 3.05718 16.41607 9.73663
#
# Velocity S-wave (km/s) = 1.29619 3.00360 2.31319
# Velocity P-wave (km/s) = 4.53483 6.55439 5.63581
#
# Compressibility (1/GPa) = 0.02999029
#
# Stress axis : x y z
#
# Youngs Moduli (GPa) = 14.47606 19.72691 77.03533
#
# Poissons Ratio (x) = 0.68756 0.44518
# Poissons Ratio (y) = 0.50455 0.82801
# Poissons Ratio (z) = 0.08366 0.21203
#
# Static dielectric constant tensor:
#      x y z
#    x 1.605010 0.000000 0.000000 
#    y 0.000000 1.643330 0.000000 
#    z 0.000000 0.000000 1.595360 
# 
# From -- ./inp_files/21703.got.cif
#   From: 2010.05.17/outbox.cif.g08.bks.cpg/sg51_11_cif.got.tgz:21703.got - 2010.06.03 11:52:47.
