data_PCOD9404443
_publ_section_title
;
Structure prediction by ZEFSAII (Michael W. Deem and Ramdas Pophale) SiO2 
 PCOD9404443
Probable space group: P M M A
;
_chemical_formula_sum "Si O2"
_cell_formula_units_Z 48
_cell_length_a 8.557533
_cell_length_b 32.065241
_cell_length_c 9.399807
_cell_angle_alpha 90.000000
_cell_angle_beta 90.000000
_cell_angle_gamma 90.000000
_cell_volume 2579.301006
_symmetry_space_group_name_H-M "P M M A"
_symmetry_group_IT_number 51
_symmetry_cell_setting 'orthorhombic'
loop_
_space_group_symop_operation_xyz
x,y,z
1/2-x,-y,z
1/2+x,-y,-z
-x,y,-z
-x,-y,-z
1/2+x,y,-z
1/2-x,y,z
x,-y,z
loop_
_atom_site_type_symbol
_atom_site_label
_atom_site_fract_x
_atom_site_fract_y
_atom_site_fract_z
Si Si1 0.562456 0.249155 0.159427
Si Si2 0.936591 0.000000 0.160709
Si Si3 0.060862 0.590929 0.838714
Si Si4 0.437311 0.841065 0.159636
Si Si5 0.937839 0.078128 0.660360
Si Si6 0.561101 0.329156 0.340722
Si Si7 0.938395 0.500000 0.161653
O O1 0.750000 0.247987 0.155122
O O2 0.500956 0.203953 0.206661
O O3 0.511388 0.287174 0.259056
O O4 0.500000 0.256100 0.000000
O O5 0.996485 0.040448 0.245303
O O6 0.750000 0.000000 0.157331
O O7 0.000000 0.000000 0.000000
O O8 0.250000 0.591783 0.843512
O O9 0.007391 0.629779 0.744642
O O10 0.011938 0.545187 0.779399
O O11 0.000000 0.594898 0.000000
O O12 0.250000 0.839203 0.152869
O O13 0.483549 0.878345 0.264508
O O14 0.500000 0.848961 0.000000
O O15 0.750000 0.075547 0.658727
O O16 0.000000 0.075665 0.500000
O O17 0.500000 0.329589 0.500000
O O18 0.750000 0.329563 0.342062
O O19 0.750000 0.500000 0.160606
O O20 0.000000 0.500000 0.000000
#
# Coordination Sequence:
#
# PCOD9404443 Si02
#       7
#     8   4   8   8   8   8   4
#     4  10  20  35  56  80 105 136 176 221 267 316
#     4  12  25  42  65  90 118 152 192 236 279 326
#     4   9  17  31  51  75 100 129 168 211 258 310
#     4  10  21  37  59  85 112 144 182 224 270 321
#     4  11  24  41  61  87 119 154 190 229 277 328
#     4  10  22  36  50  72 103 138 174 213 260 314
#     4   8  14  26  47  72  98 126 160 208 257 304
#
# _framework density 18.609693
#
# number of rings (size 3 to 8) (size 9 to 14) (size 15 to 20)
#    0.000    2.000    0.000    4.500    0.000    6.667 
#    0.000    3.750    0.000    0.000    0.000    0.000 
#    0.000    0.000    0.000    0.000    0.000    0.000 
#
# Total GULP energy -267984.561639 kJ/mol
# GULP energy per Si atom -5583.011701 kJ/mol
# Density = 1.856734 g / cm^3
# Si number density = 18.609693 Si / 1000 Ang^3
#
#
#
# Elastic Constant Matrix: (Units=GPa)
#
#
# Indices 1 2 3 4 5 6 
#
# 1 40.5194 49.5070 32.6283 0.0000 0.0000 0.0000
# 2 49.5070 221.2250 127.4396 0.0000 0.0000 0.0000
# 3 32.6283 127.4396 128.6565 0.0000 0.0000 0.0000
# 4 0.0000 0.0000 0.0000 -43.6253 0.0000 0.0000
# 5 0.0000 0.0000 0.0000 0.0000 32.1277 0.0000
# 6 0.0000 0.0000 0.0000 0.0000 0.0000 7.3341
#
#
#
# Elastic Compliance Matrix: (Units=1/GPa)
#
#
# Indices 1 2 3 4 5 6 
#
# 1 0.034323 -0.006210 -0.002553 0.000000 0.000000 0.000000
# 2 -0.006210 0.011651 -0.009966 0.000000 0.000000 0.000000
# 3 -0.002553 -0.009966 0.018292 0.000000 0.000000 0.000000
# 4 0.000000 0.000000 0.000000 -0.022922 0.000000 0.000000
# 5 0.000000 0.000000 0.000000 0.000000 0.031126 0.000000
# 6 0.000000 0.000000 0.000000 0.000000 0.000000 0.136349
#
#
# Mechanical properties :
#
#
# Convention : Reuss Voigt Hill
#
# Bulk Modulus (GPa) = 37.30297 89.95006 63.62652
# Shear Modulus (GPa) = 19.59153 11.22238 15.40696
#
# Velocity S-wave (km/s) = 3.24815 2.45835 2.88045
# Velocity P-wave (km/s) = 5.84429 7.51651 6.73252
#
# Compressibility (1/GPa) = 0.02680751
#
# Stress axis : x y z
#
# Youngs Moduli (GPa) = 29.13480 85.82941 54.66974
#
# Poissons Ratio (x) = 0.53303 0.13957
# Poissons Ratio (y) = 0.18094 0.54483
# Poissons Ratio (z) = 0.07438 0.85536
#
# Static dielectric constant tensor:
#      x y z
#    x 1.635480 0.000000 0.000000 
#    y 0.000000 1.668540 0.000000 
#    z 0.000000 0.000000 1.588260 
# 
# From -- ./inp_files/6115.got.cif
#   From: 2010.05.17/outbox.cif.g08.bks.cpg/sg51_4_cif.got.tgz:6115.got - 2010.06.03 11:52:47.
