data_PCOD9404825
_publ_section_title
;
Structure prediction by ZEFSAII (Michael W. Deem and Ramdas Pophale) SiO2 
 PCOD9404825
Probable space group: P M M A
;
_chemical_formula_sum "Si O2"
_cell_formula_units_Z 48
_cell_length_a 28.819897
_cell_length_b 7.792910
_cell_length_c 10.490383
_cell_angle_alpha 90.000000
_cell_angle_beta 90.000000
_cell_angle_gamma 90.000000
_cell_volume 2356.044177
_symmetry_space_group_name_H-M "P M M A"
_symmetry_group_IT_number 51
_symmetry_cell_setting 'orthorhombic'
loop_
_space_group_symop_operation_xyz
x,y,z
1/2-x,-y,z
1/2+x,-y,-z
-x,y,-z
-x,-y,-z
1/2+x,y,-z
1/2-x,y,z
x,-y,z
loop_
_atom_site_type_symbol
_atom_site_label
_atom_site_fract_x
_atom_site_fract_y
_atom_site_fract_z
Si Si1 0.443160 0.300923 0.240463
Si Si2 0.197871 0.209866 0.376917
Si Si3 0.697572 0.792503 0.918475
Si Si4 0.105446 0.199634 0.496256
Si Si5 0.898813 0.298590 0.022321
Si Si6 0.952647 0.198991 0.268651
O O1 0.429097 0.500000 0.249989
O O2 0.422454 0.209670 0.364084
O O3 0.422504 0.231709 0.108017
O O4 0.498548 0.288044 0.241320
O O5 0.250000 0.262511 0.412732
O O6 0.189612 0.260235 0.229307
O O7 0.156320 0.273119 0.465809
O O8 0.196908 0.000000 0.377646
O O9 0.750000 0.739815 0.953521
O O10 0.656117 0.724252 0.004413
O O11 0.696042 0.000000 0.921660
O O12 0.074803 0.274816 0.610152
O O13 0.112503 0.000000 0.530903
O O14 0.910092 0.500000 0.033155
O O15 0.919884 0.210073 0.145777
O O16 0.964096 0.000000 0.296034
#
# Coordination Sequence:
#
# PCOD9404825 Si02
#       6
#     8   8   8   8   8   8
#     4  11  23  38  57  81 108 145 190 231 277 333
#     4   8  14  28  54  84 109 135 171 219 270 317
#     4   9  17  32  58  87 110 139 182 227 272 323
#     4  10  20  36  58  84 112 142 182 228 276 330
#     4  11  23  38  56  81 113 149 186 226 277 332
#     4  11  24  38  55  81 112 148 188 232 280 330
#
# _framework density 20.373131000000001
#
# number of rings (size 3 to 8) (size 9 to 14) (size 15 to 20)
#    0.000    2.000    1.667    3.500    0.000    7.667 
#    0.000    0.833    0.000    3.500    0.000    0.000 
#    0.000    0.000    0.000    0.000    0.000    0.000 
#
# Total GULP energy -268072.101546 kJ/mol
# GULP energy per Si atom -5584.835449 kJ/mol
# Density = 2.032676 g / cm^3
# Si number density = 20.373131 Si / 1000 Ang^3
#
#
#
# Elastic Constant Matrix: (Units=GPa)
#
#
# Indices 1 2 3 4 5 6 
#
# 1 119.5456 -11.4391 28.8213 0.0000 0.0000 0.0000
# 2 -11.4391 30.1898 -7.7411 0.0000 0.0000 0.0000
# 3 28.8213 -7.7411 74.4985 0.0000 0.0000 0.0000
# 4 0.0000 0.0000 0.0000 5.2344 0.0000 0.0000
# 5 0.0000 0.0000 0.0000 0.0000 -13.3377 0.0000
# 6 0.0000 0.0000 0.0000 0.0000 0.0000 18.7693
#
#
#
# Elastic Compliance Matrix: (Units=1/GPa)
#
#
# Indices 1 2 3 4 5 6 
#
# 1 0.009437 0.002712 -0.003369 0.000000 0.000000 0.000000
# 2 0.002712 0.034810 0.002568 0.000000 0.000000 0.000000
# 3 -0.003369 0.002568 0.014993 0.000000 0.000000 0.000000
# 4 0.000000 0.000000 0.000000 0.191045 0.000000 0.000000
# 5 0.000000 0.000000 0.000000 0.000000 -0.074976 0.000000
# 6 0.000000 0.000000 0.000000 0.000000 0.000000 0.053279
#
#
# Mechanical properties :
#
#
# Convention : Reuss Voigt Hill
#
# Bulk Modulus (GPa) = 15.85762 27.05735 21.45749
# Shear Modulus (GPa) = 20.34282 16.43939 18.39111
#
# Velocity S-wave (km/s) = 3.16335 2.84371 3.00778
# Velocity P-wave (km/s) = 4.59814 4.90836 4.75578
#
# Compressibility (1/GPa) = 0.06306116
#
# Stress axis : x y z
#
# Youngs Moduli (GPa) = 105.96897 28.72760 66.69647
#
# Poissons Ratio (x) = -0.07790 0.22470
# Poissons Ratio (y) = -0.28736 -0.17127
# Poissons Ratio (z) = 0.35701 -0.07377
#
# Static dielectric constant tensor:
#      x y z
#    x 1.725090 0.000000 0.000000 
#    y 0.000000 2.679150 0.000000 
#    z 0.000000 0.000000 1.695180 
# 
# From -- ./inp_files/12800.got.cif
#   From: 2010.05.17/outbox.cif.g08.bks.cpg/sg51_7_cif.got.tgz:12800.got - 2010.06.03 11:52:47.
