data_PCOD9404089
_publ_section_title
;
Structure prediction by ZEFSAII (Michael W. Deem and Ramdas Pophale) SiO2 
 PCOD9404089
Probable space group: P M M A
;
_chemical_formula_sum "Si O2"
_cell_formula_units_Z 64
_cell_length_a 10.735848
_cell_length_b 18.070363
_cell_length_c 16.772931
_cell_angle_alpha 90.000000
_cell_angle_beta 90.000000
_cell_angle_gamma 90.000000
_cell_volume 3253.959860
_symmetry_space_group_name_H-M "P M M A"
_symmetry_group_IT_number 51
_symmetry_cell_setting 'orthorhombic'
loop_
_space_group_symop_operation_xyz
x,y,z
1/2-x,-y,z
1/2+x,-y,-z
-x,y,-z
-x,-y,-z
1/2+x,y,-z
1/2-x,y,z
x,-y,z
loop_
_atom_site_type_symbol
_atom_site_label
_atom_site_fract_x
_atom_site_fract_y
_atom_site_fract_z
Si Si1 0.977977 0.815113 0.195010
Si Si2 0.897276 0.084256 0.673272
Si Si3 0.385242 0.414530 0.559336
Si Si4 0.477976 0.684887 0.695010
Si Si5 0.885242 0.914530 0.059336
Si Si6 0.897276 0.415744 0.826728
Si Si7 0.393033 0.778843 0.435414
Si Si8 0.606967 0.278843 0.935414
O O1 0.034419 0.876184 0.253667
O O2 0.921070 0.750000 0.250000
O O3 0.082154 0.773921 0.140861
O O4 0.893473 0.857951 0.132039
O O5 0.750000 0.083551 0.690909
O O6 0.912448 0.137878 0.597400
O O7 0.938910 0.000000 0.660694
O O8 0.500000 0.402458 0.500000
O O9 0.250000 0.406791 0.518889
O O10 0.395086 0.500000 0.587331
O O11 0.393473 0.357951 0.632039
O O12 0.534418 0.623816 0.753667
O O13 0.582153 0.726079 0.640861
O O14 0.750000 0.906791 0.018889
O O15 0.895086 0.000000 0.087331
O O16 0.000000 0.902459 0.000000
O O17 0.750000 0.416449 0.809091
O O18 0.938910 0.500000 0.839306
O O19 0.912448 0.362122 0.902600
O O20 0.500000 0.763747 0.500000
O O21 0.250000 0.770744 0.463468
O O22 0.750000 0.270744 0.963469
O O23 0.500000 0.263747 0.000000
#
# Coordination Sequence:
#
# PCOD9404089 Si02
#       8
#     8   8   8   8   8   8   8   8
#     4  10  20  34  55  82 111 141 178 224 274 323
#     4   9  18  34  56  80 107 142 183 225 270 321
#     4  10  22  39  58  82 112 145 182 224 269 320
#     4  10  20  34  55  82 111 141 178 224 274 323
#     4  10  22  39  58  82 112 145 182 224 269 320
#     4   9  18  34  56  80 107 142 183 225 270 321
#     4  10  21  36  55  81 111 143 181 224 269 320
#     4  10  21  36  55  81 111 143 181 224 269 320
#
# _framework density 19.668343
#
# number of rings (size 3 to 8) (size 9 to 14) (size 15 to 20)
#    0.000    2.250    0.000    2.250    0.000    9.000 
#    0.000    6.250    0.000    1.500    0.000    0.000 
#    0.000    0.000    0.000    0.000    0.000    0.250 
#
# Total GULP energy -357020.233684 kJ/mol
# GULP energy per Si atom -5578.441151 kJ/mol
# Density = 1.962358 g / cm^3
# Si number density = 19.668343 Si / 1000 Ang^3
#
#
#
# Elastic Constant Matrix: (Units=GPa)
#
#
# Indices 1 2 3 4 5 6 
#
# 1 116.9079 34.3751 48.2948 0.0000 0.0000 0.0000
# 2 34.3751 153.0985 37.1445 0.0000 0.0000 0.0000
# 3 48.2948 37.1445 69.0217 0.0000 0.0000 0.0000
# 4 0.0000 0.0000 0.0000 30.6256 0.0000 0.0000
# 5 0.0000 0.0000 0.0000 0.0000 22.5553 0.0000
# 6 0.0000 0.0000 0.0000 0.0000 0.0000 -51.3945
#
#
#
# Elastic Compliance Matrix: (Units=1/GPa)
#
#
# Indices 1 2 3 4 5 6 
#
# 1 0.012108 -0.000763 -0.008062 0.000000 0.000000 0.000000
# 2 -0.000763 0.007561 -0.003535 0.000000 0.000000 0.000000
# 3 -0.008062 -0.003535 0.022032 0.000000 0.000000 0.000000
# 4 0.000000 0.000000 0.000000 0.032652 0.000000 0.000000
# 5 0.000000 0.000000 0.000000 0.000000 0.044335 0.000000
# 6 0.000000 0.000000 0.000000 0.000000 0.000000 -0.019457
#
#
# Mechanical properties :
#
#
# Convention : Reuss Voigt Hill
#
# Bulk Modulus (GPa) = 58.88857 64.29519 61.59188
# Shear Modulus (GPa) = 38.57702 14.97152 26.77427
#
# Velocity S-wave (km/s) = 4.43355 2.76198 3.69357
# Velocity P-wave (km/s) = 7.49762 6.55225 7.04082
#
# Compressibility (1/GPa) = 0.01698122
#
# Stress axis : x y z
#
# Youngs Moduli (GPa) = 82.58764 132.26309 45.38951
#
# Poissons Ratio (x) = 0.10088 0.36592
# Poissons Ratio (y) = 0.06299 0.16046
# Poissons Ratio (z) = 0.66580 0.46757
#
# Static dielectric constant tensor:
#      x y z
#    x 1.692180 0.000000 0.000000 
#    y 0.000000 1.728300 0.000000 
#    z 0.000000 0.000000 1.679730 
# 
# From -- ./inp_files/23440.got.cif
#   From: 2010.05.17/outbox.cif.g08.bks.cpg/sg51_12_cif.got.tgz:23440.got - 2010.06.03 11:52:47.
