data_PCOD9404821
_publ_section_title
;
Structure prediction by ZEFSAII (Michael W. Deem and Ramdas Pophale) SiO2 
 PCOD9404821
Probable space group: P M M A
;
_chemical_formula_sum "Si O2"
_cell_formula_units_Z 48
_cell_length_a 35.781583
_cell_length_b 8.679666
_cell_length_c 7.930739
_cell_angle_alpha 90.000000
_cell_angle_beta 90.000000
_cell_angle_gamma 90.000000
_cell_volume 2463.066975
_symmetry_space_group_name_H-M "P M M A"
_symmetry_group_IT_number 51
_symmetry_cell_setting 'orthorhombic'
loop_
_space_group_symop_operation_xyz
x,y,z
1/2-x,-y,z
1/2+x,-y,-z
-x,y,-z
-x,-y,-z
1/2+x,y,-z
1/2-x,y,z
x,-y,z
loop_
_atom_site_type_symbol
_atom_site_label
_atom_site_fract_x
_atom_site_fract_y
_atom_site_fract_z
Si Si1 0.793162 0.684276 0.978265
Si Si2 0.658061 0.183981 0.677699
Si Si3 0.158538 0.816859 0.718056
Si Si4 0.920957 0.679712 0.687596
Si Si5 0.924361 0.819749 0.330035
Si Si6 0.001499 0.324945 0.801316
O O1 0.750000 0.734346 0.988785
O O2 0.794427 0.500000 0.969178
O O3 0.815357 0.736944 0.145310
O O4 0.812226 0.750021 0.809117
O O5 0.663010 0.232504 0.479726
O O6 0.616972 0.236347 0.740642
O O7 0.659584 0.000000 0.678649
O O8 0.114726 0.794485 0.766275
O O9 0.165854 0.000000 0.722895
O O10 0.918640 0.500000 0.733810
O O11 0.922150 0.706866 0.488387
O O12 0.961199 0.739542 0.747672
O O13 0.963090 0.778726 0.242805
O O14 0.923947 0.000000 0.383728
O O15 0.005684 0.500000 0.729064
O O16 0.000000 0.339259 0.000000
#
# Coordination Sequence:
#
# PCOD9404821 Si02
#       6
#     8   8   8   8   8   8
#     4  11  25  42  63  93 125 158 196 242 299 362
#     4  10  22  41  65  92 123 159 202 250 302 359
#     4   9  21  41  63  90 121 158 201 246 298 355
#     4  10  20  36  58  83 113 154 198 242 293 347
#     4  10  21  37  57  83 113 151 197 245 296 348
#     4  10  22  36  51  79 116 154 196 242 293 348
#
# _framework density 19.487898999999999
#
# number of rings (size 3 to 8) (size 9 to 14) (size 15 to 20)
#    0.000    2.000    0.000    3.500    2.333    9.667 
#    0.000    3.333    0.000    0.000    0.000    0.000 
#    0.000    0.000    0.000    0.000    0.000    0.000 
#
# Total GULP energy -267732.298620 kJ/mol
# GULP energy per Si atom -5577.756221 kJ/mol
# Density = 1.944354 g / cm^3
# Si number density = 19.487899 Si / 1000 Ang^3
#
#
#
# Elastic Constant Matrix: (Units=GPa)
#
#
# Indices 1 2 3 4 5 6 
#
# 1 218.4598 65.6502 96.4598 0.0000 0.0000 0.0000
# 2 65.6502 47.2446 36.6402 0.0000 0.0000 0.0000
# 3 96.4598 36.6402 90.6498 0.0000 0.0000 0.0000
# 4 0.0000 0.0000 0.0000 27.3925 0.0000 0.0000
# 5 0.0000 0.0000 0.0000 0.0000 35.0572 0.0000
# 6 0.0000 0.0000 0.0000 0.0000 0.0000 30.9323
#
#
#
# Elastic Compliance Matrix: (Units=1/GPa)
#
#
# Indices 1 2 3 4 5 6 
#
# 1 0.010649 -0.008754 -0.007794 0.000000 0.000000 0.000000
# 2 -0.008754 0.038027 -0.006055 0.000000 0.000000 0.000000
# 3 -0.007794 -0.006055 0.021772 0.000000 0.000000 0.000000
# 4 0.000000 0.000000 0.000000 0.036506 0.000000 0.000000
# 5 0.000000 0.000000 0.000000 0.000000 0.028525 0.000000
# 6 0.000000 0.000000 0.000000 0.000000 0.000000 0.032329
#
#
# Mechanical properties :
#
#
# Convention : Reuss Voigt Hill
#
# Bulk Modulus (GPa) = 39.61542 83.76160 61.68851
# Shear Modulus (GPa) = 22.58065 29.18331 25.88198
#
# Velocity S-wave (km/s) = 3.40766 3.87396 3.64827
# Velocity P-wave (km/s) = 5.98792 7.94259 7.03349
#
# Compressibility (1/GPa) = 0.02524270
#
# Stress axis : x y z
#
# Youngs Moduli (GPa) = 93.90155 26.29721 45.93010
#
# Poissons Ratio (x) = 0.23020 0.35797
# Poissons Ratio (y) = 0.82201 0.27812
# Poissons Ratio (z) = 0.73184 0.15924
#
# Static dielectric constant tensor:
#      x y z
#    x 1.744530 0.000000 0.000000 
#    y 0.000000 1.694760 0.000000 
#    z 0.000000 0.000000 1.701340 
# 
# From -- ./inp_files/12779.got.cif
#   From: 2010.05.17/outbox.cif.g08.bks.cpg/sg51_7_cif.got.tgz:12779.got - 2010.06.03 11:52:47.
