data_PCOD9404761
_publ_section_title
;
Structure prediction by ZEFSAII (Michael W. Deem and Ramdas Pophale) SiO2 
 PCOD9404761
Probable space group: P M M A
;
_chemical_formula_sum "Si O2"
_cell_formula_units_Z 48
_cell_length_a 8.660327
_cell_length_b 30.678251
_cell_length_c 9.816010
_cell_angle_alpha 90.000000
_cell_angle_beta 90.000000
_cell_angle_gamma 90.000000
_cell_volume 2607.953713
_symmetry_space_group_name_H-M "P M M A"
_symmetry_group_IT_number 51
_symmetry_cell_setting 'orthorhombic'
loop_
_space_group_symop_operation_xyz
x,y,z
1/2-x,-y,z
1/2+x,-y,-z
-x,y,-z
-x,-y,-z
1/2+x,y,-z
1/2-x,y,z
x,-y,z
loop_
_atom_site_type_symbol
_atom_site_label
_atom_site_fract_x
_atom_site_fract_y
_atom_site_fract_z
Si Si1 0.435527 0.177082 0.850695
Si Si2 0.064458 0.326221 0.147467
Si Si3 0.435827 0.923692 0.852101
Si Si4 0.064471 0.249861 0.348002
Si Si5 0.436698 0.000000 0.651626
Si Si6 0.564215 0.427187 0.850749
Si Si7 0.565545 0.500000 0.347534
O O1 0.250000 0.180092 0.852125
O O2 0.480356 0.126541 0.825275
O O3 0.503670 0.208732 0.737309
O O4 0.500000 0.189051 0.000000
O O5 0.250000 0.324882 0.140163
O O6 0.014297 0.292999 0.264425
O O7 0.020063 0.376536 0.172827
O O8 0.000000 0.313059 0.000000
O O9 0.250000 0.925174 0.858763
O O10 0.486798 0.957391 0.736702
O O11 0.500000 0.936290 0.000000
O O12 0.250000 0.248900 0.351816
O O13 0.000000 0.249965 0.500000
O O14 0.500000 0.000000 0.500000
O O15 0.250000 0.000000 0.646782
O O16 0.750000 0.430732 0.851443
O O17 0.494979 0.458281 0.736354
O O18 0.500000 0.439498 0.000000
O O19 0.750000 0.500000 0.350945
O O20 0.500000 0.500000 0.500000
#
# Coordination Sequence:
#
# PCOD9404761 Si02
#       7
#     8   8   8   8   4   8   4
#     4  10  20  36  57  82 109 141 180 225 271 323
#     4   9  20  37  59  84 110 141 182 226 271 320
#     4   9  19  35  56  80 106 136 177 222 267 317
#     4  11  23  38  55  80 112 148 184 224 273 326
#     4  10  21  36  52  76 108 142 177 218 266 320
#     4  10  20  38  61  86 113 145 184 227 271 321
#     4  12  25  40  57  82 114 150 186 226 275 328
#
# _framework density 18.405234
#
# number of rings (size 3 to 8) (size 9 to 14) (size 15 to 20)
#    0.000    2.000    0.000    3.250    0.000    6.000 
#    0.000    3.333    0.000    0.000    0.000    0.000 
#    0.000    0.000    0.000    0.000    0.000    0.000 
#
# Total GULP energy -268153.517952 kJ/mol
# GULP energy per Si atom -5586.531624 kJ/mol
# Density = 1.836334 g / cm^3
# Si number density = 18.405234 Si / 1000 Ang^3
#
#
#
# Elastic Constant Matrix: (Units=GPa)
#
#
# Indices 1 2 3 4 5 6 
#
# 1 54.3258 42.6084 53.7704 0.0000 0.0000 0.0000
# 2 42.6084 120.9515 124.5771 0.0000 0.0000 0.0000
# 3 53.7704 124.5771 209.4318 0.0000 0.0000 0.0000
# 4 0.0000 0.0000 0.0000 -13.1813 0.0000 0.0000
# 5 0.0000 0.0000 0.0000 0.0000 38.2543 0.0000
# 6 0.0000 0.0000 0.0000 0.0000 0.0000 22.5880
#
#
#
# Elastic Compliance Matrix: (Units=1/GPa)
#
#
# Indices 1 2 3 4 5 6 
#
# 1 0.026239 -0.005950 -0.003197 0.000000 0.000000 0.000000
# 2 -0.005950 0.022695 -0.011972 0.000000 0.000000 0.000000
# 3 -0.003197 -0.011972 0.012717 0.000000 0.000000 0.000000
# 4 0.000000 0.000000 0.000000 -0.075865 0.000000 0.000000
# 5 0.000000 0.000000 0.000000 0.000000 0.026141 0.000000
# 6 0.000000 0.000000 0.000000 0.000000 0.000000 0.044271
#
#
# Mechanical properties :
#
#
# Convention : Reuss Voigt Hill
#
# Bulk Modulus (GPa) = 51.51519 91.84678 71.68098
# Shear Modulus (GPa) = 47.66138 20.44908 34.05523
#
# Velocity S-wave (km/s) = 5.09429 3.33685 4.30618
# Velocity P-wave (km/s) = 7.91534 8.05338 7.98466
#
# Compressibility (1/GPa) = 0.01941175
#
# Stress axis : x y z
#
# Youngs Moduli (GPa) = 38.11137 44.06342 78.63533
#
# Poissons Ratio (x) = 0.26219 0.25142
# Poissons Ratio (y) = 0.22677 0.94141
# Poissons Ratio (z) = 0.12185 0.52752
#
# Static dielectric constant tensor:
#      x y z
#    x 1.623160 0.000000 0.000000 
#    y 0.000000 1.647820 0.000000 
#    z 0.000000 0.000000 1.583800 
# 
# From -- ./inp_files/6106.got.cif
#   From: 2010.05.17/outbox.cif.g08.bks.cpg/sg51_4_cif.got.tgz:6106.got - 2010.06.03 11:52:47.
