data_PCOD9404118
_publ_section_title
;
Structure prediction by ZEFSAII (Michael W. Deem and Ramdas Pophale) SiO2 
 PCOD9404118
Probable space group: P M M A
;
_chemical_formula_sum "Si O2"
_cell_formula_units_Z 40
_cell_length_a 8.945918
_cell_length_b 7.854496
_cell_length_c 29.866205
_cell_angle_alpha 90.000000
_cell_angle_beta 90.000000
_cell_angle_gamma 90.000000
_cell_volume 2098.569118
_symmetry_space_group_name_H-M "P M M A"
_symmetry_group_IT_number 51
_symmetry_cell_setting 'orthorhombic'
loop_
_space_group_symop_operation_xyz
x,y,z
1/2-x,-y,z
1/2+x,-y,-z
-x,y,-z
-x,-y,-z
1/2+x,y,-z
1/2-x,y,z
x,-y,z
loop_
_atom_site_type_symbol
_atom_site_label
_atom_site_fract_x
_atom_site_fract_y
_atom_site_fract_z
Si Si1 0.924076 0.793928 0.046345
Si Si2 0.568009 0.000000 0.798639
Si Si3 0.924752 0.793677 0.546868
Si Si4 0.428135 0.693842 0.639452
Si Si5 0.430058 0.000000 0.304919
Si Si6 0.929903 0.309958 0.860823
O O1 0.750000 0.748541 0.046048
O O2 0.002759 0.721750 0.090258
O O3 0.936296 0.000000 0.048553
O O4 0.000000 0.738424 0.000000
O O5 0.522633 0.000000 0.747037
O O6 0.518555 0.834179 0.826257
O O7 0.750000 0.000000 0.798679
O O8 0.750000 0.747430 0.547562
O O9 0.000000 0.743511 0.500000
O O10 0.009561 0.717571 0.589291
O O11 0.934524 0.000000 0.550317
O O12 0.250000 0.721987 0.639446
O O13 0.457985 0.500000 0.654238
O O14 0.507166 0.833773 0.670227
O O15 0.250000 0.000000 0.307690
O O16 0.750000 0.297328 0.864412
O O17 0.967917 0.500000 0.845431
#
# Coordination Sequence:
#
# PCOD9404118 Si02
#       6
#     8   4   8   8   4   8
#     4  10  20  34  55  83 115 154 194 234 282 336
#     4   9  20  39  62  87 116 147 188 240 295 351
#     4  10  20  35  59  90 123 162 203 245 295 351
#     4  11  24  41  62  89 123 163 203 246 298 357
#     4  11  23  41  66  93 118 153 197 252 310 357
#     4  10  20  36  60  87 115 150 190 234 286 343
#
# _framework density 19.060606
#
# number of rings (size 3 to 8) (size 9 to 14) (size 15 to 20)
#    0.000    1.800    2.000    2.100    0.000    5.200 
#    0.000    4.000    0.000    0.000    0.000    0.000 
#    0.000    0.000    0.000    0.000    0.000    0.000 
#
# Total GULP energy -223546.715527 kJ/mol
# GULP energy per Si atom -5588.667888 kJ/mol
# Density = 1.901722 g / cm^3
# Si number density = 19.060606 Si / 1000 Ang^3
#
#
#
# Elastic Constant Matrix: (Units=GPa)
#
#
# Indices 1 2 3 4 5 6 
#
# 1 72.8376 66.9754 50.9010 0.0000 0.0000 0.0000
# 2 66.9754 130.6003 94.7919 0.0000 0.0000 0.0000
# 3 50.9010 94.7919 167.4623 0.0000 0.0000 0.0000
# 4 0.0000 0.0000 0.0000 -6.0492 0.0000 0.0000
# 5 0.0000 0.0000 0.0000 0.0000 28.7477 0.0000
# 6 0.0000 0.0000 0.0000 0.0000 0.0000 13.1728
#
#
#
# Elastic Compliance Matrix: (Units=1/GPa)
#
#
# Indices 1 2 3 4 5 6 
#
# 1 0.026016 -0.012904 -0.000604 0.000000 0.000000 0.000000
# 2 -0.012904 0.019397 -0.007057 0.000000 0.000000 0.000000
# 3 -0.000604 -0.007057 0.010150 0.000000 0.000000 0.000000
# 4 0.000000 0.000000 0.000000 -0.165312 0.000000 0.000000
# 5 0.000000 0.000000 0.000000 0.000000 0.034785 0.000000
# 6 0.000000 0.000000 0.000000 0.000000 0.000000 0.075914
#
#
# Mechanical properties :
#
#
# Convention : Reuss Voigt Hill
#
# Bulk Modulus (GPa) = 69.28413 88.47075 78.87744
# Shear Modulus (GPa) = 106.63210 17.72306 62.17758
#
# Velocity S-wave (km/s) = 7.48767 3.05261 5.71767
# Velocity P-wave (km/s) = 10.54428 7.67730 9.22287
#
# Compressibility (1/GPa) = 0.01443332
#
# Stress axis : x y z
#
# Youngs Moduli (GPa) = 38.43763 51.55529 98.52452
#
# Poissons Ratio (x) = 0.66525 0.05947
# Poissons Ratio (y) = 0.49599 0.69532
# Poissons Ratio (z) = 0.02320 0.36384
#
# Static dielectric constant tensor:
#      x y z
#    x 1.636320 0.000000 0.000000 
#    y 0.000000 1.684660 0.000000 
#    z 0.000000 0.000000 1.615230 
# 
# From -- ./inp_files/36075.got.cif
#   From: 2010.05.17/outbox.cif.g08.bks.cpg/sg51_19_cif.got.tgz:36075.got - 2010.06.03 11:52:47.
