data_PCOD9404711
_publ_section_title
;
Structure prediction by ZEFSAII (Michael W. Deem and Ramdas Pophale) SiO2 
 PCOD9404711
Probable space group: P M M A
;
_chemical_formula_sum "Si O2"
_cell_formula_units_Z 48
_cell_length_a 8.551986
_cell_length_b 32.332417
_cell_length_c 9.597856
_cell_angle_alpha 90.000000
_cell_angle_beta 90.000000
_cell_angle_gamma 90.000000
_cell_volume 2653.868395
_symmetry_space_group_name_H-M "P M M A"
_symmetry_group_IT_number 51
_symmetry_cell_setting 'orthorhombic'
loop_
_space_group_symop_operation_xyz
x,y,z
1/2-x,-y,z
1/2+x,-y,-z
-x,y,-z
-x,-y,-z
1/2+x,y,-z
1/2-x,y,z
x,-y,z
loop_
_atom_site_type_symbol
_atom_site_label
_atom_site_fract_x
_atom_site_fract_y
_atom_site_fract_z
Si Si1 0.937704 0.290608 0.343102
Si Si2 0.439054 0.212683 0.843185
Si Si3 0.062556 0.546570 0.843085
Si Si4 0.436051 0.620404 0.343920
Si Si5 0.438869 0.955622 0.658820
Si Si6 0.439282 0.864944 0.658223
O O1 0.750000 0.291625 0.348777
O O2 0.987829 0.253596 0.241854
O O3 0.000000 0.283761 0.500000
O O4 0.998601 0.335281 0.294185
O O5 0.250000 0.212252 0.846252
O O6 0.491893 0.172252 0.757028
O O7 0.500000 0.212701 0.000000
O O8 0.250000 0.549798 0.843364
O O9 0.020471 0.500000 0.794204
O O10 0.991867 0.582510 0.749560
O O11 0.000000 0.550684 0.000000
O O12 0.500000 0.614680 0.500000
O O13 0.250000 0.622405 0.347487
O O14 0.500000 0.955836 0.500000
O O15 0.250000 0.955705 0.657539
O O16 0.488167 0.910563 0.713941
O O17 0.489873 0.000000 0.722148
O O18 0.500000 0.859963 0.500000
O O19 0.250000 0.864011 0.652438
#
# Coordination Sequence:
#
# PCOD9404711 Si02
#       6
#     8   8   8   8   8   8
#     4  10  20  36  56  78 103 131 168 211 257 309
#     4  10  22  36  51  72  99 131 167 208 250 299
#     4  10  21  38  59  83 112 146 183 221 261 307
#     4  11  22  37  58  83 111 142 176 216 262 309
#     4   8  13  22  39  64  93 122 153 194 242 290
#     4   9  17  30  48  72  98 126 163 203 247 298
#
# _framework density 18.086804000000001
#
# number of rings (size 3 to 8) (size 9 to 14) (size 15 to 20)
#    0.000    2.333    0.000    4.000    0.000    4.000 
#    0.000    1.667    0.000    0.500    0.000    0.000 
#    0.000    0.000    0.000    0.000    0.000    0.000 
#
# Total GULP energy -267657.854006 kJ/mol
# GULP energy per Si atom -5576.205292 kJ/mol
# Density = 1.804564 g / cm^3
# Si number density = 18.086804 Si / 1000 Ang^3
#
#
#
# Elastic Constant Matrix: (Units=GPa)
#
#
# Indices 1 2 3 4 5 6 
#
# 1 48.7749 48.7130 22.7412 0.0000 0.0000 0.0000
# 2 48.7130 229.6468 100.8450 0.0000 0.0000 0.0000
# 3 22.7412 100.8450 75.6205 0.0000 0.0000 0.0000
# 4 0.0000 0.0000 0.0000 23.7442 0.0000 0.0000
# 5 0.0000 0.0000 0.0000 0.0000 29.1022 0.0000
# 6 0.0000 0.0000 0.0000 0.0000 0.0000 -550.7230
#
#
#
# Elastic Compliance Matrix: (Units=1/GPa)
#
#
# Indices 1 2 3 4 5 6 
#
# 1 0.026053 -0.005034 -0.001122 0.000000 0.000000 0.000000
# 2 -0.005034 0.011481 -0.013797 0.000000 0.000000 0.000000
# 3 -0.001122 -0.013797 0.031960 0.000000 0.000000 0.000000
# 4 0.000000 0.000000 0.000000 0.042116 0.000000 0.000000
# 5 0.000000 0.000000 0.000000 0.000000 0.034362 0.000000
# 6 0.000000 0.000000 0.000000 0.000000 0.000000 -0.001816
#
#
# Mechanical properties :
#
#
# Convention : Reuss Voigt Hill
#
# Bulk Modulus (GPa) = 33.79654 77.62675 55.71164
# Shear Modulus (GPa) = 25.78342 -87.45913 -30.83786
#
# Velocity S-wave (km/s) = 3.77973 -6.96134 -4.13363
# Velocity P-wave (km/s) = 6.14612 4.64773 2.84371
#
# Compressibility (1/GPa) = 0.02958883
#
# Stress axis : x y z
#
# Youngs Moduli (GPa) = 38.38367 87.10214 31.28889
#
# Poissons Ratio (x) = 0.43843 0.03511
# Poissons Ratio (y) = 0.19320 0.43168
# Poissons Ratio (z) = 0.04308 1.20172
#
# Static dielectric constant tensor:
#      x y z
#    x 1.611130 0.000000 0.000000 
#    y 0.000000 1.665540 0.000000 
#    z 0.000000 0.000000 1.574050 
# 
# From -- ./inp_files/6045.got.cif
#   From: 2010.05.17/outbox.cif.g08.bks.cpg/sg51_4_cif.got.tgz:6045.got - 2010.06.03 11:52:47.
