data_PCOD9404065
_publ_section_title
;
Structure prediction by ZEFSAII (Michael W. Deem and Ramdas Pophale) SiO2 
 PCOD9404065
Probable space group: P M M A
;
_chemical_formula_sum "Si O2"
_cell_formula_units_Z 64
_cell_length_a 7.625307
_cell_length_b 15.219698
_cell_length_c 25.808683
_cell_angle_alpha 90.000000
_cell_angle_beta 90.000000
_cell_angle_gamma 90.000000
_cell_volume 2995.223343
_symmetry_space_group_name_H-M "P M M A"
_symmetry_group_IT_number 51
_symmetry_cell_setting 'orthorhombic'
loop_
_space_group_symop_operation_xyz
x,y,z
1/2-x,-y,z
1/2+x,-y,-z
-x,y,-z
-x,-y,-z
1/2+x,y,-z
1/2-x,y,z
x,-y,z
loop_
_atom_site_type_symbol
_atom_site_label
_atom_site_fract_x
_atom_site_fract_y
_atom_site_fract_z
Si Si1 0.539502 0.210692 0.443751
Si Si2 0.047564 0.774492 0.750069
Si Si3 0.461047 0.596251 0.306653
Si Si4 0.039417 0.901068 0.057448
Si Si5 0.454777 0.595505 0.572897
Si Si6 0.539110 0.599631 0.941465
Si Si7 0.964987 0.897797 0.342475
Si Si8 0.457444 0.247421 0.131283
O O1 0.500000 0.170679 0.500000
O O2 0.750000 0.217334 0.438216
O O3 0.467143 0.310999 0.444003
O O4 0.477718 0.154645 0.394309
O O5 0.250000 0.797959 0.756269
O O6 0.973683 0.844969 0.708706
O O7 0.030542 0.679025 0.724093
O O8 0.975192 0.765247 0.807663
O O9 0.250000 0.602212 0.309211
O O10 0.506095 0.500000 0.284419
O O11 0.533335 0.599048 0.364863
O O12 0.250000 0.906288 0.062434
O O13 0.969056 0.836182 0.100750
O O14 0.968943 0.000000 0.061414
O O15 0.000000 0.867089 0.000000
O O16 0.250000 0.594168 0.557653
O O17 0.532512 0.500000 0.557736
O O18 0.750000 0.594670 0.937321
O O19 0.470055 0.500000 0.936789
O O20 0.472740 0.664620 0.896558
O O21 0.500000 0.631478 0.000000
O O22 0.750000 0.895924 0.342556
O O23 0.017493 0.000000 0.342862
O O24 0.250000 0.249459 0.120799
#
# Coordination Sequence:
#
# PCOD9404065 Si02
#       8
#     8   8   8   8   8   8   8   8
#     4  10  20  35  55  82 112 145 180 223 275 326
#     4  11  22  37  57  81 107 142 186 228 272 324
#     4  10  20  34  55  81 108 140 176 216 264 318
#     4   9  18  33  53  76 104 138 175 219 273 328
#     4   9  17  32  54  79 109 144 180 217 260 314
#     4   9  18  33  53  76 105 142 181 220 263 312
#     4   9  19  38  60  79 105 142 182 227 282 336
#     4  10  21  35  51  76 110 143 175 220 275 325
#
# _framework density 21.367355
#
# number of rings (size 3 to 8) (size 9 to 14) (size 15 to 20)
#    0.000    2.375    1.250    1.125    0.000    3.750 
#    0.000    1.250    0.000    2.625    0.000    0.000 
#    0.000    0.000    0.000    0.000    0.000    0.000 
#
# Total GULP energy -357114.278292 kJ/mol
# GULP energy per Si atom -5579.910598 kJ/mol
# Density = 2.131872 g / cm^3
# Si number density = 21.367355 Si / 1000 Ang^3
#
#
#
# Elastic Constant Matrix: (Units=GPa)
#
#
# Indices 1 2 3 4 5 6 
#
# 1 42.7447 0.7197 -10.4611 0.0000 0.0000 0.0000
# 2 0.7197 149.3988 97.9588 0.0000 0.0000 0.0000
# 3 -10.4611 97.9588 165.6595 0.0000 0.0000 0.0000
# 4 0.0000 0.0000 0.0000 5.7151 0.0000 0.0000
# 5 0.0000 0.0000 0.0000 0.0000 24.5650 0.0000
# 6 0.0000 0.0000 0.0000 0.0000 0.0000 -11.8777
#
#
#
# Elastic Compliance Matrix: (Units=1/GPa)
#
#
# Indices 1 2 3 4 5 6 
#
# 1 0.024060 -0.001816 0.002593 0.000000 0.000000 0.000000
# 2 -0.001816 0.011069 -0.006660 0.000000 0.000000 0.000000
# 3 0.002593 -0.006660 0.010139 0.000000 0.000000 0.000000
# 4 0.000000 0.000000 0.000000 0.174976 0.000000 0.000000
# 5 0.000000 0.000000 0.000000 0.000000 0.040708 0.000000
# 6 0.000000 0.000000 0.000000 0.000000 0.000000 -0.084191
#
#
# Mechanical properties :
#
#
# Convention : Reuss Voigt Hill
#
# Bulk Modulus (GPa) = 29.84941 59.35975 44.60458
# Shear Modulus (GPa) = 25.03819 21.65285 23.34552
#
# Velocity S-wave (km/s) = 3.42686 3.18679 3.30900
# Velocity P-wave (km/s) = 5.44590 6.43286 5.95985
#
# Compressibility (1/GPa) = 0.03350150
#
# Stress axis : x y z
#
# Youngs Moduli (GPa) = 41.56275 90.34005 98.63262
#
# Poissons Ratio (x) = 0.16409 -0.25580
# Poissons Ratio (y) = 0.07549 0.65692
# Poissons Ratio (z) = -0.10779 0.60169
#
# Static dielectric constant tensor:
#      x y z
#    x 1.784760 0.000000 0.000000 
#    y 0.000000 1.797740 0.000000 
#    z 0.000000 0.000000 1.747230 
# 
# From -- ./inp_files/34941.got.cif
#   From: 2010.05.17/outbox.cif.g08.bks.cpg/sg51_18_cif.got.tgz:34941.got - 2010.06.03 11:52:47.
