data_PCOD9404932
_publ_section_title
;
Structure prediction by ZEFSAII (Michael W. Deem and Ramdas Pophale) SiO2 
 PCOD9404932
Probable space group: P M M A
;
_chemical_formula_sum "Si O2"
_cell_formula_units_Z 30
_cell_length_a 7.638204
_cell_length_b 9.740135
_cell_length_c 19.775289
_cell_angle_alpha 90.000000
_cell_angle_beta 90.000000
_cell_angle_gamma 90.000000
_cell_volume 1471.224907
_symmetry_space_group_name_H-M "P M M A"
_symmetry_group_IT_number 51
_symmetry_cell_setting 'orthorhombic'
loop_
_space_group_symop_operation_xyz
x,y,z
1/2-x,-y,z
1/2+x,-y,-z
-x,y,-z
-x,-y,-z
1/2+x,y,-z
1/2-x,y,z
x,-y,z
loop_
_atom_site_type_symbol
_atom_site_label
_atom_site_fract_x
_atom_site_fract_y
_atom_site_fract_z
Si Si1 0.963114 0.659289 0.201330
Si Si2 0.539977 0.156378 0.076766
Si Si3 0.958273 0.500000 0.420947
Si Si4 0.250000 0.000000 0.628563
Si Si5 0.554289 0.222359 0.653980
O O1 0.750000 0.660836 0.203325
O O2 0.017876 0.500000 0.202394
O O3 0.022100 0.738802 0.133880
O O4 0.027838 0.739181 0.267227
O O5 0.750000 0.150435 0.083080
O O6 0.473033 0.000000 0.086357
O O7 0.500000 0.198792 0.000000
O O8 0.750000 0.500000 0.409798
O O9 0.000000 0.500000 0.500000
O O10 0.033948 0.635662 0.386486
O O11 0.403700 0.880947 0.631790
O O12 0.750000 0.168308 0.643412
#
# Coordination Sequence:
#
# PCOD9404932 Si02
#       5
#     8   8   4   2   8
#     4  10  20  36  60  89 126 171 220 287 341 398
#     4   9  19  34  53  77 116 165 220 276 340 411
#     4  12  24  48  80 107 144 186 236 289 332 407
#     4  12  26  46  70  98 156 182 218 294 346 402
#     4  12  25  44  71 107 138 183 236 281 347 416
#
# _framework density 20.391173999999999
#
# number of rings (size 3 to 8) (size 9 to 14) (size 15 to 20)
#    0.000    1.333    4.000    1.600    1.867    1.600 
#    0.000    0.667    0.000    0.000    0.000    0.000 
#    0.000    0.000    0.000    0.000    0.000    0.000 
#
# Total GULP energy -167194.659425 kJ/mol
# GULP energy per Si atom -5573.155314 kJ/mol
# Density = 2.034476 g / cm^3
# Si number density = 20.391174 Si / 1000 Ang^3
#
#
#
# Elastic Constant Matrix: (Units=GPa)
#
#
# Indices 1 2 3 4 5 6 
#
# 1 141.7907 46.2524 6.1899 0.0000 0.0000 0.0000
# 2 46.2524 118.0296 25.7987 0.0000 0.0000 0.0000
# 3 6.1899 25.7987 73.2076 0.0000 0.0000 0.0000
# 4 0.0000 0.0000 0.0000 -30.9670 0.0000 0.0000
# 5 0.0000 0.0000 0.0000 0.0000 26.4397 0.0000
# 6 0.0000 0.0000 0.0000 0.0000 0.0000 -181.1425
#
#
#
# Elastic Compliance Matrix: (Units=1/GPa)
#
#
# Indices 1 2 3 4 5 6 
#
# 1 0.008101 -0.003277 0.000470 0.000000 0.000000 0.000000
# 2 -0.003277 0.010505 -0.003425 0.000000 0.000000 0.000000
# 3 0.000470 -0.003425 0.014827 0.000000 0.000000 0.000000
# 4 0.000000 0.000000 0.000000 -0.032292 0.000000 0.000000
# 5 0.000000 0.000000 0.000000 0.000000 0.037822 0.000000
# 6 0.000000 0.000000 0.000000 0.000000 0.000000 -0.005521
#
#
# Mechanical properties :
#
#
# Convention : Reuss Voigt Hill
#
# Bulk Modulus (GPa) = 47.68989 54.39000 51.03995
# Shear Modulus (GPa) = 94.52323 -20.14817 37.18753
#
# Velocity S-wave (km/s) = 6.81583 -3.14679 4.27512
# Velocity P-wave (km/s) = 9.24008 3.67807 7.03233
#
# Compressibility (1/GPa) = 0.02096880
#
# Stress axis : x y z
#
# Youngs Moduli (GPa) = 123.43830 95.18917 67.44430
#
# Poissons Ratio (x) = 0.31197 -0.03170
# Poissons Ratio (y) = 0.40455 0.23100
# Poissons Ratio (z) = -0.05801 0.32603
#
# Static dielectric constant tensor:
#      x y z
#    x 1.748220 0.000000 0.000000 
#    y 0.000000 1.688250 0.000000 
#    z 0.000000 0.000000 1.686800 
# 
# From -- ./inp_files/31087.got.cif
#   From: 2010.05.17/outbox.cif.g08.bks.cpg/sg51_16_cif.got.tgz:31087.got - 2010.06.03 11:52:47.
