data_PCOD9404592
_publ_section_title
;
Structure prediction by ZEFSAII (Michael W. Deem and Ramdas Pophale) SiO2 
 PCOD9404592
Probable space group: P M M A
;
_chemical_formula_sum "Si O2"
_cell_formula_units_Z 64
_cell_length_a 22.568676
_cell_length_b 8.878087
_cell_length_c 16.800733
_cell_angle_alpha 90.000000
_cell_angle_beta 90.000000
_cell_angle_gamma 90.000000
_cell_volume 3366.306908
_symmetry_space_group_name_H-M "P M M A"
_symmetry_group_IT_number 51
_symmetry_cell_setting 'orthorhombic'
loop_
_space_group_symop_operation_xyz
x,y,z
1/2-x,-y,z
1/2+x,-y,-z
-x,y,-z
-x,-y,-z
1/2+x,y,-z
1/2-x,y,z
x,-y,z
loop_
_atom_site_type_symbol
_atom_site_label
_atom_site_fract_x
_atom_site_fract_y
_atom_site_fract_z
Si Si1 0.678783 0.669889 0.872048
Si Si2 0.988770 0.674415 0.589173
Si Si3 0.318820 0.163579 0.280845
Si Si4 0.419186 0.177921 0.039429
Si Si5 0.030473 0.680823 0.880421
Si Si6 0.349818 0.671680 0.433504
Si Si7 0.074418 0.820430 0.715777
Si Si8 0.319675 0.681079 0.616334
O O1 0.750000 0.674947 0.878978
O O2 0.659525 0.500000 0.890201
O O3 0.659284 0.714204 0.782348
O O4 0.646091 0.784887 0.929727
O O5 0.010664 0.500000 0.593763
O O6 0.918134 0.671999 0.593852
O O7 0.000000 0.731167 0.500000
O O8 0.023014 0.770145 0.654097
O O9 0.250000 0.148365 0.260012
O O10 0.320561 0.217827 0.371004
O O11 0.348111 0.000000 0.270938
O O12 0.465881 0.246860 0.102821
O O13 0.428912 0.000000 0.031244
O O14 0.432243 0.261175 0.956414
O O15 0.026675 0.500000 0.879726
O O16 0.059063 0.741787 0.799376
O O17 0.327040 0.500000 0.425455
O O18 0.340654 0.714517 0.525535
O O19 0.136044 0.762078 0.677270
O O20 0.075580 0.000000 0.724773
O O21 0.250000 0.720253 0.624798
O O22 0.325130 0.500000 0.626362
#
# Coordination Sequence:
#
# PCOD9404592 Si02
#       8
#     8   8   8   8   8   8   8   8
#     4  10  21  38  60  86 119 161 205 243 287 352
#     4  10  20  38  60  82 114 153 196 242 291 347
#     4  10  21  35  51  77 116 156 194 242 295 344
#     4  11  22  40  65  95 127 153 189 240 302 358
#     4  11  23  42  67  91 120 157 200 242 289 354
#     4  10  20  35  58  83 110 150 200 248 293 349
#     4  12  25  40  60  89 125 157 195 245 302 354
#     4  10  21  40  64  86 113 155 205 252 299 353
#
# _framework density 19.011932000000002
#
# number of rings (size 3 to 8) (size 9 to 14) (size 15 to 20)
#    0.000    1.500    1.250    5.250    1.750    3.500 
#    0.000    0.625    0.000    3.750    0.000    0.000 
#    0.000    0.000    0.000    0.000    0.000    0.000 
#
# Total GULP energy -357280.405915 kJ/mol
# GULP energy per Si atom -5582.506342 kJ/mol
# Density = 1.896866 g / cm^3
# Si number density = 19.011932 Si / 1000 Ang^3
#
#
#
# Elastic Constant Matrix: (Units=GPa)
#
#
# Indices 1 2 3 4 5 6 
#
# 1 72.5008 38.6362 45.1645 0.0000 0.0000 0.0000
# 2 38.6362 119.0496 47.6787 0.0000 0.0000 0.0000
# 3 45.1645 47.6787 93.2321 0.0000 0.0000 0.0000
# 4 0.0000 0.0000 0.0000 -63.8583 0.0000 0.0000
# 5 0.0000 0.0000 0.0000 0.0000 25.8120 0.0000
# 6 0.0000 0.0000 0.0000 0.0000 0.0000 66.2044
#
#
#
# Elastic Compliance Matrix: (Units=1/GPa)
#
#
# Indices 1 2 3 4 5 6 
#
# 1 0.020803 -0.003415 -0.008331 0.000000 0.000000 0.000000
# 2 -0.003415 0.011124 -0.004035 0.000000 0.000000 0.000000
# 3 -0.008331 -0.004035 0.016825 0.000000 0.000000 0.000000
# 4 0.000000 0.000000 0.000000 -0.015660 0.000000 0.000000
# 5 0.000000 0.000000 0.000000 0.000000 0.038742 0.000000
# 6 0.000000 0.000000 0.000000 0.000000 0.000000 0.015105
#
#
# Mechanical properties :
#
#
# Convention : Reuss Voigt Hill
#
# Bulk Modulus (GPa) = 58.17085 60.86014 59.51550
# Shear Modulus (GPa) = 40.24817 15.85183 28.05000
#
# Velocity S-wave (km/s) = 4.60607 2.89066 3.84525
# Velocity P-wave (km/s) = 7.67798 6.57437 7.14750
#
# Compressibility (1/GPa) = 0.01719074
#
# Stress axis : x y z
#
# Youngs Moduli (GPa) = 48.07102 89.89685 59.43517
#
# Poissons Ratio (x) = 0.30697 0.49516
# Poissons Ratio (y) = 0.16415 0.23979
# Poissons Ratio (z) = 0.40049 0.36269
#
# Static dielectric constant tensor:
#      x y z
#    x 1.776870 0.000000 0.000000 
#    y 0.000000 1.670750 0.000000 
#    z 0.000000 0.000000 1.636310 
# 
# From -- ./inp_files/26346.got.cif
#   From: 2010.05.17/outbox.cif.g08.bks.cpg/sg51_14_cif.got.tgz:26346.got - 2010.06.03 11:52:47.
