data_PCOD9404973
_publ_section_title
;
Structure prediction by ZEFSAII (Michael W. Deem and Ramdas Pophale) SiO2 
 PCOD9404973
Probable space group: P M M A
;
_chemical_formula_sum "Si O2"
_cell_formula_units_Z 56
_cell_length_a 14.816158
_cell_length_b 8.900147
_cell_length_c 22.930154
_cell_angle_alpha 90.000000
_cell_angle_beta 90.000000
_cell_angle_gamma 90.000000
_cell_volume 3023.707324
_symmetry_space_group_name_H-M "P M M A"
_symmetry_group_IT_number 51
_symmetry_cell_setting 'orthorhombic'
loop_
_space_group_symop_operation_xyz
x,y,z
1/2-x,-y,z
1/2+x,-y,-z
-x,y,-z
-x,-y,-z
1/2+x,y,-z
1/2-x,y,z
x,-y,z
loop_
_atom_site_type_symbol
_atom_site_label
_atom_site_fract_x
_atom_site_fract_y
_atom_site_fract_z
Si Si1 0.988802 0.679851 0.288721
Si Si2 0.941906 0.180067 0.164539
Si Si3 0.750000 0.319123 0.982765
Si Si4 0.250000 0.180720 0.888557
Si Si5 0.640067 0.672481 0.519734
Si Si6 0.145906 0.316992 0.608549
Si Si7 0.356944 0.177115 0.359433
Si Si8 0.053782 0.319364 0.059633
O O1 0.985584 0.500000 0.284740
O O2 0.966433 0.750624 0.226647
O O3 0.916669 0.729725 0.338106
O O4 0.085197 0.733095 0.312558
O O5 0.840581 0.225008 0.145404
O O6 0.008152 0.239372 0.114188
O O7 0.946124 0.000000 0.167519
O O8 0.750000 0.500000 0.988650
O O9 0.841940 0.276592 0.949961
O O10 0.750000 0.250659 0.047244
O O11 0.250000 0.000000 0.894223
O O12 0.750000 0.669271 0.516867
O O13 0.609431 0.500000 0.528368
O O14 0.611567 0.728919 0.455821
O O15 0.615472 0.768859 0.575792
O O16 0.250000 0.268462 0.616320
O O17 0.146386 0.500000 0.606839
O O18 0.250000 0.206448 0.353421
O O19 0.372299 0.000000 0.353122
O O20 0.048206 0.500000 0.067529
O O21 0.000000 0.282800 0.000000
#
# Coordination Sequence:
#
# PCOD9404973 Si02
#       8
#     8   8   4   4   8   8   8   8
#     4  11  23  38  59  84 111 149 195 239 283 335
#     4  11  24  41  59  84 120 158 193 232 279 338
#     4  10  20  36  62  94 122 148 185 238 289 332
#     4  10  22  38  60  88 120 156 191 224 275 340
#     4   8  14  29  55  82 108 140 182 232 284 339
#     4   8  16  32  54  83 115 145 182 231 284 338
#     4  10  21  38  58  79 109 147 188 237 291 346
#     4  10  20  37  62  91 121 151 190 238 285 332
#
# _framework density 18.520311
#
# number of rings (size 3 to 8) (size 9 to 14) (size 15 to 20)
#    0.000    2.286    1.429    2.143    1.000    2.857 
#    1.286    4.286    0.000    1.714    0.000    0.000 
#    0.000    0.000    0.000    0.000    0.000    0.000 
#
# Total GULP energy -312688.834497 kJ/mol
# GULP energy per Si atom -5583.729187 kJ/mol
# Density = 1.847816 g / cm^3
# Si number density = 18.520311 Si / 1000 Ang^3
#
#
#
# Elastic Constant Matrix: (Units=GPa)
#
#
# Indices 1 2 3 4 5 6 
#
# 1 115.5051 45.2153 79.9201 0.0000 0.0000 0.0000
# 2 45.2153 39.2506 55.5202 0.0000 0.0000 0.0000
# 3 79.9201 55.5202 168.7780 0.0000 0.0000 0.0000
# 4 0.0000 0.0000 0.0000 171.8048 0.0000 0.0000
# 5 0.0000 0.0000 0.0000 0.0000 78.9465 0.0000
# 6 0.0000 0.0000 0.0000 0.0000 0.0000 16.3987
#
#
#
# Elastic Compliance Matrix: (Units=1/GPa)
#
#
# Indices 1 2 3 4 5 6 
#
# 1 0.016503 -0.014882 -0.002919 0.000000 0.000000 0.000000
# 2 -0.014882 0.061068 -0.013042 0.000000 0.000000 0.000000
# 3 -0.002919 -0.013042 0.011597 0.000000 0.000000 0.000000
# 4 0.000000 0.000000 0.000000 0.005821 0.000000 0.000000
# 5 0.000000 0.000000 0.000000 0.000000 0.012667 0.000000
# 6 0.000000 0.000000 0.000000 0.000000 0.000000 0.060980
#
#
# Mechanical properties :
#
#
# Convention : Reuss Voigt Hill
#
# Bulk Modulus (GPa) = 36.38579 76.09387 56.23983
# Shear Modulus (GPa) = 20.87833 62.95522 41.91677
#
# Velocity S-wave (km/s) = 3.36120 5.83664 4.76256
# Velocity P-wave (km/s) = 5.89514 9.30579 7.78943
#
# Compressibility (1/GPa) = 0.02748326
#
# Stress axis : x y z
#
# Youngs Moduli (GPa) = 60.59503 16.37512 86.22658
#
# Poissons Ratio (x) = 0.24369 0.25171
# Poissons Ratio (y) = 0.90176 1.12455
# Poissons Ratio (z) = 0.17688 0.21356
#
# Static dielectric constant tensor:
#      x y z
#    x 1.660080 0.000000 0.000000 
#    y 0.000000 1.621760 0.000000 
#    z 0.000000 0.000000 1.604330 
# 
# From -- ./inp_files/33591.got.cif
#   From: 2010.05.17/outbox.cif.g08.bks.cpg/sg51_17_cif.got.tgz:33591.got - 2010.06.03 11:52:47.
