data_PCOD9404820
_publ_section_title
;
Structure prediction by ZEFSAII (Michael W. Deem and Ramdas Pophale) SiO2 
 PCOD9404820
Probable space group: P M M A
;
_chemical_formula_sum "Si O2"
_cell_formula_units_Z 48
_cell_length_a 16.335253
_cell_length_b 9.498971
_cell_length_c 16.683548
_cell_angle_alpha 90.000000
_cell_angle_beta 90.000000
_cell_angle_gamma 90.000000
_cell_volume 2588.754353
_symmetry_space_group_name_H-M "P M M A"
_symmetry_group_IT_number 51
_symmetry_cell_setting 'orthorhombic'
loop_
_space_group_symop_operation_xyz
x,y,z
1/2-x,-y,z
1/2+x,-y,-z
-x,y,-z
-x,-y,-z
1/2+x,y,-z
1/2-x,y,z
x,-y,z
loop_
_atom_site_type_symbol
_atom_site_label
_atom_site_fract_x
_atom_site_fract_y
_atom_site_fract_z
Si Si1 0.578401 0.168178 0.943263
Si Si2 0.250000 0.167822 0.966953
Si Si3 0.847805 0.840681 0.641317
Si Si4 0.099577 0.663694 0.686486
Si Si5 0.846860 0.830715 0.463531
Si Si6 0.927600 0.335865 0.777491
Si Si7 0.750000 0.331173 0.199491
O O1 0.572425 0.254803 0.861429
O O2 0.576508 0.000000 0.926920
O O3 0.500000 0.199888 0.000000
O O4 0.665839 0.199510 0.985323
O O5 0.250000 0.251780 0.884232
O O6 0.250000 0.000000 0.951453
O O7 0.750000 0.850222 0.634296
O O8 0.876006 0.791154 0.553148
O O9 0.869022 0.739831 0.713925
O O10 0.879273 0.000000 0.655992
O O11 0.112904 0.500000 0.664210
O O12 0.104143 0.757074 0.607224
O O13 0.171514 0.706115 0.747190
O O14 0.015867 0.674198 0.735105
O O15 0.750000 0.793483 0.454667
O O16 0.852502 0.000000 0.458379
O O17 0.907404 0.500000 0.788940
O O18 0.750000 0.500000 0.186284
#
# Coordination Sequence:
#
# PCOD9404820 Si02
#       7
#     8   4   8   8   8   8   4
#     4  10  22  41  62  85 116 152 191 238 295 348
#     4  10  22  38  60  87 110 143 190 237 286 345
#     4   9  20  39  60  81 112 153 195 240 288 338
#     4  10  21  36  55  82 118 155 187 229 284 341
#     4   9  18  34  57  85 112 146 195 242 283 333
#     4  11  24  38  56  86 118 150 193 238 284 341
#     4  10  20  36  58  83 112 149 188 225 280 345
#
# _framework density 18.541736
#
# number of rings (size 3 to 8) (size 9 to 14) (size 15 to 20)
#    0.000    2.167    0.833    2.500    1.167    4.667 
#    0.000    5.000    0.000    0.000    0.000    0.000 
#    0.000    0.000    0.000    0.000    0.000    0.000 
#
# Total GULP energy -267943.393516 kJ/mol
# GULP energy per Si atom -5582.154032 kJ/mol
# Density = 1.849953 g / cm^3
# Si number density = 18.541736 Si / 1000 Ang^3
#
#
#
# Elastic Constant Matrix: (Units=GPa)
#
#
# Indices 1 2 3 4 5 6 
#
# 1 61.5436 31.7959 46.0110 0.0000 0.0000 0.0000
# 2 31.7959 63.7409 92.3089 0.0000 0.0000 0.0000
# 3 46.0110 92.3089 184.6261 0.0000 0.0000 0.0000
# 4 0.0000 0.0000 0.0000 157.5428 0.0000 0.0000
# 5 0.0000 0.0000 0.0000 0.0000 19.3392 0.0000
# 6 0.0000 0.0000 0.0000 0.0000 0.0000 15.2967
#
#
#
# Elastic Compliance Matrix: (Units=1/GPa)
#
#
# Indices 1 2 3 4 5 6 
#
# 1 0.021890 -0.010941 0.000015 0.000000 0.000000 0.000000
# 2 -0.010941 0.062324 -0.028434 0.000000 0.000000 0.000000
# 3 0.000015 -0.028434 0.019629 0.000000 0.000000 0.000000
# 4 0.000000 0.000000 0.000000 0.006347 0.000000 0.000000
# 5 0.000000 0.000000 0.000000 0.000000 0.051709 0.000000
# 6 0.000000 0.000000 0.000000 0.000000 0.000000 0.065374
#
#
# Mechanical properties :
#
#
# Convention : Reuss Voigt Hill
#
# Bulk Modulus (GPa) = 39.80454 72.23800 56.02127
# Shear Modulus (GPa) = 15.90495 47.75538 31.83017
#
# Velocity S-wave (km/s) = 2.93199 5.08050 4.14777
# Velocity P-wave (km/s) = 5.74249 8.57086 7.29506
#
# Compressibility (1/GPa) = 0.02512276
#
# Stress axis : x y z
#
# Youngs Moduli (GPa) = 45.68289 16.04513 50.94530
#
# Poissons Ratio (x) = 0.17556 -0.00078
# Poissons Ratio (y) = 0.49984 1.44858
# Poissons Ratio (z) = -0.00070 0.45623
#
# Static dielectric constant tensor:
#      x y z
#    x 1.566840 0.000000 0.000000 
#    y 0.000000 1.621590 0.000000 
#    z 0.000000 0.000000 1.602340 
# 
# From -- ./inp_files/24877.got.cif
#   From: 2010.05.17/outbox.cif.g08.bks.cpg/sg51_13_cif.got.tgz:24877.got - 2010.06.03 11:52:47.
