data_PCOD9404755
_publ_section_title
;
Structure prediction by ZEFSAII (Michael W. Deem and Ramdas Pophale) SiO2 
 PCOD9404755
Probable space group: P M M A
;
_chemical_formula_sum "Si O2"
_cell_formula_units_Z 40
_cell_length_a 26.659625
_cell_length_b 8.192511
_cell_length_c 9.186468
_cell_angle_alpha 90.000000
_cell_angle_beta 90.000000
_cell_angle_gamma 90.000000
_cell_volume 2006.409780
_symmetry_space_group_name_H-M "P M M A"
_symmetry_group_IT_number 51
_symmetry_cell_setting 'orthorhombic'
loop_
_space_group_symop_operation_xyz
x,y,z
1/2-x,-y,z
1/2+x,-y,-z
-x,y,-z
-x,-y,-z
1/2+x,y,-z
1/2-x,y,z
x,-y,z
loop_
_atom_site_type_symbol
_atom_site_label
_atom_site_fract_x
_atom_site_fract_y
_atom_site_fract_z
Si Si1 0.350118 0.804815 0.584328
Si Si2 0.750000 0.304615 0.580710
Si Si3 0.449786 0.197290 0.417486
Si Si4 0.149911 0.696899 0.918207
Si Si5 0.250000 0.300151 0.084371
Si Si6 0.049968 0.302620 0.083067
O O1 0.299809 0.751537 0.502235
O O2 0.399650 0.743990 0.499556
O O3 0.349969 0.745520 0.750131
O O4 0.351839 0.000000 0.585314
O O5 0.750000 0.500000 0.582897
O O6 0.750000 0.246291 0.748004
O O7 0.500000 0.254332 0.500000
O O8 0.449994 0.250212 0.250301
O O9 0.449685 0.000000 0.421756
O O10 0.149924 0.500000 0.925279
O O11 0.200049 0.754157 0.000398
O O12 0.099898 0.755663 0.000146
O O13 0.250000 0.500000 0.084200
O O14 0.050064 0.500000 0.078860
O O15 0.000000 0.245272 0.000000
#
# Coordination Sequence:
#
# PCOD9404755 Si02
#       6
#     8   4   8   8   4   8
#     4  11  23  38  57  85 117 148 190 238 280 332
#     4  11  22  39  62  84 112 151 188 229 288 344
#     4  10  22  39  58  82 115 155 195 234 281 340
#     4  10  20  36  57  81 110 145 186 230 281 338
#     4   9  19  35  56  80 104 137 182 225 268 330
#     4  10  21  36  56  84 114 145 188 239 284 332
#
# _framework density 19.936107
#
# number of rings (size 3 to 8) (size 9 to 14) (size 15 to 20)
#    0.000    1.800    0.000    3.900    0.000    5.600 
#    0.000    2.000    0.000    0.000    0.000    0.000 
#    0.000    0.000    0.000    0.000    0.000    0.000 
#
# Total GULP energy -223618.822244 kJ/mol
# GULP energy per Si atom -5590.470556 kJ/mol
# Density = 1.989073 g / cm^3
# Si number density = 19.936107 Si / 1000 Ang^3
#
#
#
# Elastic Constant Matrix: (Units=GPa)
#
#
# Indices 1 2 3 4 5 6 
#
# 1 255.2313 21.4782 153.7590 0.0000 0.0000 0.0000
# 2 21.4782 9.5103 8.9822 0.0000 0.0000 0.0000
# 3 153.7590 8.9822 238.9857 0.0000 0.0000 0.0000
# 4 0.0000 0.0000 0.0000 85.0192 0.0000 0.0000
# 5 0.0000 0.0000 0.0000 0.0000 48.8384 0.0000
# 6 0.0000 0.0000 0.0000 0.0000 0.0000 -3.3796
#
#
#
# Elastic Compliance Matrix: (Units=1/GPa)
#
#
# Indices 1 2 3 4 5 6 
#
# 1 0.007726 -0.013223 -0.004474 0.000000 0.000000 0.000000
# 2 -0.013223 0.131650 0.003559 0.000000 0.000000 0.000000
# 3 -0.004474 0.003559 0.006929 0.000000 0.000000 0.000000
# 4 0.000000 0.000000 0.000000 0.011762 0.000000 0.000000
# 5 0.000000 0.000000 0.000000 0.000000 0.020476 0.000000
# 6 0.000000 0.000000 0.000000 0.000000 0.000000 -0.295890
#
#
# Mechanical properties :
#
#
# Convention : Reuss Voigt Hill
#
# Bulk Modulus (GPa) = 8.47237 96.90733 52.68985
# Shear Modulus (GPa) = -100.54528 47.39611 -26.57459
#
# Velocity S-wave (km/s) = -7.10938 4.88115 -3.65497
# Velocity P-wave (km/s) = 7.94557 8.97117 2.94533
#
# Compressibility (1/GPa) = 0.11803068
#
# Stress axis : x y z
#
# Youngs Moduli (GPa) = 129.43623 7.59587 144.32414
#
# Poissons Ratio (x) = 0.10044 0.64566
# Poissons Ratio (y) = 1.71152 -0.51369
# Poissons Ratio (z) = 0.57905 -0.02704
#
# Static dielectric constant tensor:
#      x y z
#    x 1.695060 0.000000 0.000000 
#    y 0.000000 1.695770 0.000000 
#    z 0.000000 0.000000 1.644920 
# 
# From -- ./inp_files/12154.got.cif
#   From: 2010.05.17/outbox.cif.g08.bks.cpg/sg51_7_cif.got.tgz:12154.got - 2010.06.03 11:52:47.
