data_PCOD9404098
_publ_section_title
;
Structure prediction by ZEFSAII (Michael W. Deem and Ramdas Pophale) SiO2 
 PCOD9404098
Probable space group: P M M A
;
_chemical_formula_sum "Si O2"
_cell_formula_units_Z 56
_cell_length_a 9.604191
_cell_length_b 13.998243
_cell_length_c 21.035244
_cell_angle_alpha 90.000000
_cell_angle_beta 90.000000
_cell_angle_gamma 90.000000
_cell_volume 2828.016055
_symmetry_space_group_name_H-M "P M M A"
_symmetry_group_IT_number 51
_symmetry_cell_setting 'orthorhombic'
loop_
_space_group_symop_operation_xyz
x,y,z
1/2-x,-y,z
1/2+x,-y,-z
-x,y,-z
-x,-y,-z
1/2+x,y,-z
1/2-x,y,z
x,-y,z
loop_
_atom_site_type_symbol
_atom_site_label
_atom_site_fract_x
_atom_site_fract_y
_atom_site_fract_z
Si Si1 0.590377 0.616210 0.938608
Si Si2 0.908106 0.893624 0.297576
Si Si3 0.411395 0.385196 0.814068
Si Si4 0.093115 0.883668 0.939518
Si Si5 0.594694 0.113456 0.825027
Si Si6 0.092358 0.385663 0.441236
Si Si7 0.410826 0.314173 0.672358
O O1 0.750000 0.651138 0.940770
O O2 0.595791 0.500000 0.941242
O O3 0.512685 0.638549 0.872416
O O4 0.500000 0.646072 0.000000
O O5 0.750000 0.890547 0.269643
O O6 0.918510 0.799653 0.339843
O O7 0.021950 0.881739 0.242940
O O8 0.923975 0.000000 0.325963
O O9 0.250000 0.362801 0.830382
O O10 0.419630 0.500000 0.803990
O O11 0.443490 0.335556 0.746509
O O12 0.250000 0.847134 0.943583
O O13 0.011698 0.849593 0.877510
O O14 0.101990 0.000000 0.936950
O O15 0.000000 0.860845 0.000000
O O16 0.750000 0.154816 0.827001
O O17 0.607972 0.000000 0.838807
O O18 0.250000 0.347883 0.442216
O O19 0.100389 0.500000 0.448087
O O20 0.000000 0.348662 0.500000
O O21 0.014644 0.364365 0.375536
O O22 0.250000 0.345465 0.662507
#
# Coordination Sequence:
#
# PCOD9404098 Si02
#       7
#     8   8   8   8   8   8   8
#     4   9  16  26  42  65  95 133 175 216 260 315
#     4   9  18  33  52  74 101 135 176 222 271 319
#     4   9  17  29  46  71 104 139 174 214 262 318
#     4   9  15  22  34  54  80 109 144 191 250 317
#     4   9  16  26  41  61  85 115 154 202 257 315
#     4  10  21  37  59  88 122 157 188 218 256 309
#     4  10  20  34  55  82 112 147 185 227 274 322
#
# _framework density 19.801867000000001
#
# number of rings (size 3 to 8) (size 9 to 14) (size 15 to 20)
#    0.000    2.714    0.000    2.143    0.000    7.714 
#    0.000    1.429    0.000    1.286    0.000    4.000 
#    0.000    0.000    0.000    0.000    0.000    0.000 
#
# Total GULP energy -312508.348149 kJ/mol
# GULP energy per Si atom -5580.506217 kJ/mol
# Density = 1.975680 g / cm^3
# Si number density = 19.801867 Si / 1000 Ang^3
#
#
#
# Elastic Constant Matrix: (Units=GPa)
#
#
# Indices 1 2 3 4 5 6 
#
# 1 157.7855 17.8938 64.8995 0.0000 0.0000 0.0000
# 2 17.8938 60.5057 5.1566 0.0000 0.0000 0.0000
# 3 64.8995 5.1566 78.5159 0.0000 0.0000 0.0000
# 4 0.0000 0.0000 0.0000 -16.4603 0.0000 0.0000
# 5 0.0000 0.0000 0.0000 0.0000 20.7858 0.0000
# 6 0.0000 0.0000 0.0000 0.0000 0.0000 7.7510
#
#
#
# Elastic Compliance Matrix: (Units=1/GPa)
#
#
# Indices 1 2 3 4 5 6 
#
# 1 0.009896 -0.002242 -0.008032 0.000000 0.000000 0.000000
# 2 -0.002242 0.017128 0.000728 0.000000 0.000000 0.000000
# 3 -0.008032 0.000728 0.019328 0.000000 0.000000 0.000000
# 4 0.000000 0.000000 0.000000 -0.060752 0.000000 0.000000
# 5 0.000000 0.000000 0.000000 0.000000 0.048110 0.000000
# 6 0.000000 0.000000 0.000000 0.000000 0.000000 0.129016
#
#
# Mechanical properties :
#
#
# Convention : Reuss Voigt Hill
#
# Bulk Modulus (GPa) = 36.68418 52.52299 44.60359
# Shear Modulus (GPa) = 26.19121 16.33913 21.26517
#
# Velocity S-wave (km/s) = 3.64079 2.87563 3.28059
# Velocity P-wave (km/s) = 6.01994 6.13249 6.07648
#
# Compressibility (1/GPa) = 0.02725971
#
# Stress axis : x y z
#
# Youngs Moduli (GPa) = 101.05277 58.38277 51.73879
#
# Poissons Ratio (x) = 0.13089 0.41559
# Poissons Ratio (y) = 0.22656 -0.03768
# Poissons Ratio (z) = 0.81170 -0.04252
#
# Static dielectric constant tensor:
#      x y z
#    x 1.697070 0.000000 0.000000 
#    y 0.000000 1.743500 0.000000 
#    z 0.000000 0.000000 1.646930 
# 
# From -- ./inp_files/32040.got.cif
#   From: 2010.05.17/outbox.cif.g08.bks.cpg/sg51_17_cif.got.tgz:32040.got - 2010.06.03 11:52:47.
