data_PCOD9404400
_publ_section_title
;
Structure prediction by ZEFSAII (Michael W. Deem and Ramdas Pophale) SiO2 
 PCOD9404400
Probable space group: P M M A
;
_chemical_formula_sum "Si O2"
_cell_formula_units_Z 40
_cell_length_a 14.141946
_cell_length_b 16.156122
_cell_length_c 7.361897
_cell_angle_alpha 90.000000
_cell_angle_beta 90.000000
_cell_angle_gamma 90.000000
_cell_volume 1682.038901
_symmetry_space_group_name_H-M "P M M A"
_symmetry_group_IT_number 51
_symmetry_cell_setting 'orthorhombic'
loop_
_space_group_symop_operation_xyz
x,y,z
1/2-x,-y,z
1/2+x,-y,-z
-x,y,-z
-x,-y,-z
1/2+x,y,-z
1/2-x,y,z
x,-y,z
loop_
_atom_site_type_symbol
_atom_site_label
_atom_site_fract_x
_atom_site_fract_y
_atom_site_fract_z
Si Si1 0.856655 0.743389 0.894987
Si Si2 0.051978 0.910425 0.217009
Si Si3 0.360094 0.870591 0.597881
Si Si4 0.029186 0.408758 0.214805
Si Si5 0.854953 0.315408 0.316287
O O1 0.750000 0.761029 0.837236
O O2 0.915342 0.827272 0.881188
O O3 0.899586 0.668205 0.778588
O O4 0.855482 0.713059 0.103718
O O5 0.110627 0.907245 0.405017
O O6 0.940947 0.902650 0.266508
O O7 0.072463 0.000000 0.132937
O O8 0.250000 0.886147 0.645972
O O9 0.372838 0.771153 0.583294
O O10 0.065013 0.500000 0.262462
O O11 0.936463 0.382928 0.327574
O O12 0.000000 0.412141 0.000000
O O13 0.750000 0.346196 0.360290
#
# Coordination Sequence:
#
# PCOD9404400 Si02
#       5
#     8   8   8   8   8
#     4  10  20  35  55  80 113 146 181 225 269 318
#     4  11  23  37  56  80 107 145 185 223 270 320
#     4  10  20  36  57  79 107 141 180 224 268 319
#     4   9  17  31  54  82 111 141 177 222 270 320
#     4   9  18  34  57  81 110 145 178 219 272 322
#
# _framework density 23.780664000000002
#
# number of rings (size 3 to 8) (size 9 to 14) (size 15 to 20)
#    0.000    2.200    2.000    1.800    0.000    3.600 
#    0.000    7.000    0.000    9.600    0.000    2.800 
#    0.000    0.000    0.000    0.000    0.000    0.000 
#
# Total GULP energy -223778.401595 kJ/mol
# GULP energy per Si atom -5594.460040 kJ/mol
# Density = 2.372654 g / cm^3
# Si number density = 23.780664 Si / 1000 Ang^3
#
#
#
# Elastic Constant Matrix: (Units=GPa)
#
#
# Indices 1 2 3 4 5 6 
#
# 1 150.3274 77.9805 17.1866 0.0000 0.0000 0.0000
# 2 77.9805 176.4124 35.0252 0.0000 0.0000 0.0000
# 3 17.1866 35.0252 35.7567 0.0000 0.0000 0.0000
# 4 0.0000 0.0000 0.0000 15.9951 0.0000 0.0000
# 5 0.0000 0.0000 0.0000 0.0000 23.6562 0.0000
# 6 0.0000 0.0000 0.0000 0.0000 0.0000 -10.6375
#
#
#
# Elastic Compliance Matrix: (Units=1/GPa)
#
#
# Indices 1 2 3 4 5 6 
#
# 1 0.008639 -0.003717 -0.000511 0.000000 0.000000 0.000000
# 2 -0.003717 0.008637 -0.006673 0.000000 0.000000 0.000000
# 3 -0.000511 -0.006673 0.034749 0.000000 0.000000 0.000000
# 4 0.000000 0.000000 0.000000 0.062519 0.000000 0.000000
# 5 0.000000 0.000000 0.000000 0.000000 0.042272 0.000000
# 6 0.000000 0.000000 0.000000 0.000000 0.000000 -0.094007
#
#
# Mechanical properties :
#
#
# Convention : Reuss Voigt Hill
#
# Bulk Modulus (GPa) = 33.08905 69.20902 51.14904
# Shear Modulus (GPa) = 52.80620 21.28970 37.04795
#
# Velocity S-wave (km/s) = 4.71739 2.99532 3.95131
# Velocity P-wave (km/s) = 6.60425 6.41318 6.50941
#
# Compressibility (1/GPa) = 0.03022148
#
# Stress axis : x y z
#
# Youngs Moduli (GPa) = 115.75645 115.78664 28.77766
#
# Poissons Ratio (x) = 0.43040 0.01471
# Poissons Ratio (y) = 0.43029 0.19204
# Poissons Ratio (z) = 0.05917 0.77267
#
# Static dielectric constant tensor:
#      x y z
#    x 1.869770 0.000000 0.000000 
#    y 0.000000 1.869890 0.000000 
#    z 0.000000 0.000000 2.025260 
# 
# From -- ./inp_files/7940.got.cif
#   From: 2010.05.17/outbox.cif.g08.bks.cpg/sg51_4_cif.got.tgz:7940.got - 2010.06.03 11:52:47.
