data_PCOD9404892
_publ_section_title
;
Structure prediction by ZEFSAII (Michael W. Deem and Ramdas Pophale) SiO2 
 PCOD9404892
Probable space group: P M M A
;
_chemical_formula_sum "Si O2"
_cell_formula_units_Z 48
_cell_length_a 17.670208
_cell_length_b 15.338980
_cell_length_c 9.885008
_cell_angle_alpha 90.000000
_cell_angle_beta 90.000000
_cell_angle_gamma 90.000000
_cell_volume 2679.261898
_symmetry_space_group_name_H-M "P M M A"
_symmetry_group_IT_number 51
_symmetry_cell_setting 'orthorhombic'
loop_
_space_group_symop_operation_xyz
x,y,z
1/2-x,-y,z
1/2+x,-y,-z
-x,y,-z
-x,-y,-z
1/2+x,y,-z
1/2-x,y,z
x,-y,z
loop_
_atom_site_type_symbol
_atom_site_label
_atom_site_fract_x
_atom_site_fract_y
_atom_site_fract_z
Si Si1 0.487732 0.100624 0.659966
Si Si2 0.087655 0.500000 0.546759
Si Si3 0.394834 0.686002 0.897418
Si Si4 0.160965 0.326500 0.425669
Si Si5 0.557464 0.261394 0.813209
Si Si6 0.340465 0.500000 0.841615
Si Si7 0.165678 0.807429 0.671349
O O1 0.500000 0.118286 0.500000
O O2 0.534561 0.167262 0.753225
O O3 0.399865 0.121999 0.686402
O O4 0.506160 0.000000 0.685927
O O5 0.127021 0.413913 0.488435
O O6 0.108687 0.500000 0.705471
O O7 0.000000 0.500000 0.500000
O O8 0.478339 0.685896 0.828547
O O9 0.362953 0.589085 0.917335
O O10 0.342648 0.739276 0.794468
O O11 0.405978 0.736263 0.038447
O O12 0.250000 0.336533 0.398818
O O13 0.113933 0.304067 0.292842
O O14 0.152111 0.249209 0.535708
O O15 0.250000 0.500000 0.811440
O O16 0.250000 0.843883 0.666757
#
# Coordination Sequence:
#
# PCOD9404892 Si02
#       7
#     8   4   8   8   8   4   8
#     4  10  20  37  65  91 116 149 193 245 298 357
#     4  12  24  35  58  87 118 157 204 259 288 341
#     4  10  22  37  59  84 117 163 197 241 289 356
#     4  11  22  36  56  84 119 155 195 245 296 343
#     4  10  22  40  58  87 120 149 199 243 297 356
#     4  12  22  36  58  86 119 160 212 247 290 353
#     4  10  20  36  59  87 118 154 194 238 294 355
#
# _framework density 17.915382000000001
#
# number of rings (size 3 to 8) (size 9 to 14) (size 15 to 20)
#    0.000    1.500    3.333    2.250    2.333    3.667 
#    0.000    6.667    0.000    0.500    0.000    0.000 
#    0.000    0.000    0.000    0.000    0.000    0.000 
#
# Total GULP energy -267955.147348 kJ/mol
# GULP energy per Si atom -5582.398903 kJ/mol
# Density = 1.787461 g / cm^3
# Si number density = 17.915382 Si / 1000 Ang^3
#
#
#
# Elastic Constant Matrix: (Units=GPa)
#
#
# Indices 1 2 3 4 5 6 
#
# 1 71.2208 30.2603 37.8525 0.0000 0.0000 0.0000
# 2 30.2603 81.2992 32.2990 0.0000 0.0000 0.0000
# 3 37.8525 32.2990 97.6657 0.0000 0.0000 0.0000
# 4 0.0000 0.0000 0.0000 6.7673 0.0000 0.0000
# 5 0.0000 0.0000 0.0000 0.0000 13.9860 0.0000
# 6 0.0000 0.0000 0.0000 0.0000 0.0000 11.0069
#
#
#
# Elastic Compliance Matrix: (Units=1/GPa)
#
#
# Indices 1 2 3 4 5 6 
#
# 1 0.019197 -0.004823 -0.005845 0.000000 0.000000 0.000000
# 2 -0.004823 0.015373 -0.003215 0.000000 0.000000 0.000000
# 3 -0.005845 -0.003215 0.013567 0.000000 0.000000 0.000000
# 4 0.000000 0.000000 0.000000 0.147769 0.000000 0.000000
# 5 0.000000 0.000000 0.000000 0.000000 0.071500 0.000000
# 6 0.000000 0.000000 0.000000 0.000000 0.000000 0.090852
#
#
# Mechanical properties :
#
#
# Convention : Reuss Voigt Hill
#
# Bulk Modulus (GPa) = 49.08861 50.11215 49.60038
# Shear Modulus (GPa) = 12.72870 16.33697 14.53284
#
# Velocity S-wave (km/s) = 2.66839 3.02304 2.85124
# Velocity P-wave (km/s) = 6.07894 6.34171 6.21172
#
# Compressibility (1/GPa) = 0.02037133
#
# Stress axis : x y z
#
# Youngs Moduli (GPa) = 52.09263 65.05115 73.70564
#
# Poissons Ratio (x) = 0.31374 0.43081
# Poissons Ratio (y) = 0.25124 0.23693
# Poissons Ratio (z) = 0.30448 0.20911
#
# Static dielectric constant tensor:
#      x y z
#    x 1.618010 0.000000 0.000000 
#    y 0.000000 1.591020 0.000000 
#    z 0.000000 0.000000 1.624730 
# 
# From -- ./inp_files/9705.got.cif
#   From: 2010.05.17/outbox.cif.g08.bks.cpg/sg51_5_cif.got.tgz:9705.got - 2010.06.03 11:52:47.
