data_PCOD9404580
_publ_section_title
;
Structure prediction by ZEFSAII (Michael W. Deem and Ramdas Pophale) SiO2 
 PCOD9404580
Probable space group: P M M A
;
_chemical_formula_sum "Si O2"
_cell_formula_units_Z 56
_cell_length_a 21.851616
_cell_length_b 8.385200
_cell_length_c 15.204220
_cell_angle_alpha 90.000000
_cell_angle_beta 90.000000
_cell_angle_gamma 90.000000
_cell_volume 2785.871823
_symmetry_space_group_name_H-M "P M M A"
_symmetry_group_IT_number 51
_symmetry_cell_setting 'orthorhombic'
loop_
_space_group_symop_operation_xyz
x,y,z
1/2-x,-y,z
1/2+x,-y,-z
-x,y,-z
-x,-y,-z
1/2+x,y,-z
1/2-x,y,z
x,-y,z
loop_
_atom_site_type_symbol
_atom_site_label
_atom_site_fract_x
_atom_site_fract_y
_atom_site_fract_z
Si Si1 0.321000 0.500000 0.943514
Si Si2 0.572882 0.683266 0.480527
Si Si3 0.679561 0.310958 0.809875
Si Si4 0.055991 0.500000 0.065227
Si Si5 0.545561 0.190674 0.296727
Si Si6 0.619849 0.815336 0.119949
Si Si7 0.418543 0.171696 0.078404
Si Si8 0.406877 0.812566 0.336838
O O1 0.250000 0.500000 0.976616
O O2 0.379500 0.500000 0.010945
O O3 0.332915 0.667867 0.892461
O O4 0.500000 0.694989 0.500000
O O5 0.591227 0.500000 0.489633
O O6 0.581572 0.740048 0.380842
O O7 0.601913 0.782883 0.559639
O O8 0.750000 0.272605 0.799988
O O9 0.674128 0.500000 0.829072
O O10 0.649867 0.199226 0.885172
O O11 0.642439 0.276307 0.721744
O O12 0.051166 0.667692 0.114256
O O13 0.000000 0.500000 0.000000
O O14 0.577579 0.224068 0.203731
O O15 0.475028 0.243465 0.308460
O O16 0.544622 0.000000 0.306749
O O17 0.643204 0.000000 0.130382
O O18 0.582191 0.821609 0.027412
O O19 0.442977 0.000000 0.107088
O O20 0.402628 0.000000 0.317972
#
# Coordination Sequence:
#
# PCOD9404580 Si02
#       8
#     4   8   8   4   8   8   8   8
#     4  10  22  38  58  82 112 154 200 244 298 362
#     4   9  17  30  52  85 121 156 191 232 292 367
#     4  11  24  41  59  81 114 157 208 261 308 365
#     4  10  22  40  60  90 119 154 201 252 307 360
#     4   9  18  34  57  88 123 156 193 244 305 365
#     4   9  20  38  60  88 119 154 198 249 298 352
#     4  10  21  39  60  84 119 160 200 248 306 364
#     4  10  20  35  57  86 120 157 198 248 305 367
#
# _framework density 20.101427000000001
#
# number of rings (size 3 to 8) (size 9 to 14) (size 15 to 20)
#    0.000    2.286    0.714    1.286    1.000    8.571 
#    0.000    5.714    0.000    0.857    0.000    2.000 
#    0.000    0.000    0.000    0.000    0.000    0.000 
#
# Total GULP energy -312286.633002 kJ/mol
# GULP energy per Si atom -5576.547018 kJ/mol
# Density = 2.005568 g / cm^3
# Si number density = 20.101427 Si / 1000 Ang^3
#
#
#
# Elastic Constant Matrix: (Units=GPa)
#
#
# Indices 1 2 3 4 5 6 
#
# 1 68.8176 35.2057 34.9007 0.0000 0.0000 0.0000
# 2 35.2057 107.7925 27.8044 0.0000 0.0000 0.0000
# 3 34.9007 27.8044 125.7637 0.0000 0.0000 0.0000
# 4 0.0000 0.0000 0.0000 23.3905 0.0000 0.0000
# 5 0.0000 0.0000 0.0000 0.0000 11.8252 0.0000
# 6 0.0000 0.0000 0.0000 0.0000 0.0000 20.5348
#
#
#
# Elastic Compliance Matrix: (Units=1/GPa)
#
#
# Indices 1 2 3 4 5 6 
#
# 1 0.019343 -0.005231 -0.004211 0.000000 0.000000 0.000000
# 2 -0.005231 0.011253 -0.001036 0.000000 0.000000 0.000000
# 3 -0.004211 -0.001036 0.009349 0.000000 0.000000 0.000000
# 4 0.000000 0.000000 0.000000 0.042752 0.000000 0.000000
# 5 0.000000 0.000000 0.000000 0.000000 0.084565 0.000000
# 6 0.000000 0.000000 0.000000 0.000000 0.000000 0.048698
#
#
# Mechanical properties :
#
#
# Convention : Reuss Voigt Hill
#
# Bulk Modulus (GPa) = 52.66559 55.35504 54.01031
# Shear Modulus (GPa) = 20.55522 24.78098 22.66810
#
# Velocity S-wave (km/s) = 3.20124 3.51493 3.36175
# Velocity P-wave (km/s) = 6.31829 6.63857 6.48041
#
# Compressibility (1/GPa) = 0.01898773
#
# Stress axis : x y z
#
# Youngs Moduli (GPa) = 51.69775 88.86579 106.96124
#
# Poissons Ratio (x) = 0.46489 0.45045
# Poissons Ratio (y) = 0.27045 0.11082
# Poissons Ratio (z) = 0.21772 0.09207
#
# Static dielectric constant tensor:
#      x y z
#    x 1.705330 0.000000 0.000000 
#    y 0.000000 1.775310 0.000000 
#    z 0.000000 0.000000 1.728710 
# 
# From -- ./inp_files/25836.got.cif
#   From: 2010.05.17/outbox.cif.g08.bks.cpg/sg51_13_cif.got.tgz:25836.got - 2010.06.03 11:52:47.
