data_PCOD9404399
_publ_section_title
;
Structure prediction by ZEFSAII (Michael W. Deem and Ramdas Pophale) SiO2 
 PCOD9404399
Probable space group: P M M A
;
_chemical_formula_sum "Si O2"
_cell_formula_units_Z 48
_cell_length_a 7.728794
_cell_length_b 17.597216
_cell_length_c 16.288172
_cell_angle_alpha 90.000000
_cell_angle_beta 90.000000
_cell_angle_gamma 90.000000
_cell_volume 2215.277026
_symmetry_space_group_name_H-M "P M M A"
_symmetry_group_IT_number 51
_symmetry_cell_setting 'orthorhombic'
loop_
_space_group_symop_operation_xyz
x,y,z
1/2-x,-y,z
1/2+x,-y,-z
-x,y,-z
-x,-y,-z
1/2+x,y,-z
1/2-x,y,z
x,-y,z
loop_
_atom_site_type_symbol
_atom_site_label
_atom_site_fract_x
_atom_site_fract_y
_atom_site_fract_z
Si Si1 0.542233 0.162458 0.655677
Si Si2 0.957048 0.585937 0.247556
Si Si3 0.041987 0.000000 0.404298
Si Si4 0.455466 0.319403 0.409485
Si Si5 0.458062 0.000000 0.904330
Si Si6 0.458062 0.680988 0.909271
Si Si7 0.457963 0.161958 0.843797
O O1 0.750000 0.159443 0.645612
O O2 0.474477 0.233238 0.602503
O O3 0.500630 0.179628 0.749856
O O4 0.473639 0.078795 0.633458
O O5 0.750000 0.581643 0.237760
O O6 0.025536 0.500000 0.250984
O O7 0.023540 0.631539 0.167703
O O8 0.987653 0.629962 0.332594
O O9 0.000000 0.000000 0.500000
O O10 0.250000 0.000000 0.393176
O O11 0.500000 0.348697 0.500000
O O12 0.250000 0.315127 0.404358
O O13 0.526568 0.078480 0.866173
O O14 0.250000 0.000000 0.893446
O O15 0.500000 0.000000 0.000000
O O16 0.250000 0.683336 0.902673
O O17 0.522988 0.767766 0.898186
O O18 0.500000 0.651827 0.000000
O O19 0.250000 0.159047 0.852679
#
# Coordination Sequence:
#
# PCOD9404399 Si02
#       7
#     8   8   4   8   4   8   8
#     4  10  21  36  56  83 114 151 195 240 288 340
#     4  10  22  42  65  88 118 155 194 240 296 356
#     4  10  21  36  52  78 114 150 193 239 283 337
#     4  11  23  39  62  91 121 156 197 241 293 352
#     4  10  21  34  50  78 112 150 195 239 287 343
#     4  10  21  37  59  87 118 154 194 238 289 346
#     4  10  20  35  55  80 112 151 195 239 287 342
#
# _framework density 21.667718000000001
#
# number of rings (size 3 to 8) (size 9 to 14) (size 15 to 20)
#    0.000    1.833    1.667    2.000    0.000    4.333 
#    0.000    0.000    0.000    0.000    0.000    0.000 
#    0.000    0.000    0.000    0.000    0.000    0.000 
#
# Total GULP energy -268151.261545 kJ/mol
# GULP energy per Si atom -5586.484616 kJ/mol
# Density = 2.161840 g / cm^3
# Si number density = 21.667718 Si / 1000 Ang^3
#
#
#
# Elastic Constant Matrix: (Units=GPa)
#
#
# Indices 1 2 3 4 5 6 
#
# 1 33.4934 17.2433 -11.3389 0.0000 0.0000 0.0000
# 2 17.2433 156.4671 72.6956 0.0000 0.0000 0.0000
# 3 -11.3389 72.6956 159.5472 0.0000 0.0000 0.0000
# 4 0.0000 0.0000 0.0000 11.5668 0.0000 0.0000
# 5 0.0000 0.0000 0.0000 0.0000 32.2573 0.0000
# 6 0.0000 0.0000 0.0000 0.0000 0.0000 -1.9299
#
#
#
# Elastic Compliance Matrix: (Units=1/GPa)
#
#
# Indices 1 2 3 4 5 6 
#
# 1 0.034945 -0.006349 0.005376 0.000000 0.000000 0.000000
# 2 -0.006349 0.009261 -0.004671 0.000000 0.000000 0.000000
# 3 0.005376 -0.004671 0.008778 0.000000 0.000000 0.000000
# 4 0.000000 0.000000 0.000000 0.086454 0.000000 0.000000
# 5 0.000000 0.000000 0.000000 0.000000 0.031001 0.000000
# 6 0.000000 0.000000 0.000000 0.000000 0.000000 -0.518159
#
#
# Mechanical properties :
#
#
# Convention : Reuss Voigt Hill
#
# Bulk Modulus (GPa) = 23.98231 56.30083 40.14157
# Shear Modulus (GPa) = -15.50225 26.43937 5.46856
#
# Velocity S-wave (km/s) = -2.67770 3.49695 1.59038
# Velocity P-wave (km/s) = 1.23780 6.50731 4.68387
#
# Compressibility (1/GPa) = 0.04169741
#
# Stress axis : x y z
#
# Youngs Moduli (GPa) = 28.61609 107.98086 113.92072
#
# Poissons Ratio (x) = 0.68557 -0.61248
# Poissons Ratio (y) = 0.18168 0.53210
# Poissons Ratio (z) = -0.15385 0.50436
#
# Static dielectric constant tensor:
#      x y z
#    x 1.803250 0.000000 0.000000 
#    y 0.000000 1.831910 0.000000 
#    z 0.000000 0.000000 1.761340 
# 
# From -- ./inp_files/21137.got.cif
#   From: 2010.05.17/outbox.cif.g08.bks.cpg/sg51_11_cif.got.tgz:21137.got - 2010.06.03 11:52:47.
