data_PCOD9404872
_publ_section_title
;
Structure prediction by ZEFSAII (Michael W. Deem and Ramdas Pophale) SiO2 
 PCOD9404872
Probable space group: P M M A
;
_chemical_formula_sum "Si O2"
_cell_formula_units_Z 64
_cell_length_a 31.778473
_cell_length_b 7.845007
_cell_length_c 12.252964
_cell_angle_alpha 90.000000
_cell_angle_beta 90.000000
_cell_angle_gamma 90.000000
_cell_volume 3054.692636
_symmetry_space_group_name_H-M "P M M A"
_symmetry_group_IT_number 51
_symmetry_cell_setting 'orthorhombic'
loop_
_space_group_symop_operation_xyz
x,y,z
1/2-x,-y,z
1/2+x,-y,-z
-x,y,-z
-x,-y,-z
1/2+x,y,-z
1/2-x,y,z
x,-y,z
loop_
_atom_site_type_symbol
_atom_site_label
_atom_site_fract_x
_atom_site_fract_y
_atom_site_fract_z
Si Si1 0.547142 0.208173 0.979238
Si Si2 0.816541 0.304914 0.753035
Si Si3 0.545518 0.300607 0.538632
Si Si4 0.796191 0.706642 0.513021
Si Si5 0.589750 0.197448 0.755564
Si Si6 0.704003 0.798876 0.995450
Si Si7 0.123639 0.791069 0.868821
Si Si8 0.379784 0.201915 0.618666
O O1 0.564053 0.258191 0.860484
O O2 0.546089 0.000000 0.981045
O O3 0.500000 0.269065 0.000000
O O4 0.581245 0.262111 0.068947
O O5 0.802237 0.500000 0.761009
O O6 0.799871 0.232816 0.638665
O O7 0.866960 0.297656 0.743362
O O8 0.803723 0.219035 0.866060
O O9 0.500000 0.235793 0.500000
O O10 0.540762 0.500000 0.565652
O O11 0.562552 0.210294 0.646668
O O12 0.581314 0.282266 0.446585
O O13 0.750000 0.755658 0.469684
O O14 0.798423 0.500000 0.515480
O O15 0.836005 0.768006 0.444426
O O16 0.601736 0.000000 0.774730
O O17 0.750000 0.725196 0.022319
O O18 0.705424 0.000000 0.019762
O O19 0.664368 0.730015 0.063313
O O20 0.123895 0.736554 0.743179
O O21 0.124214 0.000000 0.870321
O O22 0.387839 0.000000 0.620873
#
# Coordination Sequence:
#
# PCOD9404872 Si02
#       8
#     8   8   8   8   8   8   8   8
#     4   9  18  33  57  87 118 148 181 233 294 342
#     4  11  21  36  59  86 121 156 190 234 295 354
#     4  11  25  43  61  84 122 164 197 237 296 357
#     4  10  22  40  60  82 116 161 198 236 295 358
#     4  11  21  36  64  93 117 148 196 246 290 342
#     4  10  20  36  59  85 115 152 194 240 287 338
#     4   9  19  36  55  82 118 151 189 240 297 346
#     4  11  23  38  62  90 117 152 200 253 298 348
#
# _framework density 20.951371000000002
#
# number of rings (size 3 to 8) (size 9 to 14) (size 15 to 20)
#    0.000    1.750    2.500    1.875    1.750    3.000 
#    0.000    2.500    0.000    1.500    0.000    0.000 
#    0.000    0.000    0.000    0.000    0.000    0.000 
#
# Total GULP energy -357627.732327 kJ/mol
# GULP energy per Si atom -5587.933318 kJ/mol
# Density = 2.090368 g / cm^3
# Si number density = 20.951371 Si / 1000 Ang^3
#
#
#
# Elastic Constant Matrix: (Units=GPa)
#
#
# Indices 1 2 3 4 5 6 
#
# 1 179.4205 -3.6509 72.1498 0.0000 0.0000 0.0000
# 2 -3.6509 29.1110 -6.1830 0.0000 0.0000 0.0000
# 3 72.1498 -6.1830 141.1493 0.0000 0.0000 0.0000
# 4 0.0000 0.0000 0.0000 291.3519 0.0000 0.0000
# 5 0.0000 0.0000 0.0000 0.0000 51.2912 0.0000
# 6 0.0000 0.0000 0.0000 0.0000 0.0000 -2.2794
#
#
#
# Elastic Compliance Matrix: (Units=1/GPa)
#
#
# Indices 1 2 3 4 5 6 
#
# 1 0.007016 0.000119 -0.003581 0.000000 0.000000 0.000000
# 2 0.000119 0.034676 0.001458 0.000000 0.000000 0.000000
# 3 -0.003581 0.001458 0.008979 0.000000 0.000000 0.000000
# 4 0.000000 0.000000 0.000000 0.003432 0.000000 0.000000
# 5 0.000000 0.000000 0.000000 0.000000 0.019497 0.000000
# 6 0.000000 0.000000 0.000000 0.000000 0.000000 -0.438705
#
#
# Mechanical properties :
#
#
# Convention : Reuss Voigt Hill
#
# Bulk Modulus (GPa) = 21.43007 52.70139 37.06573
# Shear Modulus (GPa) = -14.46997 87.23040 36.38022
#
# Velocity S-wave (km/s) = -2.63086 6.45950 4.17155
# Velocity P-wave (km/s) = 1.01098 8.99123 6.39782
#
# Compressibility (1/GPa) = 0.04666340
#
# Stress axis : x y z
#
# Youngs Moduli (GPa) = 142.53216 28.83847 111.37033
#
# Poissons Ratio (x) = -0.00344 0.39882
# Poissons Ratio (y) = -0.01700 -0.16238
# Poissons Ratio (z) = 0.51041 -0.04205
#
# Static dielectric constant tensor:
#      x y z
#    x 1.739830 0.000000 0.000000 
#    y 0.000000 1.900020 0.000000 
#    z 0.000000 0.000000 1.716660 
# 
# From -- ./inp_files/19443.got.cif
#   From: 2010.05.17/outbox.cif.g08.bks.cpg/sg51_10_cif.got.tgz:19443.got - 2010.06.03 11:52:47.
