data_PCOD9404018
_publ_section_title
;
Structure prediction by ZEFSAII (Michael W. Deem and Ramdas Pophale) SiO2 
 PCOD9404018
Probable space group: P M M A
;
_chemical_formula_sum "Si O2"
_cell_formula_units_Z 56
_cell_length_a 8.730614
_cell_length_b 14.974165
_cell_length_c 23.636123
_cell_angle_alpha 90.000000
_cell_angle_beta 90.000000
_cell_angle_gamma 90.000000
_cell_volume 3090.036740
_symmetry_space_group_name_H-M "P M M A"
_symmetry_group_IT_number 51
_symmetry_cell_setting 'orthorhombic'
loop_
_space_group_symop_operation_xyz
x,y,z
1/2-x,-y,z
1/2+x,-y,-z
-x,y,-z
-x,-y,-z
1/2+x,y,-z
1/2-x,y,z
x,-y,z
loop_
_atom_site_type_symbol
_atom_site_label
_atom_site_fract_x
_atom_site_fract_y
_atom_site_fract_z
Si Si1 0.067681 0.352556 0.851976
Si Si2 0.435367 0.101139 0.563011
Si Si3 0.570864 0.239229 0.342252
Si Si4 0.566438 0.500000 0.936146
Si Si5 0.424595 0.103108 0.262927
Si Si6 0.572570 0.840432 0.866931
Si Si7 0.432108 0.603521 0.272182
Si Si8 0.067704 0.000000 0.937924
O O1 0.250000 0.363504 0.853544
O O2 0.991541 0.416296 0.898836
O O3 0.017549 0.252000 0.865338
O O4 0.009092 0.375156 0.788499
O O5 0.500000 0.111796 0.500000
O O6 0.250000 0.102862 0.561920
O O7 0.486321 0.182401 0.603440
O O8 0.480064 0.000000 0.582578
O O9 0.750000 0.258281 0.349848
O O10 0.543411 0.168391 0.292081
O O11 0.488635 0.328684 0.320656
O O12 0.750000 0.500000 0.938969
O O13 0.500000 0.500000 0.000000
O O14 0.250000 0.124382 0.282218
O O15 0.427948 0.119241 0.196181
O O16 0.456087 0.000000 0.275285
O O17 0.750000 0.825205 0.882961
O O18 0.494937 0.912637 0.906627
O O19 0.250000 0.615024 0.264815
O O20 0.463532 0.500000 0.286231
O O21 0.250000 0.000000 0.938117
O O22 0.000000 0.000000 0.000000
#
# Coordination Sequence:
#
# PCOD9404018 Si02
#       8
#     8   8   8   4   8   8   8   4
#     4  12  24  40  64  93 120 153 196 244 301 363
#     4   9  19  36  57  85 122 165 206 248 295 350
#     4  11  22  35  56  88 123 155 197 249 300 355
#     4  12  26  46  68  92 120 154 193 244 303 366
#     4  10  20  34  54  81 116 154 191 231 285 347
#     4  11  22  40  62  86 118 154 193 241 295 354
#     4  11  23  39  60  86 119 158 199 245 301 363
#     4  12  26  44  64  86 114 154 203 248 297 356
#
# _framework density 18.122762000000002
#
# number of rings (size 3 to 8) (size 9 to 14) (size 15 to 20)
#    0.000    1.143    2.857    4.286    0.000    4.000 
#    0.000    4.286    0.000    0.429    0.000    0.000 
#    0.000    0.000    0.000    0.000    0.000    0.000 
#
# Total GULP energy -312856.500514 kJ/mol
# GULP energy per Si atom -5586.723223 kJ/mol
# Density = 1.808151 g / cm^3
# Si number density = 18.122762 Si / 1000 Ang^3
#
#
#
# Elastic Constant Matrix: (Units=GPa)
#
#
# Indices 1 2 3 4 5 6 
#
# 1 97.8904 56.9320 46.5532 0.0000 0.0000 0.0000
# 2 56.9320 149.1057 68.5117 0.0000 0.0000 0.0000
# 3 46.5532 68.5117 109.1075 0.0000 0.0000 0.0000
# 4 0.0000 0.0000 0.0000 75.7535 0.0000 0.0000
# 5 0.0000 0.0000 0.0000 0.0000 29.3132 0.0000
# 6 0.0000 0.0000 0.0000 0.0000 0.0000 18.9823
#
#
#
# Elastic Compliance Matrix: (Units=1/GPa)
#
#
# Indices 1 2 3 4 5 6 
#
# 1 0.014125 -0.003688 -0.003711 0.000000 0.000000 0.000000
# 2 -0.003688 0.010389 -0.004950 0.000000 0.000000 0.000000
# 3 -0.003711 -0.004950 0.013857 0.000000 0.000000 0.000000
# 4 0.000000 0.000000 0.000000 0.013201 0.000000 0.000000
# 5 0.000000 0.000000 0.000000 0.000000 0.034114 0.000000
# 6 0.000000 0.000000 0.000000 0.000000 0.000000 0.052681
#
#
# Mechanical properties :
#
#
# Convention : Reuss Voigt Hill
#
# Bulk Modulus (GPa) = 73.13648 77.78858 75.46253
# Shear Modulus (GPa) = 29.82871 37.08357 33.45614
#
# Velocity S-wave (km/s) = 4.06140 4.52845 4.30127
# Velocity P-wave (km/s) = 7.90171 8.38801 8.14849
#
# Compressibility (1/GPa) = 0.01367307
#
# Stress axis : x y z
#
# Youngs Moduli (GPa) = 70.79475 96.25168 72.16590
#
# Poissons Ratio (x) = 0.35500 0.26780
# Poissons Ratio (y) = 0.26111 0.35723
# Poissons Ratio (z) = 0.26271 0.47646
#
# Static dielectric constant tensor:
#      x y z
#    x 1.619500 0.000000 0.000000 
#    y 0.000000 1.630940 0.000000 
#    z 0.000000 0.000000 1.601830 
# 
# From -- ./inp_files/32048.got.cif
#   From: 2010.05.17/outbox.cif.g08.bks.cpg/sg51_17_cif.got.tgz:32048.got - 2010.06.03 11:52:47.
