data_PCOD9404244
_publ_section_title
;
Structure prediction by ZEFSAII (Michael W. Deem and Ramdas Pophale) SiO2 
 PCOD9404244
Probable space group: P M M A
;
_chemical_formula_sum "Si O2"
_cell_formula_units_Z 56
_cell_length_a 14.681437
_cell_length_b 20.326205
_cell_length_c 9.943357
_cell_angle_alpha 90.000000
_cell_angle_beta 90.000000
_cell_angle_gamma 90.000000
_cell_volume 2967.275697
_symmetry_space_group_name_H-M "P M M A"
_symmetry_group_IT_number 51
_symmetry_cell_setting 'orthorhombic'
loop_
_space_group_symop_operation_xyz
x,y,z
1/2-x,-y,z
1/2+x,-y,-z
-x,y,-z
-x,-y,-z
1/2+x,y,-z
1/2-x,y,z
x,-y,z
loop_
_atom_site_type_symbol
_atom_site_label
_atom_site_fract_x
_atom_site_fract_y
_atom_site_fract_z
Si Si1 0.086513 0.928235 0.602042
Si Si2 0.035449 0.925899 0.144718
Si Si3 0.640397 0.328861 0.224794
Si Si4 0.140420 0.192955 0.267228
Si Si5 0.488811 0.425836 0.162956
Si Si6 0.357908 0.314274 0.091134
Si Si7 0.855845 0.218124 0.439346
O O1 0.138869 0.859517 0.594517
O O2 0.000000 0.924137 0.500000
O O3 0.048218 0.930255 0.752542
O O4 0.130704 0.000000 0.572887
O O5 0.103790 0.876753 0.218254
O O6 0.073194 0.000000 0.128237
O O7 0.000000 0.902775 0.000000
O O8 0.750000 0.340940 0.238974
O O9 0.576844 0.393548 0.235144
O O10 0.611730 0.269866 0.326095
O O11 0.623779 0.310625 0.068189
O O12 0.250000 0.189427 0.276217
O O13 0.113788 0.246271 0.157333
O O14 0.102555 0.218121 0.410762
O O15 0.470874 0.500000 0.210732
O O16 0.407760 0.373167 0.168883
O O17 0.500000 0.430191 0.000000
O O18 0.250000 0.322692 0.106992
O O19 0.750000 0.236088 0.454054
#
# Coordination Sequence:
#
# PCOD9404244 Si02
#       7
#     8   8   8   8   8   8   8
#     4  10  20  35  52  74 104 138 181 227 273 322
#     4  10  22  37  53  77 107 141 181 226 278 330
#     4   9  19  34  53  80 111 140 177 227 274 323
#     4  10  21  36  55  78 105 141 182 222 270 325
#     4   9  18  32  54  83 109 140 179 217 270 332
#     4   9  19  34  52  78 109 141 180 226 273 324
#     4  10  21  35  53  78 105 139 181 225 273 322
#
# _framework density 18.872529
#
# number of rings (size 3 to 8) (size 9 to 14) (size 15 to 20)
#    0.000    2.429    1.429    0.000    4.000    1.714 
#    0.000    4.286    0.000    4.286    0.000    4.000 
#    0.000    0.000    0.000    0.000    0.000    0.000 
#
# Total GULP energy -311744.788795 kJ/mol
# GULP energy per Si atom -5566.871228 kJ/mol
# Density = 1.882957 g / cm^3
# Si number density = 18.872529 Si / 1000 Ang^3
#
#
#
# Elastic Constant Matrix: (Units=GPa)
#
#
# Indices 1 2 3 4 5 6 
#
# 1 32.3889 30.6491 24.1231 0.0000 0.0000 0.0000
# 2 30.6491 117.3649 30.9049 0.0000 0.0000 0.0000
# 3 24.1231 30.9049 86.4665 0.0000 0.0000 0.0000
# 4 0.0000 0.0000 0.0000 8.4424 0.0000 0.0000
# 5 0.0000 0.0000 0.0000 0.0000 19.1667 0.0000
# 6 0.0000 0.0000 0.0000 0.0000 0.0000 26.9843
#
#
#
# Elastic Compliance Matrix: (Units=1/GPa)
#
#
# Indices 1 2 3 4 5 6 
#
# 1 0.047404 -0.009821 -0.009715 0.000000 0.000000 0.000000
# 2 -0.009821 0.011440 -0.001349 0.000000 0.000000 0.000000
# 3 -0.009715 -0.001349 0.014758 0.000000 0.000000 0.000000
# 4 0.000000 0.000000 0.000000 0.118450 0.000000 0.000000
# 5 0.000000 0.000000 0.000000 0.000000 0.052174 0.000000
# 6 0.000000 0.000000 0.000000 0.000000 0.000000 0.037059
#
#
# Mechanical properties :
#
#
# Convention : Reuss Voigt Hill
#
# Bulk Modulus (GPa) = 31.41494 45.28604 38.35049
# Shear Modulus (GPa) = 14.98509 20.95489 17.96999
#
# Velocity S-wave (km/s) = 2.82089 3.33579 3.08908
# Velocity P-wave (km/s) = 5.22416 6.23574 5.75223
#
# Compressibility (1/GPa) = 0.03183199
#
# Stress axis : x y z
#
# Youngs Moduli (GPa) = 21.09532 87.40963 67.76130
#
# Poissons Ratio (x) = 0.85846 0.65829
# Poissons Ratio (y) = 0.20718 0.09142
# Poissons Ratio (z) = 0.20494 0.11792
#
# Static dielectric constant tensor:
#      x y z
#    x 1.688360 0.000000 0.000000 
#    y 0.000000 1.670250 0.000000 
#    z 0.000000 0.000000 1.669250 
# 
# From -- ./inp_files/8559.got.cif
#   From: 2010.05.17/outbox.cif.g08.bks.cpg/sg51_5_cif.got.tgz:8559.got - 2010.06.03 11:52:47.
