data_PCOD9404076
_publ_section_title
;
Structure prediction by ZEFSAII (Michael W. Deem and Ramdas Pophale) SiO2 
 PCOD9404076
Probable space group: P M M A
;
_chemical_formula_sum "Si O2"
_cell_formula_units_Z 56
_cell_length_a 15.484818
_cell_length_b 19.716760
_cell_length_c 9.580255
_cell_angle_alpha 90.000000
_cell_angle_beta 90.000000
_cell_angle_gamma 90.000000
_cell_volume 2924.951871
_symmetry_space_group_name_H-M "P M M A"
_symmetry_group_IT_number 51
_symmetry_cell_setting 'orthorhombic'
loop_
_space_group_symop_operation_xyz
x,y,z
1/2-x,-y,z
1/2+x,-y,-z
-x,y,-z
-x,-y,-z
1/2+x,y,-z
1/2-x,y,z
x,-y,z
loop_
_atom_site_type_symbol
_atom_site_label
_atom_site_fract_x
_atom_site_fract_y
_atom_site_fract_z
Si Si1 0.349689 0.689902 0.978083
Si Si2 0.351811 0.080179 0.870514
Si Si3 0.467091 0.840075 0.645636
Si Si4 0.354009 0.424695 0.173431
Si Si5 0.147908 0.288527 0.663578
Si Si6 0.396621 0.577613 0.493983
Si Si7 0.582481 0.180424 0.904425
O O1 0.250000 0.671995 0.953135
O O2 0.390838 0.629766 0.066453
O O3 0.354026 0.757355 0.070637
O O4 0.383443 0.703175 0.823600
O O5 0.250000 0.092706 0.851173
O O6 0.404496 0.114841 0.744116
O O7 0.367866 0.000000 0.873393
O O8 0.380463 0.114381 0.016964
O O9 0.500000 0.870665 0.500000
O O10 0.413314 0.771690 0.607910
O O11 0.548640 0.826919 0.747991
O O12 0.250000 0.425843 0.159755
O O13 0.387670 0.500000 0.145253
O O14 0.371797 0.408283 0.334091
O O15 0.250000 0.269204 0.660135
O O16 0.137602 0.360898 0.587935
O O17 0.500000 0.577756 0.500000
O O18 0.367178 0.500000 0.529272
O O19 0.500000 0.199185 0.000000
#
# Coordination Sequence:
#
# PCOD9404076 Si02
#       7
#     8   8   8   8   8   8   8
#     4  10  20  34  55  81 111 147 193 250 298 347
#     4  10  21  42  70  94 123 163 202 242 293 355
#     4  11  24  39  59  92 129 163 199 247 303 358
#     4   9  19  35  53  76 108 147 191 241 300 361
#     4  11  22  37  58  82 117 157 201 253 303 364
#     4  10  22  38  55  78 112 153 199 250 306 370
#     4  10  20  36  60  87 118 156 196 243 288 349
#
# _framework density 19.145614999999999
#
# number of rings (size 3 to 8) (size 9 to 14) (size 15 to 20)
#    0.000    1.857    2.857    1.714    4.000    4.286 
#    0.000    3.571    0.000    4.714    0.000    0.000 
#    0.000    0.000    0.000    0.000    0.000    0.000 
#
# Total GULP energy -312295.663108 kJ/mol
# GULP energy per Si atom -5576.708270 kJ/mol
# Density = 1.910204 g / cm^3
# Si number density = 19.145615 Si / 1000 Ang^3
#
#
#
# Elastic Constant Matrix: (Units=GPa)
#
#
# Indices 1 2 3 4 5 6 
#
# 1 41.7557 24.6193 22.5339 0.0000 0.0000 0.0000
# 2 24.6193 73.5532 24.7178 0.0000 0.0000 0.0000
# 3 22.5339 24.7178 71.0182 0.0000 0.0000 0.0000
# 4 0.0000 0.0000 0.0000 82.1653 0.0000 0.0000
# 5 0.0000 0.0000 0.0000 0.0000 19.4384 0.0000
# 6 0.0000 0.0000 0.0000 0.0000 0.0000 69.9634
#
#
#
# Elastic Compliance Matrix: (Units=1/GPa)
#
#
# Indices 1 2 3 4 5 6 
#
# 1 0.033033 -0.008532 -0.007512 0.000000 0.000000 0.000000
# 2 -0.008532 0.017600 -0.003418 0.000000 0.000000 0.000000
# 3 -0.007512 -0.003418 0.017654 0.000000 0.000000 0.000000
# 4 0.000000 0.000000 0.000000 0.012171 0.000000 0.000000
# 5 0.000000 0.000000 0.000000 0.000000 0.051445 0.000000
# 6 0.000000 0.000000 0.000000 0.000000 0.000000 0.014293
#
#
# Mechanical properties :
#
#
# Convention : Reuss Voigt Hill
#
# Bulk Modulus (GPa) = 34.05686 36.67435 35.36561
# Shear Modulus (GPa) = 25.65299 41.94381 33.79840
#
# Velocity S-wave (km/s) = 3.66442 4.68565 4.20615
# Velocity P-wave (km/s) = 5.97753 6.96210 6.48852
#
# Compressibility (1/GPa) = 0.02936266
#
# Stress axis : x y z
#
# Youngs Moduli (GPa) = 30.27238 56.81725 56.64393
#
# Poissons Ratio (x) = 0.48479 0.42549
# Poissons Ratio (y) = 0.25830 0.19363
# Poissons Ratio (z) = 0.22740 0.19423
#
# Static dielectric constant tensor:
#      x y z
#    x 1.694720 0.000000 0.000000 
#    y 0.000000 1.691860 0.000000 
#    z 0.000000 0.000000 1.651300 
# 
# From -- ./inp_files/8571.got.cif
#   From: 2010.05.17/outbox.cif.g08.bks.cpg/sg51_5_cif.got.tgz:8571.got - 2010.06.03 11:52:47.
