data_PCOD9404044
_publ_section_title
;
Structure prediction by ZEFSAII (Michael W. Deem and Ramdas Pophale) SiO2 
 PCOD9404044
Probable space group: P M M A
;
_chemical_formula_sum "Si O2"
_cell_formula_units_Z 56
_cell_length_a 19.624511
_cell_length_b 7.739789
_cell_length_c 16.965455
_cell_angle_alpha 90.000000
_cell_angle_beta 90.000000
_cell_angle_gamma 90.000000
_cell_volume 2576.875739
_symmetry_space_group_name_H-M "P M M A"
_symmetry_group_IT_number 51
_symmetry_cell_setting 'orthorhombic'
loop_
_space_group_symop_operation_xyz
x,y,z
1/2-x,-y,z
1/2+x,-y,-z
-x,y,-z
-x,-y,-z
1/2+x,y,-z
1/2-x,y,z
x,-y,z
loop_
_atom_site_type_symbol
_atom_site_label
_atom_site_fract_x
_atom_site_fract_y
_atom_site_fract_z
Si Si1 0.826539 0.204104 0.852453
Si Si2 0.458888 0.799184 0.426366
Si Si3 0.053154 0.787417 0.251349
Si Si4 0.329060 0.290850 0.514363
Si Si5 0.170846 0.291561 0.691129
Si Si6 0.576839 0.698135 0.993976
Si Si7 0.579022 0.201291 0.162069
O O1 0.750000 0.276835 0.858290
O O2 0.874104 0.272149 0.781598
O O3 0.870997 0.222187 0.931980
O O4 0.820096 0.000000 0.838322
O O5 0.500000 0.719225 0.500000
O O6 0.465765 0.725164 0.338811
O O7 0.380139 0.786919 0.451429
O O8 0.479994 0.000000 0.421083
O O9 0.994969 0.733877 0.189857
O O10 0.052903 0.000000 0.253206
O O11 0.250000 0.242727 0.503780
O O12 0.332763 0.500000 0.510669
O O13 0.350961 0.237080 0.603065
O O14 0.250000 0.242650 0.699982
O O15 0.167195 0.500000 0.693099
O O16 0.126793 0.221095 0.762218
O O17 0.568990 0.500000 0.969308
O O18 0.500000 0.774927 0.000000
O O19 0.604169 0.707571 0.083236
O O20 0.573449 0.000000 0.142496
#
# Coordination Sequence:
#
# PCOD9404044 Si02
#       7
#     8   8   8   8   8   8   8
#     4  10  21  39  62  85 112 150 195 238 283 338
#     4  10  20  34  54  83 117 148 188 237 285 337
#     4   9  19  35  55  82 114 149 184 231 286 331
#     4   9  19  36  55  76 107 149 192 232 280 336
#     4   9  19  36  55  77 111 150 186 231 284 335
#     4  11  23  39  60  85 114 148 185 228 281 341
#     4  11  21  35  60  86 112 145 185 231 278 332
#
# _framework density 21.731743000000002
#
# number of rings (size 3 to 8) (size 9 to 14) (size 15 to 20)
#    0.000    2.143    1.429    2.571    0.000    4.571 
#    0.000    5.000    0.000    0.000    0.000    0.000 
#    0.000    0.000    0.000    0.000    0.000    0.000 
#
# Total GULP energy -312744.744626 kJ/mol
# GULP energy per Si atom -5584.727583 kJ/mol
# Density = 2.168228 g / cm^3
# Si number density = 21.731743 Si / 1000 Ang^3
#
#
#
# Elastic Constant Matrix: (Units=GPa)
#
#
# Indices 1 2 3 4 5 6 
#
# 1 75.6881 3.8309 31.1438 0.0000 0.0000 0.0000
# 2 3.8309 37.8945 0.7918 0.0000 0.0000 0.0000
# 3 31.1438 0.7918 114.2187 0.0000 0.0000 0.0000
# 4 0.0000 0.0000 0.0000 7.5417 0.0000 0.0000
# 5 0.0000 0.0000 0.0000 0.0000 32.6853 0.0000
# 6 0.0000 0.0000 0.0000 0.0000 0.0000 8.7564
#
#
#
# Elastic Compliance Matrix: (Units=1/GPa)
#
#
# Indices 1 2 3 4 5 6 
#
# 1 0.014959 -0.001427 -0.004069 0.000000 0.000000 0.000000
# 2 -0.001427 0.026529 0.000205 0.000000 0.000000 0.000000
# 3 -0.004069 0.000205 0.009863 0.000000 0.000000 0.000000
# 4 0.000000 0.000000 0.000000 0.132597 0.000000 0.000000
# 5 0.000000 0.000000 0.000000 0.000000 0.030595 0.000000
# 6 0.000000 0.000000 0.000000 0.000000 0.000000 0.114202
#
#
# Mechanical properties :
#
#
# Convention : Reuss Voigt Hill
#
# Bulk Modulus (GPa) = 24.52831 33.25936 28.89383
# Shear Modulus (GPa) = 14.16770 22.59901 18.38336
#
# Velocity S-wave (km/s) = 2.55607 3.22826 2.91163
# Velocity P-wave (km/s) = 4.47467 5.40678 4.96266
#
# Compressibility (1/GPa) = 0.04076922
#
# Stress axis : x y z
#
# Youngs Moduli (GPa) = 66.85128 37.69448 101.38754
#
# Poissons Ratio (x) = 0.05380 0.41253
# Poissons Ratio (y) = 0.09541 -0.02081
# Poissons Ratio (z) = 0.27201 -0.00774
#
# Static dielectric constant tensor:
#      x y z
#    x 1.807270 0.000000 0.000000 
#    y 0.000000 1.796520 0.000000 
#    z 0.000000 0.000000 1.781830 
# 
# From -- ./inp_files/25772.got.cif
#   From: 2010.05.17/outbox.cif.g08.bks.cpg/sg51_13_cif.got.tgz:25772.got - 2010.06.03 11:52:47.
