data_PCOD9404483
_publ_section_title
;
Structure prediction by ZEFSAII (Michael W. Deem and Ramdas Pophale) SiO2 
 PCOD9404483
Probable space group: P M M A
;
_chemical_formula_sum "Si O2"
_cell_formula_units_Z 32
_cell_length_a 14.957664
_cell_length_b 7.705374
_cell_length_c 13.926481
_cell_angle_alpha 90.000000
_cell_angle_beta 90.000000
_cell_angle_gamma 90.000000
_cell_volume 1605.088146
_symmetry_space_group_name_H-M "P M M A"
_symmetry_group_IT_number 51
_symmetry_cell_setting 'orthorhombic'
loop_
_space_group_symop_operation_xyz
x,y,z
1/2-x,-y,z
1/2+x,-y,-z
-x,y,-z
-x,-y,-z
1/2+x,y,-z
1/2-x,y,z
x,-y,z
loop_
_atom_site_type_symbol
_atom_site_label
_atom_site_fract_x
_atom_site_fract_y
_atom_site_fract_z
Si Si1 0.647911 0.789470 0.251193
Si Si2 0.642145 0.500000 0.683036
Si Si3 0.983264 0.202721 0.613584
Si Si4 0.897153 0.804999 0.032346
Si Si5 0.151134 0.500000 0.106797
O O1 0.750000 0.727416 0.267864
O O2 0.571893 0.738075 0.327418
O O3 0.650850 0.000000 0.255371
O O4 0.617658 0.746825 0.142175
O O5 0.750000 0.500000 0.669365
O O6 0.598907 0.672420 0.637876
O O7 0.601112 0.500000 0.792522
O O8 0.000000 0.210362 0.500000
O O9 0.966026 0.000000 0.639723
O O10 0.859020 0.666491 0.959304
O O11 0.859728 0.000000 0.023516
O O12 0.000000 0.813143 0.000000
O O13 0.250000 0.500000 0.144666
#
# Coordination Sequence:
#
# PCOD9404483 Si02
#       5
#     8   4   8   8   4
#     4   9  18  34  58  89 121 153 198 256 310 364
#     4  11  25  42  60  88 125 160 202 254 300 356
#     4  10  22  42  66  89 118 158 202 252 312 372
#     4  10  20  35  56  81 114 155 196 243 298 355
#     4  11  23  36  53  80 114 154 196 234 280 348
#
# _framework density 19.936599999999999
#
# number of rings (size 3 to 8) (size 9 to 14) (size 15 to 20)
#    0.000    2.000    0.000    3.000    0.000    7.000 
#    0.000    6.875    0.000    0.000    0.000    0.000 
#    0.000    0.000    0.000    0.000    0.000    0.000 
#
# Total GULP energy -178412.320359 kJ/mol
# GULP energy per Si atom -5575.385011 kJ/mol
# Density = 1.989122 g / cm^3
# Si number density = 19.936600 Si / 1000 Ang^3
#
#
#
# Elastic Constant Matrix: (Units=GPa)
#
#
# Indices 1 2 3 4 5 6 
#
# 1 149.3108 46.3534 50.4514 0.0000 0.0000 0.0000
# 2 46.3534 96.6656 51.7824 0.0000 0.0000 0.0000
# 3 50.4514 51.7824 107.0859 0.0000 0.0000 0.0000
# 4 0.0000 0.0000 0.0000 113.3642 0.0000 0.0000
# 5 0.0000 0.0000 0.0000 0.0000 12.4442 0.0000
# 6 0.0000 0.0000 0.0000 0.0000 0.0000 45.1851
#
#
#
# Elastic Compliance Matrix: (Units=1/GPa)
#
#
# Indices 1 2 3 4 5 6 
#
# 1 0.008417 -0.002580 -0.002718 0.000000 0.000000 0.000000
# 2 -0.002580 0.014752 -0.005918 0.000000 0.000000 0.000000
# 3 -0.002718 -0.005918 0.013480 0.000000 0.000000 0.000000
# 4 0.000000 0.000000 0.000000 0.008821 0.000000 0.000000
# 5 0.000000 0.000000 0.000000 0.000000 0.080359 0.000000
# 6 0.000000 0.000000 0.000000 0.000000 0.000000 0.022131
#
#
# Mechanical properties :
#
#
# Convention : Reuss Voigt Hill
#
# Bulk Modulus (GPa) = 70.33501 72.24852 71.29176
# Shear Modulus (GPa) = 28.54991 47.83037 38.19014
#
# Velocity S-wave (km/s) = 3.78833 4.90340 4.38148
# Velocity P-wave (km/s) = 7.38181 8.26895 7.83794
#
# Compressibility (1/GPa) = 0.01421767
#
# Stress axis : x y z
#
# Youngs Moduli (GPa) = 118.81061 67.78543 74.18155
#
# Poissons Ratio (x) = 0.17490 0.20160
# Poissons Ratio (y) = 0.30655 0.43901
# Poissons Ratio (z) = 0.32289 0.40116
#
# Static dielectric constant tensor:
#      x y z
#    x 1.709750 0.000000 0.000000 
#    y 0.000000 1.722400 0.000000 
#    z 0.000000 0.000000 1.712700 
# 
# From -- ./inp_files/15915.got.cif
#   From: 2010.05.17/outbox.cif.g08.bks.cpg/sg51_8_cif.got.tgz:15915.got - 2010.06.03 11:52:47.
