data_PCOD9404134
_publ_section_title
;
Structure prediction by ZEFSAII (Michael W. Deem and Ramdas Pophale) SiO2 
 PCOD9404134
Probable space group: P M M A
;
_chemical_formula_sum "Si O2"
_cell_formula_units_Z 38
_cell_length_a 7.510889
_cell_length_b 18.195620
_cell_length_c 13.192975
_cell_angle_alpha 90.000000
_cell_angle_beta 90.000000
_cell_angle_gamma 90.000000
_cell_volume 1803.021650
_symmetry_space_group_name_H-M "P M M A"
_symmetry_group_IT_number 51
_symmetry_cell_setting 'orthorhombic'
loop_
_space_group_symop_operation_xyz
x,y,z
1/2-x,-y,z
1/2+x,-y,-z
-x,y,-z
-x,-y,-z
1/2+x,y,-z
1/2-x,y,z
x,-y,z
loop_
_atom_site_type_symbol
_atom_site_label
_atom_site_fract_x
_atom_site_fract_y
_atom_site_fract_z
Si Si1 0.044128 0.882674 0.675201
Si Si2 0.039468 0.720945 0.388434
Si Si3 0.044859 0.657525 0.820977
Si Si4 0.962515 0.184450 0.113988
Si Si5 0.750000 0.000000 0.614160
Si Si6 0.036920 0.500000 0.881653
O O1 0.250000 0.908730 0.674365
O O2 0.981633 0.867232 0.792255
O O3 0.038958 0.802597 0.624020
O O4 0.907043 0.936415 0.622075
O O5 0.250000 0.726024 0.372765
O O6 0.000000 0.692450 0.500000
O O7 0.960625 0.672795 0.298389
O O8 0.250000 0.654516 0.856986
O O9 0.965832 0.732166 0.870387
O O10 0.964284 0.577987 0.842361
O O11 0.750000 0.188979 0.126651
O O12 0.000000 0.158834 0.000000
O O13 0.250000 0.500000 0.859983
O O14 0.000000 0.500000 0.000000
#
# Coordination Sequence:
#
# PCOD9404134 Si02
#       6
#     8   8   8   8   2   4
#     4  10  22  40  60  86 119 152 193 249 292 359
#     4  11  21  38  64  89 112 150 198 245 296 354
#     4   9  19  35  53  84 117 159 198 248 297 347
#     4   9  18  31  54  79 110 149 200 246 289 339
#     4  12  22  40  64  86 116 160 192 226 328 348
#     4  10  20  34  55  84 129 166 201 244 302 348
#
# _framework density 21.075731000000001
#
# number of rings (size 3 to 8) (size 9 to 14) (size 15 to 20)
#    0.000    2.105    1.053    4.105    1.474    1.684 
#    0.000    1.579    0.000    0.000    0.000    0.000 
#    0.000    0.000    0.000    0.000    0.000    0.000 
#
# Total GULP energy -211641.887655 kJ/mol
# GULP energy per Si atom -5569.523359 kJ/mol
# Density = 2.102776 g / cm^3
# Si number density = 21.075731 Si / 1000 Ang^3
#
#
#
# Elastic Constant Matrix: (Units=GPa)
#
#
# Indices 1 2 3 4 5 6 
#
# 1 102.7926 14.9572 -22.2319 0.0000 0.0000 0.0000
# 2 14.9572 86.4249 -1.7334 0.0000 0.0000 0.0000
# 3 -22.2319 -1.7334 64.3142 0.0000 0.0000 0.0000
# 4 0.0000 0.0000 0.0000 13.7747 0.0000 0.0000
# 5 0.0000 0.0000 0.0000 0.0000 20.5777 0.0000
# 6 0.0000 0.0000 0.0000 0.0000 0.0000 -0.3373
#
#
#
# Elastic Compliance Matrix: (Units=1/GPa)
#
#
# Indices 1 2 3 4 5 6 
#
# 1 0.010785 -0.001793 0.003680 0.000000 0.000000 0.000000
# 2 -0.001793 0.011875 -0.000300 0.000000 0.000000 0.000000
# 3 0.003680 -0.000300 0.016813 0.000000 0.000000 0.000000
# 4 0.000000 0.000000 0.000000 0.072597 0.000000 0.000000
# 5 0.000000 0.000000 0.000000 0.000000 0.048596 0.000000
# 6 0.000000 0.000000 0.000000 0.000000 0.000000 -2.964399
#
#
# Mechanical properties :
#
#
# Convention : Reuss Voigt Hill
#
# Bulk Modulus (GPa) = 23.44801 26.16840 24.80821
# Shear Modulus (GPa) = -1.79039 24.30566 11.25764
#
# Velocity S-wave (km/s) = -0.92268 3.39964 2.31368
# Velocity P-wave (km/s) = 3.16459 5.27763 4.35132
#
# Compressibility (1/GPa) = 0.04264754
#
# Stress axis : x y z
#
# Youngs Moduli (GPa) = 92.72087 84.21065 59.47916
#
# Poissons Ratio (x) = 0.15097 -0.21887
# Poissons Ratio (y) = 0.16622 0.01782
# Poissons Ratio (z) = -0.34120 0.02523
#
# Static dielectric constant tensor:
#      x y z
#    x 1.798280 0.000000 0.000000 
#    y 0.000000 1.753590 0.000000 
#    z 0.000000 0.000000 1.780090 
# 
# From -- ./inp_files/14056.got.cif
#   From: 2010.05.17/outbox.cif.g08.bks.cpg/sg51_8_cif.got.tgz:14056.got - 2010.06.03 11:52:47.
