data_PCOD9404381
_publ_section_title
;
Structure prediction by ZEFSAII (Michael W. Deem and Ramdas Pophale) SiO2 
 PCOD9404381
Probable space group: P M M A
;
_chemical_formula_sum "Si O2"
_cell_formula_units_Z 64
_cell_length_a 8.900419
_cell_length_b 24.241296
_cell_length_c 15.422084
_cell_angle_alpha 90.000000
_cell_angle_beta 90.000000
_cell_angle_gamma 90.000000
_cell_volume 3327.433242
_symmetry_space_group_name_H-M "P M M A"
_symmetry_group_IT_number 51
_symmetry_cell_setting 'orthorhombic'
loop_
_space_group_symop_operation_xyz
x,y,z
1/2-x,-y,z
1/2+x,-y,-z
-x,y,-z
-x,-y,-z
1/2+x,y,-z
1/2-x,y,z
x,-y,z
loop_
_atom_site_type_symbol
_atom_site_label
_atom_site_fract_x
_atom_site_fract_y
_atom_site_fract_z
Si Si1 0.918197 0.065207 0.083789
Si Si2 0.430351 0.603511 0.593161
Si Si3 0.071305 0.437151 0.232282
Si Si4 0.569746 0.732381 0.407839
Si Si5 0.929023 0.938147 0.731009
Si Si6 0.930018 0.225769 0.093319
Si Si7 0.568745 0.174166 0.273499
Si Si8 0.930185 0.354119 0.094191
O O1 0.750000 0.088060 0.098065
O O2 0.018906 0.066813 0.169040
O O3 0.899232 0.000000 0.066603
O O4 0.000000 0.089292 0.000000
O O5 0.500000 0.588344 0.500000
O O6 0.250000 0.597761 0.590901
O O7 0.500262 0.570571 0.672748
O O8 0.468173 0.668374 0.609251
O O9 0.250000 0.427854 0.236747
O O10 0.045077 0.500000 0.202660
O O11 0.996880 0.394047 0.166632
O O12 0.500000 0.747889 0.500000
O O13 0.750000 0.735110 0.413724
O O14 0.521640 0.774581 0.333394
O O15 0.750000 0.935379 0.724090
O O16 0.003649 0.883552 0.691680
O O17 0.977195 0.000000 0.701487
O O18 0.750000 0.222327 0.086202
O O19 0.978313 0.188200 0.174466
O O20 0.966243 0.289905 0.113961
O O21 0.000000 0.213187 0.000000
O O22 0.750000 0.171099 0.274321
O O23 0.750000 0.359464 0.091216
O O24 0.000000 0.366633 0.000000
#
# Coordination Sequence:
#
# PCOD9404381 Si02
#       8
#     8   8   8   8   8   8   8   8
#     4   9  16  27  44  64  87 120 163 208 252 298
#     4  10  20  37  61  87 116 149 183 222 274 333
#     4  11  24  39  55  80 114 152 196 240 279 325
#     4   9  19  36  59  87 114 139 172 219 273 329
#     4  10  21  35  49  69  99 135 176 218 260 311
#     4   9  19  35  55  81 111 142 178 222 271 325
#     4  10  20  35  55  79 109 142 175 216 268 323
#     4  10  20  37  60  83 110 146 188 235 287 337
#
# _framework density 19.234044999999998
#
# number of rings (size 3 to 8) (size 9 to 14) (size 15 to 20)
#    0.000    2.250    0.000    2.625    0.000    8.250 
#    0.000    2.500    0.000    0.375    0.000    0.000 
#    0.000    0.000    0.000    0.000    0.000    0.000 
#
# Total GULP energy -357244.240489 kJ/mol
# GULP energy per Si atom -5581.941258 kJ/mol
# Density = 1.919027 g / cm^3
# Si number density = 19.234045 Si / 1000 Ang^3
#
#
#
# Elastic Constant Matrix: (Units=GPa)
#
#
# Indices 1 2 3 4 5 6 
#
# 1 43.5829 38.2147 21.3476 0.0000 0.0000 0.0000
# 2 38.2147 105.7809 44.0456 0.0000 0.0000 0.0000
# 3 21.3476 44.0456 56.7382 0.0000 0.0000 0.0000
# 4 0.0000 0.0000 0.0000 -14.9799 0.0000 0.0000
# 5 0.0000 0.0000 0.0000 0.0000 31.4534 0.0000
# 6 0.0000 0.0000 0.0000 0.0000 0.0000 20.2759
#
#
#
# Elastic Compliance Matrix: (Units=1/GPa)
#
#
# Indices 1 2 3 4 5 6 
#
# 1 0.034473 -0.010422 -0.004880 0.000000 0.000000 0.000000
# 2 -0.010422 0.017119 -0.009369 0.000000 0.000000 0.000000
# 3 -0.004880 -0.009369 0.026734 0.000000 0.000000 0.000000
# 4 0.000000 0.000000 0.000000 -0.066756 0.000000 0.000000
# 5 0.000000 0.000000 0.000000 0.000000 0.031793 0.000000
# 6 0.000000 0.000000 0.000000 0.000000 0.000000 0.049320
#
#
# Mechanical properties :
#
#
# Convention : Reuss Voigt Hill
#
# Bulk Modulus (GPa) = 34.49999 45.92419 40.21209
# Shear Modulus (GPa) = 32.96285 14.18282 23.57284
#
# Velocity S-wave (km/s) = 4.14427 2.71842 3.50462
# Velocity P-wave (km/s) = 6.39342 5.81218 6.10972
#
# Compressibility (1/GPa) = 0.02898552
#
# Stress axis : x y z
#
# Youngs Moduli (GPa) = 29.00790 58.41294 37.40605
#
# Poissons Ratio (x) = 0.60878 0.18254
# Poissons Ratio (y) = 0.30232 0.35044
# Poissons Ratio (z) = 0.14156 0.54724
#
# Static dielectric constant tensor:
#      x y z
#    x 1.653350 0.000000 0.000000 
#    y 0.000000 1.717490 0.000000 
#    z 0.000000 0.000000 1.645880 
# 
# From -- ./inp_files/22386.got.cif
#   From: 2010.05.17/outbox.cif.g08.bks.cpg/sg51_12_cif.got.tgz:22386.got - 2010.06.03 11:52:47.
