data_PCOD9404417
_publ_section_title
;
Structure prediction by ZEFSAII (Michael W. Deem and Ramdas Pophale) SiO2 
 PCOD9404417
Probable space group: P M M A
;
_chemical_formula_sum "Si O2"
_cell_formula_units_Z 36
_cell_length_a 9.828708
_cell_length_b 11.096873
_cell_length_c 18.304384
_cell_angle_alpha 90.000000
_cell_angle_beta 90.000000
_cell_angle_gamma 90.000000
_cell_volume 1996.421171
_symmetry_space_group_name_H-M "P M M A"
_symmetry_group_IT_number 51
_symmetry_cell_setting 'orthorhombic'
loop_
_space_group_symop_operation_xyz
x,y,z
1/2-x,-y,z
1/2+x,-y,-z
-x,y,-z
-x,-y,-z
1/2+x,y,-z
1/2-x,y,z
x,-y,z
loop_
_atom_site_type_symbol
_atom_site_label
_atom_site_fract_x
_atom_site_fract_y
_atom_site_fract_z
Si Si1 0.480116 0.255324 0.848114
Si Si2 0.750000 0.140467 0.884943
Si Si3 0.094069 0.145978 0.433116
Si Si4 0.750000 0.145690 0.050742
Si Si5 0.902822 0.858435 0.297646
Si Si6 0.582048 0.500000 0.922408
O O1 0.617057 0.179152 0.843566
O O2 0.381264 0.197175 0.908404
O O3 0.411155 0.233076 0.770129
O O4 0.529032 0.384757 0.876602
O O5 0.750000 0.000000 0.894980
O O6 0.750000 0.191241 0.967491
O O7 0.250000 0.189538 0.435139
O O8 0.000000 0.189190 0.500000
O O9 0.015924 0.171071 0.357627
O O10 0.099385 0.000000 0.438635
O O11 0.750000 0.000000 0.054333
O O12 0.750000 0.852571 0.329774
O O13 0.920293 0.000000 0.273720
O O14 0.750000 0.500000 0.930021
O O15 0.500000 0.500000 0.000000
#
# Coordination Sequence:
#
# PCOD9404417 Si02
#       6
#     8   4   8   4   8   4
#     4  12  24  39  59  83 115 150 198 246 297 354
#     4  11  22  35  57  83 112 147 185 240 301 360
#     4   9  17  29  49  79 116 157 194 228 277 344
#     4  11  22  39  59  85 114 147 187 236 299 364
#     4  10  20  35  55  82 118 154 190 238 293 349
#     4  12  28  46  64  82 109 152 205 258 302 354
#
# _framework density 18.032267000000001
#
# number of rings (size 3 to 8) (size 9 to 14) (size 15 to 20)
#    0.000    1.333    2.222    4.667    3.111    4.444 
#    0.000    0.000    0.000    0.000    0.000    0.778 
#    0.000    0.000    0.000    0.000    0.000    0.000 
#
# Total GULP energy -200824.300989 kJ/mol
# GULP energy per Si atom -5578.452805 kJ/mol
# Density = 1.799122 g / cm^3
# Si number density = 18.032267 Si / 1000 Ang^3
#
#
#
# Elastic Constant Matrix: (Units=GPa)
#
#
# Indices 1 2 3 4 5 6 
#
# 1 148.0712 27.5208 34.4074 0.0000 0.0000 0.0000
# 2 27.5208 64.9743 22.0260 0.0000 0.0000 0.0000
# 3 34.4074 22.0260 74.0730 0.0000 0.0000 0.0000
# 4 0.0000 0.0000 0.0000 9.3736 0.0000 0.0000
# 5 0.0000 0.0000 0.0000 0.0000 31.0083 0.0000
# 6 0.0000 0.0000 0.0000 0.0000 0.0000 20.9815
#
#
#
# Elastic Compliance Matrix: (Units=1/GPa)
#
#
# Indices 1 2 3 4 5 6 
#
# 1 0.007876 -0.002331 -0.002965 0.000000 0.000000 0.000000
# 2 -0.002331 0.017806 -0.004212 0.000000 0.000000 0.000000
# 3 -0.002965 -0.004212 0.016130 0.000000 0.000000 0.000000
# 4 0.000000 0.000000 0.000000 0.106683 0.000000 0.000000
# 5 0.000000 0.000000 0.000000 0.000000 0.032249 0.000000
# 6 0.000000 0.000000 0.000000 0.000000 0.000000 0.047661
#
#
# Mechanical properties :
#
#
# Convention : Reuss Voigt Hill
#
# Bulk Modulus (GPa) = 43.86817 50.55856 47.21337
# Shear Modulus (GPa) = 19.60635 25.81697 22.71166
#
# Velocity S-wave (km/s) = 3.30099 3.78790 3.55280
# Velocity P-wave (km/s) = 6.23772 6.87238 6.56272
#
# Compressibility (1/GPa) = 0.02279557
#
# Stress axis : x y z
#
# Youngs Moduli (GPa) = 126.97224 56.16163 61.99598
#
# Poissons Ratio (x) = 0.13089 0.18384
# Poissons Ratio (y) = 0.29593 0.26113
# Poissons Ratio (z) = 0.37651 0.23656
#
# Static dielectric constant tensor:
#      x y z
#    x 1.652750 0.000000 0.000000 
#    y 0.000000 1.606170 0.000000 
#    z 0.000000 0.000000 1.631160 
# 
# From -- ./inp_files/31331.got.cif
#   From: 2010.05.17/outbox.cif.g08.bks.cpg/sg51_16_cif.got.tgz:31331.got - 2010.06.03 11:52:47.
