data_PCOD9404318
_publ_section_title
;
Structure prediction by ZEFSAII (Michael W. Deem and Ramdas Pophale) SiO2 
 PCOD9404318
Probable space group: P M M A
;
_chemical_formula_sum "Si O2"
_cell_formula_units_Z 48
_cell_length_a 16.279201
_cell_length_b 9.153112
_cell_length_c 18.474253
_cell_angle_alpha 90.000000
_cell_angle_beta 90.000000
_cell_angle_gamma 90.000000
_cell_volume 2752.762535
_symmetry_space_group_name_H-M "P M M A"
_symmetry_group_IT_number 51
_symmetry_cell_setting 'orthorhombic'
loop_
_space_group_symop_operation_xyz
x,y,z
1/2-x,-y,z
1/2+x,-y,-z
-x,y,-z
-x,-y,-z
1/2+x,y,-z
1/2-x,y,z
x,-y,z
loop_
_atom_site_type_symbol
_atom_site_label
_atom_site_fract_x
_atom_site_fract_y
_atom_site_fract_z
Si Si1 0.913268 0.676103 0.461235
Si Si2 0.155257 0.328371 0.827410
Si Si3 0.250000 0.677278 0.450394
Si Si4 0.750000 0.675165 0.717351
Si Si5 0.983000 0.825182 0.083288
Si Si6 0.408754 0.172834 0.219266
Si Si7 0.423363 0.826373 0.693773
O O1 0.909594 0.500000 0.452090
O O2 0.833627 0.721531 0.508350
O O3 0.912423 0.753123 0.383750
O O4 0.000000 0.710026 0.500000
O O5 0.250000 0.310936 0.847334
O O6 0.137380 0.500000 0.818466
O O7 0.095679 0.258787 0.886673
O O8 0.136499 0.246391 0.752360
O O9 0.250000 0.500000 0.449937
O O10 0.250000 0.724766 0.366824
O O11 0.750000 0.500000 0.718413
O O12 0.830740 0.736067 0.756373
O O13 0.056880 0.790876 0.139180
O O14 0.969078 0.000000 0.089622
O O15 0.000000 0.790546 0.000000
O O16 0.485008 0.198486 0.274000
O O17 0.389483 0.000000 0.220938
O O18 0.410270 0.000000 0.690340
#
# Coordination Sequence:
#
# PCOD9404318 Si02
#       7
#     8   8   4   4   8   8   8
#     4  10  20  35  54  76 107 146 185 231 285 337
#     4  10  21  36  56  83 113 147 183 224 276 330
#     4   9  20  35  51  75 106 141 184 229 275 328
#     4  11  21  35  57  81 106 141 190 231 263 322
#     4   9  19  38  61  84 112 146 184 223 270 328
#     4   9  19  36  56  79 109 144 179 223 274 320
#     4  10  21  36  56  80 109 144 187 233 276 333
#
# _framework density 17.43703
#
# number of rings (size 3 to 8) (size 9 to 14) (size 15 to 20)
#    0.000    2.333    0.000    3.250    1.167    6.667 
#    1.500    1.667    0.000    0.000    0.000    0.000 
#    0.000    0.000    0.000    0.000    0.000    0.000 
#
# Total GULP energy -267885.959013 kJ/mol
# GULP energy per Si atom -5580.957479 kJ/mol
# Density = 1.739734 g / cm^3
# Si number density = 17.437030 Si / 1000 Ang^3
#
#
#
# Elastic Constant Matrix: (Units=GPa)
#
#
# Indices 1 2 3 4 5 6 
#
# 1 124.6286 65.1610 89.5569 0.0000 0.0000 0.0000
# 2 65.1610 53.8303 68.0609 0.0000 0.0000 0.0000
# 3 89.5569 68.0609 164.6014 0.0000 0.0000 0.0000
# 4 0.0000 0.0000 0.0000 33.4207 0.0000 0.0000
# 5 0.0000 0.0000 0.0000 0.0000 9.5243 0.0000
# 6 0.0000 0.0000 0.0000 0.0000 0.0000 26.0839
#
#
#
# Elastic Compliance Matrix: (Units=1/GPa)
#
#
# Indices 1 2 3 4 5 6 
#
# 1 0.022174 -0.024283 -0.002024 0.000000 0.000000 0.000000
# 2 -0.024283 0.065520 -0.013880 0.000000 0.000000 0.000000
# 3 -0.002024 -0.013880 0.012916 0.000000 0.000000 0.000000
# 4 0.000000 0.000000 0.000000 0.029922 0.000000 0.000000
# 5 0.000000 0.000000 0.000000 0.000000 0.104995 0.000000
# 6 0.000000 0.000000 0.000000 0.000000 0.000000 0.038338
#
#
# Mechanical properties :
#
#
# Convention : Reuss Voigt Hill
#
# Bulk Modulus (GPa) = 49.41501 87.62423 68.51962
# Shear Modulus (GPa) = 13.85103 21.82453 17.83778
#
# Velocity S-wave (km/s) = 2.82147 3.54166 3.20188
# Velocity P-wave (km/s) = 6.24619 8.19057 7.28355
#
# Compressibility (1/GPa) = 0.02023677
#
# Stress axis : x y z
#
# Youngs Moduli (GPa) = 45.09731 15.26242 77.42419
#
# Poissons Ratio (x) = 0.37061 0.15671
# Poissons Ratio (y) = 1.09508 1.07466
# Poissons Ratio (z) = 0.09128 0.21185
#
# Static dielectric constant tensor:
#      x y z
#    x 1.580670 0.000000 0.000000 
#    y 0.000000 1.577160 0.000000 
#    z 0.000000 0.000000 1.571810 
# 
# From -- ./inp_files/29499.got.cif
#   From: 2010.05.17/outbox.cif.g08.bks.cpg/sg51_15_cif.got.tgz:29499.got - 2010.06.03 11:52:47.
