data_PCOD9404940
_publ_section_title
;
Structure prediction by ZEFSAII (Michael W. Deem and Ramdas Pophale) SiO2 
 PCOD9404940
Probable space group: P M M A
;
_chemical_formula_sum "Si O2"
_cell_formula_units_Z 40
_cell_length_a 28.224657
_cell_length_b 10.667034
_cell_length_c 6.144898
_cell_angle_alpha 90.000000
_cell_angle_beta 90.000000
_cell_angle_gamma 90.000000
_cell_volume 1850.065185
_symmetry_space_group_name_H-M "P M M A"
_symmetry_group_IT_number 51
_symmetry_cell_setting 'orthorhombic'
loop_
_space_group_symop_operation_xyz
x,y,z
1/2-x,-y,z
1/2+x,-y,-z
-x,y,-z
-x,-y,-z
1/2+x,y,-z
1/2-x,y,z
x,-y,z
loop_
_atom_site_type_symbol
_atom_site_label
_atom_site_fract_x
_atom_site_fract_y
_atom_site_fract_z
Si Si1 0.456631 0.360896 0.168599
Si Si2 0.802168 0.360684 0.478675
Si Si3 0.621158 0.265282 0.147325
Si Si4 0.330370 0.137559 0.226490
Si Si5 0.568850 0.141170 0.525531
O O1 0.456779 0.500000 0.271416
O O2 0.458755 0.247306 0.339574
O O3 0.500000 0.354317 0.000000
O O4 0.408175 0.344230 0.029670
O O5 0.750000 0.353191 0.371381
O O6 0.806690 0.500000 0.575535
O O7 0.845347 0.340942 0.311714
O O8 0.804345 0.252602 0.659283
O O9 0.582088 0.189932 0.286425
O O10 0.655738 0.171142 0.019281
O O11 0.380487 0.133277 0.352789
O O12 0.308190 0.000000 0.244562
O O13 0.549773 0.000000 0.526395
#
# Coordination Sequence:
#
# PCOD9404940 Si02
#       5
#     8   8   8   8   8
#     4  10  22  38  56  83 118 154 194 239 287 341
#     4  10  22  38  56  82 113 144 184 232 281 340
#     4  10  20  36  61  84 110 149 190 235 287 340
#     4   9  19  36  57  81 110 143 180 226 279 334
#     4   9  19  36  58  83 111 144 185 231 277 330
#
# _framework density 21.62086
#
# number of rings (size 3 to 8) (size 9 to 14) (size 15 to 20)
#    0.000    2.400    0.000    1.200    0.000   12.800 
#    0.000    5.000    0.000    0.000    0.000    0.000 
#    0.000    0.000    0.000    0.000    0.000    0.000 
#
# Total GULP energy -223240.288328 kJ/mol
# GULP energy per Si atom -5581.007208 kJ/mol
# Density = 2.157165 g / cm^3
# Si number density = 21.620860 Si / 1000 Ang^3
#
#
#
# Elastic Constant Matrix: (Units=GPa)
#
#
# Indices 1 2 3 4 5 6 
#
# 1 90.5842 45.4667 12.0379 0.0000 0.0000 0.0000
# 2 45.4667 203.0165 48.8816 0.0000 0.0000 0.0000
# 3 12.0379 48.8816 63.5660 0.0000 0.0000 0.0000
# 4 0.0000 0.0000 0.0000 46.3503 0.0000 0.0000
# 5 0.0000 0.0000 0.0000 0.0000 21.5897 0.0000
# 6 0.0000 0.0000 0.0000 0.0000 0.0000 38.3636
#
#
#
# Elastic Compliance Matrix: (Units=1/GPa)
#
#
# Indices 1 2 3 4 5 6 
#
# 1 0.012441 -0.002723 -0.000262 0.000000 0.000000 0.000000
# 2 -0.002723 0.006641 -0.004591 0.000000 0.000000 0.000000
# 3 -0.000262 -0.004591 0.019312 0.000000 0.000000 0.000000
# 4 0.000000 0.000000 0.000000 0.021575 0.000000 0.000000
# 5 0.000000 0.000000 0.000000 0.000000 0.046318 0.000000
# 6 0.000000 0.000000 0.000000 0.000000 0.000000 0.026066
#
#
# Mechanical properties :
#
#
# Convention : Reuss Voigt Hill
#
# Bulk Modulus (GPa) = 43.02672 63.32656 53.17664
# Shear Modulus (GPa) = 32.20541 37.97941 35.09241
#
# Velocity S-wave (km/s) = 3.86366 4.19574 4.03312
# Velocity P-wave (km/s) = 6.31249 7.26811 6.80709
#
# Compressibility (1/GPa) = 0.02324137
#
# Stress axis : x y z
#
# Youngs Moduli (GPa) = 80.37871 150.57907 51.78163
#
# Poissons Ratio (x) = 0.41005 0.01356
# Poissons Ratio (y) = 0.21889 0.23774
# Poissons Ratio (z) = 0.02106 0.69134
#
# Static dielectric constant tensor:
#      x y z
#    x 1.802370 0.000000 0.000000 
#    y 0.000000 1.798400 0.000000 
#    z 0.000000 0.000000 1.773080 
# 
# From -- ./inp_files/3884.got.cif
#   From: 2010.05.17/outbox.cif.g08.bks.cpg/sg51_2_cif.got.tgz:3884.got - 2010.06.03 11:52:47.
