data_PCOD9404698
_publ_section_title
;
Structure prediction by ZEFSAII (Michael W. Deem and Ramdas Pophale) SiO2 
 PCOD9404698
Probable space group: P M M A
;
_chemical_formula_sum "Si O2"
_cell_formula_units_Z 40
_cell_length_a 8.636047
_cell_length_b 10.239946
_cell_length_c 25.462986
_cell_angle_alpha 90.000000
_cell_angle_beta 90.000000
_cell_angle_gamma 90.000000
_cell_volume 2251.759455
_symmetry_space_group_name_H-M "P M M A"
_symmetry_group_IT_number 51
_symmetry_cell_setting 'orthorhombic'
loop_
_space_group_symop_operation_xyz
x,y,z
1/2-x,-y,z
1/2+x,-y,-z
-x,y,-z
-x,-y,-z
1/2+x,y,-z
1/2-x,y,z
x,-y,z
loop_
_atom_site_type_symbol
_atom_site_label
_atom_site_fract_x
_atom_site_fract_y
_atom_site_fract_z
Si Si1 0.938821 0.652174 0.737889
Si Si2 0.933952 0.500000 0.441802
Si Si3 0.937221 0.000000 0.559489
Si Si4 0.437291 0.257930 0.377503
Si Si5 0.060219 0.151598 0.170241
Si Si6 0.427297 0.158762 0.054471
O O1 0.750000 0.649909 0.738707
O O2 0.988995 0.500000 0.740637
O O3 0.985449 0.718538 0.682766
O O4 0.988756 0.744858 0.785852
O O5 0.250000 0.500000 0.556721
O O6 0.996452 0.624683 0.411226
O O7 0.000000 0.500000 0.500000
O O8 0.985390 0.874465 0.593513
O O9 0.000000 0.000000 0.500000
O O10 0.750000 0.000000 0.556047
O O11 0.250000 0.262401 0.378168
O O12 0.250000 0.151382 0.168840
O O13 0.004735 0.191250 0.111719
O O14 0.015637 0.000000 0.180914
O O15 0.250000 0.201846 0.054451
O O16 0.429324 0.000000 0.053361
O O17 0.500000 0.204908 0.000000
#
# Coordination Sequence:
#
# PCOD9404698 Si02
#       6
#     8   4   4   8   8   8
#     4   9  16  27  46  70  97 126 157 198 243 286
#     4  12  24  38  58  80 102 134 171 210 251 294
#     4  10  22  36  54  78 106 134 161 198 250 300
#     4  10  20  36  55  80 107 133 167 207 250 303
#     4   8  14  23  39  66  95 122 157 199 241 284
#     4   8  13  22  37  60  89 119 153 194 236 280
#
# _framework density 17.763887
#
# number of rings (size 3 to 8) (size 9 to 14) (size 15 to 20)
#    0.000    2.800    1.000    2.700    1.400    2.400 
#    0.000    0.000    0.000    1.800    0.000    0.000 
#    0.000    0.000    0.000    0.000    0.000    0.000 
#
# Total GULP energy -222787.535564 kJ/mol
# GULP energy per Si atom -5569.688389 kJ/mol
# Density = 1.772346 g / cm^3
# Si number density = 17.763887 Si / 1000 Ang^3
#
#
#
# Elastic Constant Matrix: (Units=GPa)
#
#
# Indices 1 2 3 4 5 6 
#
# 1 -4.2188 19.0666 25.9436 0.0000 0.0000 0.0000
# 2 19.0666 142.3366 106.6467 0.0000 0.0000 0.0000
# 3 25.9436 106.6467 222.6224 0.0000 0.0000 0.0000
# 4 0.0000 0.0000 0.0000 29.4395 0.0000 0.0000
# 5 0.0000 0.0000 0.0000 0.0000 21.7298 0.0000
# 6 0.0000 0.0000 0.0000 0.0000 0.0000 22.0151
#
#
#
# Elastic Compliance Matrix: (Units=1/GPa)
#
#
# Indices 1 2 3 4 5 6 
#
# 1 -0.129447 0.009417 0.010574 0.000000 0.000000 0.000000
# 2 0.009417 0.010274 -0.006019 0.000000 0.000000 0.000000
# 3 0.010574 -0.006019 0.006143 0.000000 0.000000 0.000000
# 4 0.000000 0.000000 0.000000 0.033968 0.000000 0.000000
# 5 0.000000 0.000000 0.000000 0.000000 0.046020 0.000000
# 6 0.000000 0.000000 0.000000 0.000000 0.000000 0.045423
#
#
# Mechanical properties :
#
#
# Convention : Reuss Voigt Hill
#
# Bulk Modulus (GPa) = -11.75283 73.78378 31.01547
# Shear Modulus (GPa) = -113.82890 28.57578 -42.62656
#
# Velocity S-wave (km/s) = -8.01361 4.01514 -4.90390
# Velocity P-wave (km/s) = 9.60492 7.94488 3.81663
#
# Compressibility (1/GPa) = -0.08508586
#
# Stress axis : x y z
#
# Youngs Moduli (GPa) = -7.72514 97.33274 162.78264
#
# Poissons Ratio (x) = -0.91663 -1.72125
# Poissons Ratio (y) = 0.07275 0.97983
# Poissons Ratio (z) = 0.08168 0.58587
#
# Static dielectric constant tensor:
#      x y z
#    x 1.616520 0.000000 0.000000 
#    y 0.000000 1.572180 0.000000 
#    z 0.000000 0.000000 1.622440 
# 
# From -- ./inp_files/32863.got.cif
#   From: 2010.05.17/outbox.cif.g08.bks.cpg/sg51_17_cif.got.tgz:32863.got - 2010.06.03 11:52:47.
