data_PCOD9404197
_publ_section_title
;
Structure prediction by ZEFSAII (Michael W. Deem and Ramdas Pophale) SiO2 
 PCOD9404197
Probable space group: P M M A
;
_chemical_formula_sum "Si O2"
_cell_formula_units_Z 48
_cell_length_a 9.979691
_cell_length_b 7.830411
_cell_length_c 32.796973
_cell_angle_alpha 90.000000
_cell_angle_beta 90.000000
_cell_angle_gamma 90.000000
_cell_volume 2562.922150
_symmetry_space_group_name_H-M "P M M A"
_symmetry_group_IT_number 51
_symmetry_cell_setting 'orthorhombic'
loop_
_space_group_symop_operation_xyz
x,y,z
1/2-x,-y,z
1/2+x,-y,-z
-x,y,-z
-x,-y,-z
1/2+x,y,-z
1/2-x,y,z
x,-y,z
loop_
_atom_site_type_symbol
_atom_site_label
_atom_site_fract_x
_atom_site_fract_y
_atom_site_fract_z
Si Si1 0.094299 0.000000 0.322842
Si Si2 0.592003 0.308843 0.183408
Si Si3 0.406818 0.207239 0.538171
Si Si4 0.404563 0.302982 0.387085
Si Si5 0.488355 0.802196 0.098769
Si Si6 0.750000 0.208249 0.958421
Si Si7 0.089816 0.000000 0.756087
Si Si8 0.750000 0.700281 0.052455
O O1 0.074055 0.166534 0.351224
O O2 0.994792 0.000000 0.284976
O O3 0.250000 0.000000 0.309447
O O4 0.750000 0.284751 0.172625
O O5 0.575939 0.500000 0.199726
O O6 0.509445 0.288222 0.141856
O O7 0.558514 0.165405 0.216314
O O8 0.500000 0.260309 0.500000
O O9 0.250000 0.261658 0.535602
O O10 0.485531 0.270944 0.578063
O O11 0.406203 0.000000 0.539126
O O12 0.250000 0.275074 0.402327
O O13 0.413038 0.500000 0.373487
O O14 0.375687 0.735561 0.068424
O O15 0.622747 0.786634 0.072844
O O16 0.458805 0.000000 0.107900
O O17 0.750000 0.000000 0.961727
O O18 0.750000 0.277879 0.003943
O O19 0.250000 0.000000 0.747895
O O20 0.750000 0.500000 0.062947
#
# Coordination Sequence:
#
# PCOD9404197 Si02
#       8
#     4   8   8   8   8   4   4   4
#     4  10  22  42  63  89 122 155 190 243 305 373
#     4  10  20  37  61  89 115 146 191 234 284 349
#     4  10  20  34  56  87 124 167 216 264 310 359
#     4  10  21  38  62  88 119 163 208 250 302 361
#     4  11  21  38  61  82 112 152 194 237 283 338
#     4  10  24  40  54  82 116 152 192 238 284 335
#     4  10  22  40  64  89 112 148 187 237 293 350
#     4  12  24  36  56  84 114 154 198 237 277 336
#
# _framework density 18.728621
#
# number of rings (size 3 to 8) (size 9 to 14) (size 15 to 20)
#    0.000    1.667    2.500    2.250    0.000    6.000 
#    1.500    0.000    0.000    0.000    0.000    0.000 
#    0.000    0.000    0.000    0.000    0.000    0.000 
#
# Total GULP energy -268025.661694 kJ/mol
# GULP energy per Si atom -5583.867952 kJ/mol
# Density = 1.868599 g / cm^3
# Si number density = 18.728621 Si / 1000 Ang^3
#
#
#
# Elastic Constant Matrix: (Units=GPa)
#
#
# Indices 1 2 3 4 5 6 
#
# 1 113.8404 22.5640 68.9627 0.0000 0.0000 0.0000
# 2 22.5640 87.8685 45.6489 0.0000 0.0000 0.0000
# 3 68.9627 45.6489 122.7290 0.0000 0.0000 0.0000
# 4 0.0000 0.0000 0.0000 6.6516 0.0000 0.0000
# 5 0.0000 0.0000 0.0000 0.0000 62.8390 0.0000
# 6 0.0000 0.0000 0.0000 0.0000 0.0000 11.3032
#
#
#
# Elastic Compliance Matrix: (Units=1/GPa)
#
#
# Indices 1 2 3 4 5 6 
#
# 1 0.013341 0.000581 -0.007713 0.000000 0.000000 0.000000
# 2 0.000581 0.014132 -0.005583 0.000000 0.000000 0.000000
# 3 -0.007713 -0.005583 0.014558 0.000000 0.000000 0.000000
# 4 0.000000 0.000000 0.000000 0.150340 0.000000 0.000000
# 5 0.000000 0.000000 0.000000 0.000000 0.015914 0.000000
# 6 0.000000 0.000000 0.000000 0.000000 0.000000 0.088470
#
#
# Mechanical properties :
#
#
# Convention : Reuss Voigt Hill
#
# Bulk Modulus (GPa) = 60.23213 66.53214 63.38213
# Shear Modulus (GPa) = 15.25698 28.64292 21.94995
#
# Velocity S-wave (km/s) = 2.85728 3.91495 3.42716
# Velocity P-wave (km/s) = 6.56625 7.48580 7.04105
#
# Compressibility (1/GPa) = 0.01660244
#
# Stress axis : x y z
#
# Youngs Moduli (GPa) = 74.95506 70.76255 68.68899
#
# Poissons Ratio (x) = -0.04111 0.52978
# Poissons Ratio (y) = -0.04354 0.38347
# Poissons Ratio (z) = 0.57811 0.39505
#
# Static dielectric constant tensor:
#      x y z
#    x 1.642520 0.000000 0.000000 
#    y 0.000000 1.671220 0.000000 
#    z 0.000000 0.000000 1.598150 
# 
# From -- ./inp_files/37283.got.cif
#   From: 2010.05.17/outbox.cif.g08.bks.cpg/sg51_19_cif.got.tgz:37283.got - 2010.06.03 11:52:47.
