data_PCOD9404033
_publ_section_title
;
Structure prediction by ZEFSAII (Michael W. Deem and Ramdas Pophale) SiO2 
 PCOD9404033
Probable space group: P M M A
;
_chemical_formula_sum "Si O2"
_cell_formula_units_Z 48
_cell_length_a 9.654374
_cell_length_b 8.634488
_cell_length_c 29.432913
_cell_angle_alpha 90.000000
_cell_angle_beta 90.000000
_cell_angle_gamma 90.000000
_cell_volume 2453.544594
_symmetry_space_group_name_H-M "P M M A"
_symmetry_group_IT_number 51
_symmetry_cell_setting 'orthorhombic'
loop_
_space_group_symop_operation_xyz
x,y,z
1/2-x,-y,z
1/2+x,-y,-z
-x,y,-z
-x,-y,-z
1/2+x,y,-z
1/2-x,y,z
x,-y,z
loop_
_atom_site_type_symbol
_atom_site_label
_atom_site_fract_x
_atom_site_fract_y
_atom_site_fract_z
Si Si1 0.750000 0.685138 0.967312
Si Si2 0.911694 0.812555 0.632586
Si Si3 0.964859 0.183417 0.896976
Si Si4 0.750000 0.686032 0.072479
Si Si5 0.910138 0.687552 0.283747
Si Si6 0.096878 0.314770 0.200994
Si Si7 0.588468 0.188849 0.455935
O O1 0.750000 0.500000 0.967041
O O2 0.620550 0.745076 0.938640
O O3 0.750000 0.735997 0.019552
O O4 0.750000 0.763031 0.630404
O O5 0.992160 0.750545 0.676485
O O6 0.001930 0.764245 0.588642
O O7 0.911630 0.000000 0.633672
O O8 0.911054 0.237467 0.848096
O O9 0.117753 0.247146 0.902700
O O10 0.957407 0.000000 0.900013
O O11 0.750000 0.500000 0.073780
O O12 0.750000 0.737462 0.288438
O O13 0.912758 0.500000 0.285149
O O14 0.977988 0.735776 0.235743
O O15 0.250000 0.284363 0.220996
O O16 0.084490 0.500000 0.194449
O O17 0.500000 0.237601 0.500000
O O18 0.750000 0.239839 0.456009
O O19 0.591945 0.000000 0.456403
#
# Coordination Sequence:
#
# PCOD9404033 Si02
#       7
#     4   8   8   4   8   8   8
#     4  11  23  43  67  91 119 163 209 241 286 355
#     4  10  20  34  54  82 115 152 194 242 296 351
#     4  12  25  40  62  94 127 156 193 249 308 352
#     4  11  25  43  65  89 121 163 207 245 286 355
#     4  10  22  39  60  87 115 149 193 240 290 347
#     4  10  21  39  62  84 112 153 197 236 283 353
#     4   9  16  27  46  74 110 151 196 245 297 354
#
# _framework density 19.563531999999999
#
# number of rings (size 3 to 8) (size 9 to 14) (size 15 to 20)
#    0.000    1.667    0.833    4.000    1.167    8.000 
#    0.000    0.000    0.000    0.500    0.000    0.000 
#    0.000    0.000    0.000    0.000    0.000    0.000 
#
# Total GULP energy -268139.581369 kJ/mol
# GULP energy per Si atom -5586.241279 kJ/mol
# Density = 1.951900 g / cm^3
# Si number density = 19.563532 Si / 1000 Ang^3
#
#
#
# Elastic Constant Matrix: (Units=GPa)
#
#
# Indices 1 2 3 4 5 6 
#
# 1 175.2141 27.0142 53.6014 0.0000 0.0000 0.0000
# 2 27.0142 23.0694 23.9123 0.0000 0.0000 0.0000
# 3 53.6014 23.9123 109.7660 0.0000 0.0000 0.0000
# 4 0.0000 0.0000 0.0000 24.5250 0.0000 0.0000
# 5 0.0000 0.0000 0.0000 0.0000 38.5429 0.0000
# 6 0.0000 0.0000 0.0000 0.0000 0.0000 25.2515
#
#
#
# Elastic Compliance Matrix: (Units=1/GPa)
#
#
# Indices 1 2 3 4 5 6 
#
# 1 0.007360 -0.006320 -0.002217 0.000000 0.000000 0.000000
# 2 -0.006320 0.061418 -0.010293 0.000000 0.000000 0.000000
# 3 -0.002217 -0.010293 0.012435 0.000000 0.000000 0.000000
# 4 0.000000 0.000000 0.000000 0.040775 0.000000 0.000000
# 5 0.000000 0.000000 0.000000 0.000000 0.025945 0.000000
# 6 0.000000 0.000000 0.000000 0.000000 0.000000 0.039602
#
#
# Mechanical properties :
#
#
# Convention : Reuss Voigt Hill
#
# Bulk Modulus (GPa) = 22.96130 57.45613 40.20871
# Shear Modulus (GPa) = 20.85819 31.23201 26.04510
#
# Velocity S-wave (km/s) = 3.26878 3.99988 3.65267
# Velocity P-wave (km/s) = 5.09988 7.12494 6.19571
#
# Compressibility (1/GPa) = 0.04355155
#
# Stress axis : x y z
#
# Youngs Moduli (GPa) = 135.86855 16.28186 80.41554
#
# Poissons Ratio (x) = 0.10291 0.17830
# Poissons Ratio (y) = 0.85874 0.82775
# Poissons Ratio (z) = 0.30125 0.16760
#
# Static dielectric constant tensor:
#      x y z
#    x 1.582830 0.000000 0.000000 
#    y 0.000000 1.665020 0.000000 
#    z 0.000000 0.000000 1.658070 
# 
# From -- ./inp_files/37129.got.cif
#   From: 2010.05.17/outbox.cif.g08.bks.cpg/sg51_19_cif.got.tgz:37129.got - 2010.06.03 11:52:47.
