data_PCOD9404543
_publ_section_title
;
Structure prediction by ZEFSAII (Michael W. Deem and Ramdas Pophale) SiO2 
 PCOD9404543
Probable space group: P M M A
;
_chemical_formula_sum "Si O2"
_cell_formula_units_Z 40
_cell_length_a 9.918742
_cell_length_b 9.123802
_cell_length_c 24.528018
_cell_angle_alpha 90.000000
_cell_angle_beta 90.000000
_cell_angle_gamma 90.000000
_cell_volume 2219.703168
_symmetry_space_group_name_H-M "P M M A"
_symmetry_group_IT_number 51
_symmetry_cell_setting 'orthorhombic'
loop_
_space_group_symop_operation_xyz
x,y,z
1/2-x,-y,z
1/2+x,-y,-z
-x,y,-z
-x,-y,-z
1/2+x,y,-z
1/2-x,y,z
x,-y,z
loop_
_atom_site_type_symbol
_atom_site_label
_atom_site_fract_x
_atom_site_fract_y
_atom_site_fract_z
Si Si1 0.089217 0.827436 0.731831
Si Si2 0.406942 0.675993 0.847563
Si Si3 0.485406 0.329292 0.374156
Si Si4 0.750000 0.173451 0.560482
Si Si5 0.906698 0.321484 0.949267
Si Si6 0.750000 0.664701 0.448204
O O1 0.250000 0.811306 0.721391
O O2 0.064183 0.757294 0.790972
O O3 0.011154 0.743068 0.684398
O O4 0.057518 0.000000 0.731506
O O5 0.250000 0.706694 0.863318
O O6 0.416130 0.500000 0.839644
O O7 0.512711 0.718804 0.894337
O O8 0.447971 0.500000 0.368243
O O9 0.376851 0.241528 0.408618
O O10 0.621593 0.321464 0.409468
O O11 0.750000 0.223268 0.497715
O O12 0.750000 0.000000 0.564260
O O13 0.750000 0.272696 0.951425
O O14 0.903324 0.500000 0.950941
O O15 0.000000 0.273642 0.000000
O O16 0.750000 0.500000 0.472534
#
# Coordination Sequence:
#
# PCOD9404543 Si02
#       6
#     8   8   8   4   8   4
#     4  10  20  35  57  83 111 144 186 235 286 342
#     4   9  17  30  50  75 104 140 182 225 272 329
#     4  11  22  40  63  86 113 150 194 239 286 341
#     4  12  26  40  56  86 122 154 187 232 291 346
#     4   9  16  27  46  75 109 142 179 225 276 325
#     4  10  22  40  64  88 112 146 193 240 285 342
#
# _framework density 18.020427999999999
#
# number of rings (size 3 to 8) (size 9 to 14) (size 15 to 20)
#    0.000    2.000    1.000    3.300    0.000    7.200 
#    1.800    0.000    0.000    0.600    0.000    0.000 
#    0.000    0.000    0.000    0.000    0.000    0.000 
#
# Total GULP energy -223290.103816 kJ/mol
# GULP energy per Si atom -5582.252595 kJ/mol
# Density = 1.797941 g / cm^3
# Si number density = 18.020428 Si / 1000 Ang^3
#
#
#
# Elastic Constant Matrix: (Units=GPa)
#
#
# Indices 1 2 3 4 5 6 
#
# 1 99.5884 47.2056 51.4707 0.0000 0.0000 0.0000
# 2 47.2056 89.7036 57.2237 0.0000 0.0000 0.0000
# 3 51.4707 57.2237 118.9997 0.0000 0.0000 0.0000
# 4 0.0000 0.0000 0.0000 -17.3221 0.0000 0.0000
# 5 0.0000 0.0000 0.0000 0.0000 11.7404 0.0000
# 6 0.0000 0.0000 0.0000 0.0000 0.0000 19.8684
#
#
#
# Elastic Compliance Matrix: (Units=1/GPa)
#
#
# Indices 1 2 3 4 5 6 
#
# 1 0.014447 -0.005217 -0.003740 0.000000 0.000000 0.000000
# 2 -0.005217 0.017964 -0.006382 0.000000 0.000000 0.000000
# 3 -0.003740 -0.006382 0.013090 0.000000 0.000000 0.000000
# 4 0.000000 0.000000 0.000000 -0.057730 0.000000 0.000000
# 5 0.000000 0.000000 0.000000 0.000000 0.085176 0.000000
# 6 0.000000 0.000000 0.000000 0.000000 0.000000 0.050331
#
#
# Mechanical properties :
#
#
# Convention : Reuss Voigt Hill
#
# Bulk Modulus (GPa) = 67.46076 68.89907 68.17991
# Shear Modulus (GPa) = 31.46664 13.01679 22.24172
#
# Velocity S-wave (km/s) = 4.18325 2.69055 3.51700
# Velocity P-wave (km/s) = 7.80062 6.92596 7.37627
#
# Compressibility (1/GPa) = 0.01482343
#
# Stress axis : x y z
#
# Youngs Moduli (GPa) = 69.21774 55.66558 76.39314
#
# Poissons Ratio (x) = 0.29039 0.28573
# Poissons Ratio (y) = 0.36109 0.48756
# Poissons Ratio (z) = 0.25889 0.35527
#
# Static dielectric constant tensor:
#      x y z
#    x 1.631870 0.000000 0.000000 
#    y 0.000000 1.596830 0.000000 
#    z 0.000000 0.000000 1.585350 
# 
# From -- ./inp_files/36031.got.cif
#   From: 2010.05.17/outbox.cif.g08.bks.cpg/sg51_19_cif.got.tgz:36031.got - 2010.06.03 11:52:47.
