data_PCOD9404877
_publ_section_title
;
Structure prediction by ZEFSAII (Michael W. Deem and Ramdas Pophale) SiO2 
 PCOD9404877
Probable space group: P M M A
;
_chemical_formula_sum "Si O2"
_cell_formula_units_Z 64
_cell_length_a 8.599614
_cell_length_b 24.494398
_cell_length_c 15.324221
_cell_angle_alpha 90.000000
_cell_angle_beta 90.000000
_cell_angle_gamma 90.000000
_cell_volume 3227.930199
_symmetry_space_group_name_H-M "P M M A"
_symmetry_group_IT_number 51
_symmetry_cell_setting 'orthorhombic'
loop_
_space_group_symop_operation_xyz
x,y,z
1/2-x,-y,z
1/2+x,-y,-z
-x,y,-z
-x,-y,-z
1/2+x,y,-z
1/2-x,y,z
x,-y,z
loop_
_atom_site_type_symbol
_atom_site_label
_atom_site_fract_x
_atom_site_fract_y
_atom_site_fract_z
Si Si1 0.435323 0.845841 0.596123
Si Si2 0.561925 0.938363 0.722515
Si Si3 0.565699 0.559915 0.225363
Si Si4 0.563221 0.234243 0.904756
Si Si5 0.923849 0.435165 0.587114
Si Si6 0.937205 0.322494 0.229233
Si Si7 0.564683 0.726072 0.597044
Si Si8 0.563458 0.107585 0.906463
O O1 0.500000 0.859217 0.500000
O O2 0.250000 0.840045 0.592760
O O3 0.485526 0.892773 0.662337
O O4 0.508905 0.787433 0.620714
O O5 0.750000 0.932857 0.717079
O O6 0.516083 0.927408 0.822921
O O7 0.520617 0.000000 0.696624
O O8 0.750000 0.557565 0.210093
O O9 0.499790 0.500000 0.199271
O O10 0.532093 0.566553 0.328433
O O11 0.509027 0.618515 0.190783
O O12 0.750000 0.236815 0.903536
O O13 0.496100 0.273780 0.831471
O O14 0.515901 0.170880 0.891233
O O15 0.500000 0.250324 0.000000
O O16 0.750000 0.412998 0.603503
O O17 0.905209 0.500000 0.571305
O O18 0.000000 0.411390 0.500000
O O19 0.750000 0.322333 0.232645
O O20 0.001189 0.312754 0.326824
O O21 0.500000 0.715161 0.500000
O O22 0.750000 0.724595 0.594780
O O23 0.750000 0.106639 0.911268
O O24 0.500000 0.089573 0.000000
#
# Coordination Sequence:
#
# PCOD9404877 Si02
#       8
#     8   8   8   8   8   8   8   8
#     4  11  22  38  60  83 110 146 190 240 292 341
#     4  10  21  37  56  81 116 156 196 236 278 328
#     4   9  19  35  52  71 100 139 179 219 267 325
#     4  10  20  36  59  86 115 145 182 231 286 341
#     4   9  16  26  42  63  88 122 166 213 256 301
#     4  11  22  36  57  85 114 145 184 230 281 336
#     4  11  22  38  59  84 115 149 188 233 285 342
#     4   9  19  35  56  82 112 147 183 223 273 329
#
# _framework density 19.826947000000001
#
# number of rings (size 3 to 8) (size 9 to 14) (size 15 to 20)
#    0.000    2.000    0.000    4.875    0.000    5.750 
#    0.000    0.000    0.000    0.375    0.000    0.000 
#    0.000    0.000    0.000    0.000    0.000    0.000 
#
# Total GULP energy -357302.574213 kJ/mol
# GULP energy per Si atom -5582.852722 kJ/mol
# Density = 1.978182 g / cm^3
# Si number density = 19.826947 Si / 1000 Ang^3
#
#
#
# Elastic Constant Matrix: (Units=GPa)
#
#
# Indices 1 2 3 4 5 6 
#
# 1 66.4386 33.5635 17.4528 0.0000 0.0000 0.0000
# 2 33.5635 107.3525 35.6350 0.0000 0.0000 0.0000
# 3 17.4528 35.6350 45.8096 0.0000 0.0000 0.0000
# 4 0.0000 0.0000 0.0000 -73.8047 0.0000 0.0000
# 5 0.0000 0.0000 0.0000 0.0000 31.3886 0.0000
# 6 0.0000 0.0000 0.0000 0.0000 0.0000 12.9708
#
#
#
# Elastic Compliance Matrix: (Units=1/GPa)
#
#
# Indices 1 2 3 4 5 6 
#
# 1 0.018257 -0.004582 -0.003391 0.000000 0.000000 0.000000
# 2 -0.004582 0.013708 -0.008917 0.000000 0.000000 0.000000
# 3 -0.003391 -0.008917 0.030058 0.000000 0.000000 0.000000
# 4 0.000000 0.000000 0.000000 -0.013549 0.000000 0.000000
# 5 0.000000 0.000000 0.000000 0.000000 0.031859 0.000000
# 6 0.000000 0.000000 0.000000 0.000000 0.000000 0.077096
#
#
# Mechanical properties :
#
#
# Convention : Reuss Voigt Hill
#
# Bulk Modulus (GPa) = 35.40895 43.65592 39.53243
# Shear Modulus (GPa) = 24.92216 2.97424 13.94820
#
# Velocity S-wave (km/s) = 3.54924 1.22611 2.65523
# Velocity P-wave (km/s) = 5.89016 4.90620 5.42055
#
# Compressibility (1/GPa) = 0.02824145
#
# Stress axis : x y z
#
# Youngs Moduli (GPa) = 54.77271 72.95080 33.26874
#
# Poissons Ratio (x) = 0.33429 0.11282
# Poissons Ratio (y) = 0.25099 0.29667
# Poissons Ratio (z) = 0.18574 0.65053
#
# Static dielectric constant tensor:
#      x y z
#    x 1.682900 0.000000 0.000000 
#    y 0.000000 1.746370 0.000000 
#    z 0.000000 0.000000 1.687230 
# 
# From -- ./inp_files/22298.got.cif
#   From: 2010.05.17/outbox.cif.g08.bks.cpg/sg51_12_cif.got.tgz:22298.got - 2010.06.03 11:52:47.
