data_PCOD9404181
_publ_section_title
;
Structure prediction by ZEFSAII (Michael W. Deem and Ramdas Pophale) SiO2 
 PCOD9404181
Probable space group: P M M A
;
_chemical_formula_sum "Si O2"
_cell_formula_units_Z 40
_cell_length_a 9.411271
_cell_length_b 7.582888
_cell_length_c 30.025170
_cell_angle_alpha 90.000000
_cell_angle_beta 90.000000
_cell_angle_gamma 90.000000
_cell_volume 2142.734665
_symmetry_space_group_name_H-M "P M M A"
_symmetry_group_IT_number 51
_symmetry_cell_setting 'orthorhombic'
loop_
_space_group_symop_operation_xyz
x,y,z
1/2-x,-y,z
1/2+x,-y,-z
-x,y,-z
-x,-y,-z
1/2+x,y,-z
1/2-x,y,z
x,-y,z
loop_
_atom_site_type_symbol
_atom_site_label
_atom_site_fract_x
_atom_site_fract_y
_atom_site_fract_z
Si Si1 0.913222 0.786349 0.043360
Si Si2 0.579756 0.000000 0.797596
Si Si3 0.913308 0.715186 0.543351
Si Si4 0.418587 0.708021 0.632151
Si Si5 0.580422 0.000000 0.295460
Si Si6 0.915158 0.297596 0.867912
O O1 0.750000 0.727333 0.041728
O O2 0.990291 0.728956 0.088461
O O3 0.913632 0.000000 0.043002
O O4 0.000000 0.726197 0.000000
O O5 0.542535 0.168186 0.828139
O O6 0.750000 0.000000 0.790656
O O7 0.501349 0.000000 0.750805
O O8 0.750000 0.773351 0.542398
O O9 0.912983 0.500000 0.542316
O O10 0.000000 0.774610 0.500000
O O11 0.992610 0.764037 0.588871
O O12 0.250000 0.728903 0.622733
O O13 0.444377 0.500000 0.640566
O O14 0.453584 0.829415 0.674254
O O15 0.750000 0.000000 0.287449
O O16 0.750000 0.256832 0.879438
O O17 0.923131 0.500000 0.853580
#
# Coordination Sequence:
#
# PCOD9404181 Si02
#       6
#     8   4   8   8   4   8
#     4  10  20  34  56  85 117 153 189 225 269 321
#     4  10  22  40  59  80 109 140 175 226 280 328
#     4   9  16  27  47  76 108 142 178 215 258 311
#     4   9  18  34  54  76 105 139 175 218 265 313
#     4  10  22  38  57  80 105 136 177 222 272 328
#     4  10  21  38  60  84 111 146 186 227 274 326
#
# _framework density 18.667732999999998
#
# number of rings (size 3 to 8) (size 9 to 14) (size 15 to 20)
#    0.000    2.400    1.000    1.200    0.000    6.400 
#    0.000    0.500    0.000    0.000    0.000    0.000 
#    0.000    0.000    0.000    0.000    0.000    0.000 
#
# Total GULP energy -223383.355980 kJ/mol
# GULP energy per Si atom -5584.583899 kJ/mol
# Density = 1.862524 g / cm^3
# Si number density = 18.667733 Si / 1000 Ang^3
#
#
#
# Elastic Constant Matrix: (Units=GPa)
#
#
# Indices 1 2 3 4 5 6 
#
# 1 111.1251 52.2891 110.3537 0.0000 0.0000 0.0000
# 2 52.2891 79.4902 70.1242 0.0000 0.0000 0.0000
# 3 110.3537 70.1242 206.2030 0.0000 0.0000 0.0000
# 4 0.0000 0.0000 0.0000 -30.6803 0.0000 0.0000
# 5 0.0000 0.0000 0.0000 0.0000 44.7277 0.0000
# 6 0.0000 0.0000 0.0000 0.0000 0.0000 11.1177
#
#
#
# Elastic Compliance Matrix: (Units=1/GPa)
#
#
# Indices 1 2 3 4 5 6 
#
# 1 0.020768 -0.005509 -0.009241 0.000000 0.000000 0.000000
# 2 -0.005509 0.019433 -0.003660 0.000000 0.000000 0.000000
# 3 -0.009241 -0.003660 0.011040 0.000000 0.000000 0.000000
# 4 0.000000 0.000000 0.000000 -0.032594 0.000000 0.000000
# 5 0.000000 0.000000 0.000000 0.000000 0.022357 0.000000
# 6 0.000000 0.000000 0.000000 0.000000 0.000000 0.089947
#
#
# Mechanical properties :
#
#
# Convention : Reuss Voigt Hill
#
# Bulk Modulus (GPa) = 69.34758 95.81693 82.58225
# Shear Modulus (GPa) = 28.97237 15.96977 22.47107
#
# Velocity S-wave (km/s) = 3.94382 2.92802 3.47326
# Velocity P-wave (km/s) = 7.61363 7.92907 7.77295
#
# Compressibility (1/GPa) = 0.01442011
#
# Stress axis : x y z
#
# Youngs Moduli (GPa) = 48.15150 51.45816 90.58170
#
# Poissons Ratio (x) = 0.28349 0.83704
# Poissons Ratio (y) = 0.26528 0.33156
# Poissons Ratio (z) = 0.44496 0.18836
#
# Static dielectric constant tensor:
#      x y z
#    x 1.631240 0.000000 0.000000 
#    y 0.000000 1.678760 0.000000 
#    z 0.000000 0.000000 1.583720 
# 
# From -- ./inp_files/36037.got.cif
#   From: 2010.05.17/outbox.cif.g08.bks.cpg/sg51_19_cif.got.tgz:36037.got - 2010.06.03 11:52:47.
