data_PCOD9404695
_publ_section_title
;
Structure prediction by ZEFSAII (Michael W. Deem and Ramdas Pophale) SiO2 
 PCOD9404695
Probable space group: P M M A
;
_chemical_formula_sum "Si O2"
_cell_formula_units_Z 36
_cell_length_a 8.697125
_cell_length_b 15.759473
_cell_length_c 14.664972
_cell_angle_alpha 90.000000
_cell_angle_beta 90.000000
_cell_angle_gamma 90.000000
_cell_volume 2010.011956
_symmetry_space_group_name_H-M "P M M A"
_symmetry_group_IT_number 51
_symmetry_cell_setting 'orthorhombic'
loop_
_space_group_symop_operation_xyz
x,y,z
1/2-x,-y,z
1/2+x,-y,-z
-x,y,-z
-x,-y,-z
1/2+x,y,-z
1/2-x,y,z
x,-y,z
loop_
_atom_site_type_symbol
_atom_site_label
_atom_site_fract_x
_atom_site_fract_y
_atom_site_fract_z
Si Si1 0.567041 0.751969 0.720567
Si Si2 0.065098 0.313254 0.897771
Si Si3 0.934860 0.403102 0.397458
Si Si4 0.566322 0.901505 0.399192
Si Si5 0.065301 0.500000 0.898072
O O1 0.750000 0.748101 0.721099
O O2 0.502651 0.749424 0.823243
O O3 0.502092 0.670623 0.665455
O O4 0.509205 0.835711 0.669455
O O5 0.250000 0.308459 0.900744
O O6 0.019207 0.408110 0.861687
O O7 0.000000 0.302944 0.000000
O O8 0.750000 0.395710 0.398941
O O9 0.972132 0.500000 0.366987
O O10 0.000000 0.393530 0.500000
O O11 0.500000 0.885516 0.500000
O O12 0.750000 0.889748 0.400503
O O13 0.533708 0.000000 0.376397
O O14 0.250000 0.500000 0.899584
O O15 0.000000 0.500000 0.000000
#
# Coordination Sequence:
#
# PCOD9404695 Si02
#       5
#     8   8   8   8   4
#     4  12  24  36  55  83 114 150 189 230 278 335
#     4  10  20  36  55  79 110 147 191 237 286 332
#     4  10  21  37  55  76 108 148 189 232 277 329
#     4  10  21  39  63  89 116 146 182 229 283 338
#     4   8  16  30  50  72  99 136 179 228 276 320
#
# _framework density 17.910340999999999
#
# number of rings (size 3 to 8) (size 9 to 14) (size 15 to 20)
#    0.000    1.778    0.000    4.667    1.556    3.556 
#    0.000    0.000    0.000    0.667    0.000    0.000 
#    0.000    0.000    0.000    0.000    0.000    0.000 
#
# Total GULP energy -201026.525310 kJ/mol
# GULP energy per Si atom -5584.070147 kJ/mol
# Density = 1.786958 g / cm^3
# Si number density = 17.910341 Si / 1000 Ang^3
#
#
#
# Elastic Constant Matrix: (Units=GPa)
#
#
# Indices 1 2 3 4 5 6 
#
# 1 100.5382 62.3209 60.7596 0.0000 0.0000 0.0000
# 2 62.3209 96.9282 86.5162 0.0000 0.0000 0.0000
# 3 60.7596 86.5162 120.6272 0.0000 0.0000 0.0000
# 4 0.0000 0.0000 0.0000 77.5757 0.0000 0.0000
# 5 0.0000 0.0000 0.0000 0.0000 29.9062 0.0000
# 6 0.0000 0.0000 0.0000 0.0000 0.0000 22.6970
#
#
#
# Elastic Compliance Matrix: (Units=1/GPa)
#
#
# Indices 1 2 3 4 5 6 
#
# 1 0.016705 -0.008977 -0.001976 0.000000 0.000000 0.000000
# 2 -0.008977 0.033497 -0.019503 0.000000 0.000000 0.000000
# 3 -0.001976 -0.019503 0.023273 0.000000 0.000000 0.000000
# 4 0.000000 0.000000 0.000000 0.012891 0.000000 0.000000
# 5 0.000000 0.000000 0.000000 0.000000 0.033438 0.000000
# 6 0.000000 0.000000 0.000000 0.000000 0.000000 0.044059
#
#
# Mechanical properties :
#
#
# Convention : Reuss Voigt Hill
#
# Bulk Modulus (GPa) = 79.59583 81.92076 80.75830
# Shear Modulus (GPa) = 21.83778 33.26890 27.55334
#
# Velocity S-wave (km/s) = 3.49561 4.31458 3.92650
# Velocity P-wave (km/s) = 7.79937 8.40592 8.10832
#
# Compressibility (1/GPa) = 0.01256347
#
# Stress axis : x y z
#
# Youngs Moduli (GPa) = 59.86138 29.85370 42.96866
#
# Poissons Ratio (x) = 0.26801 0.08489
# Poissons Ratio (y) = 0.53740 0.83800
# Poissons Ratio (z) = 0.11826 0.58222
#
# Static dielectric constant tensor:
#      x y z
#    x 1.595180 0.000000 0.000000 
#    y 0.000000 1.623450 0.000000 
#    z 0.000000 0.000000 1.598720 
# 
# From -- ./inp_files/20331.got.cif
#   From: 2010.05.17/outbox.cif.g08.bks.cpg/sg51_11_cif.got.tgz:20331.got - 2010.06.03 11:52:47.
