data_PCOD9404503
_publ_section_title
;
Structure prediction by ZEFSAII (Michael W. Deem and Ramdas Pophale) SiO2 
 PCOD9404503
Probable space group: P M M A
;
_chemical_formula_sum "Si O2"
_cell_formula_units_Z 48
_cell_length_a 16.395107
_cell_length_b 9.121403
_cell_length_c 16.917937
_cell_angle_alpha 90.000000
_cell_angle_beta 90.000000
_cell_angle_gamma 90.000000
_cell_volume 2530.016205
_symmetry_space_group_name_H-M "P M M A"
_symmetry_group_IT_number 51
_symmetry_cell_setting 'orthorhombic'
loop_
_space_group_symop_operation_xyz
x,y,z
1/2-x,-y,z
1/2+x,-y,-z
-x,y,-z
-x,-y,-z
1/2+x,y,-z
1/2-x,y,z
x,-y,z
loop_
_atom_site_type_symbol
_atom_site_label
_atom_site_fract_x
_atom_site_fract_y
_atom_site_fract_z
Si Si1 0.578149 0.177239 0.946548
Si Si2 0.250000 0.178031 0.975951
Si Si3 0.847679 0.668564 0.621964
Si Si4 0.109048 0.669921 0.695458
Si Si5 0.848767 0.827233 0.462138
Si Si6 0.933750 0.329294 0.778085
Si Si7 0.750000 0.175742 0.207404
O O1 0.665279 0.225281 0.983295
O O2 0.570346 0.239823 0.858601
O O3 0.577799 0.000000 0.944110
O O4 0.500000 0.222170 0.000000
O O5 0.250000 0.000000 0.978251
O O6 0.250000 0.220999 0.884151
O O7 0.750000 0.665089 0.620102
O O8 0.877885 0.500000 0.614035
O O9 0.874337 0.763928 0.547173
O O10 0.875410 0.724473 0.707452
O O11 0.134231 0.500000 0.689205
O O12 0.108759 0.740605 0.608745
O O13 0.172456 0.760211 0.747758
O O14 0.022910 0.676648 0.739230
O O15 0.750000 0.806372 0.453777
O O16 0.864754 0.000000 0.456815
O O17 0.913730 0.500000 0.794921
O O18 0.750000 0.000000 0.211879
#
# Coordination Sequence:
#
# PCOD9404503 Si02
#       7
#     8   4   8   8   8   8   4
#     4  10  21  39  61  85 116 154 194 242 301 357
#     4   9  20  37  59  86 113 148 193 239 296 361
#     4   9  19  37  59  80 111 154 196 236 284 340
#     4  11  22  36  56  83 119 154 188 233 291 346
#     4  10  20  35  56  84 115 149 194 240 283 334
#     4  10  23  39  57  86 117 151 194 240 287 344
#     4  11  21  37  61  86 113 146 193 241 284 345
#
# _framework density 18.972211000000001
#
# number of rings (size 3 to 8) (size 9 to 14) (size 15 to 20)
#    0.000    2.000    0.833    2.250    1.167    5.000 
#    0.000    5.000    0.000    0.000    0.000    0.000 
#    0.000    0.000    0.000    0.000    0.000    0.000 
#
# Total GULP energy -268037.427188 kJ/mol
# GULP energy per Si atom -5584.113066 kJ/mol
# Density = 1.892903 g / cm^3
# Si number density = 18.972211 Si / 1000 Ang^3
#
#
#
# Elastic Constant Matrix: (Units=GPa)
#
#
# Indices 1 2 3 4 5 6 
#
# 1 66.8038 30.0959 57.0703 0.0000 0.0000 0.0000
# 2 30.0959 67.6948 65.0880 0.0000 0.0000 0.0000
# 3 57.0703 65.0880 190.7213 0.0000 0.0000 0.0000
# 4 0.0000 0.0000 0.0000 46.4242 0.0000 0.0000
# 5 0.0000 0.0000 0.0000 0.0000 27.5315 0.0000
# 6 0.0000 0.0000 0.0000 0.0000 0.0000 7.9694
#
#
#
# Elastic Compliance Matrix: (Units=1/GPa)
#
#
# Indices 1 2 3 4 5 6 
#
# 1 0.021165 -0.004942 -0.004647 0.000000 0.000000 0.000000
# 2 -0.004942 0.023141 -0.006418 0.000000 0.000000 0.000000
# 3 -0.004647 -0.006418 0.008824 0.000000 0.000000 0.000000
# 4 0.000000 0.000000 0.000000 0.021540 0.000000 0.000000
# 5 0.000000 0.000000 0.000000 0.000000 0.036322 0.000000
# 6 0.000000 0.000000 0.000000 0.000000 0.000000 0.125480
#
#
# Mechanical properties :
#
#
# Convention : Reuss Voigt Hill
#
# Bulk Modulus (GPa) = 47.35798 69.96984 58.66391
# Shear Modulus (GPa) = 18.14711 27.91607 23.03159
#
# Velocity S-wave (km/s) = 3.09611 3.84007 3.48798
# Velocity P-wave (km/s) = 6.14794 7.52474 6.87091
#
# Compressibility (1/GPa) = 0.02111577
#
# Stress axis : x y z
#
# Youngs Moduli (GPa) = 47.24695 43.21421 113.32451
#
# Poissons Ratio (x) = 0.21356 0.52661
# Poissons Ratio (y) = 0.23349 0.72737
# Poissons Ratio (z) = 0.21955 0.27737
#
# Static dielectric constant tensor:
#      x y z
#    x 1.584150 0.000000 0.000000 
#    y 0.000000 1.642130 0.000000 
#    z 0.000000 0.000000 1.625820 
# 
# From -- ./inp_files/24875.got.cif
#   From: 2010.05.17/outbox.cif.g08.bks.cpg/sg51_13_cif.got.tgz:24875.got - 2010.06.03 11:52:47.
