data_PCOD9404887
_publ_section_title
;
Structure prediction by ZEFSAII (Michael W. Deem and Ramdas Pophale) SiO2 
 PCOD9404887
Probable space group: P M M A
;
_chemical_formula_sum "Si O2"
_cell_formula_units_Z 64
_cell_length_a 17.360158
_cell_length_b 21.597524
_cell_length_c 9.162134
_cell_angle_alpha 90.000000
_cell_angle_beta 90.000000
_cell_angle_gamma 90.000000
_cell_volume 3435.217804
_symmetry_space_group_name_H-M "P M M A"
_symmetry_group_IT_number 51
_symmetry_cell_setting 'orthorhombic'
loop_
_space_group_symop_operation_xyz
x,y,z
1/2-x,-y,z
1/2+x,-y,-z
-x,y,-z
-x,-y,-z
1/2+x,y,-z
1/2-x,y,z
x,-y,z
loop_
_atom_site_type_symbol
_atom_site_label
_atom_site_fract_x
_atom_site_fract_y
_atom_site_fract_z
Si Si1 0.422303 0.289761 0.593325
Si Si2 0.159916 0.108177 0.301923
Si Si3 0.157329 0.568912 0.080463
Si Si4 0.001156 0.071304 0.830455
Si Si5 0.660597 0.642150 0.647745
Si Si6 0.162162 0.239722 0.141118
Si Si7 0.582085 0.148646 0.415842
Si Si8 0.579103 0.321622 0.073376
O O1 0.500000 0.285476 0.500000
O O2 0.374356 0.341302 0.507183
O O3 0.389980 0.219530 0.599915
O O4 0.433868 0.310157 0.758063
O O5 0.250000 0.088636 0.280379
O O6 0.086764 0.072790 0.231988
O O7 0.150772 0.175562 0.224702
O O8 0.140687 0.114511 0.474216
O O9 0.250000 0.567702 0.089343
O O10 0.129818 0.500000 0.043840
O O11 0.128081 0.590891 0.240914
O O12 0.136284 0.622577 0.966517
O O13 0.057965 0.113963 0.733125
O O14 0.027974 0.000000 0.822957
O O15 0.000000 0.090790 0.000000
O O16 0.750000 0.628286 0.627070
O O17 0.653168 0.705914 0.739964
O O18 0.250000 0.241348 0.087097
O O19 0.107674 0.259214 0.008499
O O20 0.500000 0.150327 0.500000
O O21 0.500000 0.340592 0.000000
#
# Coordination Sequence:
#
# PCOD9404887 Si02
#       8
#     8   8   8   8   8   8   8   8
#     4  11  21  33  51  82 117 148 182 232 289 343
#     4  10  20  36  59  87 117 151 195 249 301 352
#     4   9  19  39  61  79 107 151 196 233 279 343
#     4  10  23  41  61  84 116 159 205 249 291 352
#     4   9  17  32  55  78 107 142 179 226 280 337
#     4   9  18  34  52  78 113 145 180 227 286 343
#     4   9  20  34  57  82 113 152 192 235 289 354
#     4  11  23  32  54  83 113 151 189 235 283 338
#
# _framework density 18.630551000000001
#
# number of rings (size 3 to 8) (size 9 to 14) (size 15 to 20)
#    0.000    2.250    1.250    2.625    5.250    3.750 
#    0.000    1.250    0.000    3.750    0.000    0.000 
#    0.000    0.000    0.000    0.000    0.000    0.000 
#
# Total GULP energy -356532.774653 kJ/mol
# GULP energy per Si atom -5570.824604 kJ/mol
# Density = 1.858815 g / cm^3
# Si number density = 18.630551 Si / 1000 Ang^3
#
#
#
# Elastic Constant Matrix: (Units=GPa)
#
#
# Indices 1 2 3 4 5 6 
#
# 1 43.9264 3.4827 27.1515 0.0000 0.0000 0.0000
# 2 3.4827 54.3212 28.2245 0.0000 0.0000 0.0000
# 3 27.1515 28.2245 130.0478 0.0000 0.0000 0.0000
# 4 0.0000 0.0000 0.0000 14.5451 0.0000 0.0000
# 5 0.0000 0.0000 0.0000 0.0000 27.1570 0.0000
# 6 0.0000 0.0000 0.0000 0.0000 0.0000 35.8119
#
#
#
# Elastic Compliance Matrix: (Units=1/GPa)
#
#
# Indices 1 2 3 4 5 6 
#
# 1 0.026221 0.001311 -0.005759 0.000000 0.000000 0.000000
# 2 0.001311 0.020814 -0.004791 0.000000 0.000000 0.000000
# 3 -0.005759 -0.004791 0.009932 0.000000 0.000000 0.000000
# 4 0.000000 0.000000 0.000000 0.068751 0.000000 0.000000
# 5 0.000000 0.000000 0.000000 0.000000 0.036823 0.000000
# 6 0.000000 0.000000 0.000000 0.000000 0.000000 0.027924
#
#
# Mechanical properties :
#
#
# Convention : Reuss Voigt Hill
#
# Bulk Modulus (GPa) = 25.98128 38.44586 32.21357
# Shear Modulus (GPa) = 22.54558 26.79859 24.67209
#
# Velocity S-wave (km/s) = 3.48248 3.79677 3.64302
# Velocity P-wave (km/s) = 5.49054 6.31675 5.91808
#
# Compressibility (1/GPa) = 0.03848925
#
# Stress axis : x y z
#
# Youngs Moduli (GPa) = 38.13718 48.04373 100.68787
#
# Poissons Ratio (x) = -0.06300 0.57987
# Poissons Ratio (y) = -0.05001 0.48241
# Poissons Ratio (z) = 0.21963 0.23018
#
# Static dielectric constant tensor:
#      x y z
#    x 1.678380 0.000000 0.000000 
#    y 0.000000 1.662250 0.000000 
#    z 0.000000 0.000000 1.651370 
# 
# From -- ./inp_files/10030.got.cif
#   From: 2010.05.17/outbox.cif.g08.bks.cpg/sg51_6_cif.got.tgz:10030.got - 2010.06.03 11:52:47.
