data_PCOD9404368
_publ_section_title
;
Structure prediction by ZEFSAII (Michael W. Deem and Ramdas Pophale) SiO2 
 PCOD9404368
Probable space group: P M M A
;
_chemical_formula_sum "Si O2"
_cell_formula_units_Z 48
_cell_length_a 16.097192
_cell_length_b 9.648483
_cell_length_c 15.417186
_cell_angle_alpha 90.000000
_cell_angle_beta 90.000000
_cell_angle_gamma 90.000000
_cell_volume 2394.496861
_symmetry_space_group_name_H-M "P M M A"
_symmetry_group_IT_number 51
_symmetry_cell_setting 'orthorhombic'
loop_
_space_group_symop_operation_xyz
x,y,z
1/2-x,-y,z
1/2+x,-y,-z
-x,y,-z
-x,-y,-z
1/2+x,y,-z
1/2-x,y,z
x,-y,z
loop_
_atom_site_type_symbol
_atom_site_label
_atom_site_fract_x
_atom_site_fract_y
_atom_site_fract_z
Si Si1 0.154848 0.163512 0.284875
Si Si2 0.876476 0.659666 0.357637
Si Si3 0.900679 0.843723 0.515897
Si Si4 0.750000 0.162108 0.044857
Si Si5 0.250000 0.840482 0.746606
Si Si6 0.413733 0.335730 0.948864
Si Si7 0.988625 0.658526 0.777748
O O1 0.250000 0.209733 0.275276
O O2 0.126464 0.180075 0.385263
O O3 0.090707 0.244255 0.224566
O O4 0.150606 0.000000 0.266290
O O5 0.849430 0.500000 0.354508
O O6 0.868253 0.725495 0.452089
O O7 0.826085 0.758627 0.294386
O O8 0.968734 0.663005 0.317015
O O9 0.000000 0.844181 0.500000
O O10 0.871233 0.000000 0.492152
O O11 0.750000 0.164270 0.149893
O O12 0.664771 0.243780 0.021441
O O13 0.750000 0.000000 0.016781
O O14 0.250000 0.000000 0.719672
O O15 0.392391 0.500000 0.954697
O O16 0.442477 0.305387 0.849959
O O17 0.500000 0.312440 0.000000
O O18 0.964066 0.500000 0.796349
#
# Coordination Sequence:
#
# PCOD9404368 Si02
#       7
#     8   8   8   4   4   8   8
#     4  10  22  39  57  80 115 161 207 249 300 362
#     4  11  22  35  55  85 117 150 194 250 305 347
#     4  10  20  35  55  78 109 154 203 247 293 355
#     4  11  23  39  65  99 130 161 198 251 313 368
#     4  11  23  37  57  85 118 155 192 235 297 366
#     4  10  22  43  69  94 125 166 207 249 304 371
#     4  10  21  38  61  87 115 150 197 252 300 353
#
# _framework density 20.045964000000001
#
# number of rings (size 3 to 8) (size 9 to 14) (size 15 to 20)
#    0.000    1.667    3.333    1.000    1.167    3.667 
#    1.500    0.000    0.000    0.000    0.000    0.000 
#    0.000    0.000    0.000    0.000    0.000    0.000 
#
# Total GULP energy -267831.572550 kJ/mol
# GULP energy per Si atom -5579.824428 kJ/mol
# Density = 2.000034 g / cm^3
# Si number density = 20.045964 Si / 1000 Ang^3
#
#
#
# Elastic Constant Matrix: (Units=GPa)
#
#
# Indices 1 2 3 4 5 6 
#
# 1 128.4551 70.5291 8.3181 0.0000 0.0000 0.0000
# 2 70.5291 116.8342 28.6294 0.0000 0.0000 0.0000
# 3 8.3181 28.6294 21.5294 0.0000 0.0000 0.0000
# 4 0.0000 0.0000 0.0000 23.2533 0.0000 0.0000
# 5 0.0000 0.0000 0.0000 0.0000 20.5283 0.0000
# 6 0.0000 0.0000 0.0000 0.0000 0.0000 36.7172
#
#
#
# Elastic Compliance Matrix: (Units=1/GPa)
#
#
# Indices 1 2 3 4 5 6 
#
# 1 0.012447 -0.009398 0.007688 0.000000 0.000000 0.000000
# 2 -0.009398 0.019792 -0.022687 0.000000 0.000000 0.000000
# 3 0.007688 -0.022687 0.073647 0.000000 0.000000 0.000000
# 4 0.000000 0.000000 0.000000 0.043005 0.000000 0.000000
# 5 0.000000 0.000000 0.000000 0.000000 0.048713 0.000000
# 6 0.000000 0.000000 0.000000 0.000000 0.000000 0.027235
#
#
# Mechanical properties :
#
#
# Convention : Reuss Voigt Hill
#
# Bulk Modulus (GPa) = 17.51598 53.53021 35.52310
# Shear Modulus (GPa) = 17.08446 26.72256 21.90351
#
# Velocity S-wave (km/s) = 2.92252 3.65508 3.30913
# Velocity P-wave (km/s) = 4.48833 6.67641 5.68857
#
# Compressibility (1/GPa) = 0.05709071
#
# Stress axis : x y z
#
# Youngs Moduli (GPa) = 80.34213 50.52665 13.57826
#
# Poissons Ratio (x) = 0.47483 -0.10439
# Poissons Ratio (y) = 0.75502 0.30806
# Poissons Ratio (z) = -0.61764 1.14632
#
# Static dielectric constant tensor:
#      x y z
#    x 1.858220 0.000000 0.000000 
#    y 0.000000 1.680900 0.000000 
#    z 0.000000 0.000000 1.732630 
# 
# From -- ./inp_files/29569.got.cif
#   From: 2010.05.17/outbox.cif.g08.bks.cpg/sg51_15_cif.got.tgz:29569.got - 2010.06.03 11:52:47.
