data_PCOD9404961
_publ_section_title
;
Structure prediction by ZEFSAII (Michael W. Deem and Ramdas Pophale) SiO2 
 PCOD9404961
Probable space group: P M M A
;
_chemical_formula_sum "Si O2"
_cell_formula_units_Z 48
_cell_length_a 16.906868
_cell_length_b 14.226599
_cell_length_c 9.878482
_cell_angle_alpha 90.000000
_cell_angle_beta 90.000000
_cell_angle_gamma 90.000000
_cell_volume 2376.043926
_symmetry_space_group_name_H-M "P M M A"
_symmetry_group_IT_number 51
_symmetry_cell_setting 'orthorhombic'
loop_
_space_group_symop_operation_xyz
x,y,z
1/2-x,-y,z
1/2+x,-y,-z
-x,y,-z
-x,-y,-z
1/2+x,y,-z
1/2-x,y,z
x,-y,z
loop_
_atom_site_type_symbol
_atom_site_label
_atom_site_fract_x
_atom_site_fract_y
_atom_site_fract_z
Si Si1 0.343923 0.108089 0.837079
Si Si2 0.562363 0.390788 0.760872
Si Si3 0.092184 0.892563 0.537808
Si Si4 0.160016 0.281729 0.017016
Si Si5 0.373213 0.390840 0.748949
Si Si6 0.661565 0.700753 0.533535
O O1 0.250000 0.122510 0.806195
O O2 0.392155 0.121728 0.698220
O O3 0.353938 0.000000 0.879975
O O4 0.365348 0.182025 0.952964
O O5 0.581140 0.500000 0.790613
O O6 0.601597 0.323625 0.872158
O O7 0.468208 0.381318 0.756499
O O8 0.599681 0.359999 0.618604
O O9 0.139058 0.810495 0.462058
O O10 0.000000 0.883529 0.500000
O O11 0.117330 0.000000 0.506933
O O12 0.250000 0.273664 0.069249
O O13 0.159663 0.351369 0.888724
O O14 0.353484 0.500000 0.730348
O O15 0.343119 0.332082 0.621696
O O16 0.750000 0.684807 0.584993
#
# Coordination Sequence:
#
# PCOD9404961 Si02
#       6
#     8   8   8   8   8   8
#     4   9  18  35  61  92 124 160 204 253 305 361
#     4  11  25  43  61  85 125 168 201 250 318 373
#     4  10  20  36  61  92 124 159 200 248 304 363
#     4  11  22  38  62  91 120 159 206 252 306 365
#     4  11  23  40  62  87 117 159 210 256 301 365
#     4  12  24  39  62  93 123 158 204 256 313 366
#
# _framework density 20.201647000000001
#
# number of rings (size 3 to 8) (size 9 to 14) (size 15 to 20)
#    0.000    1.333    1.667    4.500    0.000    7.667 
#    0.000    0.833    0.000    5.000    0.000    0.000 
#    0.000    0.000    0.000    0.000    0.000    0.000 
#
# Total GULP energy -268429.759847 kJ/mol
# GULP energy per Si atom -5592.286663 kJ/mol
# Density = 2.015567 g / cm^3
# Si number density = 20.201647 Si / 1000 Ang^3
#
#
#
# Elastic Constant Matrix: (Units=GPa)
#
#
# Indices 1 2 3 4 5 6 
#
# 1 59.6450 33.2920 12.4907 0.0000 0.0000 0.0000
# 2 33.2920 110.6150 9.1982 0.0000 0.0000 0.0000
# 3 12.4907 9.1982 52.1263 0.0000 0.0000 0.0000
# 4 0.0000 0.0000 0.0000 35.9719 0.0000 0.0000
# 5 0.0000 0.0000 0.0000 0.0000 15.7428 0.0000
# 6 0.0000 0.0000 0.0000 0.0000 0.0000 12.8459
#
#
#
# Elastic Compliance Matrix: (Units=1/GPa)
#
#
# Indices 1 2 3 4 5 6 
#
# 1 0.020927 -0.005969 -0.003961 0.000000 0.000000 0.000000
# 2 -0.005969 0.010878 -0.000489 0.000000 0.000000 0.000000
# 3 -0.003961 -0.000489 0.020220 0.000000 0.000000 0.000000
# 4 0.000000 0.000000 0.000000 0.027799 0.000000 0.000000
# 5 0.000000 0.000000 0.000000 0.000000 0.063521 0.000000
# 6 0.000000 0.000000 0.000000 0.000000 0.000000 0.077846
#
#
# Mechanical properties :
#
#
# Convention : Reuss Voigt Hill
#
# Bulk Modulus (GPa) = 32.06632 36.92758 34.49695
# Shear Modulus (GPa) = 19.80786 24.07248 21.94017
#
# Velocity S-wave (km/s) = 3.13470 3.45571 3.29912
# Velocity P-wave (km/s) = 5.38604 5.85165 5.62366
#
# Compressibility (1/GPa) = 0.03118537
#
# Stress axis : x y z
#
# Youngs Moduli (GPa) = 47.78469 91.93224 49.45665
#
# Poissons Ratio (x) = 0.54875 0.19591
# Poissons Ratio (y) = 0.28523 0.02419
# Poissons Ratio (z) = 0.18929 0.04497
#
# Static dielectric constant tensor:
#      x y z
#    x 1.697900 0.000000 0.000000 
#    y 0.000000 1.718180 0.000000 
#    z 0.000000 0.000000 1.678190 
# 
# From -- ./inp_files/9618.got.cif
#   From: 2010.05.17/outbox.cif.g08.bks.cpg/sg51_5_cif.got.tgz:9618.got - 2010.06.03 11:52:47.
