data_PCOD9404683
_publ_section_title
;
Structure prediction by ZEFSAII (Michael W. Deem and Ramdas Pophale) SiO2 
 PCOD9404683
Probable space group: P M M A
;
_chemical_formula_sum "Si O2"
_cell_formula_units_Z 48
_cell_length_a 8.638202
_cell_length_b 31.620938
_cell_length_c 9.832845
_cell_angle_alpha 90.000000
_cell_angle_beta 90.000000
_cell_angle_gamma 90.000000
_cell_volume 2685.822436
_symmetry_space_group_name_H-M "P M M A"
_symmetry_group_IT_number 51
_symmetry_cell_setting 'orthorhombic'
loop_
_space_group_symop_operation_xyz
x,y,z
1/2-x,-y,z
1/2+x,-y,-z
-x,y,-z
-x,-y,-z
1/2+x,y,-z
1/2-x,y,z
x,-y,z
loop_
_atom_site_type_symbol
_atom_site_label
_atom_site_fract_x
_atom_site_fract_y
_atom_site_fract_z
Si Si1 0.934438 0.633857 0.653355
Si Si2 0.436419 0.802453 0.850578
Si Si3 0.062801 0.122876 0.651877
Si Si4 0.063221 0.951503 0.851583
Si Si5 0.436048 0.705272 0.849574
Si Si6 0.564307 0.546170 0.345664
O O1 0.750000 0.633517 0.647465
O O2 0.000000 0.637406 0.500000
O O3 0.995109 0.672471 0.742879
O O4 0.993352 0.588965 0.713891
O O5 0.250000 0.804001 0.857424
O O6 0.487801 0.836031 0.737995
O O7 0.480829 0.754009 0.818226
O O8 0.500000 0.813126 0.000000
O O9 0.250000 0.123006 0.647075
O O10 0.013154 0.081454 0.736765
O O11 0.000000 0.123038 0.500000
O O12 0.250000 0.950626 0.857466
O O13 0.014663 0.000000 0.823997
O O14 0.000000 0.939394 0.000000
O O15 0.250000 0.702484 0.849527
O O16 0.500000 0.695941 0.000000
O O17 0.500000 0.545098 0.500000
O O18 0.750000 0.549923 0.349768
O O19 0.525163 0.500000 0.284311
#
# Coordination Sequence:
#
# PCOD9404683 Si02
#       6
#     8   8   8   8   8   8
#     4  11  21  33  51  76 105 137 172 212 258 304
#     4   9  19  35  55  76  98 128 167 210 251 299
#     4  10  21  35  50  74 106 136 168 207 254 303
#     4   9  18  33  53  76 102 133 171 213 253 298
#     4  10  20  36  55  76 102 132 169 210 256 309
#     4   9  16  27  45  70 100 133 169 210 254 300
#
# _framework density 17.871621000000001
#
# number of rings (size 3 to 8) (size 9 to 14) (size 15 to 20)
#    0.000    2.333    0.000    4.000    0.000    4.000 
#    0.000    1.667    0.000    0.500    0.000    0.000 
#    0.000    0.000    0.000    0.000    0.000    0.000 
#
# Total GULP energy -267749.013306 kJ/mol
# GULP energy per Si atom -5578.104444 kJ/mol
# Density = 1.783094 g / cm^3
# Si number density = 17.871621 Si / 1000 Ang^3
#
#
#
# Elastic Constant Matrix: (Units=GPa)
#
#
# Indices 1 2 3 4 5 6 
#
# 1 57.2472 46.1397 35.5540 0.0000 0.0000 0.0000
# 2 46.1397 155.6707 112.9662 0.0000 0.0000 0.0000
# 3 35.5540 112.9662 121.4474 0.0000 0.0000 0.0000
# 4 0.0000 0.0000 0.0000 44.7833 0.0000 0.0000
# 5 0.0000 0.0000 0.0000 0.0000 31.5114 0.0000
# 6 0.0000 0.0000 0.0000 0.0000 0.0000 32.6559
#
#
#
# Elastic Compliance Matrix: (Units=1/GPa)
#
#
# Indices 1 2 3 4 5 6 
#
# 1 0.023008 -0.005943 -0.001208 0.000000 0.000000 0.000000
# 2 -0.005943 0.021301 -0.018073 0.000000 0.000000 0.000000
# 3 -0.001208 -0.018073 0.025399 0.000000 0.000000 0.000000
# 4 0.000000 0.000000 0.000000 0.022330 0.000000 0.000000
# 5 0.000000 0.000000 0.000000 0.000000 0.031735 0.000000
# 6 0.000000 0.000000 0.000000 0.000000 0.000000 0.030622
#
#
# Mechanical properties :
#
#
# Convention : Reuss Voigt Hill
#
# Bulk Modulus (GPa) = 51.92254 80.40945 66.16599
# Shear Modulus (GPa) = 23.66737 31.10383 27.38560
#
# Velocity S-wave (km/s) = 3.64304 4.17634 3.91877
# Velocity P-wave (km/s) = 6.84191 8.26718 7.58808
#
# Compressibility (1/GPa) = 0.01925946
#
# Stress axis : x y z
#
# Youngs Moduli (GPa) = 43.46303 46.94715 39.37230
#
# Poissons Ratio (x) = 0.27901 0.04754
# Poissons Ratio (y) = 0.25831 0.71158
# Poissons Ratio (z) = 0.05248 0.84848
#
# Static dielectric constant tensor:
#      x y z
#    x 1.598500 0.000000 0.000000 
#    y 0.000000 1.648940 0.000000 
#    z 0.000000 0.000000 1.569150 
# 
# From -- ./inp_files/6042.got.cif
#   From: 2010.05.17/outbox.cif.g08.bks.cpg/sg51_4_cif.got.tgz:6042.got - 2010.06.03 11:52:47.
