data_PCOD9404104
_publ_section_title
;
Structure prediction by ZEFSAII (Michael W. Deem and Ramdas Pophale) SiO2 
 PCOD9404104
Probable space group: P M M A
;
_chemical_formula_sum "Si O2"
_cell_formula_units_Z 64
_cell_length_a 7.705549
_cell_length_b 24.812791
_cell_length_c 15.939468
_cell_angle_alpha 90.000000
_cell_angle_beta 90.000000
_cell_angle_gamma 90.000000
_cell_volume 3047.565343
_symmetry_space_group_name_H-M "P M M A"
_symmetry_group_IT_number 51
_symmetry_cell_setting 'orthorhombic'
loop_
_space_group_symop_operation_xyz
x,y,z
1/2-x,-y,z
1/2+x,-y,-z
-x,y,-z
-x,-y,-z
1/2+x,y,-z
1/2-x,y,z
x,-y,z
loop_
_atom_site_type_symbol
_atom_site_label
_atom_site_fract_x
_atom_site_fract_y
_atom_site_fract_z
Si Si1 0.458437 0.438526 0.594752
Si Si2 0.537147 0.366540 0.249910
Si Si3 0.541533 0.174839 0.408973
Si Si4 0.954833 0.059082 0.825186
Si Si5 0.537070 0.757381 0.248263
Si Si6 0.951737 0.059047 0.366697
Si Si7 0.958421 0.561459 0.094522
Si Si8 0.544521 0.170238 0.094500
O O1 0.500000 0.421166 0.500000
O O2 0.250000 0.440758 0.601989
O O3 0.524146 0.500000 0.605855
O O4 0.520668 0.398616 0.667150
O O5 0.750000 0.366467 0.249974
O O6 0.481491 0.304582 0.248967
O O7 0.479367 0.399030 0.167361
O O8 0.500000 0.197986 0.500000
O O9 0.750000 0.171285 0.400555
O O10 0.479873 0.210554 0.331241
O O11 0.469627 0.113674 0.403433
O O12 0.750000 0.057931 0.808556
O O13 0.042474 0.066106 0.734326
O O14 0.989408 0.109256 0.884712
O O15 0.007206 0.000000 0.858729
O O16 0.750000 0.757407 0.248057
O O17 0.475754 0.789704 0.166132
O O18 0.750000 0.056933 0.392134
O O19 0.029478 0.000000 0.386164
O O20 0.750000 0.559178 0.101692
O O21 0.024395 0.500000 0.104910
O O22 0.000000 0.579330 0.000000
O O23 0.750000 0.171125 0.102355
O O24 0.500000 0.185677 0.000000
#
# Coordination Sequence:
#
# PCOD9404104 Si02
#       8
#     8   8   8   8   8   8   8   8
#     4   9  17  30  50  77 107 138 174 216 261 309
#     4   9  17  31  53  75  99 138 180 215 252 307
#     4  10  20  35  53  76 102 135 174 213 258 311
#     4  10  20  34  55  83 110 135 168 212 262 315
#     4   9  19  36  54  74 103 137 176 218 263 308
#     4   9  17  32  54  77 104 138 171 208 259 315
#     4   9  17  30  50  77 106 135 169 209 255 306
#     4  11  22  38  58  79 104 138 176 217 263 316
#
# _framework density 21.00037
#
# number of rings (size 3 to 8) (size 9 to 14) (size 15 to 20)
#    0.000    2.500    1.250    1.125    0.000    4.250 
#    0.000    0.625    0.000    6.000    0.000    0.000 
#    0.000    0.000    0.000    0.000    0.000    0.000 
#
# Total GULP energy -357282.260194 kJ/mol
# GULP energy per Si atom -5582.535316 kJ/mol
# Density = 2.095257 g / cm^3
# Si number density = 21.000370 Si / 1000 Ang^3
#
#
#
# Elastic Constant Matrix: (Units=GPa)
#
#
# Indices 1 2 3 4 5 6 
#
# 1 37.1227 8.0202 -0.5574 0.0000 0.0000 0.0000
# 2 8.0202 160.6099 123.0872 0.0000 0.0000 0.0000
# 3 -0.5574 123.0872 182.5646 0.0000 0.0000 0.0000
# 4 0.0000 0.0000 0.0000 -6.6858 0.0000 0.0000
# 5 0.0000 0.0000 0.0000 0.0000 17.1136 0.0000
# 6 0.0000 0.0000 0.0000 0.0000 0.0000 2.6046
#
#
#
# Elastic Compliance Matrix: (Units=1/GPa)
#
#
# Indices 1 2 3 4 5 6 
#
# 1 0.027615 -0.002987 0.002098 0.000000 0.000000 0.000000
# 2 -0.002987 0.013206 -0.008913 0.000000 0.000000 0.000000
# 3 0.002098 -0.008913 0.011493 0.000000 0.000000 0.000000
# 4 0.000000 0.000000 0.000000 -0.149572 0.000000 0.000000
# 5 0.000000 0.000000 0.000000 0.000000 0.058433 0.000000
# 6 0.000000 0.000000 0.000000 0.000000 0.000000 0.383933
#
#
# Mechanical properties :
#
#
# Convention : Reuss Voigt Hill
#
# Bulk Modulus (GPa) = 30.57127 71.26632 50.91880
# Shear Modulus (GPa) = 13.31154 19.25630 16.28392
#
# Velocity S-wave (km/s) = 2.52041 3.03140 2.78764
# Velocity P-wave (km/s) = 4.80199 6.80161 5.88732
#
# Compressibility (1/GPa) = 0.03271045
#
# Stress axis : x y z
#
# Youngs Moduli (GPa) = 36.21282 75.72411 87.01001
#
# Poissons Ratio (x) = 0.22618 -0.18256
# Poissons Ratio (y) = 0.10816 0.77549
# Poissons Ratio (z) = -0.07598 0.67490
#
# Static dielectric constant tensor:
#      x y z
#    x 1.774740 0.000000 0.000000 
#    y 0.000000 1.755070 0.000000 
#    z 0.000000 0.000000 1.713620 
# 
# From -- ./inp_files/22361.got.cif
#   From: 2010.05.17/outbox.cif.g08.bks.cpg/sg51_12_cif.got.tgz:22361.got - 2010.06.03 11:52:47.
