data_PCOD9404300
_publ_section_title
;
Structure prediction by ZEFSAII (Michael W. Deem and Ramdas Pophale) SiO2 
 PCOD9404300
Probable space group: P M M A
;
_chemical_formula_sum "Si O2"
_cell_formula_units_Z 64
_cell_length_a 9.545028
_cell_length_b 15.086185
_cell_length_c 23.966551
_cell_angle_alpha 90.000000
_cell_angle_beta 90.000000
_cell_angle_gamma 90.000000
_cell_volume 3451.136807
_symmetry_space_group_name_H-M "P M M A"
_symmetry_group_IT_number 51
_symmetry_cell_setting 'orthorhombic'
loop_
_space_group_symop_operation_xyz
x,y,z
1/2-x,-y,z
1/2+x,-y,-z
-x,y,-z
-x,-y,-z
1/2+x,y,-z
1/2-x,y,z
x,-y,z
loop_
_atom_site_type_symbol
_atom_site_label
_atom_site_fract_x
_atom_site_fract_y
_atom_site_fract_z
Si Si1 0.410147 0.105979 0.053049
Si Si2 0.597997 0.646744 0.150195
Si Si3 0.409351 0.400707 0.724843
Si Si4 0.917308 0.397954 0.557501
Si Si5 0.417577 0.102542 0.708527
Si Si6 0.410022 0.143693 0.836578
Si Si7 0.917614 0.264718 0.657957
Si Si8 0.405031 0.393676 0.049493
O O1 0.250000 0.140004 0.053967
O O2 0.490231 0.120729 0.111635
O O3 0.401267 0.000000 0.046055
O O4 0.500000 0.140129 0.000000
O O5 0.750000 0.624738 0.124174
O O6 0.586416 0.597432 0.208470
O O7 0.596197 0.750148 0.164853
O O8 0.476584 0.625689 0.107880
O O9 0.250000 0.372440 0.709157
O O10 0.432233 0.500000 0.703380
O O11 0.523999 0.332274 0.704314
O O12 0.750000 0.393922 0.548059
O O13 0.947345 0.500000 0.576984
O O14 0.952041 0.319934 0.601378
O O15 0.000000 0.385455 0.500000
O O16 0.250000 0.120816 0.704685
O O17 0.454270 0.112711 0.774639
O O18 0.503191 0.172594 0.671105
O O19 0.441699 0.000000 0.692611
O O20 0.250000 0.110940 0.846603
O O21 0.750000 0.253164 0.660682
O O22 0.250000 0.357207 0.046356
O O23 0.398279 0.500000 0.043517
O O24 0.500000 0.357775 0.000000
#
# Coordination Sequence:
#
# PCOD9404300 Si02
#       8
#     8   8   8   8   8   8   8   8
#     4  10  21  36  54  76 101 130 169 219 279 349
#     4  10  20  35  54  75 102 135 175 223 272 328
#     4  10  20  35  56  81 112 152 194 233 277 335
#     4   9  19  36  58  88 126 167 206 242 285 335
#     4  10  21  39  62  85 113 153 201 249 295 349
#     4  10  20  36  57  78 104 138 179 229 284 341
#     4  11  22  36  57  87 125 159 193 242 293 344
#     4  10  21  36  53  72  95 128 173 222 274 334
#
# _framework density 18.544613999999999
#
# number of rings (size 3 to 8) (size 9 to 14) (size 15 to 20)
#    0.000    2.000    1.250    2.250    0.000    6.500 
#    0.000    1.250    0.000    0.375    0.000    0.000 
#    0.000    0.000    0.000    0.000    0.000    0.000 
#
# Total GULP energy -357061.873155 kJ/mol
# GULP energy per Si atom -5579.091768 kJ/mol
# Density = 1.850241 g / cm^3
# Si number density = 18.544614 Si / 1000 Ang^3
#
#
#
# Elastic Constant Matrix: (Units=GPa)
#
#
# Indices 1 2 3 4 5 6 
#
# 1 107.3705 56.6121 70.0302 0.0000 0.0000 0.0000
# 2 56.6121 106.2690 45.1471 0.0000 0.0000 0.0000
# 3 70.0302 45.1471 101.7400 0.0000 0.0000 0.0000
# 4 0.0000 0.0000 0.0000 -12.0922 0.0000 0.0000
# 5 0.0000 0.0000 0.0000 0.0000 36.6117 0.0000
# 6 0.0000 0.0000 0.0000 0.0000 0.0000 13.5460
#
#
#
# Elastic Compliance Matrix: (Units=1/GPa)
#
#
# Indices 1 2 3 4 5 6 
#
# 1 0.019378 -0.005738 -0.010792 0.000000 0.000000 0.000000
# 2 -0.005738 0.013295 -0.001950 0.000000 0.000000 0.000000
# 3 -0.010792 -0.001950 0.018123 0.000000 0.000000 0.000000
# 4 0.000000 0.000000 0.000000 -0.082698 0.000000 0.000000
# 5 0.000000 0.000000 0.000000 0.000000 0.027314 0.000000
# 6 0.000000 0.000000 0.000000 0.000000 0.000000 0.073822
#
#
# Mechanical properties :
#
#
# Convention : Reuss Voigt Hill
#
# Bulk Modulus (GPa) = 72.27784 73.21759 72.74772
# Shear Modulus (GPa) = 45.12372 17.18578 31.15475
#
# Velocity S-wave (km/s) = 4.93815 3.04752 4.10321
# Velocity P-wave (km/s) = 8.46011 7.20769 7.85889
#
# Compressibility (1/GPa) = 0.01383550
#
# Stress axis : x y z
#
# Youngs Moduli (GPa) = 51.60508 75.21362 55.17945
#
# Poissons Ratio (x) = 0.43160 0.59549
# Poissons Ratio (y) = 0.29612 0.10760
# Poissons Ratio (z) = 0.55692 0.14667
#
# Static dielectric constant tensor:
#      x y z
#    x 1.651140 0.000000 0.000000 
#    y 0.000000 1.672520 0.000000 
#    z 0.000000 0.000000 1.621980 
# 
# From -- ./inp_files/34860.got.cif
#   From: 2010.05.17/outbox.cif.g08.bks.cpg/sg51_18_cif.got.tgz:34860.got - 2010.06.03 11:52:47.
