data_PCOD9404448
_publ_section_title
;
Structure prediction by ZEFSAII (Michael W. Deem and Ramdas Pophale) SiO2 
 PCOD9404448
Probable space group: P M M A
;
_chemical_formula_sum "Si O2"
_cell_formula_units_Z 64
_cell_length_a 14.121176
_cell_length_b 9.495006
_cell_length_c 26.314984
_cell_angle_alpha 90.000000
_cell_angle_beta 90.000000
_cell_angle_gamma 90.000000
_cell_volume 3528.330182
_symmetry_space_group_name_H-M "P M M A"
_symmetry_group_IT_number 51
_symmetry_cell_setting 'orthorhombic'
loop_
_space_group_symop_operation_xyz
x,y,z
1/2-x,-y,z
1/2+x,-y,-z
-x,y,-z
-x,-y,-z
1/2+x,y,-z
1/2-x,y,z
x,-y,z
loop_
_atom_site_type_symbol
_atom_site_label
_atom_site_fract_x
_atom_site_fract_y
_atom_site_fract_z
Si Si1 0.859465 0.667729 0.626870
Si Si2 0.365405 0.839041 0.474302
Si Si3 0.478560 0.167269 0.874171
Si Si4 0.635590 0.662324 0.428550
Si Si5 0.861979 0.666242 0.921804
Si Si6 0.139276 0.169036 0.773257
Si Si7 0.862349 0.837543 0.023281
Si Si8 0.454724 0.332341 0.680626
O O1 0.750000 0.701284 0.638991
O O2 0.865279 0.500000 0.616702
O O3 0.888110 0.749932 0.575883
O O4 0.934473 0.699495 0.670979
O O5 0.250000 0.840454 0.476272
O O6 0.396824 0.763209 0.526032
O O7 0.397572 0.000000 0.470628
O O8 0.573570 0.256522 0.880481
O O9 0.417308 0.203662 0.824741
O O10 0.417264 0.193777 0.925046
O O11 0.499149 0.000000 0.872641
O O12 0.750000 0.667751 0.426288
O O13 0.608557 0.500000 0.439717
O O14 0.595513 0.699238 0.373311
O O15 0.750000 0.688541 0.913029
O O16 0.880385 0.500000 0.923024
O O17 0.885028 0.736596 0.976350
O O18 0.250000 0.207293 0.777696
O O19 0.091927 0.246266 0.725760
O O20 0.134317 0.000000 0.766468
O O21 0.750000 0.827687 0.033087
O O22 0.882891 0.000000 0.008370
O O23 0.444165 0.500000 0.689676
#
# Coordination Sequence:
#
# PCOD9404448 Si02
#       8
#     8   8   8   8   8   8   8   8
#     4   9  18  34  54  74 100 135 172 211 257 308
#     4   9  17  29  47  73 103 133 166 207 256 310
#     4  10  20  35  56  80 106 141 184 222 260 313
#     4   9  17  30  48  70  99 134 169 207 254 310
#     4  10  21  35  51  77 114 149 180 219 266 311
#     4  10  22  40  60  82 108 135 166 212 267 315
#     4   9  17  31  53  80 110 145 183 221 263 315
#     4  10  21  36  55  78 102 134 178 220 258 307
#
# _framework density 18.138891999999998
#
# number of rings (size 3 to 8) (size 9 to 14) (size 15 to 20)
#    0.000    2.500    0.000    1.875    0.000    8.500 
#    0.000    4.375    0.000    4.500    0.000    0.000 
#    0.000    0.000    0.000    0.000    0.000    0.000 
#
# Total GULP energy -357320.445637 kJ/mol
# GULP energy per Si atom -5583.131963 kJ/mol
# Density = 1.809761 g / cm^3
# Si number density = 18.138892 Si / 1000 Ang^3
#
#
#
# Elastic Constant Matrix: (Units=GPa)
#
#
# Indices 1 2 3 4 5 6 
#
# 1 99.0166 62.1222 79.1342 0.0000 0.0000 0.0000
# 2 62.1222 68.3013 74.5306 0.0000 0.0000 0.0000
# 3 79.1342 74.5306 120.9438 0.0000 0.0000 0.0000
# 4 0.0000 0.0000 0.0000 41.7351 0.0000 0.0000
# 5 0.0000 0.0000 0.0000 0.0000 33.5485 0.0000
# 6 0.0000 0.0000 0.0000 0.0000 0.0000 22.0610
#
#
#
# Elastic Compliance Matrix: (Units=1/GPa)
#
#
# Indices 1 2 3 4 5 6 
#
# 1 0.025468 -0.015205 -0.007294 0.000000 0.000000 0.000000
# 2 -0.015205 0.053775 -0.023190 0.000000 0.000000 0.000000
# 3 -0.007294 -0.023190 0.027332 0.000000 0.000000 0.000000
# 4 0.000000 0.000000 0.000000 0.023961 0.000000 0.000000
# 5 0.000000 0.000000 0.000000 0.000000 0.029808 0.000000
# 6 0.000000 0.000000 0.000000 0.000000 0.000000 0.045329
#
#
# Mechanical properties :
#
#
# Convention : Reuss Voigt Hill
#
# Bulk Modulus (GPa) = 65.80173 79.98176 72.89174
# Shear Modulus (GPa) = 16.54998 24.30057 20.42528
#
# Velocity S-wave (km/s) = 3.02388 3.66415 3.35931
# Velocity P-wave (km/s) = 6.96758 7.87979 7.43768
#
# Compressibility (1/GPa) = 0.01519717
#
# Stress axis : x y z
#
# Youngs Moduli (GPa) = 39.26480 18.59598 36.58766
#
# Poissons Ratio (x) = 0.28274 0.26688
# Poissons Ratio (y) = 0.59700 0.84847
# Poissons Ratio (z) = 0.28641 0.43124
#
# Static dielectric constant tensor:
#      x y z
#    x 1.662310 0.000000 0.000000 
#    y 0.000000 1.609380 0.000000 
#    z 0.000000 0.000000 1.576460 
# 
# From -- ./inp_files/35826.got.cif
#   From: 2010.05.17/outbox.cif.g08.bks.cpg/sg51_18_cif.got.tgz:35826.got - 2010.06.03 11:52:47.
