data_PCOD9404153
_publ_section_title
;
Structure prediction by ZEFSAII (Michael W. Deem and Ramdas Pophale) SiO2 
 PCOD9404153
Probable space group: P M M A
;
_chemical_formula_sum "Si O2"
_cell_formula_units_Z 48
_cell_length_a 16.603685
_cell_length_b 8.485890
_cell_length_c 18.510792
_cell_angle_alpha 90.000000
_cell_angle_beta 90.000000
_cell_angle_gamma 90.000000
_cell_volume 2608.115884
_symmetry_space_group_name_H-M "P M M A"
_symmetry_group_IT_number 51
_symmetry_cell_setting 'orthorhombic'
loop_
_space_group_symop_operation_xyz
x,y,z
1/2-x,-y,z
1/2+x,-y,-z
-x,y,-z
-x,-y,-z
1/2+x,y,-z
1/2-x,y,z
x,-y,z
loop_
_atom_site_type_symbol
_atom_site_label
_atom_site_fract_x
_atom_site_fract_y
_atom_site_fract_z
Si Si1 0.159016 0.189672 0.333497
Si Si2 0.412049 0.687481 0.028439
Si Si3 0.750000 0.690494 0.212220
Si Si4 0.009406 0.311117 0.418891
Si Si5 0.750000 0.187254 0.048643
Si Si6 0.919897 0.691157 0.276548
Si Si7 0.569939 0.188046 0.812372
O O1 0.250000 0.238721 0.347058
O O2 0.132191 0.228014 0.251751
O O3 0.096279 0.267943 0.387395
O O4 0.153073 0.000000 0.340474
O O5 0.410381 0.500000 0.017486
O O6 0.409672 0.728847 0.112962
O O7 0.500000 0.745547 0.000000
O O8 0.332675 0.755133 0.989461
O O9 0.750000 0.500000 0.208643
O O10 0.750000 0.753542 0.131004
O O11 0.830623 0.739327 0.254059
O O12 0.001160 0.500000 0.422142
O O13 0.947072 0.255996 0.356766
O O14 0.000000 0.248030 0.500000
O O15 0.750000 0.000000 0.046883
O O16 0.924959 0.500000 0.274175
O O17 0.983820 0.758391 0.219236
O O18 0.570403 0.000000 0.823118
#
# Coordination Sequence:
#
# PCOD9404153 Si02
#       7
#     8   8   4   8   4   8   8
#     4   9  19  35  54  78 108 143 180 218 267 325
#     4  11  24  41  59  82 114 151 190 233 284 342
#     4  10  20  36  56  76 103 144 189 228 271 330
#     4   9  18  34  54  81 113 142 178 224 270 319
#     4  12  26  40  58  84 115 148 187 240 291 336
#     4   9  18  34  55  78 107 146 186 225 275 330
#     4  10  20  34  56  81 108 142 183 229 277 327
#
# _framework density 18.40409
#
# number of rings (size 3 to 8) (size 9 to 14) (size 15 to 20)
#    0.000    2.167    0.000    2.750    1.167    7.333 
#    1.500    0.000    0.000    0.000    0.000    0.000 
#    0.000    0.000    0.000    0.000    0.000    0.000 
#
# Total GULP energy -267902.095831 kJ/mol
# GULP energy per Si atom -5581.293663 kJ/mol
# Density = 1.836220 g / cm^3
# Si number density = 18.404090 Si / 1000 Ang^3
#
#
#
# Elastic Constant Matrix: (Units=GPa)
#
#
# Indices 1 2 3 4 5 6 
#
# 1 154.9193 24.2558 91.7771 0.0000 0.0000 0.0000
# 2 24.2558 14.1789 17.4130 0.0000 0.0000 0.0000
# 3 91.7771 17.4130 145.1500 0.0000 0.0000 0.0000
# 4 0.0000 0.0000 0.0000 9.7011 0.0000 0.0000
# 5 0.0000 0.0000 0.0000 0.0000 7.0190 0.0000
# 6 0.0000 0.0000 0.0000 0.0000 0.0000 -12.6421
#
#
#
# Elastic Compliance Matrix: (Units=1/GPa)
#
#
# Indices 1 2 3 4 5 6 
#
# 1 0.012139 -0.013300 -0.006080 0.000000 0.000000 0.000000
# 2 -0.013300 0.097284 -0.003261 0.000000 0.000000 0.000000
# 3 -0.006080 -0.003261 0.011125 0.000000 0.000000 0.000000
# 4 0.000000 0.000000 0.000000 0.103081 0.000000 0.000000
# 5 0.000000 0.000000 0.000000 0.000000 0.142471 0.000000
# 6 0.000000 0.000000 0.000000 0.000000 0.000000 -0.079101
#
#
# Mechanical properties :
#
#
# Convention : Reuss Voigt Hill
#
# Bulk Modulus (GPa) = 13.28620 64.57113 38.92866
# Shear Modulus (GPa) = 13.99109 12.86910 13.43010
#
# Velocity S-wave (km/s) = 2.76019 2.64721 2.70429
# Velocity P-wave (km/s) = 4.17050 6.67121 5.56318
#
# Compressibility (1/GPa) = 0.07526607
#
# Stress axis : x y z
#
# Youngs Moduli (GPa) = 82.37755 10.27916 89.88737
#
# Poissons Ratio (x) = 0.13671 0.54652
# Poissons Ratio (y) = 1.09560 0.29317
# Poissons Ratio (z) = 0.50086 0.03353
#
# Static dielectric constant tensor:
#      x y z
#    x 1.624600 0.000000 0.000000 
#    y 0.000000 1.629500 0.000000 
#    z 0.000000 0.000000 1.613720 
# 
# From -- ./inp_files/29586.got.cif
#   From: 2010.05.17/outbox.cif.g08.bks.cpg/sg51_15_cif.got.tgz:29586.got - 2010.06.03 11:52:47.
