data_PCOD9404480
_publ_section_title
;
Structure prediction by ZEFSAII (Michael W. Deem and Ramdas Pophale) SiO2 
 PCOD9404480
Probable space group: P M M A
;
_chemical_formula_sum "Si O2"
_cell_formula_units_Z 28
_cell_length_a 8.741998
_cell_length_b 12.822471
_cell_length_c 14.691571
_cell_angle_alpha 90.000000
_cell_angle_beta 90.000000
_cell_angle_gamma 90.000000
_cell_volume 1646.837192
_symmetry_space_group_name_H-M "P M M A"
_symmetry_group_IT_number 51
_symmetry_cell_setting 'orthorhombic'
loop_
_space_group_symop_operation_xyz
x,y,z
1/2-x,-y,z
1/2+x,-y,-z
-x,y,-z
-x,-y,-z
1/2+x,y,-z
1/2-x,y,z
x,-y,z
loop_
_atom_site_type_symbol
_atom_site_label
_atom_site_fract_x
_atom_site_fract_y
_atom_site_fract_z
Si Si1 0.933407 0.000000 0.898219
Si Si2 0.931689 0.124714 0.597842
Si Si3 0.432225 0.194200 0.785371
Si Si4 0.067637 0.622515 0.099757
O O1 0.992163 0.898573 0.844296
O O2 0.750000 0.000000 0.900812
O O3 0.000000 0.000000 0.000000
O O4 0.750000 0.142872 0.599995
O O5 0.000000 0.154668 0.500000
O O6 0.012305 0.180540 0.681982
O O7 0.957089 0.000000 0.608854
O O8 0.250000 0.185267 0.790921
O O9 0.488910 0.302433 0.827901
O O10 0.250000 0.639820 0.099009
O O11 0.039257 0.500000 0.117743
O O12 0.000000 0.646495 0.000000
#
# Coordination Sequence:
#
# PCOD9404480 Si02
#       4
#     4   8   8   8
#     4  12  24  38  53  76 111 148 184 224 274 332
#     4  10  20  35  56  81 112 147 184 228 273 328
#     4  12  23  36  56  82 113 147 184 227 276 331
#     4  10  21  38  59  82 110 146 189 233 276 326
#
# _framework density 17.002289000000001
#
# number of rings (size 3 to 8) (size 9 to 14) (size 15 to 20)
#    0.000    1.143    1.429    6.429    0.000    2.857 
#    0.000    0.000    0.000    0.857    0.000    0.000 
#    0.000    0.000    0.000    0.000    0.000    0.000 
#
# Total GULP energy -156574.841370 kJ/mol
# GULP energy per Si atom -5591.958620 kJ/mol
# Density = 1.696359 g / cm^3
# Si number density = 17.002289 Si / 1000 Ang^3
#
#
#
# Elastic Constant Matrix: (Units=GPa)
#
#
# Indices 1 2 3 4 5 6 
#
# 1 152.2497 66.4808 93.0383 0.0000 0.0000 0.0000
# 2 66.4808 66.4611 73.8180 0.0000 0.0000 0.0000
# 3 93.0383 73.8180 171.4420 0.0000 0.0000 0.0000
# 4 0.0000 0.0000 0.0000 10.7835 0.0000 0.0000
# 5 0.0000 0.0000 0.0000 0.0000 36.4750 0.0000
# 6 0.0000 0.0000 0.0000 0.0000 0.0000 25.2689
#
#
#
# Elastic Compliance Matrix: (Units=1/GPa)
#
#
# Indices 1 2 3 4 5 6 
#
# 1 0.012251 -0.009334 -0.002629 0.000000 0.000000 0.000000
# 2 -0.009334 0.035949 -0.010413 0.000000 0.000000 0.000000
# 3 -0.002629 -0.010413 0.011743 0.000000 0.000000 0.000000
# 4 0.000000 0.000000 0.000000 0.092734 0.000000 0.000000
# 5 0.000000 0.000000 0.000000 0.000000 0.027416 0.000000
# 6 0.000000 0.000000 0.000000 0.000000 0.000000 0.039574
#
#
# Mechanical properties :
#
#
# Convention : Reuss Voigt Hill
#
# Bulk Modulus (GPa) = 65.83229 95.20301 80.51765
# Shear Modulus (GPa) = 18.55400 24.95986 21.75693
#
# Velocity S-wave (km/s) = 3.30701 3.83564 3.58110
# Velocity P-wave (km/s) = 7.30654 8.70241 8.03485
#
# Compressibility (1/GPa) = 0.01519012
#
# Stress axis : x y z
#
# Youngs Moduli (GPa) = 81.62890 27.81715 85.15434
#
# Poissons Ratio (x) = 0.25964 0.22389
# Poissons Ratio (y) = 0.76192 0.88674
# Poissons Ratio (z) = 0.21462 0.28967
#
# Static dielectric constant tensor:
#      x y z
#    x 1.563450 0.000000 0.000000 
#    y 0.000000 1.557520 0.000000 
#    z 0.000000 0.000000 1.550150 
# 
# From -- ./inp_files/19986.got.cif
#   From: 2010.05.17/outbox.cif.g08.bks.cpg/sg51_10_cif.got.tgz:19986.got - 2010.06.03 11:52:47.
