data_PCOD9404412
_publ_section_title
;
Structure prediction by ZEFSAII (Michael W. Deem and Ramdas Pophale) SiO2 
 PCOD9404412
Probable space group: P M M A
;
_chemical_formula_sum "Si O2"
_cell_formula_units_Z 64
_cell_length_a 29.506549
_cell_length_b 8.629833
_cell_length_c 12.933399
_cell_angle_alpha 90.000000
_cell_angle_beta 90.000000
_cell_angle_gamma 90.000000
_cell_volume 3293.316622
_symmetry_space_group_name_H-M "P M M A"
_symmetry_group_IT_number 51
_symmetry_cell_setting 'orthorhombic'
loop_
_space_group_symop_operation_xyz
x,y,z
1/2-x,-y,z
1/2+x,-y,-z
-x,y,-z
-x,-y,-z
1/2+x,y,-z
1/2-x,y,z
x,-y,z
loop_
_atom_site_type_symbol
_atom_site_label
_atom_site_fract_x
_atom_site_fract_y
_atom_site_fract_z
Si Si1 0.800823 0.310942 0.493965
Si Si2 0.561211 0.817233 0.255317
Si Si3 0.122551 0.687560 0.344782
Si Si4 0.865034 0.313813 0.889913
Si Si5 0.656439 0.315431 0.280118
Si Si6 0.051647 0.682894 0.967251
Si Si7 0.697664 0.814634 0.068725
Si Si8 0.522946 0.186681 0.609167
O O1 0.750000 0.260906 0.521646
O O2 0.801272 0.500000 0.495124
O O3 0.839596 0.259396 0.573360
O O4 0.813376 0.263555 0.377269
O O5 0.604640 0.731745 0.302113
O O6 0.561799 0.781212 0.134041
O O7 0.513413 0.765451 0.303519
O O8 0.565917 0.000000 0.274643
O O9 0.122209 0.500000 0.344860
O O10 0.135268 0.739414 0.228599
O O11 0.072358 0.742985 0.374318
O O12 0.859870 0.500000 0.890233
O O13 0.913716 0.277802 0.941390
O O14 0.827680 0.244915 0.966540
O O15 0.659475 0.500000 0.271126
O O16 0.672719 0.244672 0.171897
O O17 0.058143 0.500000 0.942049
O O18 0.000000 0.705637 0.000000
O O19 0.750000 0.762659 0.070519
O O20 0.696448 0.000000 0.069291
O O21 0.500000 0.229219 0.500000
O O22 0.527316 0.000000 0.611808
#
# Coordination Sequence:
#
# PCOD9404412 Si02
#       8
#     8   8   8   8   8   8   8   8
#     4   9  19  36  59  88 118 148 188 243 302 356
#     4  11  22  35  55  83 115 154 197 240 291 350
#     4  10  21  38  62  90 118 152 198 246 293 349
#     4  10  21  37  58  86 118 155 195 239 293 352
#     4  11  21  36  60  88 118 153 194 245 303 355
#     4  10  20  35  55  81 114 151 191 237 287 342
#     4  11  24  40  59  85 118 156 198 247 299 353
#     4  10  22  39  57  82 119 162 202 241 293 353
#
# _framework density 19.433297
#
# number of rings (size 3 to 8) (size 9 to 14) (size 15 to 20)
#    0.000    1.750    1.250    3.000    0.000    5.000 
#    0.000    1.875    0.000    1.875    0.000    0.000 
#    0.000    0.000    0.000    0.000    0.000    0.000 
#
# Total GULP energy -357571.523513 kJ/mol
# GULP energy per Si atom -5587.055055 kJ/mol
# Density = 1.938907 g / cm^3
# Si number density = 19.433297 Si / 1000 Ang^3
#
#
#
# Elastic Constant Matrix: (Units=GPa)
#
#
# Indices 1 2 3 4 5 6 
#
# 1 158.1117 24.3699 70.6047 0.0000 0.0000 0.0000
# 2 24.3699 12.6710 23.1780 0.0000 0.0000 0.0000
# 3 70.6047 23.1780 134.8750 0.0000 0.0000 0.0000
# 4 0.0000 0.0000 0.0000 5.4294 0.0000 0.0000
# 5 0.0000 0.0000 0.0000 0.0000 29.0153 0.0000
# 6 0.0000 0.0000 0.0000 0.0000 0.0000 23.4847
#
#
#
# Elastic Compliance Matrix: (Units=1/GPa)
#
#
# Indices 1 2 3 4 5 6 
#
# 1 0.009623 -0.013554 -0.002708 0.000000 0.000000 0.000000
# 2 -0.013554 0.134192 -0.015966 0.000000 0.000000 0.000000
# 3 -0.002708 -0.015966 0.011576 0.000000 0.000000 0.000000
# 4 0.000000 0.000000 0.000000 0.184184 0.000000 0.000000
# 5 0.000000 0.000000 0.000000 0.000000 0.034465 0.000000
# 6 0.000000 0.000000 0.000000 0.000000 0.000000 0.042581
#
#
# Mechanical properties :
#
#
# Convention : Reuss Voigt Hill
#
# Bulk Modulus (GPa) = 10.99677 60.21812 35.60745
# Shear Modulus (GPa) = 9.77732 24.08620 16.93176
#
# Velocity S-wave (km/s) = 2.24547 3.52437 2.95494
# Velocity P-wave (km/s) = 3.52049 6.90043 5.47767
#
# Compressibility (1/GPa) = 0.09093578
#
# Stress axis : x y z
#
# Youngs Moduli (GPa) = 103.91649 7.45199 86.38801
#
# Poissons Ratio (x) = 0.10100 0.23397
# Poissons Ratio (y) = 1.40847 1.37923
# Poissons Ratio (z) = 0.28144 0.11897
#
# Static dielectric constant tensor:
#      x y z
#    x 1.669040 0.000000 0.000000 
#    y 0.000000 1.665410 0.000000 
#    z 0.000000 0.000000 1.669640 
# 
# From -- ./inp_files/19624.got.cif
#   From: 2010.05.17/outbox.cif.g08.bks.cpg/sg51_10_cif.got.tgz:19624.got - 2010.06.03 11:52:47.
