data_PCOD9404042
_publ_section_title
;
Structure prediction by ZEFSAII (Michael W. Deem and Ramdas Pophale) SiO2 
 PCOD9404042
Probable space group: P M M A
;
_chemical_formula_sum "Si O2"
_cell_formula_units_Z 48
_cell_length_a 8.531979
_cell_length_b 10.265771
_cell_length_c 29.908412
_cell_angle_alpha 90.000000
_cell_angle_beta 90.000000
_cell_angle_gamma 90.000000
_cell_volume 2619.598328
_symmetry_space_group_name_H-M "P M M A"
_symmetry_group_IT_number 51
_symmetry_cell_setting 'orthorhombic'
loop_
_space_group_symop_operation_xyz
x,y,z
1/2-x,-y,z
1/2+x,-y,-z
-x,y,-z
-x,-y,-z
1/2+x,y,-z
1/2-x,y,z
x,-y,z
loop_
_atom_site_type_symbol
_atom_site_label
_atom_site_fract_x
_atom_site_fract_y
_atom_site_fract_z
Si Si1 0.060298 0.348254 0.199903
Si Si2 0.061832 0.256217 0.894857
Si Si3 0.439177 0.851232 0.378647
Si Si4 0.560671 0.000000 0.050893
Si Si5 0.562568 0.649466 0.451008
Si Si6 0.559077 0.148304 0.724090
Si Si7 0.437187 0.500000 0.050007
O O1 0.250000 0.350406 0.199969
O O2 0.007876 0.500000 0.201376
O O3 0.006962 0.259740 0.241670
O O4 0.004474 0.278984 0.154595
O O5 0.250000 0.256769 0.892523
O O6 0.001903 0.375260 0.924398
O O7 0.011001 0.125771 0.920568
O O8 0.250000 0.846210 0.379754
O O9 0.504288 0.747222 0.413177
O O10 0.488194 0.826140 0.327225
O O11 0.485951 0.000000 0.389882
O O12 0.750000 0.000000 0.048503
O O13 0.500000 0.000000 0.000000
O O14 0.500000 0.687092 0.500000
O O15 0.750000 0.650716 0.452144
O O16 0.509906 0.500000 0.442384
O O17 0.750000 0.148146 0.724716
O O18 0.510164 0.000000 0.736216
O O19 0.250000 0.500000 0.050631
O O20 0.500000 0.500000 0.000000
#
# Coordination Sequence:
#
# PCOD9404042 Si02
#       7
#     8   8   8   4   8   8   4
#     4  10  20  34  54  83 114 144 186 230 271 324
#     4  11  23  40  59  83 116 150 184 227 276 328
#     4   9  18  34  56  82 112 146 186 231 279 333
#     4  10  24  42  60  84 112 144 184 226 271 328
#     4  10  21  36  54  78 109 146 189 235 282 336
#     4   8  16  32  54  80 110 145 186 231 277 326
#     4  12  24  40  62  88 114 146 186 226 273 330
#
# _framework density 18.323419000000001
#
# number of rings (size 3 to 8) (size 9 to 14) (size 15 to 20)
#    0.000    2.167    0.833    3.250    1.167    5.000 
#    0.000    2.500    0.000    1.000    0.000    0.000 
#    0.000    0.000    0.000    0.000    0.000    0.000 
#
# Total GULP energy -267907.802786 kJ/mol
# GULP energy per Si atom -5581.412558 kJ/mol
# Density = 1.828171 g / cm^3
# Si number density = 18.323419 Si / 1000 Ang^3
#
#
#
# Elastic Constant Matrix: (Units=GPa)
#
#
# Indices 1 2 3 4 5 6 
#
# 1 15.7650 28.6766 24.8352 0.0000 0.0000 0.0000
# 2 28.6766 176.3974 124.7709 0.0000 0.0000 0.0000
# 3 24.8352 124.7709 171.4078 0.0000 0.0000 0.0000
# 4 0.0000 0.0000 0.0000 42.9222 0.0000 0.0000
# 5 0.0000 0.0000 0.0000 0.0000 29.8254 0.0000
# 6 0.0000 0.0000 0.0000 0.0000 0.0000 37.3278
#
#
#
# Elastic Compliance Matrix: (Units=1/GPa)
#
#
# Indices 1 2 3 4 5 6 
#
# 1 0.092132 -0.011411 -0.005043 0.000000 0.000000 0.000000
# 2 -0.011411 0.013099 -0.007882 0.000000 0.000000 0.000000
# 3 -0.005043 -0.007882 0.012302 0.000000 0.000000 0.000000
# 4 0.000000 0.000000 0.000000 0.023298 0.000000 0.000000
# 5 0.000000 0.000000 0.000000 0.000000 0.033528 0.000000
# 6 0.000000 0.000000 0.000000 0.000000 0.000000 0.026790
#
#
# Mechanical properties :
#
#
# Convention : Reuss Voigt Hill
#
# Bulk Modulus (GPa) = 14.52173 80.01507 47.26840
# Shear Modulus (GPa) = 18.33020 34.36757 26.34889
#
# Velocity S-wave (km/s) = 3.16629 4.33553 3.79620
# Velocity P-wave (km/s) = 4.61624 8.29611 6.71324
#
# Compressibility (1/GPa) = 0.06886232
#
# Stress axis : x y z
#
# Youngs Moduli (GPa) = 10.85398 76.34173 81.28800
#
# Poissons Ratio (x) = 0.87112 0.40993
# Poissons Ratio (y) = 0.12385 0.64069
# Poissons Ratio (z) = 0.05474 0.60170
#
# Static dielectric constant tensor:
#      x y z
#    x 1.630590 0.000000 0.000000 
#    y 0.000000 1.626800 0.000000 
#    z 0.000000 0.000000 1.602740 
# 
# From -- ./inp_files/37211.got.cif
#   From: 2010.05.17/outbox.cif.g08.bks.cpg/sg51_19_cif.got.tgz:37211.got - 2010.06.03 11:52:47.
