data_PCOD9404469
_publ_section_title
;
Structure prediction by ZEFSAII (Michael W. Deem and Ramdas Pophale) SiO2 
 PCOD9404469
Probable space group: P M M A
;
_chemical_formula_sum "Si O2"
_cell_formula_units_Z 64
_cell_length_a 9.025883
_cell_length_b 18.072936
_cell_length_c 21.375485
_cell_angle_alpha 90.000000
_cell_angle_beta 90.000000
_cell_angle_gamma 90.000000
_cell_volume 3486.859014
_symmetry_space_group_name_H-M "P M M A"
_symmetry_group_IT_number 51
_symmetry_cell_setting 'orthorhombic'
loop_
_space_group_symop_operation_xyz
x,y,z
1/2-x,-y,z
1/2+x,-y,-z
-x,y,-z
-x,-y,-z
1/2+x,y,-z
1/2-x,y,z
x,-y,z
loop_
_atom_site_type_symbol
_atom_site_label
_atom_site_fract_x
_atom_site_fract_y
_atom_site_fract_z
Si Si1 0.922585 0.589358 0.565040
Si Si2 0.427980 0.088426 0.798902
Si Si3 0.927246 0.660200 0.313515
Si Si4 0.077911 0.089955 0.937500
Si Si5 0.421956 0.589417 0.192845
Si Si6 0.578795 0.409753 0.064119
Si Si7 0.572165 0.178991 0.687529
Si Si8 0.072467 0.085701 0.435324
O O1 0.750000 0.612065 0.565926
O O2 0.927434 0.500000 0.568027
O O3 0.000000 0.612047 0.500000
O O4 0.007066 0.621242 0.624783
O O5 0.250000 0.100977 0.793886
O O6 0.477317 0.112404 0.868811
O O7 0.515587 0.131228 0.745915
O O8 0.450797 0.000000 0.793064
O O9 0.750000 0.659049 0.314802
O O10 0.987411 0.619774 0.251494
O O11 0.990533 0.742925 0.312062
O O12 0.250000 0.109313 0.940910
O O13 0.068414 0.000000 0.937869
O O14 0.000000 0.117773 0.000000
O O15 0.250000 0.612204 0.197052
O O16 0.426297 0.500000 0.194481
O O17 0.492817 0.613396 0.126765
O O18 0.750000 0.386416 0.065913
O O19 0.577225 0.500000 0.063682
O O20 0.500000 0.385595 0.000000
O O21 0.750000 0.188346 0.689814
O O22 0.533322 0.135177 0.623991
O O23 0.250000 0.087018 0.441987
O O24 0.000000 0.111227 0.500000
O O25 0.027249 0.000000 0.424763
#
# Coordination Sequence:
#
# PCOD9404469 Si02
#       8
#     8   8   8   8   8   8   8   8
#     4  10  21  39  63  89 115 143 178 221 268 319
#     4   9  18  33  53  78 108 141 178 221 270 324
#     4  12  25  39  56  79 110 147 185 225 273 327
#     4   8  14  25  43  70 103 135 169 213 262 312
#     4  10  20  35  56  81 109 142 181 226 275 327
#     4   9  16  27  46  75 109 142 178 222 271 321
#     4  11  23  38  55  77 108 143 182 226 269 318
#     4   9  19  36  58  83 108 135 170 213 260 311
#
# _framework density 18.354627000000001
#
# number of rings (size 3 to 8) (size 9 to 14) (size 15 to 20)
#    0.000    2.250    0.000    4.125    0.000    7.250 
#    0.000    3.750    0.000    0.750    0.000    3.500 
#    0.000    0.000    0.000    0.000    0.000    0.000 
#
# Total GULP energy -357215.700481 kJ/mol
# GULP energy per Si atom -5581.495320 kJ/mol
# Density = 1.831285 g / cm^3
# Si number density = 18.354627 Si / 1000 Ang^3
#
#
#
# Elastic Constant Matrix: (Units=GPa)
#
#
# Indices 1 2 3 4 5 6 
#
# 1 133.0083 39.8129 100.4321 0.0000 0.0000 0.0000
# 2 39.8129 26.5266 48.4565 0.0000 0.0000 0.0000
# 3 100.4321 48.4565 207.1923 0.0000 0.0000 0.0000
# 4 0.0000 0.0000 0.0000 -12.0310 0.0000 0.0000
# 5 0.0000 0.0000 0.0000 0.0000 40.0105 0.0000
# 6 0.0000 0.0000 0.0000 0.0000 0.0000 22.5121
#
#
#
# Elastic Compliance Matrix: (Units=1/GPa)
#
#
# Indices 1 2 3 4 5 6 
#
# 1 0.014973 -0.016087 -0.003496 0.000000 0.000000 0.000000
# 2 -0.016087 0.083100 -0.011637 0.000000 0.000000 0.000000
# 3 -0.003496 -0.011637 0.009242 0.000000 0.000000 0.000000
# 4 0.000000 0.000000 0.000000 -0.083119 0.000000 0.000000
# 5 0.000000 0.000000 0.000000 0.000000 0.024993 0.000000
# 6 0.000000 0.000000 0.000000 0.000000 0.000000 0.044420
#
#
# Mechanical properties :
#
#
# Convention : Reuss Voigt Hill
#
# Bulk Modulus (GPa) = 22.28353 82.68114 52.48233
# Shear Modulus (GPa) = 29.23830 21.96671 25.60251
#
# Velocity S-wave (km/s) = 3.99553 3.46322 3.73886
# Velocity P-wave (km/s) = 5.78382 7.81896 6.87709
#
# Compressibility (1/GPa) = 0.04487620
#
# Stress axis : x y z
#
# Youngs Moduli (GPa) = 66.78649 12.03368 108.19783
#
# Poissons Ratio (x) = 0.19359 0.37821
# Poissons Ratio (y) = 1.07442 1.25908
# Poissons Ratio (z) = 0.23345 0.14003
#
# Static dielectric constant tensor:
#      x y z
#    x 1.615300 0.000000 0.000000 
#    y 0.000000 1.618750 0.000000 
#    z 0.000000 0.000000 1.617930 
# 
# From -- ./inp_files/32304.got.cif
#   From: 2010.05.17/outbox.cif.g08.bks.cpg/sg51_17_cif.got.tgz:32304.got - 2010.06.03 11:52:47.
