data_PCOD9404341
_publ_section_title
;
Structure prediction by ZEFSAII (Michael W. Deem and Ramdas Pophale) SiO2 
 PCOD9404341
Probable space group: P M M A
;
_chemical_formula_sum "Si O2"
_cell_formula_units_Z 56
_cell_length_a 18.719388
_cell_length_b 9.020345
_cell_length_c 19.504487
_cell_angle_alpha 90.000000
_cell_angle_beta 90.000000
_cell_angle_gamma 90.000000
_cell_volume 3293.436744
_symmetry_space_group_name_H-M "P M M A"
_symmetry_group_IT_number 51
_symmetry_cell_setting 'orthorhombic'
loop_
_space_group_symop_operation_xyz
x,y,z
1/2-x,-y,z
1/2+x,-y,-z
-x,y,-z
-x,-y,-z
1/2+x,y,-z
1/2-x,y,z
x,-y,z
loop_
_atom_site_type_symbol
_atom_site_label
_atom_site_fract_x
_atom_site_fract_y
_atom_site_fract_z
Si Si1 0.083580 0.673621 0.590078
Si Si2 0.111574 0.671182 0.738984
Si Si3 0.667072 0.177051 0.532463
Si Si4 0.924287 0.676827 0.647884
Si Si5 0.025359 0.178790 0.924841
Si Si6 0.827181 0.325353 0.118153
Si Si7 0.969586 0.825204 0.782057
O O1 0.083678 0.500000 0.570080
O O2 0.130084 0.691160 0.659715
O O3 0.117048 0.767505 0.529501
O O4 0.002185 0.711145 0.612928
O O5 0.082591 0.500000 0.743456
O O6 0.168649 0.684651 0.798908
O O7 0.050125 0.787242 0.757811
O O8 0.750000 0.219153 0.521091
O O9 0.635826 0.250042 0.601117
O O10 0.663065 0.000000 0.537684
O O11 0.917905 0.500000 0.648626
O O12 0.923759 0.738943 0.725420
O O13 0.103698 0.243333 0.910288
O O14 0.972508 0.222652 0.861988
O O15 0.029083 0.000000 0.922929
O O16 0.000000 0.225366 0.000000
O O17 0.750000 0.269200 0.094466
O O18 0.832633 0.500000 0.101557
O O19 0.955080 0.000000 0.778147
#
# Coordination Sequence:
#
# PCOD9404341 Si02
#       7
#     8   8   8   8   8   8   8
#     4   9  18  32  51  74  97 125 163 201 239 289
#     4   8  15  28  45  67  96 126 156 191 231 281
#     4  11  24  37  48  68  98 129 163 206 254 297
#     4  10  20  35  55  75  95 123 163 206 245 292
#     4   9  18  32  50  74 103 133 165 199 238 288
#     4   9  17  29  46  70 100 133 167 201 240 287
#     4   9  16  28  49  74  97 121 152 193 237 280
#
# _framework density 17.003515
#
# number of rings (size 3 to 8) (size 9 to 14) (size 15 to 20)
#    0.000    2.714    0.000    2.571    0.000    7.429 
#    0.000    1.429    0.000    0.857    0.000    2.000 
#    0.000    0.000    0.000    0.000    0.000    0.000 
#
# Total GULP energy -311814.474501 kJ/mol
# GULP energy per Si atom -5568.115616 kJ/mol
# Density = 1.696481 g / cm^3
# Si number density = 17.003515 Si / 1000 Ang^3
#
#
#
# Elastic Constant Matrix: (Units=GPa)
#
#
# Indices 1 2 3 4 5 6 
#
# 1 36.7960 18.6654 25.1735 0.0000 0.0000 0.0000
# 2 18.6654 33.6667 35.3110 0.0000 0.0000 0.0000
# 3 25.1735 35.3110 110.5511 0.0000 0.0000 0.0000
# 4 0.0000 0.0000 0.0000 23.8057 0.0000 0.0000
# 5 0.0000 0.0000 0.0000 0.0000 6.6290 0.0000
# 6 0.0000 0.0000 0.0000 0.0000 0.0000 20.3137
#
#
#
# Elastic Compliance Matrix: (Units=1/GPa)
#
#
# Indices 1 2 3 4 5 6 
#
# 1 0.038430 -0.018238 -0.002926 0.000000 0.000000 0.000000
# 2 -0.018238 0.053322 -0.012879 0.000000 0.000000 0.000000
# 3 -0.002926 -0.012879 0.013825 0.000000 0.000000 0.000000
# 4 0.000000 0.000000 0.000000 0.042007 0.000000 0.000000
# 5 0.000000 0.000000 0.000000 0.000000 0.150853 0.000000
# 6 0.000000 0.000000 0.000000 0.000000 0.000000 0.049228
#
#
# Mechanical properties :
#
#
# Convention : Reuss Voigt Hill
#
# Bulk Modulus (GPa) = 26.67146 37.70150 32.18648
# Shear Modulus (GPa) = 11.67555 16.94059 14.30807
#
# Velocity S-wave (km/s) = 2.62325 3.15985 2.90397
# Velocity P-wave (km/s) = 4.98951 5.96102 5.49677
#
# Compressibility (1/GPa) = 0.03749327
#
# Stress axis : x y z
#
# Youngs Moduli (GPa) = 26.02161 18.75408 72.33122
#
# Poissons Ratio (x) = 0.34203 0.21161
# Poissons Ratio (y) = 0.47457 0.93152
# Poissons Ratio (z) = 0.07613 0.24153
#
# Static dielectric constant tensor:
#      x y z
#    x 1.573330 0.000000 0.000000 
#    y 0.000000 1.571220 0.000000 
#    z 0.000000 0.000000 1.604620 
# 
# From -- ./inp_files/30348.got.cif
#   From: 2010.05.17/outbox.cif.g08.bks.cpg/sg51_16_cif.got.tgz:30348.got - 2010.06.03 11:52:47.
