data_PCOD9404710
_publ_section_title
;
Structure prediction by ZEFSAII (Michael W. Deem and Ramdas Pophale) SiO2 
 PCOD9404710
Probable space group: P M M A
;
_chemical_formula_sum "Si O2"
_cell_formula_units_Z 56
_cell_length_a 23.921313
_cell_length_b 7.857082
_cell_length_c 12.914392
_cell_angle_alpha 90.000000
_cell_angle_beta 90.000000
_cell_angle_gamma 90.000000
_cell_volume 2427.282161
_symmetry_space_group_name_H-M "P M M A"
_symmetry_group_IT_number 51
_symmetry_cell_setting 'orthorhombic'
loop_
_space_group_symop_operation_xyz
x,y,z
1/2-x,-y,z
1/2+x,-y,-z
-x,y,-z
-x,-y,-z
1/2+x,y,-z
1/2-x,y,z
x,-y,z
loop_
_atom_site_type_symbol
_atom_site_label
_atom_site_fract_x
_atom_site_fract_y
_atom_site_fract_z
Si Si1 0.310058 0.708238 0.420869
Si Si2 0.371213 0.293988 0.090832
Si Si3 0.250000 0.302189 0.056573
Si Si4 0.078602 0.705496 0.303895
Si Si5 0.546898 0.797111 0.076442
Si Si6 0.543497 0.797777 0.309647
Si Si7 0.750000 0.193001 0.176280
Si Si8 0.665740 0.698463 0.350583
O O1 0.250000 0.757769 0.374238
O O2 0.311813 0.500000 0.419987
O O3 0.366430 0.764842 0.364840
O O4 0.311680 0.764705 0.540178
O O5 0.370753 0.500000 0.093064
O O6 0.410743 0.235858 0.185202
O O7 0.307952 0.229684 0.099149
O O8 0.395435 0.237495 0.981126
O O9 0.250000 0.500000 0.088478
O O10 0.250000 0.296847 0.930755
O O11 0.077948 0.500000 0.304568
O O12 0.019138 0.763432 0.348713
O O13 0.543526 0.729064 0.191611
O O14 0.538533 0.000000 0.083954
O O15 0.500000 0.723998 0.000000
O O16 0.598875 0.718459 0.357779
O O17 0.552454 0.000000 0.310208
O O18 0.803838 0.221763 0.250907
O O19 0.750000 0.000000 0.140397
O O20 0.679693 0.500000 0.343731
#
# Coordination Sequence:
#
# PCOD9404710 Si02
#       8
#     8   8   4   8   8   8   4   8
#     4   9  19  38  65  91 114 150 198 245 297 355
#     4  10  21  35  56  87 119 151 193 244 290 335
#     4  10  22  38  55  84 122 158 193 240 293 340
#     4  10  21  37  60  89 119 154 198 247 295 351
#     4  10  20  36  56  77 110 157 196 230 279 345
#     4  11  23  39  59  87 122 160 198 241 297 355
#     4  12  24  40  61  90 122 156 197 242 297 358
#     4  11  22  40  66  91 117 152 197 248 299 351
#
# _framework density 23.071072999999998
#
# number of rings (size 3 to 8) (size 9 to 14) (size 15 to 20)
#    0.000    1.714    2.143    2.357    1.000    4.857 
#    0.000    4.286    0.000    0.000    0.000    0.000 
#    0.000    0.000    0.000    0.000    0.000    0.000 
#
# Total GULP energy -312912.492470 kJ/mol
# GULP energy per Si atom -5587.723080 kJ/mol
# Density = 2.301856 g / cm^3
# Si number density = 23.071073 Si / 1000 Ang^3
#
#
#
# Elastic Constant Matrix: (Units=GPa)
#
#
# Indices 1 2 3 4 5 6 
#
# 1 166.3512 -12.3131 15.8028 0.0000 0.0000 0.0000
# 2 -12.3131 28.6023 -5.2205 0.0000 0.0000 0.0000
# 3 15.8028 -5.2205 32.1284 0.0000 0.0000 0.0000
# 4 0.0000 0.0000 0.0000 -29.4583 0.0000 0.0000
# 5 0.0000 0.0000 0.0000 0.0000 39.5054 0.0000
# 6 0.0000 0.0000 0.0000 0.0000 0.0000 35.9219
#
#
#
# Elastic Compliance Matrix: (Units=1/GPa)
#
#
# Indices 1 2 3 4 5 6 
#
# 1 0.006445 0.002263 -0.002802 0.000000 0.000000 0.000000
# 2 0.002263 0.036825 0.004871 0.000000 0.000000 0.000000
# 3 -0.002802 0.004871 0.033295 0.000000 0.000000 0.000000
# 4 0.000000 0.000000 0.000000 -0.033946 0.000000 0.000000
# 5 0.000000 0.000000 0.000000 0.000000 0.025313 0.000000
# 6 0.000000 0.000000 0.000000 0.000000 0.000000 0.027838
#
#
# Mechanical properties :
#
#
# Convention : Reuss Voigt Hill
#
# Bulk Modulus (GPa) = 11.73322 24.84669 18.28995
# Shear Modulus (GPa) = 43.28366 24.44798 33.86582
#
# Velocity S-wave (km/s) = 4.33610 3.25881 3.83546
# Velocity P-wave (km/s) = 5.49233 4.99527 5.24969
#
# Compressibility (1/GPa) = 0.08522810
#
# Stress axis : x y z
#
# Youngs Moduli (GPa) = 155.15651 27.15517 30.03459
#
# Poissons Ratio (x) = -0.06145 0.08417
# Poissons Ratio (y) = -0.35113 -0.14629
# Poissons Ratio (z) = 0.43481 -0.13226
#
# Static dielectric constant tensor:
#      x y z
#    x 1.916100 0.000000 0.000000 
#    y 0.000000 1.838460 0.000000 
#    z 0.000000 0.000000 1.857340 
# 
# From -- ./inp_files/25796.got.cif
#   From: 2010.05.17/outbox.cif.g08.bks.cpg/sg51_13_cif.got.tgz:25796.got - 2010.06.03 11:52:47.
