data_PCOD9404057
_publ_section_title
;
Structure prediction by ZEFSAII (Michael W. Deem and Ramdas Pophale) SiO2 
 PCOD9404057
Probable space group: P M M A
;
_chemical_formula_sum "Si O2"
_cell_formula_units_Z 58
_cell_length_a 18.784495
_cell_length_b 9.977066
_cell_length_c 17.476206
_cell_angle_alpha 90.000000
_cell_angle_beta 90.000000
_cell_angle_gamma 90.000000
_cell_volume 3275.288230
_symmetry_space_group_name_H-M "P M M A"
_symmetry_group_IT_number 51
_symmetry_cell_setting 'orthorhombic'
loop_
_space_group_symop_operation_xyz
x,y,z
1/2-x,-y,z
1/2+x,-y,-z
-x,y,-z
-x,-y,-z
1/2+x,y,-z
1/2-x,y,z
x,-y,z
loop_
_atom_site_type_symbol
_atom_site_label
_atom_site_fract_x
_atom_site_fract_y
_atom_site_fract_z
Si Si1 0.335761 0.156549 0.399437
Si Si2 0.093185 0.154893 0.842459
Si Si3 0.330782 0.838789 0.998719
Si Si4 0.945934 0.270113 0.884616
Si Si5 0.664672 0.344811 0.458367
Si Si6 0.500000 0.500000 0.000000
Si Si7 0.915188 0.344648 0.300296
Si Si8 0.917104 0.347659 0.713015
O O1 0.250000 0.161369 0.392752
O O2 0.355490 0.240071 0.475696
O O3 0.370967 0.236452 0.329614
O O4 0.356817 0.000000 0.402638
O O5 0.138044 0.202128 0.916110
O O6 0.105595 0.247697 0.769071
O O7 0.009940 0.168234 0.864913
O O8 0.110404 0.000000 0.826557
O O9 0.250000 0.790493 0.008573
O O10 0.330546 0.000000 0.999015
O O11 0.382709 0.790620 0.065269
O O12 0.917385 0.325850 0.804192
O O13 0.981349 0.384471 0.935966
O O14 0.750000 0.337241 0.447785
O O15 0.647725 0.500000 0.479910
O O16 0.625705 0.315172 0.378683
O O17 0.900741 0.500000 0.279296
O O18 0.000222 0.333292 0.311592
O O19 0.893737 0.500000 0.695020
#
# Coordination Sequence:
#
# PCOD9404057 Si02
#       8
#     8   8   8   8   8   2   8   8
#     4  10  22  39  58  80 110 148 185 226 275 326
#     4  10  20  34  55  80 108 146 189 226 274 334
#     4  10  21  36  53  77 109 144 182 228 281 332
#     4  11  21  36  61  80 109 144 188 230 280 328
#     4   9  18  36  60  83 109 147 189 224 268 329
#     4  12  20  36  64  84 104 146 188 240 276 334
#     4   9  20  35  56  83 114 143 179 228 277 325
#     4  10  21  36  55  82 110 142 180 222 276 327
#
# _framework density 17.708365000000001
#
# number of rings (size 3 to 8) (size 9 to 14) (size 15 to 20)
#    0.000    2.069    2.069    0.828    0.966    6.897 
#    0.000    4.483    0.000    0.000    0.000    0.000 
#    0.000    0.000    0.000    0.000    0.000    0.000 
#
# Total GULP energy -323050.795112 kJ/mol
# GULP energy per Si atom -5569.841295 kJ/mol
# Density = 1.766806 g / cm^3
# Si number density = 17.708365 Si / 1000 Ang^3
#
#
#
# Elastic Constant Matrix: (Units=GPa)
#
#
# Indices 1 2 3 4 5 6 
#
# 1 32.1469 35.1986 49.8849 0.0000 0.0000 0.0000
# 2 35.1986 104.0530 84.4858 0.0000 0.0000 0.0000
# 3 49.8849 84.4858 145.2529 0.0000 0.0000 0.0000
# 4 0.0000 0.0000 0.0000 -131.8724 0.0000 0.0000
# 5 0.0000 0.0000 0.0000 0.0000 -19.2117 0.0000
# 6 0.0000 0.0000 0.0000 0.0000 0.0000 8.4106
#
#
#
# Elastic Compliance Matrix: (Units=1/GPa)
#
#
# Indices 1 2 3 4 5 6 
#
# 1 0.069840 -0.007864 -0.019411 0.000000 0.000000 0.000000
# 2 -0.007864 0.019096 -0.008407 0.000000 0.000000 0.000000
# 3 -0.019411 -0.008407 0.018441 0.000000 0.000000 0.000000
# 4 0.000000 0.000000 0.000000 -0.007583 0.000000 0.000000
# 5 0.000000 0.000000 0.000000 0.000000 -0.052052 0.000000
# 6 0.000000 0.000000 0.000000 0.000000 0.000000 0.118898
#
#
# Mechanical properties :
#
#
# Convention : Reuss Voigt Hill
#
# Bulk Modulus (GPa) = 27.76773 68.95462 48.36117
# Shear Modulus (GPa) = 19.99932 -21.07579 -0.53824
#
# Velocity S-wave (km/s) = 3.36426 -3.45361 -0.55191
# Velocity P-wave (km/s) = 5.55028 4.80836 5.19258
#
# Compressibility (1/GPa) = 0.03601303
#
# Stress axis : x y z
#
# Youngs Moduli (GPa) = 14.31847 52.36581 54.22782
#
# Poissons Ratio (x) = 0.41181 1.05263
# Poissons Ratio (y) = 0.11260 0.45587
# Poissons Ratio (z) = 0.27794 0.44022
#
# Static dielectric constant tensor:
#      x y z
#    x 1.601100 0.000000 0.000000 
#    y 0.000000 1.598850 0.000000 
#    z 0.000000 0.000000 1.580140 
# 
# From -- ./inp_files/30198.got.cif
#   From: 2010.05.17/outbox.cif.g08.bks.cpg/sg51_16_cif.got.tgz:30198.got - 2010.06.03 11:52:47.
