data_PCOD9404434
_publ_section_title
;
Structure prediction by ZEFSAII (Michael W. Deem and Ramdas Pophale) SiO2 
 PCOD9404434
Probable space group: P M M A
;
_chemical_formula_sum "Si O2"
_cell_formula_units_Z 40
_cell_length_a 25.034925
_cell_length_b 7.864910
_cell_length_c 11.749894
_cell_angle_alpha 90.000000
_cell_angle_beta 90.000000
_cell_angle_gamma 90.000000
_cell_volume 2313.523955
_symmetry_space_group_name_H-M "P M M A"
_symmetry_group_IT_number 51
_symmetry_cell_setting 'orthorhombic'
loop_
_space_group_symop_operation_xyz
x,y,z
1/2-x,-y,z
1/2+x,-y,-z
-x,y,-z
-x,-y,-z
1/2+x,y,-z
1/2-x,y,z
x,-y,z
loop_
_atom_site_type_symbol
_atom_site_label
_atom_site_fract_x
_atom_site_fract_y
_atom_site_fract_z
Si Si1 0.501722 0.795332 0.131440
Si Si2 0.186425 0.806979 0.344725
Si Si3 0.620757 0.197576 0.122652
Si Si4 0.314706 0.500000 0.507357
Si Si5 0.113154 0.699309 0.139147
Si Si6 0.814054 0.500000 0.229953
O O1 0.561610 0.755074 0.170777
O O2 0.447641 0.723131 0.184070
O O3 0.497233 0.000000 0.132512
O O4 0.500000 0.736336 0.000000
O O5 0.250000 0.784712 0.324343
O O6 0.169045 0.666987 0.436865
O O7 0.154233 0.776506 0.228850
O O8 0.177935 0.000000 0.384662
O O9 0.662632 0.332188 0.169861
O O10 0.631876 0.000000 0.150016
O O11 0.617418 0.214798 0.985142
O O12 0.250000 0.500000 0.509374
O O13 0.331701 0.500000 0.638002
O O14 0.124087 0.500000 0.125031
O O15 0.750000 0.500000 0.224260
#
# Coordination Sequence:
#
# PCOD9404434 Si02
#       6
#     8   8   8   4   8   4
#     4   8  16  30  50  77 109 143 179 213 251 309
#     4  10  20  35  56  79 106 139 173 219 275 322
#     4  10  21  37  55  80 114 147 177 214 261 317
#     4   9  20  39  56  75 100 131 185 233 262 308
#     4  11  19  30  55  86 114 143 174 215 266 320
#     4  11  24  39  57  79 105 141 183 226 265 313
#
# _framework density 17.289641
#
# number of rings (size 3 to 8) (size 9 to 14) (size 15 to 20)
#    0.000    2.200    2.000    3.000    1.400    3.200 
#    0.000    2.000    0.000    2.400    0.000    4.200 
#    0.000    0.000    0.000    0.000    0.000    0.000 
#
# Total GULP energy -222939.055029 kJ/mol
# GULP energy per Si atom -5573.476376 kJ/mol
# Density = 1.725029 g / cm^3
# Si number density = 17.289641 Si / 1000 Ang^3
#
#
#
# Elastic Constant Matrix: (Units=GPa)
#
#
# Indices 1 2 3 4 5 6 
#
# 1 85.1212 56.1414 40.1340 0.0000 0.0000 0.0000
# 2 56.1414 114.8148 35.5219 0.0000 0.0000 0.0000
# 3 40.1340 35.5219 71.5280 0.0000 0.0000 0.0000
# 4 0.0000 0.0000 0.0000 -0.0396 0.0000 0.0000
# 5 0.0000 0.0000 0.0000 0.0000 -7.7070 0.0000
# 6 0.0000 0.0000 0.0000 0.0000 0.0000 22.8181
#
#
#
# Elastic Compliance Matrix: (Units=1/GPa)
#
#
# Indices 1 2 3 4 5 6 
#
# 1 0.020363 -0.007588 -0.007657 0.000000 0.000000 0.000000
# 2 -0.007588 0.013118 -0.002257 0.000000 0.000000 0.000000
# 3 -0.007657 -0.002257 0.019398 0.000000 0.000000 0.000000
# 4 0.000000 0.000000 0.000000-25.278407 0.000000 0.000000
# 5 0.000000 0.000000 0.000000 0.000000 -0.129752 0.000000
# 6 0.000000 0.000000 0.000000 0.000000 0.000000 0.043825
#
#
# Mechanical properties :
#
#
# Convention : Reuss Voigt Hill
#
# Bulk Modulus (GPa) = 55.94588 59.45095 57.69842
# Shear Modulus (GPa) = -0.19786 12.32541 6.06378
#
# Velocity S-wave (km/s) = -0.33865 2.67288 1.87478
# Velocity P-wave (km/s) = 5.68114 6.63217 6.17499
#
# Compressibility (1/GPa) = 0.01787442
#
# Stress axis : x y z
#
# Youngs Moduli (GPa) = 49.10902 76.22940 51.55182
#
# Poissons Ratio (x) = 0.57842 0.39475
# Poissons Ratio (y) = 0.37263 0.11636
# Poissons Ratio (z) = 0.37604 0.17207
#
# Static dielectric constant tensor:
#      x y z
#    x 1.604140 0.000000 0.000000 
#    y 0.000000 1.595680 0.000000 
#    z 0.000000 0.000000 1.557960 
# 
# From -- ./inp_files/17990.got.cif
#   From: 2010.05.17/outbox.cif.g08.bks.cpg/sg51_9_cif.got.tgz:17990.got - 2010.06.03 11:52:47.
