data_PCOD9404831
_publ_section_title
;
Structure prediction by ZEFSAII (Michael W. Deem and Ramdas Pophale) SiO2 
 PCOD9404831
Probable space group: P M M A
;
_chemical_formula_sum "Si O2"
_cell_formula_units_Z 56
_cell_length_a 16.323286
_cell_length_b 8.272801
_cell_length_c 19.996376
_cell_angle_alpha 90.000000
_cell_angle_beta 90.000000
_cell_angle_gamma 90.000000
_cell_volume 2700.296552
_symmetry_space_group_name_H-M "P M M A"
_symmetry_group_IT_number 51
_symmetry_cell_setting 'orthorhombic'
loop_
_space_group_symop_operation_xyz
x,y,z
1/2-x,-y,z
1/2+x,-y,-z
-x,y,-z
-x,-y,-z
1/2+x,y,-z
1/2-x,y,z
x,-y,z
loop_
_atom_site_type_symbol
_atom_site_label
_atom_site_fract_x
_atom_site_fract_y
_atom_site_fract_z
Si Si1 0.159802 0.802387 0.341366
Si Si2 0.652642 0.811625 0.078773
Si Si3 0.500263 0.197532 0.422888
Si Si4 0.903562 0.813308 0.798899
Si Si5 0.840644 0.195385 0.339425
Si Si6 0.155112 0.689983 0.062488
Si Si7 0.922612 0.685364 0.211093
O O1 0.250000 0.753880 0.365795
O O2 0.147645 0.750829 0.264297
O O3 0.082136 0.748470 0.384812
O O4 0.157363 0.000000 0.340916
O O5 0.750000 0.775262 0.078762
O O6 0.609559 0.710204 0.136200
O O7 0.641626 0.000000 0.094962
O O8 0.622327 0.777637 0.003646
O O9 0.500000 0.248252 0.500000
O O10 0.582971 0.249436 0.384893
O O11 0.499970 0.000000 0.421873
O O12 0.890489 0.724064 0.868628
O O13 0.998072 0.796270 0.778336
O O14 0.881961 0.000000 0.810025
O O15 0.750000 0.242121 0.363910
O O16 0.855553 0.263151 0.265272
O O17 0.843210 0.000000 0.336386
O O18 0.250000 0.741395 0.072420
O O19 0.153904 0.500000 0.048208
O O20 0.946377 0.500000 0.221691
#
# Coordination Sequence:
#
# PCOD9404831 Si02
#       7
#     8   8   8   8   8   8   8
#     4   9  17  30  52  82 114 148 190 239 289 339
#     4  10  21  38  59  82 110 148 194 242 294 352
#     4   9  17  31  53  85 124 156 187 234 289 344
#     4  11  21  36  57  80 111 150 198 247 296 350
#     4  10  20  36  58  85 118 157 197 238 289 350
#     4  10  21  37  56  82 117 152 190 241 297 352
#     4  12  24  37  56  82 113 149 194 245 301 353
#
# _framework density 20.738462999999999
#
# number of rings (size 3 to 8) (size 9 to 14) (size 15 to 20)
#    0.000    1.857    1.429    3.429    0.000    5.429 
#    0.000    5.714    0.000    0.429    0.000    0.000 
#    0.000    0.000    0.000    0.000    0.000    0.000 
#
# Total GULP energy -312819.615380 kJ/mol
# GULP energy per Si atom -5586.064560 kJ/mol
# Density = 2.069126 g / cm^3
# Si number density = 20.738463 Si / 1000 Ang^3
#
#
#
# Elastic Constant Matrix: (Units=GPa)
#
#
# Indices 1 2 3 4 5 6 
#
# 1 117.0402 5.3838 53.8182 0.0000 0.0000 0.0000
# 2 5.3838 14.4917 5.7873 0.0000 0.0000 0.0000
# 3 53.8182 5.7873 112.0631 0.0000 0.0000 0.0000
# 4 0.0000 0.0000 0.0000 -23.3116 0.0000 0.0000
# 5 0.0000 0.0000 0.0000 0.0000 15.3746 0.0000
# 6 0.0000 0.0000 0.0000 0.0000 0.0000 11.0035
#
#
#
# Elastic Compliance Matrix: (Units=1/GPa)
#
#
# Indices 1 2 3 4 5 6 
#
# 1 0.011023 -0.002023 -0.005190 0.000000 0.000000 0.000000
# 2 -0.002023 0.070829 -0.002686 0.000000 0.000000 0.000000
# 3 -0.005190 -0.002686 0.011555 0.000000 0.000000 0.000000
# 4 0.000000 0.000000 0.000000 -0.042897 0.000000 0.000000
# 5 0.000000 0.000000 0.000000 0.000000 0.065042 0.000000
# 6 0.000000 0.000000 0.000000 0.000000 0.000000 0.090880
#
#
# Mechanical properties :
#
#
# Convention : Reuss Voigt Hill
#
# Bulk Modulus (GPa) = 13.58513 41.50817 27.54665
# Shear Modulus (GPa) = 19.93885 12.52036 16.22961
#
# Velocity S-wave (km/s) = 3.10408 2.45975 2.80051
# Velocity P-wave (km/s) = 4.40590 5.30336 4.87533
#
# Compressibility (1/GPa) = 0.07360989
#
# Stress axis : x y z
#
# Youngs Moduli (GPa) = 90.71615 14.11843 86.54608
#
# Poissons Ratio (x) = 0.02856 0.44913
# Poissons Ratio (y) = 0.18350 0.23250
# Poissons Ratio (z) = 0.47077 0.03793
#
# Static dielectric constant tensor:
#      x y z
#    x 1.755440 0.000000 0.000000 
#    y 0.000000 1.699720 0.000000 
#    z 0.000000 0.000000 1.713960 
# 
# From -- ./inp_files/33330.got.cif
#   From: 2010.05.17/outbox.cif.g08.bks.cpg/sg51_17_cif.got.tgz:33330.got - 2010.06.03 11:52:47.
