data_PCOD9404444
_publ_section_title
;
Structure prediction by ZEFSAII (Michael W. Deem and Ramdas Pophale) SiO2 
 PCOD9404444
Probable space group: P M M A
;
_chemical_formula_sum "Si O2"
_cell_formula_units_Z 48
_cell_length_a 28.899314
_cell_length_b 7.631289
_cell_length_c 10.293914
_cell_angle_alpha 90.000000
_cell_angle_beta 90.000000
_cell_angle_gamma 90.000000
_cell_volume 2270.209675
_symmetry_space_group_name_H-M "P M M A"
_symmetry_group_IT_number 51
_symmetry_cell_setting 'orthorhombic'
loop_
_space_group_symop_operation_xyz
x,y,z
1/2-x,-y,z
1/2+x,-y,-z
-x,y,-z
-x,-y,-z
1/2+x,y,-z
1/2-x,y,z
x,-y,z
loop_
_atom_site_type_symbol
_atom_site_label
_atom_site_fract_x
_atom_site_fract_y
_atom_site_fract_z
Si Si1 0.599552 0.708727 0.541693
Si Si2 0.301874 0.213869 0.091915
Si Si3 0.449177 0.713415 0.196868
Si Si4 0.391993 0.795991 0.945074
Si Si5 0.548185 0.297673 0.291764
Si Si6 0.698917 0.210762 0.608445
O O1 0.592740 0.500000 0.543454
O O2 0.582788 0.772056 0.682560
O O3 0.568507 0.781069 0.424286
O O4 0.654120 0.739315 0.526757
O O5 0.250000 0.264185 0.050753
O O6 0.308028 0.270952 0.241886
O O7 0.303662 0.000000 0.093153
O O8 0.343660 0.275252 0.001813
O O9 0.448681 0.500000 0.187303
O O10 0.500909 0.775338 0.231397
O O11 0.428697 0.780157 0.062280
O O12 0.412682 0.707761 0.818041
O O13 0.385574 0.000000 0.913169
O O14 0.536620 0.500000 0.321540
O O15 0.750000 0.271516 0.565477
O O16 0.700164 0.000000 0.611745
#
# Coordination Sequence:
#
# PCOD9404444 Si02
#       6
#     8   8   8   8   8   8
#     4  10  20  35  56  80 105 137 180 223 260 304
#     4   8  15  30  52  76 102 133 168 209 257 307
#     4  10  20  36  57  77 101 140 184 219 259 313
#     4  11  21  34  55  82 108 136 175 221 264 310
#     4  10  22  38  53  73 108 147 177 212 262 318
#     4   9  17  32  55  80 106 137 172 212 263 318
#
# _framework density 21.143422000000001
#
# number of rings (size 3 to 8) (size 9 to 14) (size 15 to 20)
#    0.000    2.333    1.667    2.500    0.000    5.667 
#    0.000    0.833    0.000    8.000    0.000    0.000 
#    0.000    0.000    0.000    0.000    0.000    0.000 
#
# Total GULP energy -267951.789922 kJ/mol
# GULP energy per Si atom -5582.328957 kJ/mol
# Density = 2.109530 g / cm^3
# Si number density = 21.143422 Si / 1000 Ang^3
#
#
#
# Elastic Constant Matrix: (Units=GPa)
#
#
# Indices 1 2 3 4 5 6 
#
# 1 88.7613 -7.6756 -13.6276 0.0000 0.0000 0.0000
# 2 -7.6756 41.0711 -8.0411 0.0000 0.0000 0.0000
# 3 -13.6276 -8.0411 34.3185 0.0000 0.0000 0.0000
# 4 0.0000 0.0000 0.0000 53.5400 0.0000 0.0000
# 5 0.0000 0.0000 0.0000 0.0000 5.0785 0.0000
# 6 0.0000 0.0000 0.0000 0.0000 0.0000 21.5467
#
#
#
# Elastic Compliance Matrix: (Units=1/GPa)
#
#
# Indices 1 2 3 4 5 6 
#
# 1 0.012448 0.003452 0.005752 0.000000 0.000000 0.000000
# 2 0.003452 0.026476 0.007575 0.000000 0.000000 0.000000
# 3 0.005752 0.007575 0.033198 0.000000 0.000000 0.000000
# 4 0.000000 0.000000 0.000000 0.018678 0.000000 0.000000
# 5 0.000000 0.000000 0.000000 0.000000 0.196910 0.000000
# 6 0.000000 0.000000 0.000000 0.000000 0.000000 0.046411
#
#
# Mechanical properties :
#
#
# Convention : Reuss Voigt Hill
#
# Bulk Modulus (GPa) = 9.46258 11.71802 10.59030
# Shear Modulus (GPa) = 14.89033 28.93271 21.91152
#
# Velocity S-wave (km/s) = 2.65666 3.70321 3.22270
# Velocity P-wave (km/s) = 3.72768 4.88254 4.34366
#
# Compressibility (1/GPa) = 0.10567945
#
# Stress axis : x y z
#
# Youngs Moduli (GPa) = 80.33537 37.76976 30.12261
#
# Poissons Ratio (x) = -0.13040 -0.17326
# Poissons Ratio (y) = -0.27735 -0.22817
# Poissons Ratio (z) = -0.46208 -0.28609
#
# Static dielectric constant tensor:
#      x y z
#    x 1.784890 0.000000 0.000000 
#    y 0.000000 1.801990 0.000000 
#    z 0.000000 0.000000 1.725210 
# 
# From -- ./inp_files/12776.got.cif
#   From: 2010.05.17/outbox.cif.g08.bks.cpg/sg51_7_cif.got.tgz:12776.got - 2010.06.03 11:52:47.
