data_PCOD9404256
_publ_section_title
;
Structure prediction by ZEFSAII (Michael W. Deem and Ramdas Pophale) SiO2 
 PCOD9404256
Probable space group: P M M A
;
_chemical_formula_sum "Si O2"
_cell_formula_units_Z 44
_cell_length_a 8.710579
_cell_length_b 28.221028
_cell_length_c 10.166529
_cell_angle_alpha 90.000000
_cell_angle_beta 90.000000
_cell_angle_gamma 90.000000
_cell_volume 2499.151346
_symmetry_space_group_name_H-M "P M M A"
_symmetry_group_IT_number 51
_symmetry_cell_setting 'orthorhombic'
loop_
_space_group_symop_operation_xyz
x,y,z
1/2-x,-y,z
1/2+x,-y,-z
-x,y,-z
-x,-y,-z
1/2+x,y,-z
1/2-x,y,z
x,-y,z
loop_
_atom_site_type_symbol
_atom_site_label
_atom_site_fract_x
_atom_site_fract_y
_atom_site_fract_z
Si Si1 0.935048 0.368711 0.855575
Si Si2 0.434023 0.811494 0.642415
Si Si3 0.564672 0.445975 0.644565
Si Si4 0.565187 0.921361 0.357277
Si Si5 0.935662 0.000000 0.147683
Si Si6 0.065894 0.739729 0.145068
O O1 0.750000 0.370601 0.861757
O O2 0.988141 0.407271 0.749907
O O3 0.977667 0.314608 0.819681
O O4 0.000000 0.378689 0.000000
O O5 0.500000 0.798128 0.500000
O O6 0.250000 0.808983 0.640421
O O7 0.478665 0.866529 0.665924
O O8 0.499523 0.776942 0.752327
O O9 0.500000 0.435993 0.500000
O O10 0.750000 0.444354 0.638995
O O11 0.520137 0.500000 0.680392
O O12 0.500000 0.935951 0.500000
O O13 0.750000 0.923937 0.365811
O O14 0.516876 0.954827 0.236816
O O15 0.750000 0.000000 0.139010
O O16 0.000000 0.000000 0.000000
O O17 0.250000 0.742742 0.142200
O O18 0.000000 0.748968 0.000000
#
# Coordination Sequence:
#
# PCOD9404256 Si02
#       6
#     8   8   8   8   4   8
#     4   9  19  34  51  73 100 130 166 205 246 295
#     4  10  20  35  54  78 105 134 170 211 253 300
#     4   9  18  33  51  72  99 129 162 202 247 295
#     4   9  19  35  55  77 102 132 168 207 248 297
#     4  10  21  36  52  76 106 134 167 206 248 296
#     4  10  20  35  53  74 102 136 171 209 254 302
#
# _framework density 17.605976999999999
#
# number of rings (size 3 to 8) (size 9 to 14) (size 15 to 20)
#    0.000    2.545    0.000    1.364    0.000    4.727 
#    0.000    3.636    0.000    0.000    0.000    0.000 
#    0.000    0.000    0.000    0.000    0.000    0.000 
#
# Total GULP energy -245460.343386 kJ/mol
# GULP energy per Si atom -5578.644168 kJ/mol
# Density = 1.756590 g / cm^3
# Si number density = 17.605977 Si / 1000 Ang^3
#
#
#
# Elastic Constant Matrix: (Units=GPa)
#
#
# Indices 1 2 3 4 5 6 
#
# 1 23.8010 38.4770 39.3062 0.0000 0.0000 0.0000
# 2 38.4770 136.4858 131.2228 0.0000 0.0000 0.0000
# 3 39.3062 131.2228 168.9336 0.0000 0.0000 0.0000
# 4 0.0000 0.0000 0.0000 53.1536 0.0000 0.0000
# 5 0.0000 0.0000 0.0000 0.0000 37.4176 0.0000
# 6 0.0000 0.0000 0.0000 0.0000 0.0000 21.5757
#
#
#
# Elastic Compliance Matrix: (Units=1/GPa)
#
#
# Indices 1 2 3 4 5 6 
#
# 1 0.077950 -0.017922 -0.004215 0.000000 0.000000 0.000000
# 2 -0.017922 0.033060 -0.021510 0.000000 0.000000 0.000000
# 3 -0.004215 -0.021510 0.023608 0.000000 0.000000 0.000000
# 4 0.000000 0.000000 0.000000 0.018813 0.000000 0.000000
# 5 0.000000 0.000000 0.000000 0.000000 0.026725 0.000000
# 6 0.000000 0.000000 0.000000 0.000000 0.000000 0.046349
#
#
# Mechanical properties :
#
#
# Convention : Reuss Voigt Hill
#
# Bulk Modulus (GPa) = 21.13126 83.02581 52.07853
# Shear Modulus (GPa) = 15.17109 30.44365 22.80737
#
# Velocity S-wave (km/s) = 2.93866 4.16284 3.60312
# Velocity P-wave (km/s) = 4.85208 8.38843 6.85231
#
# Compressibility (1/GPa) = 0.04732325
#
# Stress axis : x y z
#
# Youngs Moduli (GPa) = 12.82877 30.24840 42.35776
#
# Poissons Ratio (x) = 0.54212 0.17855
# Poissons Ratio (y) = 0.22992 0.91110
# Poissons Ratio (z) = 0.05408 0.65064
#
# Static dielectric constant tensor:
#      x y z
#    x 1.599040 0.000000 0.000000 
#    y 0.000000 1.612570 0.000000 
#    z 0.000000 0.000000 1.615930 
# 
# From -- ./inp_files/5869.got.cif
#   From: 2010.05.17/outbox.cif.g08.bks.cpg/sg51_3_cif.got.tgz:5869.got - 2010.06.03 11:52:47.
