data_PCOD9404670
_publ_section_title
;
Structure prediction by ZEFSAII (Michael W. Deem and Ramdas Pophale) SiO2 
 PCOD9404670
Probable space group: P M M A
;
_chemical_formula_sum "Si O2"
_cell_formula_units_Z 56
_cell_length_a 18.850960
_cell_length_b 15.665081
_cell_length_c 10.028496
_cell_angle_alpha 90.000000
_cell_angle_beta 90.000000
_cell_angle_gamma 90.000000
_cell_volume 2961.433074
_symmetry_space_group_name_H-M "P M M A"
_symmetry_group_IT_number 51
_symmetry_cell_setting 'orthorhombic'
loop_
_space_group_symop_operation_xyz
x,y,z
1/2-x,-y,z
1/2+x,-y,-z
-x,y,-z
-x,-y,-z
1/2+x,y,-z
1/2-x,y,z
x,-y,z
loop_
_atom_site_type_symbol
_atom_site_label
_atom_site_fract_x
_atom_site_fract_y
_atom_site_fract_z
Si Si1 0.921665 0.158979 0.472302
Si Si2 0.834976 0.757853 0.020254
Si Si3 0.164814 0.226018 0.282296
Si Si4 0.334746 0.591928 0.393799
Si Si5 0.569051 0.597595 0.092336
Si Si6 0.561411 0.356444 0.396644
Si Si7 0.165896 0.095239 0.770027
O O1 0.878257 0.172292 0.609189
O O2 0.932417 0.253965 0.408907
O O3 0.877011 0.106668 0.365876
O O4 0.000000 0.124158 0.500000
O O5 0.750000 0.744252 0.025311
O O6 0.874687 0.669859 0.051488
O O7 0.854173 0.830353 0.127145
O O8 0.851785 0.790734 0.871430
O O9 0.250000 0.217067 0.303190
O O10 0.144401 0.325179 0.309697
O O11 0.250000 0.592085 0.399946
O O12 0.358448 0.500000 0.339597
O O13 0.367086 0.605284 0.540219
O O14 0.595238 0.500000 0.078165
O O15 0.549498 0.613955 0.247095
O O16 0.500000 0.607154 0.000000
O O17 0.500000 0.383192 0.500000
O O18 0.250000 0.104570 0.742911
O O19 0.154410 0.000000 0.825136
#
# Coordination Sequence:
#
# PCOD9404670 Si02
#       7
#     8   8   8   8   8   8   8
#     4  10  20  35  61  91 114 152 191 240 294 347
#     4  10  22  40  61  85 118 159 197 245 295 350
#     4   9  19  35  56  81 113 151 193 237 290 347
#     4   9  18  31  51  79 109 143 190 246 292 334
#     4  11  25  39  56  84 120 162 201 244 294 351
#     4  10  21  37  56  80 110 155 197 238 289 341
#     4  10  21  40  66  92 119 153 192 239 300 361
#
# _framework density 18.909763999999999
#
# number of rings (size 3 to 8) (size 9 to 14) (size 15 to 20)
#    0.000    2.143    1.429    0.857    6.000    3.429 
#    0.000    2.143    0.000    5.571    0.000    0.000 
#    0.000    0.000    0.000    0.000    0.000    0.000 
#
# Total GULP energy -312565.598952 kJ/mol
# GULP energy per Si atom -5581.528553 kJ/mol
# Density = 1.886672 g / cm^3
# Si number density = 18.909764 Si / 1000 Ang^3
#
#
#
# Elastic Constant Matrix: (Units=GPa)
#
#
# Indices 1 2 3 4 5 6 
#
# 1 45.8394 39.0739 49.2444 0.0000 0.0000 0.0000
# 2 39.0739 81.9007 41.1638 0.0000 0.0000 0.0000
# 3 49.2444 41.1638 137.9138 0.0000 0.0000 0.0000
# 4 0.0000 0.0000 0.0000 9.8949 0.0000 0.0000
# 5 0.0000 0.0000 0.0000 0.0000 27.4212 0.0000
# 6 0.0000 0.0000 0.0000 0.0000 0.0000 12.0606
#
#
#
# Elastic Compliance Matrix: (Units=1/GPa)
#
#
# Indices 1 2 3 4 5 6 
#
# 1 0.050708 -0.017756 -0.012807 0.000000 0.000000 0.000000
# 2 -0.017756 0.020582 0.000197 0.000000 0.000000 0.000000
# 3 -0.012807 0.000197 0.011765 0.000000 0.000000 0.000000
# 4 0.000000 0.000000 0.000000 0.101062 0.000000 0.000000
# 5 0.000000 0.000000 0.000000 0.000000 0.036468 0.000000
# 6 0.000000 0.000000 0.000000 0.000000 0.000000 0.082914
#
#
# Mechanical properties :
#
#
# Convention : Reuss Voigt Hill
#
# Bulk Modulus (GPa) = 44.79437 58.29089 51.54263
# Shear Modulus (GPa) = 13.45272 18.95348 16.20310
#
# Velocity S-wave (km/s) = 2.67013 3.16937 2.93040
# Velocity P-wave (km/s) = 5.76594 6.65477 6.22623
#
# Compressibility (1/GPa) = 0.02232423
#
# Stress axis : x y z
#
# Youngs Moduli (GPa) = 19.72064 48.58598 84.99786
#
# Poissons Ratio (x) = 0.86268 1.08854
# Poissons Ratio (y) = 0.35015 -0.01672
# Poissons Ratio (z) = 0.25255 -0.00956
#
# Static dielectric constant tensor:
#      x y z
#    x 1.663540 0.000000 0.000000 
#    y 0.000000 1.664980 0.000000 
#    z 0.000000 0.000000 1.636030 
# 
# From -- ./inp_files/10969.got.cif
#   From: 2010.05.17/outbox.cif.g08.bks.cpg/sg51_6_cif.got.tgz:10969.got - 2010.06.03 11:52:47.
