data_PCOD9404600
_publ_section_title
;
Structure prediction by ZEFSAII (Michael W. Deem and Ramdas Pophale) SiO2 
 PCOD9404600
Probable space group: P M M A
;
_chemical_formula_sum "Si O2"
_cell_formula_units_Z 56
_cell_length_a 24.854781
_cell_length_b 7.700127
_cell_length_c 12.834415
_cell_angle_alpha 90.000000
_cell_angle_beta 90.000000
_cell_angle_gamma 90.000000
_cell_volume 2456.314133
_symmetry_space_group_name_H-M "P M M A"
_symmetry_group_IT_number 51
_symmetry_cell_setting 'orthorhombic'
loop_
_space_group_symop_operation_xyz
x,y,z
1/2-x,-y,z
1/2+x,-y,-z
-x,y,-z
-x,-y,-z
1/2+x,y,-z
1/2-x,y,z
x,-y,z
loop_
_atom_site_type_symbol
_atom_site_label
_atom_site_fract_x
_atom_site_fract_y
_atom_site_fract_z
Si Si1 0.963536 0.698878 0.585615
Si Si2 0.492324 0.307592 0.817603
Si Si3 0.619339 0.295296 0.249781
Si Si4 0.688813 0.788748 0.059507
Si Si5 0.650006 0.289734 0.651222
Si Si6 0.386959 0.203620 0.122625
Si Si7 0.691379 0.287768 0.433913
O O1 0.952067 0.500000 0.549072
O O2 0.993316 0.687488 0.695001
O O3 0.906810 0.779840 0.608704
O O4 0.000000 0.785448 0.500000
O O5 0.483260 0.500000 0.861344
O O6 0.433555 0.217835 0.809428
O O7 0.549686 0.252132 0.867028
O O8 0.606902 0.500000 0.265744
O O9 0.641733 0.227868 0.360970
O O10 0.668604 0.275593 0.170863
O O11 0.750000 0.735789 0.036642
O O12 0.646309 0.721131 0.973791
O O13 0.687749 0.000000 0.060444
O O14 0.650277 0.500000 0.654718
O O15 0.647574 0.238011 0.771960
O O16 0.688343 0.238269 0.556255
O O17 0.388100 0.000000 0.108036
O O18 0.750000 0.233717 0.392759
O O19 0.689392 0.500000 0.431163
#
# Coordination Sequence:
#
# PCOD9404600 Si02
#       7
#     8   8   8   8   8   8   8
#     4   8  12  21  41  67  95 130 168 198 233 294
#     4   9  18  32  52  80 111 140 172 217 273 327
#     4  10  20  35  58  86 112 140 178 223 270 323
#     4  10  23  42  59  75 102 143 185 225 272 323
#     4   9  17  30  50  76 106 138 171 211 261 314
#     4  10  21  37  56  78 106 142 185 228 269 318
#     4   9  17  30  51  81 113 141 174 220 271 322
#
# _framework density 22.798387000000002
#
# number of rings (size 3 to 8) (size 9 to 14) (size 15 to 20)
#    0.000    2.714    0.000    2.571    0.000    7.143 
#    0.000    3.571    0.000   15.429    0.000    0.000 
#    0.000    0.000    0.000    0.000    0.000    0.000 
#
# Total GULP energy -311786.248538 kJ/mol
# GULP energy per Si atom -5567.611581 kJ/mol
# Density = 2.274650 g / cm^3
# Si number density = 22.798387 Si / 1000 Ang^3
#
#
#
# Elastic Constant Matrix: (Units=GPa)
#
#
# Indices 1 2 3 4 5 6 
#
# 1 108.2963 5.4535 14.4364 0.0000 0.0000 0.0000
# 2 5.4535 35.7001 -15.2704 0.0000 0.0000 0.0000
# 3 14.4364 -15.2704 35.4812 0.0000 0.0000 0.0000
# 4 0.0000 0.0000 0.0000 17.4693 0.0000 0.0000
# 5 0.0000 0.0000 0.0000 0.0000 36.9474 0.0000
# 6 0.0000 0.0000 0.0000 0.0000 0.0000 6.5774
#
#
#
# Elastic Compliance Matrix: (Units=1/GPa)
#
#
# Indices 1 2 3 4 5 6 
#
# 1 0.010230 -0.004098 -0.005926 0.000000 0.000000 0.000000
# 2 -0.004098 0.035972 0.017149 0.000000 0.000000 0.000000
# 3 -0.005926 0.017149 0.037976 0.000000 0.000000 0.000000
# 4 0.000000 0.000000 0.000000 0.057243 0.000000 0.000000
# 5 0.000000 0.000000 0.000000 0.000000 0.027066 0.000000
# 6 0.000000 0.000000 0.000000 0.000000 0.000000 0.152037
#
#
# Mechanical properties :
#
#
# Convention : Reuss Voigt Hill
#
# Bulk Modulus (GPa) = 10.15955 20.96851 15.56403
# Shear Modulus (GPa) = 14.74568 23.85602 19.30085
#
# Velocity S-wave (km/s) = 2.54596 3.23831 2.91278
# Velocity P-wave (km/s) = 3.62056 4.81659 4.26075
#
# Compressibility (1/GPa) = 0.09842954
#
# Stress axis : x y z
#
# Youngs Moduli (GPa) = 97.74960 27.79906 26.33264
#
# Poissons Ratio (x) = 0.11391 0.15605
# Poissons Ratio (y) = 0.40053 -0.45158
# Poissons Ratio (z) = 0.57926 -0.47673
#
# Static dielectric constant tensor:
#      x y z
#    x 1.969100 0.000000 0.000000 
#    y 0.000000 1.879170 0.000000 
#    z 0.000000 0.000000 1.970440 
# 
# From -- ./inp_files/25770.got.cif
#   From: 2010.05.17/outbox.cif.g08.bks.cpg/sg51_13_cif.got.tgz:25770.got - 2010.06.03 11:52:47.
