data_PCOD9404239
_publ_section_title
;
Structure prediction by ZEFSAII (Michael W. Deem and Ramdas Pophale) SiO2 
 PCOD9404239
Probable space group: P M M A
;
_chemical_formula_sum "Si O2"
_cell_formula_units_Z 48
_cell_length_a 8.704493
_cell_length_b 24.659903
_cell_length_c 13.786884
_cell_angle_alpha 90.000000
_cell_angle_beta 90.000000
_cell_angle_gamma 90.000000
_cell_volume 2959.381577
_symmetry_space_group_name_H-M "P M M A"
_symmetry_group_IT_number 51
_symmetry_cell_setting 'orthorhombic'
loop_
_space_group_symop_operation_xyz
x,y,z
1/2-x,-y,z
1/2+x,-y,-z
-x,y,-z
-x,-y,-z
1/2+x,y,-z
1/2-x,y,z
x,-y,z
loop_
_atom_site_type_symbol
_atom_site_label
_atom_site_fract_x
_atom_site_fract_y
_atom_site_fract_z
Si Si1 0.565799 0.559380 0.109552
Si Si2 0.935343 0.938359 0.308758
Si Si3 0.433747 0.889740 0.896533
Si Si4 0.067051 0.168948 0.395914
Si Si5 0.434740 0.221693 0.796108
Si Si6 0.933286 0.328964 0.890739
O O1 0.750000 0.564831 0.105583
O O2 0.529458 0.500000 0.153401
O O3 0.493509 0.613897 0.152515
O O4 0.500000 0.557802 0.000000
O O5 0.750000 0.931029 0.316681
O O6 0.977149 0.926234 0.196226
O O7 0.017099 0.892916 0.372537
O O8 0.973110 0.000000 0.334578
O O9 0.250000 0.891139 0.903196
O O10 0.479355 0.828159 0.867585
O O11 0.500000 0.905842 0.000000
O O12 0.250000 0.173543 0.394677
O O13 0.000000 0.184479 0.500000
O O14 0.993994 0.204224 0.309486
O O15 0.250000 0.225131 0.795863
O O16 0.506899 0.277502 0.831723
O O17 0.750000 0.329562 0.895679
O O18 0.000000 0.324480 0.000000
#
# Coordination Sequence:
#
# PCOD9404239 Si02
#       6
#     8   8   8   8   8   8
#     4   9  16  26  40  59  87 126 169 208 243 278
#     4   9  19  36  53  70  95 125 157 193 232 276
#     4   9  18  30  46  67  92 124 156 189 229 271
#     4  11  22  37  56  76  96 119 149 187 238 293
#     4  10  20  35  51  69  95 124 158 199 239 282
#     4  11  20  29  44  68  98 133 169 203 241 283
#
# _framework density 16.219605999999999
#
# number of rings (size 3 to 8) (size 9 to 14) (size 15 to 20)
#    0.000    2.167    0.000    6.500    0.000    6.667 
#    0.000    0.000    0.000    0.000    0.000    0.000 
#    0.000    0.667    0.000    2.500    0.000    4.167 
#
# Total GULP energy -267768.396657 kJ/mol
# GULP energy per Si atom -5578.508264 kJ/mol
# Density = 1.618269 g / cm^3
# Si number density = 16.219606 Si / 1000 Ang^3
#
#
#
# Elastic Constant Matrix: (Units=GPa)
#
#
# Indices 1 2 3 4 5 6 
#
# 1 79.7989 38.8918 14.6661 0.0000 0.0000 0.0000
# 2 38.8918 105.0989 9.1620 0.0000 0.0000 0.0000
# 3 14.6661 9.1620 51.4304 0.0000 0.0000 0.0000
# 4 0.0000 0.0000 0.0000 9.6395 0.0000 0.0000
# 5 0.0000 0.0000 0.0000 0.0000 24.5034 0.0000
# 6 0.0000 0.0000 0.0000 0.0000 0.0000 26.5096
#
#
#
# Elastic Compliance Matrix: (Units=1/GPa)
#
#
# Indices 1 2 3 4 5 6 
#
# 1 0.015899 -0.005575 -0.003541 0.000000 0.000000 0.000000
# 2 -0.005575 0.011620 -0.000480 0.000000 0.000000 0.000000
# 3 -0.003541 -0.000480 0.020539 0.000000 0.000000 0.000000
# 4 0.000000 0.000000 0.000000 0.103739 0.000000 0.000000
# 5 0.000000 0.000000 0.000000 0.000000 0.040811 0.000000
# 6 0.000000 0.000000 0.000000 0.000000 0.000000 0.037722
#
#
# Mechanical properties :
#
#
# Convention : Reuss Voigt Hill
#
# Bulk Modulus (GPa) = 34.64254 40.19646 37.41950
# Shear Modulus (GPa) = 19.29430 23.70441 21.49935
#
# Velocity S-wave (km/s) = 3.45275 3.82706 3.64471
# Velocity P-wave (km/s) = 6.10738 6.66070 6.39003
#
# Compressibility (1/GPa) = 0.02886624
#
# Stress axis : x y z
#
# Youngs Moduli (GPa) = 62.89585 86.06083 48.68786
#
# Poissons Ratio (x) = 0.47978 0.17239
# Poissons Ratio (y) = 0.35064 0.02338
# Poissons Ratio (z) = 0.22270 0.04133
#
# Static dielectric constant tensor:
#      x y z
#    x 1.540150 0.000000 0.000000 
#    y 0.000000 1.572840 0.000000 
#    z 0.000000 0.000000 1.525660 
# 
# From -- ./inp_files/14435.got.cif
#   From: 2010.05.17/outbox.cif.g08.bks.cpg/sg51_8_cif.got.tgz:14435.got - 2010.06.03 11:52:47.
