data_PCOD9404477
_publ_section_title
;
Structure prediction by ZEFSAII (Michael W. Deem and Ramdas Pophale) SiO2 
 PCOD9404477
Probable space group: P M M A
;
_chemical_formula_sum "Si O2"
_cell_formula_units_Z 64
_cell_length_a 17.862575
_cell_length_b 16.702380
_cell_length_c 11.635383
_cell_angle_alpha 90.000000
_cell_angle_beta 90.000000
_cell_angle_gamma 90.000000
_cell_volume 3471.387609
_symmetry_space_group_name_H-M "P M M A"
_symmetry_group_IT_number 51
_symmetry_cell_setting 'orthorhombic'
loop_
_space_group_symop_operation_xyz
x,y,z
1/2-x,-y,z
1/2+x,-y,-z
-x,y,-z
-x,-y,-z
1/2+x,y,-z
1/2-x,y,z
x,-y,z
loop_
_atom_site_type_symbol
_atom_site_label
_atom_site_fract_x
_atom_site_fract_y
_atom_site_fract_z
Si Si1 0.946236 0.652398 0.297342
Si Si2 0.973698 0.225401 0.869830
Si Si3 0.165282 0.726931 0.521602
Si Si4 0.106239 0.591981 0.348066
Si Si5 0.838995 0.671207 0.878778
Si Si6 0.007038 0.911896 0.695140
Si Si7 0.664972 0.591478 0.118990
Si Si8 0.123272 0.907935 0.495890
O O1 0.899532 0.707700 0.385178
O O2 0.886837 0.598727 0.229926
O O3 0.983585 0.703873 0.196245
O O4 0.016520 0.607302 0.354370
O O5 0.886332 0.248204 0.860361
O O6 0.994837 0.149530 0.795412
O O7 0.000000 0.218971 0.000000
O O8 0.250000 0.711119 0.563410
O O9 0.146053 0.662125 0.421941
O O10 0.163021 0.821079 0.485365
O O11 0.123059 0.500000 0.381899
O O12 0.133272 0.608250 0.217348
O O13 0.750000 0.680641 0.869533
O O14 0.858145 0.642076 0.007520
O O15 0.940061 0.905907 0.602605
O O16 0.081675 0.902949 0.619062
O O17 0.006739 0.000000 0.745233
O O18 0.750000 0.614973 0.149096
O O19 0.665292 0.500000 0.079872
O O20 0.156525 0.000000 0.489460
#
# Coordination Sequence:
#
# PCOD9404477 Si02
#       8
#     8   8   8   8   8   8   8   8
#     4  11  22  39  58  82 116 151 199 243 292 338
#     4  11  20  35  58  86 116 150 193 240 284 343
#     4  12  25  39  60  88 120 158 195 239 297 361
#     4  11  25  40  59  84 117 158 204 248 294 351
#     4  10  21  37  57  83 117 155 194 243 299 347
#     4   9  18  33  59  88 114 147 190 238 290 345
#     4  10  20  35  56  81 110 147 195 246 295 344
#     4   9  18  36  61  89 118 150 189 242 296 349
#
# _framework density 18.436432
#
# number of rings (size 3 to 8) (size 9 to 14) (size 15 to 20)
#    0.000    1.625    2.500    4.125    1.750    3.500 
#    0.000    1.875    0.000    1.125    0.000    0.000 
#    0.000    0.000    0.000    0.000    0.000    0.000 
#
# Total GULP energy -356637.503267 kJ/mol
# GULP energy per Si atom -5572.460989 kJ/mol
# Density = 1.839447 g / cm^3
# Si number density = 18.436432 Si / 1000 Ang^3
#
#
#
# Elastic Constant Matrix: (Units=GPa)
#
#
# Indices 1 2 3 4 5 6 
#
# 1 70.5371 23.0955 8.4388 0.0000 0.0000 0.0000
# 2 23.0955 120.0451 33.2305 0.0000 0.0000 0.0000
# 3 8.4388 33.2305 52.2208 0.0000 0.0000 0.0000
# 4 0.0000 0.0000 0.0000 26.9472 0.0000 0.0000
# 5 0.0000 0.0000 0.0000 0.0000 18.4595 0.0000
# 6 0.0000 0.0000 0.0000 0.0000 0.0000 12.6517
#
#
#
# Elastic Compliance Matrix: (Units=1/GPa)
#
#
# Indices 1 2 3 4 5 6 
#
# 1 0.015152 -0.002716 -0.000720 0.000000 0.000000 0.000000
# 2 -0.002716 0.010598 -0.006305 0.000000 0.000000 0.000000
# 3 -0.000720 -0.006305 0.023278 0.000000 0.000000 0.000000
# 4 0.000000 0.000000 0.000000 0.037110 0.000000 0.000000
# 5 0.000000 0.000000 0.000000 0.000000 0.054173 0.000000
# 6 0.000000 0.000000 0.000000 0.000000 0.000000 0.079040
#
#
# Mechanical properties :
#
#
# Convention : Reuss Voigt Hill
#
# Bulk Modulus (GPa) = 33.84575 41.37031 37.60803
# Shear Modulus (GPa) = 20.10594 23.48089 21.79341
#
# Velocity S-wave (km/s) = 3.30594 3.57264 3.44187
# Velocity P-wave (km/s) = 5.74197 6.28542 6.01983
#
# Compressibility (1/GPa) = 0.02954580
#
# Stress axis : x y z
#
# Youngs Moduli (GPa) = 65.99652 94.35684 42.95876
#
# Poissons Ratio (x) = 0.25625 0.03095
# Poissons Ratio (y) = 0.17923 0.27086
# Poissons Ratio (z) = 0.04755 0.59494
#
# Static dielectric constant tensor:
#      x y z
#    x 1.655490 0.000000 0.000000 
#    y 0.000000 1.654490 0.000000 
#    z 0.000000 0.000000 1.617910 
# 
# From -- ./inp_files/17579.got.cif
#   From: 2010.05.17/outbox.cif.g08.bks.cpg/sg51_9_cif.got.tgz:17579.got - 2010.06.03 11:52:47.
