data_PCOD9404192
_publ_section_title
;
Structure prediction by ZEFSAII (Michael W. Deem and Ramdas Pophale) SiO2 
 PCOD9404192
Probable space group: P M M A
;
_chemical_formula_sum "Si O2"
_cell_formula_units_Z 64
_cell_length_a 8.037921
_cell_length_b 24.573113
_cell_length_c 16.024299
_cell_angle_alpha 90.000000
_cell_angle_beta 90.000000
_cell_angle_gamma 90.000000
_cell_volume 3165.067316
_symmetry_space_group_name_H-M "P M M A"
_symmetry_group_IT_number 51
_symmetry_cell_setting 'orthorhombic'
loop_
_space_group_symop_operation_xyz
x,y,z
1/2-x,-y,z
1/2+x,-y,-z
-x,y,-z
-x,-y,-z
1/2+x,y,-z
1/2-x,y,z
x,-y,z
loop_
_atom_site_type_symbol
_atom_site_label
_atom_site_fract_x
_atom_site_fract_y
_atom_site_fract_z
Si Si1 0.551925 0.672181 0.091880
Si Si2 0.048844 0.132484 0.249845
Si Si3 0.049134 0.742102 0.751380
Si Si4 0.052498 0.440421 0.641762
Si Si5 0.950722 0.675770 0.410154
Si Si6 0.448274 0.560165 0.167039
Si Si7 0.049438 0.937532 0.092578
Si Si8 0.450578 0.062489 0.407131
O O1 0.750000 0.672913 0.096008
O O2 0.486816 0.710387 0.166492
O O3 0.496054 0.610470 0.109650
O O4 0.500000 0.690121 0.000000
O O5 0.250000 0.129857 0.249941
O O6 0.989341 0.100706 0.167243
O O7 0.989374 0.101246 0.332979
O O8 0.998911 0.195116 0.248765
O O9 0.250000 0.738775 0.751663
O O10 0.989682 0.711302 0.667987
O O11 0.250000 0.442135 0.625452
O O12 0.981618 0.500000 0.618855
O O13 0.983666 0.386234 0.599041
O O14 0.028125 0.433125 0.741277
O O15 0.750000 0.673760 0.405489
O O16 0.000000 0.698177 0.500000
O O17 0.250000 0.560582 0.178267
O O18 0.497537 0.500000 0.135371
O O19 0.250000 0.938699 0.096263
O O20 0.990113 0.000000 0.103148
O O21 0.000000 0.918949 0.000000
O O22 0.500000 0.080480 0.500000
O O23 0.250000 0.061367 0.403433
O O24 0.509572 0.000000 0.395736
#
# Coordination Sequence:
#
# PCOD9404192 Si02
#       8
#     8   8   8   8   8   8   8   8
#     4  11  23  41  62  83 109 146 188 232 282 336
#     4  10  21  36  57  82 109 146 189 227 272 327
#     4  10  23  42  58  77 111 148 187 234 281 326
#     4   9  17  33  57  81 110 147 182 222 278 338
#     4  10  21  38  57  81 109 144 186 228 279 333
#     4  10  20  34  56  87 117 144 179 225 278 336
#     4   9  18  34  56  83 115 147 180 221 268 322
#     4   9  18  34  56  83 115 148 183 226 275 327
#
# _framework density 20.220738000000001
#
# number of rings (size 3 to 8) (size 9 to 14) (size 15 to 20)
#    0.000    2.250    1.250    1.125    0.000    6.750 
#    0.000    5.000    0.000    3.750    0.000    0.000 
#    0.000    0.000    0.000    0.000    0.000    0.000 
#
# Total GULP energy -357323.053086 kJ/mol
# GULP energy per Si atom -5583.172704 kJ/mol
# Density = 2.017472 g / cm^3
# Si number density = 20.220738 Si / 1000 Ang^3
#
#
#
# Elastic Constant Matrix: (Units=GPa)
#
#
# Indices 1 2 3 4 5 6 
#
# 1 13.5557 9.3385 5.8090 0.0000 0.0000 0.0000
# 2 9.3385 137.6821 111.4822 0.0000 0.0000 0.0000
# 3 5.8090 111.4822 181.5452 0.0000 0.0000 0.0000
# 4 0.0000 0.0000 0.0000 0.1603 0.0000 0.0000
# 5 0.0000 0.0000 0.0000 0.0000 22.8793 0.0000
# 6 0.0000 0.0000 0.0000 0.0000 0.0000 23.4726
#
#
#
# Elastic Compliance Matrix: (Units=1/GPa)
#
#
# Indices 1 2 3 4 5 6 
#
# 1 0.077588 -0.006469 0.001490 0.000000 0.000000 0.000000
# 2 -0.006469 0.014985 -0.008995 0.000000 0.000000 0.000000
# 3 0.001490 -0.008995 0.010984 0.000000 0.000000 0.000000
# 4 0.000000 0.000000 0.000000 6.238270 0.000000 0.000000
# 5 0.000000 0.000000 0.000000 0.000000 0.043708 0.000000
# 6 0.000000 0.000000 0.000000 0.000000 0.000000 0.042603
#
#
# Mechanical properties :
#
#
# Convention : Reuss Voigt Hill
#
# Bulk Modulus (GPa) = 13.22592 65.11581 39.17086
# Shear Modulus (GPa) = 0.77145 23.04598 11.90872
#
# Velocity S-wave (km/s) = 0.61834 3.37964 2.42943
# Velocity P-wave (km/s) = 2.65796 6.89214 5.22333
#
# Compressibility (1/GPa) = 0.07560911
#
# Stress axis : x y z
#
# Youngs Moduli (GPa) = 12.88862 66.73254 91.03965
#
# Poissons Ratio (x) = 0.43167 -0.13561
# Poissons Ratio (y) = 0.08337 0.81890
# Poissons Ratio (z) = -0.01920 0.60026
#
# Static dielectric constant tensor:
#      x y z
#    x 1.712440 0.000000 0.000000 
#    y 0.000000 1.707650 0.000000 
#    z 0.000000 0.000000 1.705340 
# 
# From -- ./inp_files/22331.got.cif
#   From: 2010.05.17/outbox.cif.g08.bks.cpg/sg51_12_cif.got.tgz:22331.got - 2010.06.03 11:52:47.
