data_PCOD9404183
_publ_section_title
;
Structure prediction by ZEFSAII (Michael W. Deem and Ramdas Pophale) SiO2 
 PCOD9404183
Probable space group: P M M A
;
_chemical_formula_sum "Si O2"
_cell_formula_units_Z 64
_cell_length_a 26.050607
_cell_length_b 15.416026
_cell_length_c 8.651677
_cell_angle_alpha 90.000000
_cell_angle_beta 90.000000
_cell_angle_gamma 90.000000
_cell_volume 3474.486099
_symmetry_space_group_name_H-M "P M M A"
_symmetry_group_IT_number 51
_symmetry_cell_setting 'orthorhombic'
loop_
_space_group_symop_operation_xyz
x,y,z
1/2-x,-y,z
1/2+x,-y,-z
-x,y,-z
-x,-y,-z
1/2+x,y,-z
1/2-x,y,z
x,-y,z
loop_
_atom_site_type_symbol
_atom_site_label
_atom_site_fract_x
_atom_site_fract_y
_atom_site_fract_z
Si Si1 0.307146 0.765837 0.664784
Si Si2 0.192101 0.261969 0.303785
Si Si3 0.000701 0.901043 0.687152
Si Si4 0.308627 0.403029 0.867648
Si Si5 0.608633 0.139976 0.147792
Si Si6 0.951390 0.751257 0.897380
Si Si7 0.189132 0.093728 0.102477
Si Si8 0.621128 0.601211 0.830107
O O1 0.250000 0.797335 0.713984
O O2 0.307875 0.762850 0.481766
O O3 0.313494 0.671114 0.740723
O O4 0.354796 0.820271 0.723290
O O5 0.250000 0.280681 0.253503
O O6 0.175242 0.177970 0.204607
O O7 0.159384 0.348111 0.282467
O O8 0.967733 0.826557 0.775036
O O9 0.000000 0.887353 0.500000
O O10 0.057804 0.897352 0.766600
O O11 0.981279 0.000000 0.714773
O O12 0.250000 0.396679 0.930084
O O13 0.314316 0.500000 0.802485
O O14 0.349771 0.392883 0.004038
O O15 0.587059 0.208593 0.023678
O O16 0.650028 0.090245 0.040824
O O17 0.928083 0.663646 0.828770
O O18 0.000000 0.727851 0.000000
O O19 0.250000 0.102629 0.060407
O O20 0.184700 0.000000 0.185342
O O21 0.612309 0.500000 0.796802
#
# Coordination Sequence:
#
# PCOD9404183 Si02
#       8
#     8   8   8   8   8   8   8   8
#     4  10  20  34  56  85 122 162 195 234 291 353
#     4  10  21  36  55  84 123 161 196 240 292 347
#     4  10  24  43  64  91 118 148 190 241 295 352
#     4   9  17  31  54  83 114 150 198 247 285 335
#     4  11  20  36  62  87 115 152 190 238 289 342
#     4  10  22  39  60  87 113 151 193 246 296 343
#     4  10  20  35  57  85 117 153 194 236 284 350
#     4  11  21  36  59  86 114 152 200 245 298 353
#
# _framework density 18.419991
#
# number of rings (size 3 to 8) (size 9 to 14) (size 15 to 20)
#    0.000    1.875    2.500    1.125    1.750    6.250 
#    0.000    2.500    0.000    3.375    0.000    0.000 
#    0.000    0.000    0.000    0.000    0.000    0.000 
#
# Total GULP energy -356370.612139 kJ/mol
# GULP energy per Si atom -5568.290815 kJ/mol
# Density = 1.837807 g / cm^3
# Si number density = 18.419991 Si / 1000 Ang^3
#
#
#
# Elastic Constant Matrix: (Units=GPa)
#
#
# Indices 1 2 3 4 5 6 
#
# 1 75.6933 51.8589 19.3552 0.0000 0.0000 0.0000
# 2 51.8589 130.1969 38.4408 0.0000 0.0000 0.0000
# 3 19.3552 38.4408 61.8072 0.0000 0.0000 0.0000
# 4 0.0000 0.0000 0.0000 11.6232 0.0000 0.0000
# 5 0.0000 0.0000 0.0000 0.0000 6.7346 0.0000
# 6 0.0000 0.0000 0.0000 0.0000 0.0000 26.8355
#
#
#
# Elastic Compliance Matrix: (Units=1/GPa)
#
#
# Indices 1 2 3 4 5 6 
#
# 1 0.018277 -0.006847 -0.001465 0.000000 0.000000 0.000000
# 2 -0.006847 0.011974 -0.005303 0.000000 0.000000 0.000000
# 3 -0.001465 -0.005303 0.019936 0.000000 0.000000 0.000000
# 4 0.000000 0.000000 0.000000 0.086035 0.000000 0.000000
# 5 0.000000 0.000000 0.000000 0.000000 0.148486 0.000000
# 6 0.000000 0.000000 0.000000 0.000000 0.000000 0.037264
#
#
# Mechanical properties :
#
#
# Convention : Reuss Voigt Hill
#
# Bulk Modulus (GPa) = 43.55983 54.11191 48.83587
# Shear Modulus (GPa) = 14.01130 19.57483 16.79307
#
# Velocity S-wave (km/s) = 2.76099 3.26344 3.02267
# Velocity P-wave (km/s) = 5.81924 6.60610 6.22512
#
# Compressibility (1/GPa) = 0.02295693
#
# Stress axis : x y z
#
# Youngs Moduli (GPa) = 54.71327 83.51604 50.16033
#
# Poissons Ratio (x) = 0.57188 0.07347
# Poissons Ratio (y) = 0.37465 0.26599
# Poissons Ratio (z) = 0.08014 0.44286
#
# Static dielectric constant tensor:
#      x y z
#    x 1.670280 0.000000 0.000000 
#    y 0.000000 1.645180 0.000000 
#    z 0.000000 0.000000 1.606770 
# 
# From -- ./inp_files/11879.got.cif
#   From: 2010.05.17/outbox.cif.g08.bks.cpg/sg51_6_cif.got.tgz:11879.got - 2010.06.03 11:52:47.
