data_PCOD9404464
_publ_section_title
;
Structure prediction by ZEFSAII (Michael W. Deem and Ramdas Pophale) SiO2 
 PCOD9404464
Probable space group: P M M A
;
_chemical_formula_sum "Si O2"
_cell_formula_units_Z 64
_cell_length_a 18.244385
_cell_length_b 8.900730
_cell_length_c 22.079733
_cell_angle_alpha 90.000000
_cell_angle_beta 90.000000
_cell_angle_gamma 90.000000
_cell_volume 3585.491298
_symmetry_space_group_name_H-M "P M M A"
_symmetry_group_IT_number 51
_symmetry_cell_setting 'orthorhombic'
loop_
_space_group_symop_operation_xyz
x,y,z
1/2-x,-y,z
1/2+x,-y,-z
-x,y,-z
-x,-y,-z
1/2+x,y,-z
1/2-x,y,z
x,-y,z
loop_
_atom_site_type_symbol
_atom_site_label
_atom_site_fract_x
_atom_site_fract_y
_atom_site_fract_z
Si Si1 0.831522 0.819724 0.368203
Si Si2 0.083638 0.821256 0.876710
Si Si3 0.553546 0.678478 0.684199
Si Si4 0.898253 0.321826 0.250661
Si Si5 0.835624 0.320917 0.010484
Si Si6 0.836249 0.820496 0.774416
Si Si7 0.981309 0.818850 0.431668
Si Si8 0.922452 0.680005 0.887141
O O1 0.750000 0.780757 0.389906
O O2 0.847903 0.741931 0.304139
O O3 0.897851 0.778909 0.413084
O O4 0.834861 0.000000 0.359775
O O5 0.113282 0.759138 0.812923
O O6 0.133489 0.767015 0.932137
O O7 0.002823 0.751466 0.885556
O O8 0.078867 0.000000 0.874833
O O9 0.564746 0.500000 0.681187
O O10 0.481881 0.705845 0.726590
O O11 0.621743 0.758731 0.715638
O O12 0.532861 0.743783 0.618693
O O13 0.888448 0.500000 0.244101
O O14 0.750000 0.288553 0.000035
O O15 0.843041 0.500000 0.021877
O O16 0.882395 0.286215 0.950532
O O17 0.750000 0.785766 0.773015
O O18 0.874377 0.744280 0.832282
O O19 0.845333 0.000000 0.778194
O O20 0.000000 0.773889 0.500000
O O21 0.988639 0.000000 0.427278
O O22 0.928814 0.500000 0.880735
#
# Coordination Sequence:
#
# PCOD9404464 Si02
#       8
#     8   8   8   8   8   8   8   8
#     4   9  18  33  54  81 113 148 188 234 283 337
#     4  12  24  37  58  85 113 147 186 233 285 341
#     4  10  20  35  57  82 111 147 187 232 279 332
#     4  10  20  35  56  81 108 143 184 228 280 336
#     4  10  23  42  60  79 108 147 189 235 286 341
#     4  11  23  37  57  86 117 149 186 233 288 342
#     4   9  18  34  57  83 114 154 195 236 283 336
#     4  11  22  39  62  85 110 146 191 235 283 342
#
# _framework density 17.849715
#
# number of rings (size 3 to 8) (size 9 to 14) (size 15 to 20)
#    0.000    1.750    1.250    3.375    0.000    6.250 
#    0.000    0.625    0.000    2.250    0.000    0.000 
#    0.000    0.000    0.000    0.000    0.000    0.000 
#
# Total GULP energy -357577.677690 kJ/mol
# GULP energy per Si atom -5587.151214 kJ/mol
# Density = 1.780909 g / cm^3
# Si number density = 17.849715 Si / 1000 Ang^3
#
#
#
# Elastic Constant Matrix: (Units=GPa)
#
#
# Indices 1 2 3 4 5 6 
#
# 1 60.5254 22.6084 37.4400 0.0000 0.0000 0.0000
# 2 22.6084 38.8181 43.8984 0.0000 0.0000 0.0000
# 3 37.4400 43.8984 132.4311 0.0000 0.0000 0.0000
# 4 0.0000 0.0000 0.0000 33.4401 0.0000 0.0000
# 5 0.0000 0.0000 0.0000 0.0000 15.9639 0.0000
# 6 0.0000 0.0000 0.0000 0.0000 0.0000 22.7154
#
#
#
# Elastic Compliance Matrix: (Units=1/GPa)
#
#
# Indices 1 2 3 4 5 6 
#
# 1 0.021903 -0.009205 -0.003141 0.000000 0.000000 0.000000
# 2 -0.009205 0.045077 -0.012340 0.000000 0.000000 0.000000
# 3 -0.003141 -0.012340 0.012530 0.000000 0.000000 0.000000
# 4 0.000000 0.000000 0.000000 0.029904 0.000000 0.000000
# 5 0.000000 0.000000 0.000000 0.000000 0.062641 0.000000
# 6 0.000000 0.000000 0.000000 0.000000 0.000000 0.044023
#
#
# Mechanical properties :
#
#
# Convention : Reuss Voigt Hill
#
# Bulk Modulus (GPa) = 33.18013 48.85204 41.01608
# Shear Modulus (GPa) = 18.14906 22.94571 20.54739
#
# Velocity S-wave (km/s) = 3.19214 3.58927 3.39652
# Velocity P-wave (km/s) = 5.67586 6.67870 6.19760
#
# Compressibility (1/GPa) = 0.03013852
#
# Stress axis : x y z
#
# Youngs Moduli (GPa) = 45.65516 22.18425 79.81091
#
# Poissons Ratio (x) = 0.20420 0.25070
# Poissons Ratio (y) = 0.42024 0.98486
# Poissons Ratio (z) = 0.14341 0.27375
#
# Static dielectric constant tensor:
#      x y z
#    x 1.601360 0.000000 0.000000 
#    y 0.000000 1.593280 0.000000 
#    z 0.000000 0.000000 1.579820 
# 
# From -- ./inp_files/33950.got.cif
#   From: 2010.05.17/outbox.cif.g08.bks.cpg/sg51_17_cif.got.tgz:33950.got - 2010.06.03 11:52:47.
