data_PCOD9404994
_publ_section_title
;
Structure prediction by ZEFSAII (Michael W. Deem and Ramdas Pophale) SiO2 
 PCOD9404994
Probable space group: P M M A
;
_chemical_formula_sum "Si O2"
_cell_formula_units_Z 40
_cell_length_a 8.254918
_cell_length_b 27.158357
_cell_length_c 9.830692
_cell_angle_alpha 90.000000
_cell_angle_beta 90.000000
_cell_angle_gamma 90.000000
_cell_volume 2203.942938
_symmetry_space_group_name_H-M "P M M A"
_symmetry_group_IT_number 51
_symmetry_cell_setting 'orthorhombic'
loop_
_space_group_symop_operation_xyz
x,y,z
1/2-x,-y,z
1/2+x,-y,-z
-x,y,-z
-x,-y,-z
1/2+x,y,-z
1/2-x,y,z
x,-y,z
loop_
_atom_site_type_symbol
_atom_site_label
_atom_site_fract_x
_atom_site_fract_y
_atom_site_fract_z
Si Si1 0.053937 0.000000 0.341749
Si Si2 0.053920 0.213230 0.343773
Si Si3 0.443635 0.412702 0.152925
Si Si4 0.941537 0.500000 0.344989
Si Si5 0.054192 0.301132 0.152909
Si Si6 0.054350 0.105874 0.342315
O O1 0.998178 0.052985 0.283490
O O2 0.000000 0.000000 0.500000
O O3 0.250000 0.000000 0.338084
O O4 0.250000 0.213632 0.341366
O O5 0.994917 0.259190 0.255411
O O6 0.999764 0.159287 0.288814
O O7 0.000000 0.217708 0.500000
O O8 0.250000 0.412364 0.152183
O O9 0.500255 0.452195 0.262187
O O10 0.501693 0.356945 0.184002
O O11 0.500000 0.425510 0.000000
O O12 0.750000 0.500000 0.345281
O O13 0.000000 0.500000 0.500000
O O14 0.250000 0.301398 0.157377
O O15 0.000000 0.289763 0.000000
O O16 0.250000 0.105682 0.337662
O O17 0.000000 0.105849 0.500000
#
# Coordination Sequence:
#
# PCOD9404994 Si02
#       6
#     4   8   8   4   8   8
#     4   8  12  18  30  50  75 108 144 180 222 270
#     4   9  17  29  44  66  94 123 153 191 237 285
#     4  10  20  37  58  79 102 131 166 203 241 286
#     4  12  25  40  57  80 108 136 164 198 239 284
#     4   9  19  34  52  73  97 125 161 199 235 276
#     4   8  13  21  34  53  81 112 145 183 226 274
#
# _framework density 18.149290000000001
#
# number of rings (size 3 to 8) (size 9 to 14) (size 15 to 20)
#    0.000    2.800    0.000    1.800    0.000    2.400 
#    0.000    2.000    0.000    0.000    0.000    0.700 
#    0.000    0.000    0.000    0.000    0.000    0.000 
#
# Total GULP energy -222715.103262 kJ/mol
# GULP energy per Si atom -5567.877582 kJ/mol
# Density = 1.810798 g / cm^3
# Si number density = 18.149290 Si / 1000 Ang^3
#
#
#
# Elastic Constant Matrix: (Units=GPa)
#
#
# Indices 1 2 3 4 5 6 
#
# 1 23.1448 23.0904 12.9210 0.0000 0.0000 0.0000
# 2 23.0904 198.2683 105.3017 0.0000 0.0000 0.0000
# 3 12.9210 105.3017 79.8123 0.0000 0.0000 0.0000
# 4 0.0000 0.0000 0.0000 -36.4827 0.0000 0.0000
# 5 0.0000 0.0000 0.0000 0.0000 21.9217 0.0000
# 6 0.0000 0.0000 0.0000 0.0000 0.0000 59.4736
#
#
#
# Elastic Compliance Matrix: (Units=1/GPa)
#
#
# Indices 1 2 3 4 5 6 
#
# 1 0.048930 -0.004983 -0.001347 0.000000 0.000000 0.000000
# 2 -0.004983 0.017361 -0.022098 0.000000 0.000000 0.000000
# 3 -0.001347 -0.022098 0.041903 0.000000 0.000000 0.000000
# 4 0.000000 0.000000 0.000000 -0.027410 0.000000 0.000000
# 5 0.000000 0.000000 0.000000 0.000000 0.045617 0.000000
# 6 0.000000 0.000000 0.000000 0.000000 0.000000 0.016814
#
#
# Mechanical properties :
#
#
# Convention : Reuss Voigt Hill
#
# Bulk Modulus (GPa) = 19.47914 64.87241 42.17578
# Shear Modulus (GPa) = 23.02212 19.64333 21.33272
#
# Velocity S-wave (km/s) = 3.56544 3.29343 3.43213
# Velocity P-wave (km/s) = 5.26364 7.09109 6.24458
#
# Compressibility (1/GPa) = 0.05133696
#
# Stress axis : x y z
#
# Youngs Moduli (GPa) = 20.43755 57.60199 23.86459
#
# Poissons Ratio (x) = 0.28703 0.03214
# Poissons Ratio (y) = 0.10184 0.52736
# Poissons Ratio (z) = 0.02753 1.27290
#
# Static dielectric constant tensor:
#      x y z
#    x 1.617650 0.000000 0.000000 
#    y 0.000000 1.719100 0.000000 
#    z 0.000000 0.000000 1.542650 
# 
# From -- ./inp_files/5557.got.cif
#   From: 2010.05.17/outbox.cif.g08.bks.cpg/sg51_3_cif.got.tgz:5557.got - 2010.06.03 11:52:47.
