data_PCOD9404517
_publ_section_title
;
Structure prediction by ZEFSAII (Michael W. Deem and Ramdas Pophale) SiO2 
 PCOD9404517
Probable space group: P M M A
;
_chemical_formula_sum "Si O2"
_cell_formula_units_Z 56
_cell_length_a 19.468922
_cell_length_b 8.904483
_cell_length_c 18.341000
_cell_angle_alpha 90.000000
_cell_angle_beta 90.000000
_cell_angle_gamma 90.000000
_cell_volume 3179.608323
_symmetry_space_group_name_H-M "P M M A"
_symmetry_group_IT_number 51
_symmetry_cell_setting 'orthorhombic'
loop_
_space_group_symop_operation_xyz
x,y,z
1/2-x,-y,z
1/2+x,-y,-z
-x,y,-z
-x,-y,-z
1/2+x,y,-z
1/2-x,y,z
x,-y,z
loop_
_atom_site_type_symbol
_atom_site_label
_atom_site_fract_x
_atom_site_fract_y
_atom_site_fract_z
Si Si1 0.669597 0.318881 0.585872
Si Si2 0.169484 0.318965 0.124795
Si Si3 0.666527 0.826748 0.026922
Si Si4 0.934189 0.318237 0.305378
Si Si5 0.573830 0.179722 0.464724
Si Si6 0.910904 0.682569 0.731713
Si Si7 0.829762 0.680797 0.178564
O O1 0.750000 0.282512 0.588579
O O2 0.662966 0.500000 0.580212
O O3 0.631911 0.244313 0.517780
O O4 0.632101 0.270862 0.660569
O O5 0.250000 0.278658 0.135697
O O6 0.166416 0.500000 0.120887
O O7 0.124839 0.266789 0.193616
O O8 0.144928 0.252911 0.047827
O O9 0.750000 0.819460 0.026852
O O10 0.645010 0.747314 0.101747
O O11 0.645923 0.000000 0.026903
O O12 0.933153 0.500000 0.311740
O O13 0.921305 0.248519 0.384343
O O14 0.877358 0.273619 0.245949
O O15 0.010055 0.272776 0.278022
O O16 0.500000 0.220832 0.500000
O O17 0.578027 0.000000 0.461170
O O18 0.909198 0.500000 0.733128
O O19 0.750000 0.725477 0.189743
O O20 0.831565 0.500000 0.173313
#
# Coordination Sequence:
#
# PCOD9404517 Si02
#       7
#     8   8   8   8   8   8   8
#     4  10  20  35  58  84 107 136 178 226 271 316
#     4   9  16  28  49  75 102 132 168 212 259 308
#     4   9  17  30  49  73 101 135 173 210 254 308
#     4  10  20  35  57  79 102 136 176 219 268 318
#     4  11  23  38  55  77 108 146 182 215 261 322
#     4   9  17  31  52  78 105 134 171 215 264 315
#     4   9  18  33  53  77 102 129 169 219 265 310
#
# _framework density 17.612233
#
# number of rings (size 3 to 8) (size 9 to 14) (size 15 to 20)
#    0.000    2.429    1.429    1.286    0.000    5.429 
#    0.000    3.571    0.000    6.000    0.000    0.000 
#    0.000    0.000    0.000    0.000    0.000    0.000 
#
# Total GULP energy -312384.253808 kJ/mol
# GULP energy per Si atom -5578.290247 kJ/mol
# Density = 1.757215 g / cm^3
# Si number density = 17.612233 Si / 1000 Ang^3
#
#
#
# Elastic Constant Matrix: (Units=GPa)
#
#
# Indices 1 2 3 4 5 6 
#
# 1 108.9988 32.9723 97.1157 0.0000 0.0000 0.0000
# 2 32.9723 18.0099 46.7529 0.0000 0.0000 0.0000
# 3 97.1157 46.7529 216.8350 0.0000 0.0000 0.0000
# 4 0.0000 0.0000 0.0000 -4.6088 0.0000 0.0000
# 5 0.0000 0.0000 0.0000 0.0000 30.4245 0.0000
# 6 0.0000 0.0000 0.0000 0.0000 0.0000 12.3448
#
#
#
# Elastic Compliance Matrix: (Units=1/GPa)
#
#
# Indices 1 2 3 4 5 6 
#
# 1 0.021167 -0.032121 -0.002554 0.000000 0.000000 0.000000
# 2 -0.032121 0.174858 -0.023316 0.000000 0.000000 0.000000
# 3 -0.002554 -0.023316 0.010783 0.000000 0.000000 0.000000
# 4 0.000000 0.000000 0.000000 -0.216975 0.000000 0.000000
# 5 0.000000 0.000000 0.000000 0.000000 0.032868 0.000000
# 6 0.000000 0.000000 0.000000 0.000000 0.000000 0.081006
#
#
# Mechanical properties :
#
#
# Convention : Reuss Voigt Hill
#
# Bulk Modulus (GPa) = 11.01007 77.50282 44.25644
# Shear Modulus (GPa) = 20.00275 18.76562 19.38419
#
# Velocity S-wave (km/s) = 3.37372 3.26772 3.32114
# Velocity P-wave (km/s) = 4.63043 7.63793 6.31581
#
# Compressibility (1/GPa) = 0.09082597
#
# Stress axis : x y z
#
# Youngs Moduli (GPa) = 47.24317 5.71891 92.73732
#
# Poissons Ratio (x) = 0.18370 0.23690
# Poissons Ratio (y) = 1.51750 2.16225
# Poissons Ratio (z) = 0.12068 0.13334
#
# Static dielectric constant tensor:
#      x y z
#    x 1.592550 0.000000 0.000000 
#    y 0.000000 1.586110 0.000000 
#    z 0.000000 0.000000 1.574100 
# 
# From -- ./inp_files/25731.got.cif
#   From: 2010.05.17/outbox.cif.g08.bks.cpg/sg51_13_cif.got.tgz:25731.got - 2010.06.03 11:52:47.
