data_PCOD9404596
_publ_section_title
;
Structure prediction by ZEFSAII (Michael W. Deem and Ramdas Pophale) SiO2 
 PCOD9404596
Probable space group: P M M A
;
_chemical_formula_sum "Si O2"
_cell_formula_units_Z 48
_cell_length_a 9.442597
_cell_length_b 7.969581
_cell_length_c 34.776386
_cell_angle_alpha 90.000000
_cell_angle_beta 90.000000
_cell_angle_gamma 90.000000
_cell_volume 2617.046212
_symmetry_space_group_name_H-M "P M M A"
_symmetry_group_IT_number 51
_symmetry_cell_setting 'orthorhombic'
loop_
_space_group_symop_operation_xyz
x,y,z
1/2-x,-y,z
1/2+x,-y,-z
-x,y,-z
-x,-y,-z
1/2+x,y,-z
1/2-x,y,z
x,-y,z
loop_
_atom_site_type_symbol
_atom_site_label
_atom_site_fract_x
_atom_site_fract_y
_atom_site_fract_z
Si Si1 0.088975 0.202124 0.536596
Si Si2 0.079085 0.000000 0.823471
Si Si3 0.919134 0.307392 0.960055
Si Si4 0.912411 0.700693 0.611077
Si Si5 0.419099 0.687089 0.769749
Si Si6 0.579807 0.000000 0.904159
Si Si7 0.914643 0.800918 0.696193
O O1 0.250000 0.265677 0.536089
O O2 0.000000 0.265407 0.500000
O O3 0.009774 0.244746 0.575975
O O4 0.094485 0.000000 0.533703
O O5 0.039389 0.164893 0.798819
O O6 0.001801 0.000000 0.864118
O O7 0.250000 0.000000 0.828376
O O8 0.750000 0.295949 0.966701
O O9 0.950331 0.500000 0.947801
O O10 0.956284 0.165881 0.928996
O O11 0.000000 0.276884 0.000000
O O12 0.750000 0.761809 0.605277
O O13 0.909492 0.500000 0.612480
O O14 0.962468 0.764505 0.652680
O O15 0.250000 0.700401 0.764107
O O16 0.450721 0.500000 0.784611
O O17 0.495158 0.713040 0.729043
O O18 0.750000 0.000000 0.897977
O O19 0.750000 0.746964 0.698506
O O20 0.921303 0.000000 0.702818
#
# Coordination Sequence:
#
# PCOD9404596 Si02
#       7
#     8   4   8   8   8   4   8
#     4  10  21  37  57  79 103 136 177 218 262 315
#     4  10  22  39  55  78 111 146 187 235 280 332
#     4   9  18  33  53  79 111 145 184 231 281 332
#     4  10  21  36  54  79 110 141 174 214 262 316
#     4  10  21  38  59  81 108 144 184 229 282 335
#     4  10  21  35  53  78 110 146 186 231 279 332
#     4  10  20  35  58  85 111 140 177 222 272 326
#
# _framework density 18.341287999999999
#
# number of rings (size 3 to 8) (size 9 to 14) (size 15 to 20)
#    0.000    2.167    0.833    1.750    0.000    6.000 
#    0.000    0.000    0.000    0.000    0.000    0.000 
#    0.000    0.000    0.000    0.000    0.000    0.000 
#
# Total GULP energy -267961.157281 kJ/mol
# GULP energy per Si atom -5582.524110 kJ/mol
# Density = 1.829954 g / cm^3
# Si number density = 18.341288 Si / 1000 Ang^3
#
#
#
# Elastic Constant Matrix: (Units=GPa)
#
#
# Indices 1 2 3 4 5 6 
#
# 1 54.8699 45.4502 67.8453 0.0000 0.0000 0.0000
# 2 45.4502 104.0130 79.0989 0.0000 0.0000 0.0000
# 3 67.8453 79.0989 158.9109 0.0000 0.0000 0.0000
# 4 0.0000 0.0000 0.0000 -10.2910 0.0000 0.0000
# 5 0.0000 0.0000 0.0000 0.0000 39.2408 0.0000
# 6 0.0000 0.0000 0.0000 0.0000 0.0000 12.1021
#
#
#
# Elastic Compliance Matrix: (Units=1/GPa)
#
#
# Indices 1 2 3 4 5 6 
#
# 1 0.042028 -0.007594 -0.014163 0.000000 0.000000 0.000000
# 2 -0.007594 0.016842 -0.005141 0.000000 0.000000 0.000000
# 3 -0.014163 -0.005141 0.014899 0.000000 0.000000 0.000000
# 4 0.000000 0.000000 0.000000 -0.097173 0.000000 0.000000
# 5 0.000000 0.000000 0.000000 0.000000 0.025484 0.000000
# 6 0.000000 0.000000 0.000000 0.000000 0.000000 0.082630
#
#
# Mechanical properties :
#
#
# Convention : Reuss Voigt Hill
#
# Bulk Modulus (GPa) = 50.07047 78.06473 64.06760
# Shear Modulus (GPa) = 34.44376 16.57036 25.50706
#
# Velocity S-wave (km/s) = 4.33822 3.00900 3.73324
# Velocity P-wave (km/s) = 7.24238 7.39776 7.32048
#
# Compressibility (1/GPa) = 0.01997185
#
# Stress axis : x y z
#
# Youngs Moduli (GPa) = 23.79377 59.37480 67.11950
#
# Poissons Ratio (x) = 0.45088 0.95064
# Poissons Ratio (y) = 0.18069 0.34507
# Poissons Ratio (z) = 0.33700 0.30526
#
# Static dielectric constant tensor:
#      x y z
#    x 1.621610 0.000000 0.000000 
#    y 0.000000 1.655380 0.000000 
#    z 0.000000 0.000000 1.582500 
# 
# From -- ./inp_files/37102.got.cif
#   From: 2010.05.17/outbox.cif.g08.bks.cpg/sg51_19_cif.got.tgz:37102.got - 2010.06.03 11:52:47.
