data_PCOD9404330
_publ_section_title
;
Structure prediction by ZEFSAII (Michael W. Deem and Ramdas Pophale) SiO2 
 PCOD9404330
Probable space group: P M M A
;
_chemical_formula_sum "Si O2"
_cell_formula_units_Z 40
_cell_length_a 24.899744
_cell_length_b 7.727614
_cell_length_c 12.084485
_cell_angle_alpha 90.000000
_cell_angle_beta 90.000000
_cell_angle_gamma 90.000000
_cell_volume 2325.243557
_symmetry_space_group_name_H-M "P M M A"
_symmetry_group_IT_number 51
_symmetry_cell_setting 'orthorhombic'
loop_
_space_group_symop_operation_xyz
x,y,z
1/2-x,-y,z
1/2+x,-y,-z
-x,y,-z
-x,-y,-z
1/2+x,y,-z
1/2-x,y,z
x,-y,z
loop_
_atom_site_type_symbol
_atom_site_label
_atom_site_fract_x
_atom_site_fract_y
_atom_site_fract_z
Si Si1 0.686076 0.295214 0.839575
Si Si2 0.510246 0.795857 0.374679
Si Si3 0.185066 0.000000 0.989890
Si Si4 0.125361 0.300570 0.610217
Si Si5 0.185617 0.000000 0.736106
Si Si6 0.893388 0.292556 0.644248
O O1 0.750000 0.273620 0.819981
O O2 0.676809 0.500000 0.861546
O O3 0.652129 0.242774 0.731580
O O4 0.669975 0.170831 0.940600
O O5 0.500000 0.730633 0.500000
O O6 0.565296 0.708526 0.337804
O O7 0.452690 0.767572 0.318769
O O8 0.521235 0.000000 0.378658
O O9 0.250000 0.000000 0.985361
O O10 0.166378 0.000000 0.863667
O O11 0.143754 0.500000 0.610538
O O12 0.119194 0.237758 0.482054
O O13 0.163094 0.169471 0.674924
O O14 0.250000 0.000000 0.733486
O O15 0.895068 0.500000 0.640445
#
# Coordination Sequence:
#
# PCOD9404330 Si02
#       6
#     8   8   4   8   4   8
#     4   9  18  33  53  77 104 132 166 213 264 310
#     4   9  16  28  50  77 107 140 174 206 244 299
#     4   9  20  37  54  71  94 131 181 223 254 296
#     4  10  20  35  54  78 110 142 170 207 256 305
#     4  11  24  39  53  75 103 135 181 220 251 305
#     4   9  18  30  51  83 111 137 170 206 254 314
#
# _framework density 17.202497999999999
#
# number of rings (size 3 to 8) (size 9 to 14) (size 15 to 20)
#    0.000    2.600    1.000    0.600    2.800    4.400 
#    0.000    5.000    0.000    2.400    0.000    4.200 
#    0.000    0.000    0.000    0.000    0.000    0.000 
#
# Total GULP energy -222821.868852 kJ/mol
# GULP energy per Si atom -5570.546721 kJ/mol
# Density = 1.716334 g / cm^3
# Si number density = 17.202498 Si / 1000 Ang^3
#
#
#
# Elastic Constant Matrix: (Units=GPa)
#
#
# Indices 1 2 3 4 5 6 
#
# 1 83.0641 42.3573 47.4257 0.0000 0.0000 0.0000
# 2 42.3573 81.7376 49.8300 0.0000 0.0000 0.0000
# 3 47.4257 49.8300 93.3327 0.0000 0.0000 0.0000
# 4 0.0000 0.0000 0.0000 14.4914 0.0000 0.0000
# 5 0.0000 0.0000 0.0000 0.0000 -5.4598 0.0000
# 6 0.0000 0.0000 0.0000 0.0000 0.0000 19.5335
#
#
#
# Elastic Compliance Matrix: (Units=1/GPa)
#
#
# Indices 1 2 3 4 5 6 
#
# 1 0.018622 -0.005754 -0.006390 0.000000 0.000000 0.000000
# 2 -0.005754 0.019916 -0.007709 0.000000 0.000000 0.000000
# 3 -0.006390 -0.007709 0.018077 0.000000 0.000000 0.000000
# 4 0.000000 0.000000 0.000000 0.069007 0.000000 0.000000
# 5 0.000000 0.000000 0.000000 0.000000 -0.183158 0.000000
# 6 0.000000 0.000000 0.000000 0.000000 0.000000 0.051194
#
#
# Mechanical properties :
#
#
# Convention : Reuss Voigt Hill
#
# Bulk Modulus (GPa) = 59.14419 59.70672 59.42545
# Shear Modulus (GPa) = 128.20303 13.61444 70.90874
#
# Velocity S-wave (km/s) = 8.64220 2.81628 6.42725
# Velocity P-wave (km/s) = 11.57753 6.73489 9.47096
#
# Compressibility (1/GPa) = 0.01690783
#
# Stress axis : x y z
#
# Youngs Moduli (GPa) = 53.70074 50.21109 55.31807
#
# Poissons Ratio (x) = 0.28893 0.35349
# Poissons Ratio (y) = 0.30901 0.42645
# Poissons Ratio (z) = 0.34316 0.38708
#
# Static dielectric constant tensor:
#      x y z
#    x 1.601020 0.000000 0.000000 
#    y 0.000000 1.597670 0.000000 
#    z 0.000000 0.000000 1.571610 
# 
# From -- ./inp_files/18002.got.cif
#   From: 2010.05.17/outbox.cif.g08.bks.cpg/sg51_10_cif.got.tgz:18002.got - 2010.06.03 11:52:47.
