data_PCOD9404451
_publ_section_title
;
Structure prediction by ZEFSAII (Michael W. Deem and Ramdas Pophale) SiO2 
 PCOD9404451
Probable space group: P M M A
;
_chemical_formula_sum "Si O2"
_cell_formula_units_Z 40
_cell_length_a 18.327571
_cell_length_b 8.983452
_cell_length_c 13.355511
_cell_angle_alpha 90.000000
_cell_angle_beta 90.000000
_cell_angle_gamma 90.000000
_cell_volume 2198.916163
_symmetry_space_group_name_H-M "P M M A"
_symmetry_group_IT_number 51
_symmetry_cell_setting 'orthorhombic'
loop_
_space_group_symop_operation_xyz
x,y,z
1/2-x,-y,z
1/2+x,-y,-z
-x,y,-z
-x,-y,-z
1/2+x,y,-z
1/2-x,y,z
x,-y,z
loop_
_atom_site_type_symbol
_atom_site_label
_atom_site_fract_x
_atom_site_fract_y
_atom_site_fract_z
Si Si1 0.919882 0.677082 0.290060
Si Si2 0.588702 0.828804 0.492850
Si Si3 0.662129 0.326262 0.897996
Si Si4 0.662116 0.826568 0.106584
Si Si5 0.419664 0.820843 0.286003
O O1 0.923816 0.500000 0.284794
O O2 0.890580 0.728471 0.398894
O O3 0.871678 0.742870 0.200936
O O4 0.000492 0.747638 0.279714
O O5 0.500000 0.826645 0.500000
O O6 0.613182 0.783250 0.604112
O O7 0.610291 0.000000 0.473483
O O8 0.750000 0.317826 0.892554
O O9 0.641018 0.500000 0.896203
O O10 0.627865 0.240250 0.804700
O O11 0.639351 0.250992 0.002673
O O12 0.750000 0.819384 0.111780
O O13 0.640450 0.000000 0.106984
O O14 0.426627 0.000000 0.282532
#
# Coordination Sequence:
#
# PCOD9404451 Si02
#       5
#     8   8   8   8   8
#     4  11  21  33  54  82 110 138 172 217 266 312
#     4   8  16  32  52  75 105 140 175 212 256 307
#     4  10  21  37  56  79 108 138 171 216 268 316
#     4  10  21  38  58  77 102 139 179 216 259 314
#     4  10  20  35  56  80 107 140 179 217 254 307
#
# _framework density 18.190778999999999
#
# number of rings (size 3 to 8) (size 9 to 14) (size 15 to 20)
#    0.000    2.200    0.000    4.800    0.000    7.600 
#    0.000    5.000    0.000    1.200    0.000    0.000 
#    0.000    0.000    0.000    0.000    0.000    0.000 
#
# Total GULP energy -223244.125637 kJ/mol
# GULP energy per Si atom -5581.103141 kJ/mol
# Density = 1.814938 g / cm^3
# Si number density = 18.190779 Si / 1000 Ang^3
#
#
#
# Elastic Constant Matrix: (Units=GPa)
#
#
# Indices 1 2 3 4 5 6 
#
# 1 11.3636 32.6551 38.7444 0.0000 0.0000 0.0000
# 2 32.6551 150.8846 106.4916 0.0000 0.0000 0.0000
# 3 38.7444 106.4916 199.8282 0.0000 0.0000 0.0000
# 4 0.0000 0.0000 0.0000 5.6042 0.0000 0.0000
# 5 0.0000 0.0000 0.0000 0.0000 49.0073 0.0000
# 6 0.0000 0.0000 0.0000 0.0000 0.0000 24.6928
#
#
#
# Elastic Compliance Matrix: (Units=1/GPa)
#
#
# Indices 1 2 3 4 5 6 
#
# 1 0.431076 -0.054988 -0.054277 0.000000 0.000000 0.000000
# 2 -0.054988 0.017637 0.001262 0.000000 0.000000 0.000000
# 3 -0.054277 0.001262 0.014855 0.000000 0.000000 0.000000
# 4 0.000000 0.000000 0.000000 0.178437 0.000000 0.000000
# 5 0.000000 0.000000 0.000000 0.000000 0.020405 0.000000
# 6 0.000000 0.000000 0.000000 0.000000 0.000000 0.040498
#
#
# Mechanical properties :
#
#
# Convention : Reuss Voigt Hill
#
# Bulk Modulus (GPa) = 4.03936 79.76206 41.90071
# Shear Modulus (GPa) = 4.99284 28.13989 16.56636
#
# Velocity S-wave (km/s) = 1.65851 3.93737 3.02106
# Velocity P-wave (km/s) = 2.42754 8.03824 5.93743
#
# Compressibility (1/GPa) = 0.24756371
#
# Stress axis : x y z
#
# Youngs Moduli (GPa) = 2.31978 56.69756 67.31625
#
# Poissons Ratio (x) = 3.11768 3.65371
# Poissons Ratio (y) = 0.12756 -0.08497
# Poissons Ratio (z) = 0.12591 -0.07157
#
# Static dielectric constant tensor:
#      x y z
#    x 1.608780 0.000000 0.000000 
#    y 0.000000 1.605300 0.000000 
#    z 0.000000 0.000000 1.627550 
# 
# From -- ./inp_files/17897.got.cif
#   From: 2010.05.17/outbox.cif.g08.bks.cpg/sg51_9_cif.got.tgz:17897.got - 2010.06.03 11:52:47.
