data_PCOD9404963
_publ_section_title
;
Structure prediction by ZEFSAII (Michael W. Deem and Ramdas Pophale) SiO2 
 PCOD9404963
Probable space group: P M M A
;
_chemical_formula_sum "Si O2"
_cell_formula_units_Z 48
_cell_length_a 17.541636
_cell_length_b 7.889391
_cell_length_c 16.486906
_cell_angle_alpha 90.000000
_cell_angle_beta 90.000000
_cell_angle_gamma 90.000000
_cell_volume 2281.669500
_symmetry_space_group_name_H-M "P M M A"
_symmetry_group_IT_number 51
_symmetry_cell_setting 'orthorhombic'
loop_
_space_group_symop_operation_xyz
x,y,z
1/2-x,-y,z
1/2+x,-y,-z
-x,y,-z
-x,-y,-z
1/2+x,y,-z
1/2-x,y,z
x,-y,z
loop_
_atom_site_type_symbol
_atom_site_label
_atom_site_fract_x
_atom_site_fract_y
_atom_site_fract_z
Si Si1 0.918487 0.207047 0.541148
Si Si2 0.890949 0.197781 0.212535
Si Si3 0.418811 0.699114 0.967803
Si Si4 0.250000 0.684508 0.689006
Si Si5 0.750000 0.807814 0.483391
Si Si6 0.836577 0.795132 0.871322
Si Si7 0.055146 0.793318 0.273812
O O1 0.834546 0.263500 0.507964
O O2 0.922740 0.256877 0.635680
O O3 0.000000 0.261001 0.500000
O O4 0.918700 0.000000 0.534370
O O5 0.894001 0.216220 0.115700
O O6 0.822270 0.293641 0.253845
O O7 0.970294 0.259608 0.249943
O O8 0.882160 0.000000 0.232736
O O9 0.427898 0.500000 0.950359
O O10 0.500000 0.767126 0.000000
O O11 0.361675 0.724705 0.041986
O O12 0.250000 0.500000 0.649977
O O13 0.250000 0.810566 0.613906
O O14 0.750000 0.000000 0.517249
O O15 0.750000 0.750641 0.853531
O O16 0.889843 0.734942 0.798180
O O17 0.842834 0.000000 0.876083
O O18 0.056493 0.000000 0.272721
#
# Coordination Sequence:
#
# PCOD9404963 Si02
#       7
#     8   8   8   4   4   8   8
#     4   9  17  30  53  87 121 147 186 244 297 345
#     4  11  22  39  64  88 115 154 202 246 293 352
#     4  11  23  39  58  82 117 158 200 244 299 355
#     4  12  26  42  60  85 122 155 192 247 302 353
#     4  10  20  36  62  89 116 155 196 237 292 359
#     4  10  21  36  57  85 118 155 200 248 296 350
#     4   9  18  33  57  89 120 151 190 246 300 345
#
# _framework density 21.037227000000001
#
# number of rings (size 3 to 8) (size 9 to 14) (size 15 to 20)
#    0.000    1.833    1.667    2.750    2.333    3.667 
#    0.000    0.000    0.000    6.500    0.000    0.000 
#    0.000    0.000    0.000    0.000    0.000    0.000 
#
# Total GULP energy -268008.808882 kJ/mol
# GULP energy per Si atom -5583.516852 kJ/mol
# Density = 2.098935 g / cm^3
# Si number density = 21.037227 Si / 1000 Ang^3
#
#
#
# Elastic Constant Matrix: (Units=GPa)
#
#
# Indices 1 2 3 4 5 6 
#
# 1 167.9654 14.7940 68.9981 0.0000 0.0000 0.0000
# 2 14.7940 28.6790 -3.1644 0.0000 0.0000 0.0000
# 3 68.9981 -3.1644 132.1122 0.0000 0.0000 0.0000
# 4 0.0000 0.0000 0.0000 -65.9570 0.0000 0.0000
# 5 0.0000 0.0000 0.0000 0.0000 12.4146 0.0000
# 6 0.0000 0.0000 0.0000 0.0000 0.0000 -2.2730
#
#
#
# Elastic Compliance Matrix: (Units=1/GPa)
#
#
# Indices 1 2 3 4 5 6 
#
# 1 0.008165 -0.004695 -0.004377 0.000000 0.000000 0.000000
# 2 -0.004695 0.037661 0.003354 0.000000 0.000000 0.000000
# 3 -0.004377 0.003354 0.009936 0.000000 0.000000 0.000000
# 4 0.000000 0.000000 0.000000 -0.015161 0.000000 0.000000
# 5 0.000000 0.000000 0.000000 0.000000 0.080550 0.000000
# 6 0.000000 0.000000 0.000000 0.000000 0.000000 -0.439951
#
#
# Mechanical properties :
#
#
# Convention : Reuss Voigt Hill
#
# Bulk Modulus (GPa) = 22.56015 54.44577 38.50296
# Shear Modulus (GPa) = -17.08874 5.37887 -5.85493
#
# Velocity S-wave (km/s) = -2.85320 1.60075 -1.67008
# Velocity P-wave (km/s) = 0.32727 5.41788 3.82402
#
# Compressibility (1/GPa) = 0.04432594
#
# Stress axis : x y z
#
# Youngs Moduli (GPa) = 122.47319 26.55296 100.64887
#
# Poissons Ratio (x) = 0.12466 0.44052
# Poissons Ratio (y) = 0.57499 -0.33758
# Poissons Ratio (z) = 0.53604 -0.08906
#
# Static dielectric constant tensor:
#      x y z
#    x 1.738910 0.000000 0.000000 
#    y 0.000000 1.772410 0.000000 
#    z 0.000000 0.000000 1.719870 
# 
# From -- ./inp_files/24842.got.cif
#   From: 2010.05.17/outbox.cif.g08.bks.cpg/sg51_13_cif.got.tgz:24842.got - 2010.06.03 11:52:47.
