data_PCOD9404823
_publ_section_title
;
Structure prediction by ZEFSAII (Michael W. Deem and Ramdas Pophale) SiO2 
 PCOD9404823
Probable space group: P M M A
;
_chemical_formula_sum "Si O2"
_cell_formula_units_Z 56
_cell_length_a 15.637532
_cell_length_b 20.470140
_cell_length_c 8.504888
_cell_angle_alpha 90.000000
_cell_angle_beta 90.000000
_cell_angle_gamma 90.000000
_cell_volume 2722.435650
_symmetry_space_group_name_H-M "P M M A"
_symmetry_group_IT_number 51
_symmetry_cell_setting 'orthorhombic'
loop_
_space_group_symop_operation_xyz
x,y,z
1/2-x,-y,z
1/2+x,-y,-z
-x,y,-z
-x,-y,-z
1/2+x,y,-z
1/2-x,y,z
x,-y,z
loop_
_atom_site_type_symbol
_atom_site_label
_atom_site_fract_x
_atom_site_fract_y
_atom_site_fract_z
Si Si1 0.151171 0.329920 0.153709
Si Si2 0.091869 0.928262 0.083105
Si Si3 0.652442 0.074224 0.256037
Si Si4 0.910758 0.202738 0.407482
Si Si5 0.502732 0.575052 0.807600
Si Si6 0.654052 0.191701 0.736343
Si Si7 0.150586 0.668769 0.774179
O O1 0.250000 0.336412 0.207209
O O2 0.088979 0.384330 0.224868
O O3 0.115870 0.259107 0.200656
O O4 0.151774 0.330339 0.964436
O O5 0.104029 0.871029 0.205403
O O6 0.104360 0.000000 0.154691
O O7 0.153297 0.920793 0.933102
O O8 0.000000 0.926037 0.000000
O O9 0.750000 0.081054 0.313790
O O10 0.595444 0.133353 0.319553
O O11 0.622338 0.000000 0.293298
O O12 0.844654 0.197406 0.550425
O O13 0.884532 0.263092 0.296539
O O14 0.000000 0.212305 0.500000
O O15 0.505973 0.500000 0.756351
O O16 0.419596 0.612472 0.739977
O O17 0.500000 0.575084 0.000000
O O18 0.750000 0.186860 0.800804
O O19 0.250000 0.658234 0.723645
#
# Coordination Sequence:
#
# PCOD9404823 Si02
#       7
#     8   8   8   8   8   8   8
#     4   9  19  35  57  85 116 153 193 233 283 344
#     4  10  21  37  57  82 111 145 187 236 291 351
#     4  10  21  38  58  79 108 148 191 235 290 359
#     4  12  24  37  56  81 111 149 192 241 293 341
#     4   9  18  33  56  88 119 145 182 234 285 331
#     4  11  22  35  54  81 111 143 185 236 285 334
#     4  10  20  36  58  83 115 155 195 233 281 348
#
# _framework density 20.569814999999998
#
# number of rings (size 3 to 8) (size 9 to 14) (size 15 to 20)
#    0.000    1.857    0.000    4.286    0.000    5.143 
#    0.000    2.857    0.000    3.857    0.000    4.000 
#    0.000    0.000    0.000    0.000    0.000    0.000 
#
# Total GULP energy -312504.335835 kJ/mol
# GULP energy per Si atom -5580.434568 kJ/mol
# Density = 2.052300 g / cm^3
# Si number density = 20.569815 Si / 1000 Ang^3
#
#
#
# Elastic Constant Matrix: (Units=GPa)
#
#
# Indices 1 2 3 4 5 6 
#
# 1 131.4428 82.1951 18.5570 0.0000 0.0000 0.0000
# 2 82.1951 197.6623 34.7469 0.0000 0.0000 0.0000
# 3 18.5570 34.7469 18.6921 0.0000 0.0000 0.0000
# 4 0.0000 0.0000 0.0000 -15.9061 0.0000 0.0000
# 5 0.0000 0.0000 0.0000 0.0000 24.7372 0.0000
# 6 0.0000 0.0000 0.0000 0.0000 0.0000 23.2165
#
#
#
# Elastic Compliance Matrix: (Units=1/GPa)
#
#
# Indices 1 2 3 4 5 6 
#
# 1 0.010425 -0.003737 -0.003403 0.000000 0.000000 0.000000
# 2 -0.003737 0.008854 -0.012749 0.000000 0.000000 0.000000
# 3 -0.003403 -0.012749 0.080577 0.000000 0.000000 0.000000
# 4 0.000000 0.000000 0.000000 -0.062869 0.000000 0.000000
# 5 0.000000 0.000000 0.000000 0.000000 0.040425 0.000000
# 6 0.000000 0.000000 0.000000 0.000000 0.000000 0.043073
#
#
# Mechanical properties :
#
#
# Convention : Reuss Voigt Hill
#
# Bulk Modulus (GPa) = 16.64518 68.75501 42.70010
# Shear Modulus (GPa) = 27.73308 20.56273 24.14790
#
# Velocity S-wave (km/s) = 3.67582 3.16516 3.43001
# Velocity P-wave (km/s) = 5.11128 6.84510 6.04072
#
# Compressibility (1/GPa) = 0.06007745
#
# Stress axis : x y z
#
# Youngs Moduli (GPa) = 95.92212 112.93983 12.41048
#
# Poissons Ratio (x) = 0.42204 0.04224
# Poissons Ratio (y) = 0.35845 0.15823
# Poissons Ratio (z) = 0.32644 1.43991
#
# Static dielectric constant tensor:
#      x y z
#    x 1.805270 0.000000 0.000000 
#    y 0.000000 1.715140 0.000000 
#    z 0.000000 0.000000 1.724580 
# 
# From -- ./inp_files/8574.got.cif
#   From: 2010.05.17/outbox.cif.g08.bks.cpg/sg51_5_cif.got.tgz:8574.got - 2010.06.03 11:52:47.
