data_PCOD9404779
_publ_section_title
;
Structure prediction by ZEFSAII (Michael W. Deem and Ramdas Pophale) SiO2 
 PCOD9404779
Probable space group: P M M A
;
_chemical_formula_sum "Si O2"
_cell_formula_units_Z 64
_cell_length_a 18.784072
_cell_length_b 19.885548
_cell_length_c 9.533983
_cell_angle_alpha 90.000000
_cell_angle_beta 90.000000
_cell_angle_gamma 90.000000
_cell_volume 3561.243594
_symmetry_space_group_name_H-M "P M M A"
_symmetry_group_IT_number 51
_symmetry_cell_setting 'orthorhombic'
loop_
_space_group_symop_operation_xyz
x,y,z
1/2-x,-y,z
1/2+x,-y,-z
-x,y,-z
-x,-y,-z
1/2+x,y,-z
1/2-x,y,z
x,-y,z
loop_
_atom_site_type_symbol
_atom_site_label
_atom_site_fract_x
_atom_site_fract_y
_atom_site_fract_z
Si Si1 0.334339 0.424089 0.419581
Si Si2 0.585845 0.187978 0.144940
Si Si3 0.081109 0.183592 0.177955
Si Si4 0.450116 0.420516 0.633652
Si Si5 0.334561 0.074344 0.685388
Si Si6 0.928325 0.334538 0.090003
Si Si7 0.427491 0.923338 0.415158
Si Si8 0.335996 0.675295 0.166787
O O1 0.250000 0.422384 0.435682
O O2 0.355837 0.500000 0.376854
O O3 0.372332 0.410685 0.566304
O O4 0.353514 0.371789 0.298954
O O5 0.503795 0.192774 0.191371
O O6 0.629169 0.135890 0.235924
O O7 0.607363 0.266027 0.147575
O O8 0.591753 0.163711 0.984101
O O9 0.095324 0.126447 0.291828
O O10 0.126321 0.252302 0.193183
O O11 0.500000 0.400250 0.500000
O O12 0.462914 0.500000 0.658707
O O13 0.451861 0.380746 0.779950
O O14 0.250000 0.080333 0.688587
O O15 0.365081 0.075626 0.528877
O O16 0.354233 0.000000 0.743983
O O17 0.871700 0.357643 0.972067
O O18 0.000000 0.318112 0.000000
O O19 0.500000 0.903309 0.500000
O O20 0.440327 0.000000 0.364086
O O21 0.250000 0.681598 0.153851
#
# Coordination Sequence:
#
# PCOD9404779 Si02
#       8
#     8   8   8   8   8   8   8   8
#     4   9  19  38  59  81 114 152 191 236 290 350
#     4  10  20  37  57  83 114 154 193 232 292 345
#     4  10  20  36  57  83 115 148 192 242 285 343
#     4  10  22  37  57  86 117 153 197 244 292 344
#     4  10  22  40  60  86 121 155 192 242 295 346
#     4  11  21  38  58  82 117 153 192 241 294 348
#     4  10  20  36  59  86 115 150 193 239 286 342
#     4  10  21  37  58  85 116 153 193 243 298 348
#
# _framework density 17.971250000000001
#
# number of rings (size 3 to 8) (size 9 to 14) (size 15 to 20)
#    0.000    2.000    3.750    0.750    0.000    5.250 
#    0.000    2.500    0.000    1.500    0.000    0.000 
#    0.000    0.000    0.000    0.000    0.000    0.000 
#
# Total GULP energy -356478.421442 kJ/mol
# GULP energy per Si atom -5569.975335 kJ/mol
# Density = 1.793035 g / cm^3
# Si number density = 17.971250 Si / 1000 Ang^3
#
#
#
# Elastic Constant Matrix: (Units=GPa)
#
#
# Indices 1 2 3 4 5 6 
#
# 1 65.9810 38.3391 35.0971 0.0000 0.0000 0.0000
# 2 38.3391 86.3702 66.0908 0.0000 0.0000 0.0000
# 3 35.0971 66.0908 78.1713 0.0000 0.0000 0.0000
# 4 0.0000 0.0000 0.0000 42.1902 0.0000 0.0000
# 5 0.0000 0.0000 0.0000 0.0000 25.7905 0.0000
# 6 0.0000 0.0000 0.0000 0.0000 0.0000 23.5483
#
#
#
# Elastic Compliance Matrix: (Units=1/GPa)
#
#
# Indices 1 2 3 4 5 6 
#
# 1 0.020938 -0.005950 -0.004370 0.000000 0.000000 0.000000
# 2 -0.005950 0.034485 -0.026485 0.000000 0.000000 0.000000
# 3 -0.004370 -0.026485 0.037146 0.000000 0.000000 0.000000
# 4 0.000000 0.000000 0.000000 0.023702 0.000000 0.000000
# 5 0.000000 0.000000 0.000000 0.000000 0.038774 0.000000
# 6 0.000000 0.000000 0.000000 0.000000 0.000000 0.042466
#
#
# Mechanical properties :
#
#
# Convention : Reuss Voigt Hill
#
# Bulk Modulus (GPa) = 52.74292 56.61960 54.68126
# Shear Modulus (GPa) = 18.02187 24.37217 21.19702
#
# Velocity S-wave (km/s) = 3.17016 3.68662 3.43810
# Velocity P-wave (km/s) = 6.54310 7.04951 6.80102
#
# Compressibility (1/GPa) = 0.01895989
#
# Stress axis : x y z
#
# Youngs Moduli (GPa) = 47.76038 28.99773 26.92079
#
# Poissons Ratio (x) = 0.17255 0.11764
# Poissons Ratio (y) = 0.28419 0.71298
# Poissons Ratio (z) = 0.20870 0.76799
#
# Static dielectric constant tensor:
#      x y z
#    x 1.644550 0.000000 0.000000 
#    y 0.000000 1.643620 0.000000 
#    z 0.000000 0.000000 1.605540 
# 
# From -- ./inp_files/10096.got.cif
#   From: 2010.05.17/outbox.cif.g08.bks.cpg/sg51_6_cif.got.tgz:10096.got - 2010.06.03 11:52:47.
