data_PCOD9404564
_publ_section_title
;
Structure prediction by ZEFSAII (Michael W. Deem and Ramdas Pophale) SiO2 
 PCOD9404564
Probable space group: P M M A
;
_chemical_formula_sum "Si O2"
_cell_formula_units_Z 48
_cell_length_a 15.517377
_cell_length_b 8.669347
_cell_length_c 19.516414
_cell_angle_alpha 90.000000
_cell_angle_beta 90.000000
_cell_angle_gamma 90.000000
_cell_volume 2625.455854
_symmetry_space_group_name_H-M "P M M A"
_symmetry_group_IT_number 51
_symmetry_cell_setting 'orthorhombic'
loop_
_space_group_symop_operation_xyz
x,y,z
1/2-x,-y,z
1/2+x,-y,-z
-x,y,-z
-x,-y,-z
1/2+x,y,-z
1/2-x,y,z
x,-y,z
loop_
_atom_site_type_symbol
_atom_site_label
_atom_site_fract_x
_atom_site_fract_y
_atom_site_fract_z
Si Si1 0.750000 0.815426 0.579407
Si Si2 0.501806 0.813668 0.921372
Si Si3 0.400534 0.685105 0.672790
Si Si4 0.848588 0.186351 0.178734
Si Si5 0.250000 0.814883 0.578916
Si Si6 0.598315 0.313921 0.672069
Si Si7 0.348858 0.313810 0.173450
O O1 0.750000 0.765067 0.500234
O O2 0.833875 0.754835 0.619161
O O3 0.750000 0.000000 0.581012
O O4 0.416973 0.765125 0.878905
O O5 0.584979 0.754131 0.880957
O O6 0.503614 0.000000 0.921471
O O7 0.500000 0.760747 0.000000
O O8 0.395289 0.500000 0.671840
O O9 0.374972 0.743476 0.748315
O O10 0.333653 0.753249 0.618646
O O11 0.499451 0.730578 0.658477
O O12 0.750000 0.229379 0.162508
O O13 0.852095 0.000000 0.184430
O O14 0.250000 0.000000 0.581904
O O15 0.604386 0.500000 0.669121
O O16 0.623465 0.267182 0.749583
O O17 0.250000 0.266965 0.161340
O O18 0.353105 0.500000 0.170802
#
# Coordination Sequence:
#
# PCOD9404564 Si02
#       7
#     4   8   8   8   4   8   8
#     4  11  25  41  61  89 120 157 198 237 287 354
#     4  10  22  38  57  86 122 157 195 240 291 347
#     4  11  22  37  62  91 115 151 201 244 287 350
#     4  10  20  35  57  84 116 156 196 241 296 346
#     4  11  25  43  59  85 126 159 188 241 299 344
#     4  10  21  39  62  88 120 154 192 245 296 342
#     4  10  20  37  60  85 115 153 195 241 294 346
#
# _framework density 18.282540999999998
#
# number of rings (size 3 to 8) (size 9 to 14) (size 15 to 20)
#    0.000    1.667    3.333    1.000    0.000    5.333 
#    0.000    5.000    0.000    0.000    0.000    0.000 
#    0.000    0.000    0.000    0.000    0.000    0.000 
#
# Total GULP energy -268162.079953 kJ/mol
# GULP energy per Si atom -5586.709999 kJ/mol
# Density = 1.824093 g / cm^3
# Si number density = 18.282541 Si / 1000 Ang^3
#
#
#
# Elastic Constant Matrix: (Units=GPa)
#
#
# Indices 1 2 3 4 5 6 
#
# 1 219.9331 43.2847 124.3189 0.0000 0.0000 0.0000
# 2 43.2847 16.6658 37.8065 0.0000 0.0000 0.0000
# 3 124.3189 37.8065 196.9029 0.0000 0.0000 0.0000
# 4 0.0000 0.0000 0.0000 3.7406 0.0000 0.0000
# 5 0.0000 0.0000 0.0000 0.0000 32.3401 0.0000
# 6 0.0000 0.0000 0.0000 0.0000 0.0000 26.5046
#
#
#
# Elastic Compliance Matrix: (Units=1/GPa)
#
#
# Indices 1 2 3 4 5 6 
#
# 1 0.009865 -0.020360 -0.002319 0.000000 0.000000 0.000000
# 2 -0.020360 0.148328 -0.015625 0.000000 0.000000 0.000000
# 3 -0.002319 -0.015625 0.009543 0.000000 0.000000 0.000000
# 4 0.000000 0.000000 0.000000 0.267339 0.000000 0.000000
# 5 0.000000 0.000000 0.000000 0.000000 0.030921 0.000000
# 6 0.000000 0.000000 0.000000 0.000000 0.000000 0.037729
#
#
# Mechanical properties :
#
#
# Convention : Reuss Voigt Hill
#
# Bulk Modulus (GPa) = 10.97366 93.81357 52.39361
# Shear Modulus (GPa) = 8.18721 27.72316 17.95518
#
# Velocity S-wave (km/s) = 2.11846 3.89829 3.13724
# Velocity P-wave (km/s) = 3.46398 8.46681 6.46861
#
# Compressibility (1/GPa) = 0.09112728
#
# Stress axis : x y z
#
# Youngs Moduli (GPa) = 101.37143 6.74182 104.78923
#
# Poissons Ratio (x) = 0.13726 0.24301
# Poissons Ratio (y) = 2.06391 1.63735
# Poissons Ratio (z) = 0.23509 0.10534
#
# Static dielectric constant tensor:
#      x y z
#    x 1.614830 0.000000 0.000000 
#    y 0.000000 1.622860 0.000000 
#    z 0.000000 0.000000 1.595080 
# 
# From -- ./inp_files/29534.got.cif
#   From: 2010.05.17/outbox.cif.g08.bks.cpg/sg51_15_cif.got.tgz:29534.got - 2010.06.03 11:52:47.
