data_PCOD9404459
_publ_section_title
;
Structure prediction by ZEFSAII (Michael W. Deem and Ramdas Pophale) SiO2 
 PCOD9404459
Probable space group: P M M A
;
_chemical_formula_sum "Si O2"
_cell_formula_units_Z 64
_cell_length_a 8.687613
_cell_length_b 24.405220
_cell_length_c 15.911029
_cell_angle_alpha 90.000000
_cell_angle_beta 90.000000
_cell_angle_gamma 90.000000
_cell_volume 3373.505797
_symmetry_space_group_name_H-M "P M M A"
_symmetry_group_IT_number 51
_symmetry_cell_setting 'orthorhombic'
loop_
_space_group_symop_operation_xyz
x,y,z
1/2-x,-y,z
1/2+x,-y,-z
-x,y,-z
-x,-y,-z
1/2+x,y,-z
1/2-x,y,z
x,-y,z
loop_
_atom_site_type_symbol
_atom_site_label
_atom_site_fract_x
_atom_site_fract_y
_atom_site_fract_z
Si Si1 0.435547 0.436433 0.590550
Si Si2 0.563830 0.368462 0.246327
Si Si3 0.564117 0.176044 0.411991
Si Si4 0.065098 0.061621 0.851405
Si Si5 0.564042 0.758655 0.245011
Si Si6 0.936399 0.059918 0.348107
Si Si7 0.065787 0.563865 0.090663
Si Si8 0.432244 0.174126 0.088458
O O1 0.500000 0.419218 0.500000
O O2 0.250000 0.434837 0.586929
O O3 0.481805 0.500000 0.604821
O O4 0.486291 0.398867 0.668081
O O5 0.750000 0.370911 0.243595
O O6 0.518298 0.304863 0.245468
O O7 0.498914 0.399901 0.165888
O O8 0.500000 0.196740 0.500000
O O9 0.750000 0.175733 0.414900
O O10 0.517512 0.211880 0.331680
O O11 0.508158 0.113591 0.396145
O O12 0.250000 0.067243 0.860630
O O13 0.030997 0.065897 0.751429
O O14 0.983427 0.111164 0.897683
O O15 0.021760 0.000000 0.878561
O O16 0.750000 0.761773 0.240109
O O17 0.497144 0.791022 0.165978
O O18 0.750000 0.059284 0.354703
O O19 0.993682 0.000000 0.376201
O O20 0.250000 0.567031 0.088689
O O21 0.021189 0.500000 0.103869
O O22 0.000000 0.580828 0.000000
O O23 0.250000 0.177625 0.086643
O O24 0.500000 0.193767 0.000000
#
# Coordination Sequence:
#
# PCOD9404459 Si02
#       8
#     8   8   8   8   8   8   8   8
#     4   9  18  33  54  83 118 153 189 230 280 336
#     4  10  21  37  60  85 112 151 196 241 286 335
#     4  10  20  35  56  80 111 147 188 234 282 341
#     4   9  17  34  61  87 113 147 185 228 283 344
#     4  10  22  42  61  80 111 151 196 243 289 335
#     4   8  14  28  53  80 107 143 181 221 276 336
#     4  10  21  37  59  88 121 154 187 227 278 336
#     4  12  25  40  61  85 113 148 189 237 289 345
#
# _framework density 18.971363
#
# number of rings (size 3 to 8) (size 9 to 14) (size 15 to 20)
#    0.000    2.250    1.250    2.625    0.000    4.500 
#    0.000    1.250    0.000    0.000    0.000    0.000 
#    0.000    0.000    0.000    0.000    0.000    0.000 
#
# Total GULP energy -357353.152414 kJ/mol
# GULP energy per Si atom -5583.643006 kJ/mol
# Density = 1.892818 g / cm^3
# Si number density = 18.971363 Si / 1000 Ang^3
#
#
#
# Elastic Constant Matrix: (Units=GPa)
#
#
# Indices 1 2 3 4 5 6 
#
# 1 20.7820 38.3446 40.0571 0.0000 0.0000 0.0000
# 2 38.3446 129.0281 105.4532 0.0000 0.0000 0.0000
# 3 40.0571 105.4532 179.4952 0.0000 0.0000 0.0000
# 4 0.0000 0.0000 0.0000 -5.3338 0.0000 0.0000
# 5 0.0000 0.0000 0.0000 0.0000 31.5843 0.0000
# 6 0.0000 0.0000 0.0000 0.0000 0.0000 19.8721
#
#
#
# Elastic Compliance Matrix: (Units=1/GPa)
#
#
# Indices 1 2 3 4 5 6 
#
# 1 0.116656 -0.025760 -0.010900 0.000000 0.000000 0.000000
# 2 -0.025760 0.020597 -0.006352 0.000000 0.000000 0.000000
# 3 -0.010900 -0.006352 0.011735 0.000000 0.000000 0.000000
# 4 0.000000 0.000000 0.000000 -0.187483 0.000000 0.000000
# 5 0.000000 0.000000 0.000000 0.000000 0.031661 0.000000
# 6 0.000000 0.000000 0.000000 0.000000 0.000000 0.050322
#
#
# Mechanical properties :
#
#
# Convention : Reuss Voigt Hill
#
# Bulk Modulus (GPa) = 15.88165 77.44611 46.66388
# Shear Modulus (GPa) = 33.22259 18.92124 26.07192
#
# Velocity S-wave (km/s) = 4.18927 3.16152 3.71115
# Velocity P-wave (km/s) = 5.63822 7.36466 6.55850
#
# Compressibility (1/GPa) = 0.06296574
#
# Stress axis : x y z
#
# Youngs Moduli (GPa) = 8.57219 48.55100 85.21186
#
# Poissons Ratio (x) = 1.25065 0.92880
# Poissons Ratio (y) = 0.22082 0.54127
# Poissons Ratio (z) = 0.09344 0.30840
#
# Static dielectric constant tensor:
#      x y z
#    x 1.637670 0.000000 0.000000 
#    y 0.000000 1.659580 0.000000 
#    z 0.000000 0.000000 1.638350 
# 
# From -- ./inp_files/22360.got.cif
#   From: 2010.05.17/outbox.cif.g08.bks.cpg/sg51_12_cif.got.tgz:22360.got - 2010.06.03 11:52:47.
