data_PCOD9404622
_publ_section_title
;
Structure prediction by ZEFSAII (Michael W. Deem and Ramdas Pophale) SiO2 
 PCOD9404622
Probable space group: P M M A
;
_chemical_formula_sum "Si O2"
_cell_formula_units_Z 48
_cell_length_a 18.110776
_cell_length_b 7.790020
_cell_length_c 16.440814
_cell_angle_alpha 90.000000
_cell_angle_beta 90.000000
_cell_angle_gamma 90.000000
_cell_volume 2319.524413
_symmetry_space_group_name_H-M "P M M A"
_symmetry_group_IT_number 51
_symmetry_cell_setting 'orthorhombic'
loop_
_space_group_symop_operation_xyz
x,y,z
1/2-x,-y,z
1/2+x,-y,-z
-x,y,-z
-x,-y,-z
1/2+x,y,-z
1/2-x,y,z
x,-y,z
loop_
_atom_site_type_symbol
_atom_site_label
_atom_site_fract_x
_atom_site_fract_y
_atom_site_fract_z
Si Si1 0.901925 0.201265 0.114960
Si Si2 0.750000 0.691123 0.359413
Si Si3 0.391191 0.207865 0.541022
Si Si4 0.544609 0.791088 0.625397
Si Si5 0.165040 0.703144 0.050249
Si Si6 0.750000 0.804287 0.184099
Si Si7 0.556558 0.208387 0.810558
O O1 0.826945 0.276651 0.154397
O O2 0.979951 0.270361 0.147288
O O3 0.903650 0.000000 0.137751
O O4 0.887409 0.217067 0.019023
O O5 0.750000 0.500000 0.325461
O O6 0.820578 0.720610 0.414825
O O7 0.750000 0.810164 0.280908
O O8 0.400936 0.262886 0.447298
O O9 0.463672 0.257500 0.592453
O O10 0.387654 0.000000 0.541856
O O11 0.559036 0.732504 0.716863
O O12 0.546058 0.000000 0.627086
O O13 0.250000 0.767261 0.045450
O O14 0.166939 0.500000 0.035318
O O15 0.126401 0.735625 0.136381
O O16 0.750000 0.000000 0.150811
O O17 0.556223 0.000000 0.810925
#
# Coordination Sequence:
#
# PCOD9404622 Si02
#       7
#     8   4   8   8   8   4   8
#     4  10  20  36  61  88 111 139 180 231 286 333
#     4  12  24  34  48  81 120 151 182 219 268 327
#     4   9  17  35  61  82 108 144 183 228 278 329
#     4   8  16  34  61  87 106 135 183 236 281 322
#     4  11  24  40  55  75 111 156 193 225 270 328
#     4  10  20  36  60  85 112 145 182 229 282 333
#     4  10  20  35  58  88 113 137 182 236 280 330
#
# _framework density 20.693897
#
# number of rings (size 3 to 8) (size 9 to 14) (size 15 to 20)
#    0.000    2.167    0.833    3.750    0.000    7.000 
#    1.500    5.000    0.000    0.000    0.000    0.000 
#    0.000    0.000    0.000    0.000    0.000    0.000 
#
# Total GULP energy -267956.221255 kJ/mol
# GULP energy per Si atom -5582.421276 kJ/mol
# Density = 2.064680 g / cm^3
# Si number density = 20.693897 Si / 1000 Ang^3
#
#
#
# Elastic Constant Matrix: (Units=GPa)
#
#
# Indices 1 2 3 4 5 6 
#
# 1 39.5843 0.7203 31.5787 0.0000 0.0000 0.0000
# 2 0.7203 32.8023 -10.1394 0.0000 0.0000 0.0000
# 3 31.5787 -10.1394 131.2695 0.0000 0.0000 0.0000
# 4 0.0000 0.0000 0.0000 -41.3734 0.0000 0.0000
# 5 0.0000 0.0000 0.0000 0.0000 27.8212 0.0000
# 6 0.0000 0.0000 0.0000 0.0000 0.0000 18.2895
#
#
#
# Elastic Compliance Matrix: (Units=1/GPa)
#
#
# Indices 1 2 3 4 5 6 
#
# 1 0.031570 -0.003115 -0.007835 0.000000 0.000000 0.000000
# 2 -0.003115 0.031539 0.003185 0.000000 0.000000 0.000000
# 3 -0.007835 0.003185 0.009749 0.000000 0.000000 0.000000
# 4 0.000000 0.000000 0.000000 -0.024170 0.000000 0.000000
# 5 0.000000 0.000000 0.000000 0.000000 0.035944 0.000000
# 6 0.000000 0.000000 0.000000 0.000000 0.000000 0.054676
#
#
# Mechanical properties :
#
#
# Convention : Reuss Voigt Hill
#
# Bulk Modulus (GPa) = 17.44358 27.55281 22.49820
# Shear Modulus (GPa) = 28.74456 13.04723 20.89590
#
# Velocity S-wave (km/s) = 3.73102 2.51367 3.18112
# Velocity P-wave (km/s) = 5.19695 4.66563 4.93844
#
# Compressibility (1/GPa) = 0.05732767
#
# Stress axis : x y z
#
# Youngs Moduli (GPa) = 31.67586 31.70710 102.57649
#
# Poissons Ratio (x) = 0.09877 0.80370
# Poissons Ratio (y) = 0.09867 -0.32675
# Poissons Ratio (z) = 0.24819 -0.10100
#
# Static dielectric constant tensor:
#      x y z
#    x 1.724450 0.000000 0.000000 
#    y 0.000000 1.785400 0.000000 
#    z 0.000000 0.000000 1.725400 
# 
# From -- ./inp_files/24836.got.cif
#   From: 2010.05.17/outbox.cif.g08.bks.cpg/sg51_13_cif.got.tgz:24836.got - 2010.06.03 11:52:47.
