data_PCOD9404691
_publ_section_title
;
Structure prediction by ZEFSAII (Michael W. Deem and Ramdas Pophale) SiO2 
 PCOD9404691
Probable space group: P M M A
;
_chemical_formula_sum "Si O2"
_cell_formula_units_Z 64
_cell_length_a 20.374595
_cell_length_b 8.803201
_cell_length_c 20.411769
_cell_angle_alpha 90.000000
_cell_angle_beta 90.000000
_cell_angle_gamma 90.000000
_cell_volume 3661.088671
_symmetry_space_group_name_H-M "P M M A"
_symmetry_group_IT_number 51
_symmetry_cell_setting 'orthorhombic'
loop_
_space_group_symop_operation_xyz
x,y,z
1/2-x,-y,z
1/2+x,-y,-z
-x,y,-z
-x,-y,-z
1/2+x,y,-z
1/2-x,y,z
x,-y,z
loop_
_atom_site_type_symbol
_atom_site_label
_atom_site_fract_x
_atom_site_fract_y
_atom_site_fract_z
Si Si1 0.896125 0.817615 0.688836
Si Si2 0.540052 0.318681 0.332386
Si Si3 0.567168 0.817888 0.194533
Si Si4 0.918132 0.818032 0.836880
Si Si5 0.675152 0.317053 0.946140
Si Si6 0.826063 0.319661 0.569109
Si Si7 0.929074 0.181443 0.468266
Si Si8 0.326513 0.317261 0.902636
O O1 0.888458 0.778564 0.765454
O O2 0.843501 0.745203 0.640647
O O3 0.967298 0.754654 0.667680
O O4 0.896485 0.000000 0.682431
O O5 0.535233 0.500000 0.331800
O O6 0.573076 0.259137 0.265668
O O7 0.575207 0.261165 0.397887
O O8 0.495044 0.774123 0.166391
O O9 0.623865 0.764132 0.146053
O O10 0.567378 0.000000 0.202432
O O11 0.877144 0.745598 0.895151
O O12 0.915611 0.000000 0.843331
O O13 0.750000 0.267234 0.930701
O O14 0.674511 0.500000 0.943837
O O15 0.660814 0.273744 0.021522
O O16 0.750000 0.292569 0.553858
O O17 0.838523 0.500000 0.568266
O O18 0.873381 0.238769 0.517351
O O19 0.000000 0.218669 0.500000
O O20 0.925735 0.000000 0.460497
O O21 0.250000 0.282786 0.888610
O O22 0.334385 0.500000 0.897447
#
# Coordination Sequence:
#
# PCOD9404691 Si02
#       8
#     8   8   8   8   8   8   8   8
#     4  10  20  36  55  78 110 148 187 226 275 332
#     4  11  21  35  59  86 112 142 182 230 276 325
#     4  10  21  37  56  82 115 145 182 230 278 332
#     4   9  20  35  52  78 112 146 182 227 274 324
#     4   9  19  35  54  77 107 144 186 231 277 331
#     4  11  24  39  56  83 116 149 189 235 280 330
#     4  11  22  37  61  87 112 147 187 229 277 333
#     4   9  19  37  58  80 108 143 185 231 281 336
#
# _framework density 17.481138000000001
#
# number of rings (size 3 to 8) (size 9 to 14) (size 15 to 20)
#    0.000    2.000    1.250    4.125    0.000    6.500 
#    0.000    6.875    0.000    3.750    0.000    0.000 
#    0.000    0.000    0.000    0.000    0.000    0.000 
#
# Total GULP energy -357331.341465 kJ/mol
# GULP energy per Si atom -5583.302210 kJ/mol
# Density = 1.744135 g / cm^3
# Si number density = 17.481138 Si / 1000 Ang^3
#
#
#
# Elastic Constant Matrix: (Units=GPa)
#
#
# Indices 1 2 3 4 5 6 
#
# 1 74.8652 36.3108 68.7086 0.0000 0.0000 0.0000
# 2 36.3108 47.2368 41.2758 0.0000 0.0000 0.0000
# 3 68.7086 41.2758 120.2933 0.0000 0.0000 0.0000
# 4 0.0000 0.0000 0.0000 36.4146 0.0000 0.0000
# 5 0.0000 0.0000 0.0000 0.0000 30.5709 0.0000
# 6 0.0000 0.0000 0.0000 0.0000 0.0000 76.9347
#
#
#
# Elastic Compliance Matrix: (Units=1/GPa)
#
#
# Indices 1 2 3 4 5 6 
#
# 1 0.032555 -0.012535 -0.014294 0.000000 0.000000 0.000000
# 2 -0.012535 0.035062 -0.004871 0.000000 0.000000 0.000000
# 3 -0.014294 -0.004871 0.018148 0.000000 0.000000 0.000000
# 4 0.000000 0.000000 0.000000 0.027462 0.000000 0.000000
# 5 0.000000 0.000000 0.000000 0.000000 0.032711 0.000000
# 6 0.000000 0.000000 0.000000 0.000000 0.000000 0.012998
#
#
# Mechanical properties :
#
#
# Convention : Reuss Voigt Hill
#
# Bulk Modulus (GPa) = 44.71019 59.44285 52.07652
# Shear Modulus (GPa) = 21.75890 35.19070 28.47480
#
# Velocity S-wave (km/s) = 3.53187 4.49159 4.04033
# Velocity P-wave (km/s) = 6.50107 7.80878 7.18474
#
# Compressibility (1/GPa) = 0.02236626
#
# Stress axis : x y z
#
# Youngs Moduli (GPa) = 30.71695 28.52094 55.10106
#
# Poissons Ratio (x) = 0.35752 0.78759
# Poissons Ratio (y) = 0.38505 0.26839
# Poissons Ratio (z) = 0.43906 0.13892
#
# Static dielectric constant tensor:
#      x y z
#    x 1.576180 0.000000 0.000000 
#    y 0.000000 1.583930 0.000000 
#    z 0.000000 0.000000 1.585740 
# 
# From -- ./inp_files/33910.got.cif
#   From: 2010.05.17/outbox.cif.g08.bks.cpg/sg51_17_cif.got.tgz:33910.got - 2010.06.03 11:52:47.
