data_PCOD9404879
_publ_section_title
;
Structure prediction by ZEFSAII (Michael W. Deem and Ramdas Pophale) SiO2 
 PCOD9404879
Probable space group: P M M A
;
_chemical_formula_sum "Si O2"
_cell_formula_units_Z 48
_cell_length_a 28.679044
_cell_length_b 7.517297
_cell_length_c 10.165070
_cell_angle_alpha 90.000000
_cell_angle_beta 90.000000
_cell_angle_gamma 90.000000
_cell_volume 2191.476173
_symmetry_space_group_name_H-M "P M M A"
_symmetry_group_IT_number 51
_symmetry_cell_setting 'orthorhombic'
loop_
_space_group_symop_operation_xyz
x,y,z
1/2-x,-y,z
1/2+x,-y,-z
-x,y,-z
-x,-y,-z
1/2+x,y,-z
1/2-x,y,z
x,-y,z
loop_
_atom_site_type_symbol
_atom_site_label
_atom_site_fract_x
_atom_site_fract_y
_atom_site_fract_z
Si Si1 0.303834 0.784518 0.716825
Si Si2 0.868568 0.702225 0.520440
Si Si3 0.464739 0.795212 0.606765
Si Si4 0.956888 0.782378 0.091909
Si Si5 0.145975 0.785128 0.985042
Si Si6 0.803082 0.290872 0.745160
O O1 0.250000 0.735857 0.715357
O O2 0.331072 0.703506 0.595725
O O3 0.307391 0.000000 0.706651
O O4 0.327703 0.730685 0.852616
O O5 0.882710 0.500000 0.553525
O O6 0.914212 0.793212 0.461328
O O7 0.841186 0.785357 0.643716
O O8 0.500000 0.712984 0.500000
O O9 0.461552 0.721537 0.755669
O O10 0.480147 0.000000 0.625595
O O11 0.955868 0.000000 0.094823
O O12 0.907623 0.725633 0.028809
O O13 0.000000 0.728883 0.000000
O O14 0.174905 0.724198 0.110813
O O15 0.145722 0.000000 0.989663
O O16 0.750000 0.218729 0.738240
O O17 0.799660 0.500000 0.711427
#
# Coordination Sequence:
#
# PCOD9404879 Si02
#       6
#     8   8   8   8   8   8
#     4  10  20  36  59  86 115 147 189 243 294 343
#     4  11  23  39  59  83 118 157 195 238 289 346
#     4  10  21  38  62  88 115 149 192 239 291 347
#     4   9  18  34  57  87 117 145 181 231 288 344
#     4  10  20  36  60  87 117 147 187 241 291 341
#     4  10  23  41  57  79 116 158 197 236 281 339
#
# _framework density 21.903046
#
# number of rings (size 3 to 8) (size 9 to 14) (size 15 to 20)
#    0.000    2.000    1.667    1.500    2.333    4.333 
#    0.000    0.000    0.000    1.000    0.000    0.000 
#    0.000    0.000    0.000    0.000    0.000    0.000 
#
# Total GULP energy -268121.357292 kJ/mol
# GULP energy per Si atom -5585.861610 kJ/mol
# Density = 2.185319 g / cm^3
# Si number density = 21.903046 Si / 1000 Ang^3
#
#
#
# Elastic Constant Matrix: (Units=GPa)
#
#
# Indices 1 2 3 4 5 6 
#
# 1 125.8955 -0.2793 18.2506 0.0000 0.0000 0.0000
# 2 -0.2793 52.3651 -3.7151 0.0000 0.0000 0.0000
# 3 18.2506 -3.7151 85.0047 0.0000 0.0000 0.0000
# 4 0.0000 0.0000 0.0000 16.2741 0.0000 0.0000
# 5 0.0000 0.0000 0.0000 0.0000 46.9112 0.0000
# 6 0.0000 0.0000 0.0000 0.0000 0.0000 -115.9259
#
#
#
# Elastic Compliance Matrix: (Units=1/GPa)
#
#
# Indices 1 2 3 4 5 6 
#
# 1 0.008199 -0.000081 -0.001764 0.000000 0.000000 0.000000
# 2 -0.000081 0.019157 0.000855 0.000000 0.000000 0.000000
# 3 -0.001764 0.000855 0.012180 0.000000 0.000000 0.000000
# 4 0.000000 0.000000 0.000000 0.061447 0.000000 0.000000
# 5 0.000000 0.000000 0.000000 0.000000 0.021317 0.000000
# 6 0.000000 0.000000 0.000000 0.000000 0.000000 -0.008626
#
#
# Mechanical properties :
#
#
# Convention : Reuss Voigt Hill
#
# Bulk Modulus (GPa) = 26.62790 32.41974 29.52382
# Shear Modulus (GPa) = 39.00980 6.05249 22.53114
#
# Velocity S-wave (km/s) = 4.22479 1.66412 3.21078
# Velocity P-wave (km/s) = 5.99851 4.30419 5.22054
#
# Compressibility (1/GPa) = 0.03755460
#
# Stress axis : x y z
#
# Youngs Moduli (GPa) = 121.97193 52.20057 82.10109
#
# Poissons Ratio (x) = 0.00425 0.14481
# Poissons Ratio (y) = 0.00993 -0.07017
# Poissons Ratio (z) = 0.21513 -0.04462
#
# Static dielectric constant tensor:
#      x y z
#    x 1.765120 0.000000 0.000000 
#    y 0.000000 1.878680 0.000000 
#    z 0.000000 0.000000 1.761490 
# 
# From -- ./inp_files/12793.got.cif
#   From: 2010.05.17/outbox.cif.g08.bks.cpg/sg51_7_cif.got.tgz:12793.got - 2010.06.03 11:52:47.
