data_PCOD9404347
_publ_section_title
;
Structure prediction by ZEFSAII (Michael W. Deem and Ramdas Pophale) SiO2 
 PCOD9404347
Probable space group: P M M A
;
_chemical_formula_sum "Si O2"
_cell_formula_units_Z 48
_cell_length_a 7.613657
_cell_length_b 15.068009
_cell_length_c 21.064295
_cell_angle_alpha 90.000000
_cell_angle_beta 90.000000
_cell_angle_gamma 90.000000
_cell_volume 2416.551789
_symmetry_space_group_name_H-M "P M M A"
_symmetry_group_IT_number 51
_symmetry_cell_setting 'orthorhombic'
loop_
_space_group_symop_operation_xyz
x,y,z
1/2-x,-y,z
1/2+x,-y,-z
-x,y,-z
-x,-y,-z
1/2+x,y,-z
1/2-x,y,z
x,-y,z
loop_
_atom_site_type_symbol
_atom_site_label
_atom_site_fract_x
_atom_site_fract_y
_atom_site_fract_z
Si Si1 0.962694 0.098016 0.756059
Si Si2 0.534487 0.282059 0.810641
Si Si3 0.957571 0.097350 0.393028
Si Si4 0.458017 0.599735 0.307359
Si Si5 0.458409 0.287106 0.569677
Si Si6 0.039312 0.600779 0.072661
O O1 0.750000 0.099090 0.754989
O O2 0.022282 0.181196 0.797702
O O3 0.021445 0.108391 0.682959
O O4 0.019609 0.000000 0.777663
O O5 0.750000 0.281035 0.810934
O O6 0.474233 0.341152 0.750814
O O7 0.475436 0.329468 0.875160
O O8 0.750000 0.094233 0.407305
O O9 0.032776 0.186709 0.423734
O O10 0.032136 0.000000 0.410287
O O11 0.250000 0.592321 0.296045
O O12 0.531173 0.500000 0.309298
O O13 0.479539 0.651100 0.373326
O O14 0.500000 0.322544 0.500000
O O15 0.250000 0.280928 0.576598
O O16 0.250000 0.597004 0.079122
O O17 0.972627 0.500000 0.083772
O O18 0.000000 0.624934 0.000000
#
# Coordination Sequence:
#
# PCOD9404347 Si02
#       6
#     8   8   8   8   8   8
#     4   9  16  27  48  76 100 124 158 200 243 290
#     4   9  16  29  51  76 101 128 161 200 244 292
#     4   9  18  33  51  72  99 128 158 197 248 299
#     4  10  20  35  55  76  97 125 164 208 251 297
#     4  11  23  37  53  72  98 131 165 204 250 298
#     4   9  17  30  48  71 100 133 166 200 240 286
#
# _framework density 19.863014
#
# number of rings (size 3 to 8) (size 9 to 14) (size 15 to 20)
#    0.000    2.500    1.667    1.000    0.000    3.667 
#    0.000    1.667    0.000    2.500    0.000    0.000 
#    0.000    0.000    0.000    0.000    0.000    0.000 
#
# Total GULP energy -267855.221197 kJ/mol
# GULP energy per Si atom -5580.317108 kJ/mol
# Density = 1.981780 g / cm^3
# Si number density = 19.863014 Si / 1000 Ang^3
#
#
#
# Elastic Constant Matrix: (Units=GPa)
#
#
# Indices 1 2 3 4 5 6 
#
# 1 40.5608 3.5672 -11.3816 0.0000 0.0000 0.0000
# 2 3.5672 150.9777 78.0821 0.0000 0.0000 0.0000
# 3 -11.3816 78.0821 115.0521 0.0000 0.0000 0.0000
# 4 0.0000 0.0000 0.0000 -2.8095 0.0000 0.0000
# 5 0.0000 0.0000 0.0000 0.0000 17.8796 0.0000
# 6 0.0000 0.0000 0.0000 0.0000 0.0000 9.1217
#
#
#
# Elastic Compliance Matrix: (Units=1/GPa)
#
#
# Indices 1 2 3 4 5 6 
#
# 1 0.026224 -0.003022 0.004645 0.000000 0.000000 0.000000
# 2 -0.003022 0.010554 -0.007461 0.000000 0.000000 0.000000
# 3 0.004645 -0.007461 0.014215 0.000000 0.000000 0.000000
# 4 0.000000 0.000000 0.000000 -0.355930 0.000000 0.000000
# 5 0.000000 0.000000 0.000000 0.000000 0.055930 0.000000
# 6 0.000000 0.000000 0.000000 0.000000 0.000000 0.109628
#
#
# Mechanical properties :
#
#
# Convention : Reuss Voigt Hill
#
# Bulk Modulus (GPa) = 25.43506 49.68067 37.55786
# Shear Modulus (GPa) = -43.63079 20.59322 -11.51878
#
# Velocity S-wave (km/s) = -4.69186 3.22337 -2.41075
# Velocity P-wave (km/s) = 4.06428 6.23855 3.34672
#
# Compressibility (1/GPa) = 0.03931581
#
# Stress axis : x y z
#
# Youngs Moduli (GPa) = 38.13365 94.75280 70.34784
#
# Poissons Ratio (x) = 0.28634 -0.32677
# Poissons Ratio (y) = 0.11524 0.52490
# Poissons Ratio (z) = -0.17713 0.70699
#
# Static dielectric constant tensor:
#      x y z
#    x 1.754520 0.000000 0.000000 
#    y 0.000000 1.733440 0.000000 
#    z 0.000000 0.000000 1.620290 
# 
# From -- ./inp_files/27514.got.cif
#   From: 2010.05.17/outbox.cif.g08.bks.cpg/sg51_14_cif.got.tgz:27514.got - 2010.06.03 11:52:47.
