data_PCOD9404890
_publ_section_title
;
Structure prediction by ZEFSAII (Michael W. Deem and Ramdas Pophale) SiO2 
 PCOD9404890
Probable space group: P M M A
;
_chemical_formula_sum "Si O2"
_cell_formula_units_Z 52
_cell_length_a 13.840969
_cell_length_b 20.661954
_cell_length_c 9.223969
_cell_angle_alpha 90.000000
_cell_angle_beta 90.000000
_cell_angle_gamma 90.000000
_cell_volume 2637.884166
_symmetry_space_group_name_H-M "P M M A"
_symmetry_group_IT_number 51
_symmetry_cell_setting 'orthorhombic'
loop_
_space_group_symop_operation_xyz
x,y,z
1/2-x,-y,z
1/2+x,-y,-z
-x,y,-z
-x,-y,-z
1/2+x,y,-z
1/2-x,y,z
x,-y,z
loop_
_atom_site_type_symbol
_atom_site_label
_atom_site_fract_x
_atom_site_fract_y
_atom_site_fract_z
Si Si1 0.533805 0.640890 0.840702
Si Si2 0.366576 0.780541 0.187726
Si Si3 0.357222 0.319529 0.644676
Si Si4 0.000000 0.872440 0.000000
Si Si5 0.135014 0.075453 0.745848
Si Si6 0.395480 0.428667 0.423572
Si Si7 0.633869 0.182849 0.486029
O O1 0.593770 0.707963 0.837160
O O2 0.434619 0.653378 0.754597
O O3 0.591840 0.589074 0.744657
O O4 0.500000 0.621619 0.000000
O O5 0.250000 0.781442 0.174364
O O6 0.420613 0.826813 0.075750
O O7 0.394618 0.807781 0.347217
O O8 0.250000 0.313561 0.708397
O O9 0.351184 0.367470 0.506985
O O10 0.392136 0.249327 0.594281
O O11 0.061919 0.911293 0.879303
O O12 0.250000 0.089172 0.781175
O O13 0.105600 0.121514 0.610999
O O14 0.129811 0.000000 0.706144
O O15 0.500000 0.431884 0.500000
O O16 0.352715 0.500000 0.443099
O O17 0.750000 0.181200 0.489817
#
# Coordination Sequence:
#
# PCOD9404890 Si02
#       7
#     8   8   8   4   8   8   8
#     4  11  22  36  56  89 125 163 200 248 316 372
#     4  11  23  39  60  90 123 156 203 259 308 368
#     4  10  20  36  59  87 117 155 207 256 301 361
#     4  12  23  38  60  90 123 166 200 246 309 376
#     4  10  22  41  63  89 123 162 205 253 310 374
#     4   9  19  36  59  85 120 162 205 249 296 356
#     4   9  19  37  61  85 113 153 200 255 304 352
#
# _framework density 19.712769000000002
#
# number of rings (size 3 to 8) (size 9 to 14) (size 15 to 20)
#    0.000    1.846    2.308    1.615    0.000    3.077 
#    0.000    2.308    0.000    3.692    0.000    2.154 
#    0.000    0.000    0.000    0.000    0.000    0.000 
#
# Total GULP energy -290116.000776 kJ/mol
# GULP energy per Si atom -5579.153861 kJ/mol
# Density = 1.966790 g / cm^3
# Si number density = 19.712769 Si / 1000 Ang^3
#
#
#
# Elastic Constant Matrix: (Units=GPa)
#
#
# Indices 1 2 3 4 5 6 
#
# 1 104.4187 15.7228 13.3041 0.0000 0.0000 0.0000
# 2 15.7228 104.8005 21.4928 0.0000 0.0000 0.0000
# 3 13.3041 21.4928 81.6892 0.0000 0.0000 0.0000
# 4 0.0000 0.0000 0.0000 18.1732 0.0000 0.0000
# 5 0.0000 0.0000 0.0000 0.0000 23.1855 0.0000
# 6 0.0000 0.0000 0.0000 0.0000 0.0000 42.2558
#
#
#
# Elastic Compliance Matrix: (Units=1/GPa)
#
#
# Indices 1 2 3 4 5 6 
#
# 1 0.009926 -0.001224 -0.001295 0.000000 0.000000 0.000000
# 2 -0.001224 0.010237 -0.002494 0.000000 0.000000 0.000000
# 3 -0.001295 -0.002494 0.013109 0.000000 0.000000 0.000000
# 4 0.000000 0.000000 0.000000 0.055026 0.000000 0.000000
# 5 0.000000 0.000000 0.000000 0.000000 0.043130 0.000000
# 6 0.000000 0.000000 0.000000 0.000000 0.000000 0.023665
#
#
# Mechanical properties :
#
#
# Convention : Reuss Voigt Hill
#
# Bulk Modulus (GPa) = 43.01664 43.54977 43.28320
# Shear Modulus (GPa) = 28.92392 32.74881 30.83636
#
# Velocity S-wave (km/s) = 3.83465 4.08033 3.95939
# Velocity P-wave (km/s) = 6.44012 6.65874 6.55034
#
# Compressibility (1/GPa) = 0.02324682
#
# Stress axis : x y z
#
# Youngs Moduli (GPa) = 100.74524 97.68467 76.28595
#
# Poissons Ratio (x) = 0.11953 0.09876
# Poissons Ratio (y) = 0.12328 0.19027
# Poissons Ratio (z) = 0.13043 0.24364
#
# Static dielectric constant tensor:
#      x y z
#    x 1.736750 0.000000 0.000000 
#    y 0.000000 1.678130 0.000000 
#    z 0.000000 0.000000 1.699990 
# 
# From -- ./inp_files/8442.got.cif
#   From: 2010.05.17/outbox.cif.g08.bks.cpg/sg51_5_cif.got.tgz:8442.got - 2010.06.03 11:52:47.
