data_PCOD9404952
_publ_section_title
;
Structure prediction by ZEFSAII (Michael W. Deem and Ramdas Pophale) SiO2 
 PCOD9404952
Probable space group: P M M A
;
_chemical_formula_sum "Si O2"
_cell_formula_units_Z 40
_cell_length_a 20.913835
_cell_length_b 11.805424
_cell_length_c 8.854105
_cell_angle_alpha 90.000000
_cell_angle_beta 90.000000
_cell_angle_gamma 90.000000
_cell_volume 2186.049214
_symmetry_space_group_name_H-M "P M M A"
_symmetry_group_IT_number 51
_symmetry_cell_setting 'orthorhombic'
loop_
_space_group_symop_operation_xyz
x,y,z
1/2-x,-y,z
1/2+x,-y,-z
-x,y,-z
-x,-y,-z
1/2+x,y,-z
1/2-x,y,z
x,-y,z
loop_
_atom_site_type_symbol
_atom_site_label
_atom_site_fract_x
_atom_site_fract_y
_atom_site_fract_z
Si Si1 0.005028 0.724648 0.178607
Si Si2 0.750000 0.129624 0.321902
Si Si3 0.627695 0.259908 0.346621
Si Si4 0.673780 0.500000 0.467986
Si Si5 0.388375 0.863209 0.333062
Si Si6 0.750000 0.868969 0.691198
Si Si7 0.547136 0.500000 0.648610
O O1 0.934659 0.739543 0.245850
O O2 0.052559 0.824008 0.232523
O O3 0.031942 0.610772 0.255116
O O4 0.000000 0.716122 0.000000
O O5 0.685496 0.190217 0.273774
O O6 0.750000 0.136040 0.506904
O O7 0.750000 0.000000 0.277888
O O8 0.655133 0.385195 0.379682
O O9 0.608390 0.199044 0.504673
O O10 0.750000 0.500000 0.503437
O O11 0.621623 0.500000 0.602265
O O12 0.319573 0.823617 0.264459
O O13 0.386702 0.000000 0.353415
O O14 0.750000 0.000000 0.737211
O O15 0.500000 0.500000 0.500000
#
# Coordination Sequence:
#
# PCOD9404952 Si02
#       7
#     8   4   8   4   8   4   4
#     4  12  25  39  58  86 124 164 199 243 296 356
#     4   9  18  33  58  90 119 152 196 249 304 348
#     4  11  20  37  62  90 119 152 198 250 297 356
#     4  12  22  36  68 100 114 136 192 262 304 348
#     4  10  20  36  61  89 119 158 205 250 294 350
#     4   7  14  30  54  82 109 141 189 249 294 330
#     4  12  21  42  67  88 115 154 199 242 303 359
#
# _framework density 18.297851000000001
#
# number of rings (size 3 to 8) (size 9 to 14) (size 15 to 20)
#    0.000    1.400    5.000    2.700    0.000    2.800 
#    0.000    1.000    0.000    1.200    0.000    0.000 
#    0.000    0.000    0.000    0.000    0.000    0.000 
#
# Total GULP energy -223148.212697 kJ/mol
# GULP energy per Si atom -5578.705317 kJ/mol
# Density = 1.825620 g / cm^3
# Si number density = 18.297851 Si / 1000 Ang^3
#
#
#
# Elastic Constant Matrix: (Units=GPa)
#
#
# Indices 1 2 3 4 5 6 
#
# 1 216.9372 66.0997 70.7259 0.0000 0.0000 0.0000
# 2 66.0997 122.4109 38.1754 0.0000 0.0000 0.0000
# 3 70.7259 38.1754 79.7364 0.0000 0.0000 0.0000
# 4 0.0000 0.0000 0.0000 10.0196 0.0000 0.0000
# 5 0.0000 0.0000 0.0000 0.0000 -7.7711 0.0000
# 6 0.0000 0.0000 0.0000 0.0000 0.0000 52.4910
#
#
#
# Elastic Compliance Matrix: (Units=1/GPa)
#
#
# Indices 1 2 3 4 5 6 
#
# 1 0.006934 -0.002147 -0.005122 0.000000 0.000000 0.000000
# 2 -0.002147 0.010268 -0.003012 0.000000 0.000000 0.000000
# 3 -0.005122 -0.003012 0.018527 0.000000 0.000000 0.000000
# 4 0.000000 0.000000 0.000000 0.099804 0.000000 0.000000
# 5 0.000000 0.000000 0.000000 0.000000 -0.128682 0.000000
# 6 0.000000 0.000000 0.000000 0.000000 0.000000 0.019051
#
#
# Mechanical properties :
#
#
# Convention : Reuss Voigt Hill
#
# Bulk Modulus (GPa) = 65.93477 85.45404 75.69441
# Shear Modulus (GPa) = 97.05226 27.22014 62.13620
#
# Velocity S-wave (km/s) = 7.29077 3.86114 5.83369
# Velocity P-wave (km/s) = 10.34342 8.16584 9.31846
#
# Compressibility (1/GPa) = 0.01516650
#
# Stress axis : x y z
#
# Youngs Moduli (GPa) = 144.22302 97.39384 53.97557
#
# Poissons Ratio (x) = 0.20906 0.27649
# Poissons Ratio (y) = 0.30958 0.16256
# Poissons Ratio (z) = 0.73878 0.29333
#
# Static dielectric constant tensor:
#      x y z
#    x 1.658500 0.000000 0.000000 
#    y 0.000000 1.641550 0.000000 
#    z 0.000000 0.000000 1.597270 
# 
# From -- ./inp_files/10738.got.cif
#   From: 2010.05.17/outbox.cif.g08.bks.cpg/sg51_6_cif.got.tgz:10738.got - 2010.06.03 11:52:47.
