data_PCOD9404390
_publ_section_title
;
Structure prediction by ZEFSAII (Michael W. Deem and Ramdas Pophale) SiO2 
 PCOD9404390
Probable space group: P M M A
;
_chemical_formula_sum "Si O2"
_cell_formula_units_Z 40
_cell_length_a 26.598929
_cell_length_b 7.584405
_cell_length_c 9.145725
_cell_angle_alpha 90.000000
_cell_angle_beta 90.000000
_cell_angle_gamma 90.000000
_cell_volume 1845.031583
_symmetry_space_group_name_H-M "P M M A"
_symmetry_group_IT_number 51
_symmetry_cell_setting 'orthorhombic'
loop_
_space_group_symop_operation_xyz
x,y,z
1/2-x,-y,z
1/2+x,-y,-z
-x,y,-z
-x,-y,-z
1/2+x,y,-z
1/2-x,y,z
x,-y,z
loop_
_atom_site_type_symbol
_atom_site_label
_atom_site_fract_x
_atom_site_fract_y
_atom_site_fract_z
Si Si1 0.250000 0.286682 0.570892
Si Si2 0.250000 0.208513 0.913085
Si Si3 0.447866 0.715650 0.575252
Si Si4 0.147980 0.793109 0.057985
Si Si5 0.454520 0.704870 0.905231
Si Si6 0.150528 0.713710 0.399588
O O1 0.250000 0.500000 0.569336
O O2 0.250000 0.231541 0.739402
O O3 0.299894 0.226841 0.486227
O O4 0.250000 0.000000 0.947503
O O5 0.301354 0.280654 0.983422
O O6 0.500000 0.767646 0.500000
O O7 0.446002 0.500000 0.574670
O O8 0.446918 0.778566 0.742726
O O9 0.399550 0.774195 0.483251
O O10 0.151054 0.770992 0.231752
O O11 0.144694 0.000000 0.022599
O O12 0.097221 0.711522 0.994035
O O13 0.468385 0.500000 0.880707
O O14 0.500000 0.784352 0.000000
O O15 0.150572 0.500000 0.399826
#
# Coordination Sequence:
#
# PCOD9404390 Si02
#       6
#     4   4   8   8   8   8
#     4  10  21  36  58  86 110 138 183 236 280 326
#     4  10  23  40  56  78 112 152 187 224 276 334
#     4   9  17  31  53  80 107 136 174 219 268 327
#     4  11  23  38  56  80 112 150 191 231 273 328
#     4  10  20  36  60  86 112 145 183 228 285 339
#     4  10  20  35  55  80 109 140 179 228 278 325
#
# _framework density 21.679843999999999
#
# number of rings (size 3 to 8) (size 9 to 14) (size 15 to 20)
#    0.000    2.000    0.000    3.600    0.000    7.600 
#    0.000    1.000    0.000    2.400    0.000    0.000 
#    0.000    0.000    0.000    0.000    0.000    0.000 
#
# Total GULP energy -223624.071878 kJ/mol
# GULP energy per Si atom -5590.601797 kJ/mol
# Density = 2.163050 g / cm^3
# Si number density = 21.679844 Si / 1000 Ang^3
#
#
#
# Elastic Constant Matrix: (Units=GPa)
#
#
# Indices 1 2 3 4 5 6 
#
# 1 196.6050 -13.6040 92.6605 0.0000 0.0000 0.0000
# 2 -13.6040 44.2852 -22.9208 0.0000 0.0000 0.0000
# 3 92.6605 -22.9208 175.5851 0.0000 0.0000 0.0000
# 4 0.0000 0.0000 0.0000 60.8159 0.0000 0.0000
# 5 0.0000 0.0000 0.0000 0.0000 45.5021 0.0000
# 6 0.0000 0.0000 0.0000 0.0000 0.0000 -2.1684
#
#
#
# Elastic Compliance Matrix: (Units=1/GPa)
#
#
# Indices 1 2 3 4 5 6 
#
# 1 0.006773 0.000247 -0.003542 0.000000 0.000000 0.000000
# 2 0.000247 0.024226 0.003032 0.000000 0.000000 0.000000
# 3 -0.003542 0.003032 0.007960 0.000000 0.000000 0.000000
# 4 0.000000 0.000000 0.000000 0.016443 0.000000 0.000000
# 5 0.000000 0.000000 0.000000 0.000000 0.021977 0.000000
# 6 0.000000 0.000000 0.000000 0.000000 0.000000 -0.461173
#
#
# Mechanical properties :
#
#
# Convention : Reuss Voigt Hill
#
# Bulk Modulus (GPa) = 26.01870 58.74964 42.38417
# Shear Modulus (GPa) = -13.49681 44.85257 15.67788
#
# Velocity S-wave (km/s) = -2.49780 4.55341 2.69207
# Velocity P-wave (km/s) = 1.92579 7.40285 5.40883
#
# Compressibility (1/GPa) = 0.03843390
#
# Stress axis : x y z
#
# Youngs Moduli (GPa) = 147.65071 41.27774 125.62570
#
# Poissons Ratio (x) = -0.01021 0.44495
# Poissons Ratio (y) = -0.03652 -0.38089
# Poissons Ratio (z) = 0.52296 -0.12515
#
# Static dielectric constant tensor:
#      x y z
#    x 1.755070 0.000000 0.000000 
#    y 0.000000 1.821060 0.000000 
#    z 0.000000 0.000000 1.727350 
# 
# From -- ./inp_files/12162.got.cif
#   From: 2010.05.17/outbox.cif.g08.bks.cpg/sg51_7_cif.got.tgz:12162.got - 2010.06.03 11:52:47.
