data_PCOD9404509
_publ_section_title
;
Structure prediction by ZEFSAII (Michael W. Deem and Ramdas Pophale) SiO2 
 PCOD9404509
Probable space group: P M M A
;
_chemical_formula_sum "Si O2"
_cell_formula_units_Z 48
_cell_length_a 16.576134
_cell_length_b 19.199122
_cell_length_c 7.764702
_cell_angle_alpha 90.000000
_cell_angle_beta 90.000000
_cell_angle_gamma 90.000000
_cell_volume 2471.094818
_symmetry_space_group_name_H-M "P M M A"
_symmetry_group_IT_number 51
_symmetry_cell_setting 'orthorhombic'
loop_
_space_group_symop_operation_xyz
x,y,z
1/2-x,-y,z
1/2+x,-y,-z
-x,y,-z
-x,-y,-z
1/2+x,y,-z
1/2-x,y,z
x,-y,z
loop_
_atom_site_type_symbol
_atom_site_label
_atom_site_fract_x
_atom_site_fract_y
_atom_site_fract_z
Si Si1 0.089494 0.647748 0.929229
Si Si2 0.001821 0.076836 0.296776
Si Si3 0.842124 0.837997 0.779224
Si Si4 0.845823 0.315493 0.698841
Si Si5 0.417885 0.802483 0.886539
Si Si6 0.652311 0.578833 0.405275
O O1 0.093347 0.722964 0.831667
O O2 0.119669 0.594676 0.785772
O O3 0.138014 0.656080 0.108312
O O4 0.000000 0.633697 0.000000
O O5 0.937333 0.135369 0.241885
O O6 0.000000 0.072298 0.500000
O O7 0.091686 0.102853 0.249753
O O8 0.985349 0.000000 0.222006
O O9 0.750000 0.852945 0.727278
O O10 0.873108 0.765379 0.692845
O O11 0.846699 0.821680 0.982956
O O12 0.750000 0.311838 0.677393
O O13 0.877772 0.366205 0.549559
O O14 0.500000 0.799678 0.000000
O O15 0.750000 0.583815 0.398545
O O16 0.631275 0.500000 0.456853
#
# Coordination Sequence:
#
# PCOD9404509 Si02
#       6
#     8   8   8   8   8   8
#     4  10  20  35  56  85 113 145 181 231 280 325
#     4  10  21  35  53  79 112 148 180 217 274 339
#     4   9  18  34  56  81 104 138 189 236 275 317
#     4   9  19  37  57  80 112 146 185 231 277 326
#     4   8  17  34  53  78 105 140 180 218 264 328
#     4  10  22  38  57  82 109 147 192 225 274 344
#
# _framework density 19.424588
#
# number of rings (size 3 to 8) (size 9 to 14) (size 15 to 20)
#    0.000    2.667    0.000    1.500    2.333    5.667 
#    0.000    3.333    0.000    1.000    0.000    0.000 
#    0.000    0.000    0.000    0.000    0.000    0.000 
#
# Total GULP energy -267315.435205 kJ/mol
# GULP energy per Si atom -5569.071567 kJ/mol
# Density = 1.938038 g / cm^3
# Si number density = 19.424588 Si / 1000 Ang^3
#
#
#
# Elastic Constant Matrix: (Units=GPa)
#
#
# Indices 1 2 3 4 5 6 
#
# 1 27.9927 13.9417 -1.5021 0.0000 0.0000 0.0000
# 2 13.9417 87.3042 35.7316 0.0000 0.0000 0.0000
# 3 -1.5021 35.7316 56.3374 0.0000 0.0000 0.0000
# 4 0.0000 0.0000 0.0000 -3.7081 0.0000 0.0000
# 5 0.0000 0.0000 0.0000 0.0000 23.3448 0.0000
# 6 0.0000 0.0000 0.0000 0.0000 0.0000 14.8601
#
#
#
# Elastic Compliance Matrix: (Units=1/GPa)
#
#
# Indices 1 2 3 4 5 6 
#
# 1 0.040782 -0.009397 0.007047 0.000000 0.000000 0.000000
# 2 -0.009397 0.017635 -0.011435 0.000000 0.000000 0.000000
# 3 0.007047 -0.011435 0.025191 0.000000 0.000000 0.000000
# 4 0.000000 0.000000 0.000000 -0.269680 0.000000 0.000000
# 5 0.000000 0.000000 0.000000 0.000000 0.042836 0.000000
# 6 0.000000 0.000000 0.000000 0.000000 0.000000 0.067294
#
#
# Mechanical properties :
#
#
# Convention : Reuss Voigt Hill
#
# Bulk Modulus (GPa) = 17.84511 29.77519 23.81015
# Shear Modulus (GPa) = -168.39232 15.13023 -76.63105
#
# Velocity S-wave (km/s) = -9.32086 2.79394 -6.28778
# Velocity P-wave (km/s) = 10.32624 5.07642 6.35850
#
# Compressibility (1/GPa) = 0.05603777
#
# Stress axis : x y z
#
# Youngs Moduli (GPa) = 24.52072 56.70526 39.69679
#
# Poissons Ratio (x) = 0.53285 -0.27975
# Poissons Ratio (y) = 0.23042 0.45395
# Poissons Ratio (z) = -0.17280 0.64845
#
# Static dielectric constant tensor:
#      x y z
#    x 1.680450 0.000000 0.000000 
#    y 0.000000 1.756190 0.000000 
#    z 0.000000 0.000000 1.687410 
# 
# From -- ./inp_files/8203.got.cif
#   From: 2010.05.17/outbox.cif.g08.bks.cpg/sg51_5_cif.got.tgz:8203.got - 2010.06.03 11:52:47.
