data_PCOD9404191
_publ_section_title
;
Structure prediction by ZEFSAII (Michael W. Deem and Ramdas Pophale) SiO2 
 PCOD9404191
Probable space group: P M M A
;
_chemical_formula_sum "Si O2"
_cell_formula_units_Z 64
_cell_length_a 9.092610
_cell_length_b 24.486568
_cell_length_c 14.930531
_cell_angle_alpha 90.000000
_cell_angle_beta 90.000000
_cell_angle_gamma 90.000000
_cell_volume 3324.235144
_symmetry_space_group_name_H-M "P M M A"
_symmetry_group_IT_number 51
_symmetry_cell_setting 'orthorhombic'
loop_
_space_group_symop_operation_xyz
x,y,z
1/2-x,-y,z
1/2+x,-y,-z
-x,y,-z
-x,-y,-z
1/2+x,y,-z
1/2-x,y,z
x,-y,z
loop_
_atom_site_type_symbol
_atom_site_label
_atom_site_fract_x
_atom_site_fract_y
_atom_site_fract_z
Si Si1 0.413652 0.222300 0.916013
Si Si2 0.073142 0.347121 0.279932
Si Si3 0.424758 0.830089 0.236720
Si Si4 0.584997 0.935817 0.582263
Si Si5 0.584388 0.351002 0.087243
Si Si6 0.425128 0.939181 0.770181
Si Si7 0.926962 0.239876 0.598339
Si Si8 0.423522 0.564327 0.596035
O O1 0.250000 0.198974 0.904695
O O2 0.510107 0.215433 0.827982
O O3 0.398233 0.286516 0.932212
O O4 0.500000 0.197600 0.000000
O O5 0.250000 0.348040 0.273099
O O6 0.035270 0.293185 0.340355
O O7 0.003624 0.351604 0.180780
O O8 0.008452 0.398123 0.334283
O O9 0.250000 0.831672 0.231920
O O10 0.491968 0.885741 0.195918
O O11 0.466431 0.812318 0.338229
O O12 0.500000 0.909052 0.500000
O O13 0.750000 0.913976 0.599773
O O14 0.480488 0.936705 0.667709
O O15 0.605826 0.000000 0.560420
O O16 0.750000 0.373867 0.097382
O O17 0.500000 0.374337 0.000000
O O18 0.250000 0.933710 0.776175
O O19 0.465797 0.000000 0.804559
O O20 0.750000 0.239682 0.586991
O O21 0.000000 0.240581 0.500000
O O22 0.500000 0.572714 0.500000
O O23 0.250000 0.578352 0.591895
O O24 0.435305 0.500000 0.617927
#
# Coordination Sequence:
#
# PCOD9404191 Si02
#       8
#     8   8   8   8   8   8   8   8
#     4  10  20  35  58  86 114 146 182 227 280 337
#     4  11  21  36  58  85 119 157 198 244 295 350
#     4  11  22  38  57  80 112 146 184 229 278 336
#     4   9  16  27  44  65  88 117 157 205 255 304
#     4  10  20  34  56  86 119 154 192 238 289 345
#     4  10  21  36  53  74 100 133 176 224 274 330
#     4  10  23  38  54  79 113 151 188 230 279 336
#     4  10  21  37  57  84 118 158 208 259 303 348
#
# _framework density 19.252548000000001
#
# number of rings (size 3 to 8) (size 9 to 14) (size 15 to 20)
#    0.000    1.875    1.250    3.000    0.000    7.500 
#    0.000    1.250    0.000    0.750    0.000    0.000 
#    0.000    0.000    0.000    0.000    0.000    0.000 
#
# Total GULP energy -356662.147051 kJ/mol
# GULP energy per Si atom -5572.846048 kJ/mol
# Density = 1.920873 g / cm^3
# Si number density = 19.252548 Si / 1000 Ang^3
#
#
#
# Elastic Constant Matrix: (Units=GPa)
#
#
# Indices 1 2 3 4 5 6 
#
# 1 106.7578 38.1227 49.7264 0.0000 0.0000 0.0000
# 2 38.1227 47.4773 34.3653 0.0000 0.0000 0.0000
# 3 49.7264 34.3653 99.9884 0.0000 0.0000 0.0000
# 4 0.0000 0.0000 0.0000 15.3254 0.0000 0.0000
# 5 0.0000 0.0000 0.0000 0.0000 27.8526 0.0000
# 6 0.0000 0.0000 0.0000 0.0000 0.0000 20.5801
#
#
#
# Elastic Compliance Matrix: (Units=1/GPa)
#
#
# Indices 1 2 3 4 5 6 
#
# 1 0.014363 -0.008470 -0.004232 0.000000 0.000000 0.000000
# 2 -0.008470 0.033032 -0.007141 0.000000 0.000000 0.000000
# 3 -0.004232 -0.007141 0.014560 0.000000 0.000000 0.000000
# 4 0.000000 0.000000 0.000000 0.065251 0.000000 0.000000
# 5 0.000000 0.000000 0.000000 0.000000 0.035903 0.000000
# 6 0.000000 0.000000 0.000000 0.000000 0.000000 0.048591
#
#
# Mechanical properties :
#
#
# Convention : Reuss Voigt Hill
#
# Bulk Modulus (GPa) = 44.90293 55.40580 50.15437
# Shear Modulus (GPa) = 19.31937 21.55224 20.43581
#
# Velocity S-wave (km/s) = 3.17120 3.34945 3.26154
# Velocity P-wave (km/s) = 6.06485 6.61810 6.34751
#
# Compressibility (1/GPa) = 0.02227026
#
# Stress axis : x y z
#
# Youngs Moduli (GPa) = 69.62531 30.27353 68.68111
#
# Poissons Ratio (x) = 0.25640 0.29065
# Poissons Ratio (y) = 0.58969 0.49044
# Poissons Ratio (z) = 0.29465 0.21618
#
# Static dielectric constant tensor:
#      x y z
#    x 1.687270 0.000000 0.000000 
#    y 0.000000 1.761770 0.000000 
#    z 0.000000 0.000000 1.636410 
# 
# From -- ./inp_files/22366.got.cif
#   From: 2010.05.17/outbox.cif.g08.bks.cpg/sg51_12_cif.got.tgz:22366.got - 2010.06.03 11:52:47.
