data_PCOD9404907
_publ_section_title
;
Structure prediction by ZEFSAII (Michael W. Deem and Ramdas Pophale) SiO2 
 PCOD9404907
Probable space group: P M M A
;
_chemical_formula_sum "Si O2"
_cell_formula_units_Z 32
_cell_length_a 16.832163
_cell_length_b 7.972514
_cell_length_c 11.870422
_cell_angle_alpha 90.000000
_cell_angle_beta 90.000000
_cell_angle_gamma 90.000000
_cell_volume 1592.947187
_symmetry_space_group_name_H-M "P M M A"
_symmetry_group_IT_number 51
_symmetry_cell_setting 'orthorhombic'
loop_
_space_group_symop_operation_xyz
x,y,z
1/2-x,-y,z
1/2+x,-y,-z
-x,y,-z
-x,-y,-z
1/2+x,y,-z
1/2-x,y,z
x,-y,z
loop_
_atom_site_type_symbol
_atom_site_label
_atom_site_fract_x
_atom_site_fract_y
_atom_site_fract_z
Si Si1 0.750000 0.701475 0.974305
Si Si2 0.250000 0.301877 0.278618
Si Si3 0.439234 0.795356 0.669596
Si Si4 0.077344 0.202504 0.926250
Si Si5 0.107402 0.201247 0.436014
O O1 0.750000 0.500000 0.975449
O O2 0.750000 0.770601 0.846644
O O3 0.665387 0.754654 0.028004
O O4 0.250000 0.500000 0.265449
O O5 0.175277 0.250889 0.351773
O O6 0.427408 0.735307 0.796646
O O7 0.382724 0.741191 0.565774
O O8 0.524999 0.744668 0.621037
O O9 0.436333 0.000000 0.675510
O O10 0.071864 0.000000 0.925048
O O11 0.000000 0.260876 0.000000
O O12 0.103725 0.000000 0.441599
#
# Coordination Sequence:
#
# PCOD9404907 Si02
#       5
#     4   4   8   8   8
#     4  11  25  40  53  76 112 151 186 223 272 329
#     4  11  23  36  49  72 106 137 174 221 262 307
#     4   8  16  32  55  83 107 129 168 220 266 310
#     4  10  20  36  60  86 111 142 183 229 271 316
#     4   9  17  33  57  79 102 134 170 211 264 321
#
# _framework density 20.088552
#
# number of rings (size 3 to 8) (size 9 to 14) (size 15 to 20)
#    0.000    2.500    0.000    3.750    0.000    5.500 
#    0.000   10.000    0.000    0.000    0.000    0.000 
#    0.000    0.000    0.000    0.000    0.000    0.000 
#
# Total GULP energy -178284.371326 kJ/mol
# GULP energy per Si atom -5571.386604 kJ/mol
# Density = 2.004283 g / cm^3
# Si number density = 20.088552 Si / 1000 Ang^3
#
#
#
# Elastic Constant Matrix: (Units=GPa)
#
#
# Indices 1 2 3 4 5 6 
#
# 1 122.7268 6.3190 109.8666 0.0000 0.0000 0.0000
# 2 6.3190 11.6649 16.2932 0.0000 0.0000 0.0000
# 3 109.8666 16.2932 255.7782 0.0000 0.0000 0.0000
# 4 0.0000 0.0000 0.0000 7.8275 0.0000 0.0000
# 5 0.0000 0.0000 0.0000 0.0000 35.3063 0.0000
# 6 0.0000 0.0000 0.0000 0.0000 0.0000 59.6495
#
#
#
# Elastic Compliance Matrix: (Units=1/GPa)
#
#
# Indices 1 2 3 4 5 6 
#
# 1 0.013247 0.000847 -0.005744 0.000000 0.000000 0.000000
# 2 0.000847 0.094154 -0.006362 0.000000 0.000000 0.000000
# 3 -0.005744 -0.006362 0.006782 0.000000 0.000000 0.000000
# 4 0.000000 0.000000 0.000000 0.127754 0.000000 0.000000
# 5 0.000000 0.000000 0.000000 0.000000 0.028324 0.000000
# 6 0.000000 0.000000 0.000000 0.000000 0.000000 0.016765
#
#
# Mechanical properties :
#
#
# Convention : Reuss Voigt Hill
#
# Bulk Modulus (GPa) = 10.90916 72.79192 41.85054
# Shear Modulus (GPa) = 14.70170 37.73608 26.21889
#
# Velocity S-wave (km/s) = 2.70820 4.33885 3.61663
# Velocity P-wave (km/s) = 3.90147 7.83678 6.19017
#
# Compressibility (1/GPa) = 0.09166609
#
# Stress axis : x y z
#
# Youngs Moduli (GPa) = 75.49140 10.62089 147.44752
#
# Poissons Ratio (x) = -0.00900 0.84692
# Poissons Ratio (y) = -0.06395 0.93799
# Poissons Ratio (z) = 0.43361 0.06756
#
# Static dielectric constant tensor:
#      x y z
#    x 1.709850 0.000000 0.000000 
#    y 0.000000 1.723850 0.000000 
#    z 0.000000 0.000000 1.753340 
# 
# From -- ./inp_files/15942.got.cif
#   From: 2010.05.17/outbox.cif.g08.bks.cpg/sg51_8_cif.got.tgz:15942.got - 2010.06.03 11:52:47.
