data_PCOD9404113
_publ_section_title
;
Structure prediction by ZEFSAII (Michael W. Deem and Ramdas Pophale) SiO2 
 PCOD9404113
Probable space group: P M M A
;
_chemical_formula_sum "Si O2"
_cell_formula_units_Z 48
_cell_length_a 23.932923
_cell_length_b 8.240332
_cell_length_c 10.124961
_cell_angle_alpha 90.000000
_cell_angle_beta 90.000000
_cell_angle_gamma 90.000000
_cell_volume 1996.796525
_symmetry_space_group_name_H-M "P M M A"
_symmetry_group_IT_number 51
_symmetry_cell_setting 'orthorhombic'
loop_
_space_group_symop_operation_xyz
x,y,z
1/2-x,-y,z
1/2+x,-y,-z
-x,y,-z
-x,-y,-z
1/2+x,y,-z
1/2-x,y,z
x,-y,z
loop_
_atom_site_type_symbol
_atom_site_label
_atom_site_fract_x
_atom_site_fract_y
_atom_site_fract_z
Si Si1 0.188878 0.304647 0.190314
Si Si2 0.432392 0.807127 0.276802
Si Si3 0.312309 0.811904 0.612827
Si Si4 0.659357 0.688270 0.106417
Si Si5 0.572739 0.682929 0.439581
Si Si6 0.042357 0.186026 0.835856
O O1 0.250000 0.249090 0.240139
O O2 0.185994 0.500000 0.205846
O O3 0.131819 0.232020 0.246812
O O4 0.185536 0.269809 0.033517
O O5 0.448265 0.723453 0.415083
O O6 0.477801 0.758252 0.164611
O O7 0.438341 0.000000 0.291656
O O8 0.250000 0.764016 0.574940
O O9 0.318720 0.792549 0.771168
O O10 0.360183 0.701830 0.551867
O O11 0.321613 0.000000 0.576755
O O12 0.671316 0.500000 0.135856
O O13 0.592339 0.713344 0.100193
O O14 0.558670 0.500000 0.399825
O O15 0.556642 0.803162 0.321351
O O16 0.046521 0.000000 0.881246
#
# Coordination Sequence:
#
# PCOD9404113 Si02
#       6
#     8   8   8   8   8   8
#     4  10  23  42  61  83 114 152 192 234 280 332
#     4  11  24  40  59  83 114 153 191 231 280 335
#     4  10  20  34  55  83 114 149 190 236 285 338
#     4  10  20  36  60  87 115 147 186 235 287 336
#     4  11  22  36  58  85 114 150 190 234 285 339
#     4  10  21  38  60  87 118 148 184 232 284 337
#
# _framework density 24.038502999999999
#
# number of rings (size 3 to 8) (size 9 to 14) (size 15 to 20)
#    0.000    1.667    0.000    6.500    0.000    9.667 
#    0.000    3.333    0.000    0.000    0.000    0.000 
#    0.000    0.000    0.000    0.000    0.000    0.000 
#
# Total GULP energy -268525.721034 kJ/mol
# GULP energy per Si atom -5594.285855 kJ/mol
# Density = 2.398379 g / cm^3
# Si number density = 24.038503 Si / 1000 Ang^3
#
#
#
# Elastic Constant Matrix: (Units=GPa)
#
#
# Indices 1 2 3 4 5 6 
#
# 1 149.0487 11.9312 6.5588 0.0000 0.0000 0.0000
# 2 11.9312 45.7115 3.3959 0.0000 0.0000 0.0000
# 3 6.5588 3.3959 36.1857 0.0000 0.0000 0.0000
# 4 0.0000 0.0000 0.0000 29.9318 0.0000 0.0000
# 5 0.0000 0.0000 0.0000 0.0000 24.2467 0.0000
# 6 0.0000 0.0000 0.0000 0.0000 0.0000 32.9620
#
#
#
# Elastic Compliance Matrix: (Units=1/GPa)
#
#
# Indices 1 2 3 4 5 6 
#
# 1 0.006895 -0.001719 -0.001088 0.000000 0.000000 0.000000
# 2 -0.001719 0.022458 -0.001796 0.000000 0.000000 0.000000
# 3 -0.001088 -0.001796 0.028001 0.000000 0.000000 0.000000
# 4 0.000000 0.000000 0.000000 0.033409 0.000000 0.000000
# 5 0.000000 0.000000 0.000000 0.000000 0.041243 0.000000
# 6 0.000000 0.000000 0.000000 0.000000 0.000000 0.030338
#
#
# Mechanical properties :
#
#
# Convention : Reuss Voigt Hill
#
# Bulk Modulus (GPa) = 20.76946 30.52421 25.64683
# Shear Modulus (GPa) = 26.65246 31.36542 29.00894
#
# Velocity S-wave (km/s) = 3.33339 3.61612 3.47763
# Velocity P-wave (km/s) = 4.84501 5.49188 5.17855
#
# Compressibility (1/GPa) = 0.04814761
#
# Stress axis : x y z
#
# Youngs Moduli (GPa) = 145.03909 44.52679 35.71293
#
# Poissons Ratio (x) = 0.07653 0.03887
# Poissons Ratio (y) = 0.24928 0.06415
# Poissons Ratio (z) = 0.15786 0.07998
#
# Static dielectric constant tensor:
#      x y z
#    x 2.001430 0.000000 0.000000 
#    y 0.000000 1.808000 0.000000 
#    z 0.000000 0.000000 1.920630 
# 
# From -- ./inp_files/18598.got.cif
#   From: 2010.05.17/outbox.cif.g08.bks.cpg/sg51_10_cif.got.tgz:18598.got - 2010.06.03 11:52:47.
