data_PCOD9404727
_publ_section_title
;
Structure prediction by ZEFSAII (Michael W. Deem and Ramdas Pophale) SiO2 
 PCOD9404727
Probable space group: P M M A
;
_chemical_formula_sum "Si O2"
_cell_formula_units_Z 64
_cell_length_a 19.472700
_cell_length_b 7.964765
_cell_length_c 20.129396
_cell_angle_alpha 90.000000
_cell_angle_beta 90.000000
_cell_angle_gamma 90.000000
_cell_volume 3121.978323
_symmetry_space_group_name_H-M "P M M A"
_symmetry_group_IT_number 51
_symmetry_cell_setting 'orthorhombic'
loop_
_space_group_symop_operation_xyz
x,y,z
1/2-x,-y,z
1/2+x,-y,-z
-x,y,-z
-x,-y,-z
1/2+x,y,-z
1/2-x,y,z
x,-y,z
loop_
_atom_site_type_symbol
_atom_site_label
_atom_site_fract_x
_atom_site_fract_y
_atom_site_fract_z
Si Si1 0.172990 0.203080 0.783213
Si Si2 0.396286 0.701900 0.287600
Si Si3 0.068053 0.797654 0.537228
Si Si4 0.828138 0.702501 0.575209
Si Si5 0.671227 0.298165 0.849859
Si Si6 0.567481 0.187959 0.965605
Si Si7 0.171041 0.306436 0.934147
Si Si8 0.448598 0.796874 0.687798
O O1 0.250000 0.245298 0.759315
O O2 0.163929 0.279965 0.855883
O O3 0.112830 0.260173 0.735079
O O4 0.169816 0.000000 0.789345
O O5 0.389392 0.500000 0.287650
O O6 0.366004 0.764841 0.357906
O O7 0.355400 0.763004 0.222412
O O8 0.476783 0.743687 0.286572
O O9 0.131904 0.750736 0.491385
O O10 0.065532 0.736483 0.612814
O O11 0.000000 0.735142 0.500000
O O12 0.065119 0.000000 0.539644
O O13 0.750000 0.762691 0.574389
O O14 0.827519 0.500000 0.578645
O O15 0.750000 0.238151 0.864214
O O16 0.675435 0.500000 0.847257
O O17 0.612262 0.259036 0.904336
O O18 0.546365 0.000000 0.945259
O O19 0.500000 0.270851 0.000000
O O20 0.621438 0.188967 0.025411
O O21 0.250000 0.273004 0.951722
O O22 0.155865 0.500000 0.951708
O O23 0.447693 0.000000 0.686884
#
# Coordination Sequence:
#
# PCOD9404727 Si02
#       8
#     8   8   8   8   8   8   8   8
#     4   9  19  36  57  81 111 149 189 230 280 337
#     4  10  21  37  59  86 116 153 191 233 288 346
#     4  10  20  36  56  81 113 151 192 235 284 337
#     4  10  21  37  58  85 116 151 193 239 287 343
#     4  10  22  41  63  87 117 153 193 238 288 342
#     4  11  25  41  58  85 119 153 189 232 281 335
#     4  10  21  38  61  86 112 145 185 229 277 331
#     4  10  21  36  57  83 115 151 191 238 285 340
#
# _framework density 20.499824
#
# number of rings (size 3 to 8) (size 9 to 14) (size 15 to 20)
#    0.000    2.000    1.250    1.500    1.750    7.500 
#    0.000    1.250    0.000    3.750    0.000    0.000 
#    0.000    0.000    0.000    0.000    0.000    0.000 
#
# Total GULP energy -357193.747437 kJ/mol
# GULP energy per Si atom -5581.152304 kJ/mol
# Density = 2.045317 g / cm^3
# Si number density = 20.499824 Si / 1000 Ang^3
#
#
#
# Elastic Constant Matrix: (Units=GPa)
#
#
# Indices 1 2 3 4 5 6 
#
# 1 113.1244 11.6168 67.5429 0.0000 0.0000 0.0000
# 2 11.6168 13.9255 8.5773 0.0000 0.0000 0.0000
# 3 67.5429 8.5773 82.9364 0.0000 0.0000 0.0000
# 4 0.0000 0.0000 0.0000 27.8351 0.0000 0.0000
# 5 0.0000 0.0000 0.0000 0.0000 40.3960 0.0000
# 6 0.0000 0.0000 0.0000 0.0000 0.0000 37.4462
#
#
#
# Elastic Compliance Matrix: (Units=1/GPa)
#
#
# Indices 1 2 3 4 5 6 
#
# 1 0.017708 -0.006290 -0.013771 0.000000 0.000000 0.000000
# 2 -0.006290 0.078931 -0.003040 0.000000 0.000000 0.000000
# 3 -0.013771 -0.003040 0.023586 0.000000 0.000000 0.000000
# 4 0.000000 0.000000 0.000000 0.035926 0.000000 0.000000
# 5 0.000000 0.000000 0.000000 0.000000 0.024755 0.000000
# 6 0.000000 0.000000 0.000000 0.000000 0.000000 0.026705
#
#
# Mechanical properties :
#
#
# Convention : Reuss Voigt Hill
#
# Bulk Modulus (GPa) = 13.50930 42.82890 28.16910
# Shear Modulus (GPa) = 17.95414 29.28541 23.61978
#
# Velocity S-wave (km/s) = 2.96264 3.78374 3.39808
# Velocity P-wave (km/s) = 4.27869 6.32666 5.40064
#
# Compressibility (1/GPa) = 0.07402306
#
# Stress axis : x y z
#
# Youngs Moduli (GPa) = 56.47258 12.66930 42.39714
#
# Poissons Ratio (x) = 0.07969 0.58383
# Poissons Ratio (y) = 0.35522 0.12890
# Poissons Ratio (z) = 0.77766 0.03852
#
# Static dielectric constant tensor:
#      x y z
#    x 1.774640 0.000000 0.000000 
#    y 0.000000 1.760710 0.000000 
#    z 0.000000 0.000000 1.717180 
# 
# From -- ./inp_files/33830.got.cif
#   From: 2010.05.17/outbox.cif.g08.bks.cpg/sg51_17_cif.got.tgz:33830.got - 2010.06.03 11:52:47.
