data_PCOD9404021
_publ_section_title
;
Structure prediction by ZEFSAII (Michael W. Deem and Ramdas Pophale) SiO2 
 PCOD9404021
Probable space group: P M M A
;
_chemical_formula_sum "Si O2"
_cell_formula_units_Z 64
_cell_length_a 25.729692
_cell_length_b 15.239600
_cell_length_c 7.712046
_cell_angle_alpha 90.000000
_cell_angle_beta 90.000000
_cell_angle_gamma 90.000000
_cell_volume 3023.972009
_symmetry_space_group_name_H-M "P M M A"
_symmetry_group_IT_number 51
_symmetry_cell_setting 'orthorhombic'
loop_
_space_group_symop_operation_xyz
x,y,z
1/2-x,-y,z
1/2+x,-y,-z
-x,y,-z
-x,-y,-z
1/2+x,y,-z
1/2-x,y,z
x,-y,z
loop_
_atom_site_type_symbol
_atom_site_label
_atom_site_fract_x
_atom_site_fract_y
_atom_site_fract_z
Si Si1 0.405073 0.600071 0.272166
Si Si2 0.902218 0.401643 0.312085
Si Si3 0.308545 0.282055 0.765966
Si Si4 0.979662 0.904520 0.803594
Si Si5 0.002678 0.288706 0.705734
Si Si6 0.687106 0.094516 0.210404
Si Si7 0.854988 0.903830 0.818439
Si Si8 0.308656 0.279574 0.185000
O O1 0.408512 0.500000 0.205638
O O2 0.409295 0.594517 0.480692
O O3 0.452236 0.663463 0.214040
O O4 0.350772 0.647276 0.231937
O O5 0.907139 0.500000 0.243342
O O6 0.846553 0.359373 0.281606
O O7 0.945408 0.337276 0.233093
O O8 0.250000 0.297146 0.704622
O O9 0.327531 0.186174 0.700532
O O10 0.307615 0.275151 0.975157
O O11 0.917061 0.896060 0.799382
O O12 0.003068 0.815319 0.730187
O O13 0.993471 0.000000 0.724619
O O14 0.000000 0.907261 0.000000
O O15 0.000000 0.302864 0.500000
O O16 0.750000 0.099083 0.183981
O O17 0.675524 0.000000 0.294718
O O18 0.659642 0.093641 0.022937
O O19 0.827240 0.816372 0.749609
O O20 0.838699 0.000000 0.748273
O O21 0.250000 0.298145 0.244374
#
# Coordination Sequence:
#
# PCOD9404021 Si02
#       8
#     8   8   8   8   8   8   8   8
#     4  10  21  39  58  77 103 138 182 229 275 321
#     4  10  22  38  58  79 101 138 185 227 271 325
#     4   9  19  34  53  81 113 141 173 219 268 316
#     4  10  21  34  53  84 115 143 176 217 264 319
#     4  10  21  38  59  80 106 140 181 226 271 318
#     4   8  14  26  47  75 104 136 172 207 249 305
#     4   9  16  29  50  75 108 141 174 212 257 309
#     4  10  20  34  54  82 111 141 179 221 268 320
#
# _framework density 21.164217000000001
#
# number of rings (size 3 to 8) (size 9 to 14) (size 15 to 20)
#    0.000    2.500    1.250    1.500    3.500    4.000 
#    0.000    2.500    0.000    3.750    0.000    1.750 
#    0.000    0.000    0.000    0.000    0.000    0.000 
#
# Total GULP energy -356971.462648 kJ/mol
# GULP energy per Si atom -5577.679104 kJ/mol
# Density = 2.111605 g / cm^3
# Si number density = 21.164217 Si / 1000 Ang^3
#
#
#
# Elastic Constant Matrix: (Units=GPa)
#
#
# Indices 1 2 3 4 5 6 
#
# 1 75.4697 63.5205 -4.3080 0.0000 0.0000 0.0000
# 2 63.5205 172.8477 4.0800 0.0000 0.0000 0.0000
# 3 -4.3080 4.0800 29.1262 0.0000 0.0000 0.0000
# 4 0.0000 0.0000 0.0000 17.2734 0.0000 0.0000
# 5 0.0000 0.0000 0.0000 0.0000 17.0651 0.0000
# 6 0.0000 0.0000 0.0000 0.0000 0.0000 30.6375
#
#
#
# Elastic Compliance Matrix: (Units=1/GPa)
#
#
# Indices 1 2 3 4 5 6 
#
# 1 0.019621 -0.007303 0.003925 0.000000 0.000000 0.000000
# 2 -0.007303 0.008523 -0.002274 0.000000 0.000000 0.000000
# 3 0.003925 -0.002274 0.035232 0.000000 0.000000 0.000000
# 4 0.000000 0.000000 0.000000 0.057892 0.000000 0.000000
# 5 0.000000 0.000000 0.000000 0.000000 0.058599 0.000000
# 6 0.000000 0.000000 0.000000 0.000000 0.000000 0.032640
#
#
# Mechanical properties :
#
#
# Convention : Reuss Voigt Hill
#
# Bulk Modulus (GPa) = 19.20405 44.89207 32.04806
# Shear Modulus (GPa) = 20.73222 27.27195 24.00209
#
# Velocity S-wave (km/s) = 3.13323 3.59358 3.37128
# Velocity P-wave (km/s) = 4.70989 6.20289 5.50722
#
# Compressibility (1/GPa) = 0.05207235
#
# Stress axis : x y z
#
# Youngs Moduli (GPa) = 50.96452 117.32835 28.38293
#
# Poissons Ratio (x) = 0.85690 -0.11141
# Poissons Ratio (y) = 0.37222 0.06455
# Poissons Ratio (z) = -0.20005 0.26682
#
# Static dielectric constant tensor:
#      x y z
#    x 1.750560 0.000000 0.000000 
#    y 0.000000 1.797290 0.000000 
#    z 0.000000 0.000000 1.814070 
# 
# From -- ./inp_files/11895.got.cif
#   From: 2010.05.17/outbox.cif.g08.bks.cpg/sg51_6_cif.got.tgz:11895.got - 2010.06.03 11:52:47.
