data_PCOD9404893
_publ_section_title
;
Structure prediction by ZEFSAII (Michael W. Deem and Ramdas Pophale) SiO2 
 PCOD9404893
Probable space group: P M M A
;
_chemical_formula_sum "Si O2"
_cell_formula_units_Z 48
_cell_length_a 9.991532
_cell_length_b 19.111908
_cell_length_c 14.174301
_cell_angle_alpha 90.000000
_cell_angle_beta 90.000000
_cell_angle_gamma 90.000000
_cell_volume 2706.685403
_symmetry_space_group_name_H-M "P M M A"
_symmetry_group_IT_number 51
_symmetry_cell_setting 'orthorhombic'
loop_
_space_group_symop_operation_xyz
x,y,z
1/2-x,-y,z
1/2+x,-y,-z
-x,y,-z
-x,-y,-z
1/2+x,y,-z
1/2-x,y,z
x,-y,z
loop_
_atom_site_type_symbol
_atom_site_label
_atom_site_fract_x
_atom_site_fract_y
_atom_site_fract_z
Si Si1 0.750000 0.917136 0.079755
Si Si2 0.087967 0.421385 0.786959
Si Si3 0.023487 0.151776 0.794496
Si Si4 0.095617 0.186113 0.585820
Si Si5 0.407840 0.354249 0.587930
Si Si6 0.087577 0.711788 0.907227
Si Si7 0.250000 0.914974 0.140505
O O1 0.623092 0.889992 0.137025
O O2 0.750000 0.000000 0.078943
O O3 0.750000 0.894605 0.970646
O O4 0.250000 0.423334 0.785654
O O5 0.038235 0.500000 0.803375
O O6 0.049139 0.392405 0.684010
O O7 0.053719 0.364726 0.866266
O O8 0.879096 0.119292 0.812054
O O9 0.062344 0.149806 0.684932
O O10 0.042926 0.231309 0.829872
O O11 0.250000 0.173184 0.561344
O O12 0.080047 0.270187 0.599923
O O13 0.000000 0.165132 0.500000
O O14 0.500000 0.374936 0.500000
O O15 0.250000 0.369086 0.571027
O O16 0.250000 0.717468 0.921033
O O17 0.000000 0.725430 0.000000
O O18 0.250000 0.000000 0.147242
#
# Coordination Sequence:
#
# PCOD9404893 Si02
#       7
#     4   8   8   8   8   8   4
#     4  11  22  40  65  91 122 160 194 233 295 357
#     4   9  18  34  55  78 113 157 194 235 289 347
#     4  12  22  39  63  90 122 158 196 246 295 350
#     4  10  20  36  59  88 118 152 199 249 297 348
#     4   9  17  32  52  79 110 144 188 237 289 342
#     4  11  22  37  58  86 115 151 201 246 289 347
#     4  11  26  42  61  95 130 156 192 237 295 363
#
# _framework density 17.733867
#
# number of rings (size 3 to 8) (size 9 to 14) (size 15 to 20)
#    0.000    1.667    3.333    2.000    2.333    2.000 
#    0.000    0.833    0.000    4.000    0.000    0.000 
#    0.000    0.000    0.000    0.000    0.000    0.000 
#
# Total GULP energy -267863.162050 kJ/mol
# GULP energy per Si atom -5580.482543 kJ/mol
# Density = 1.769350 g / cm^3
# Si number density = 17.733867 Si / 1000 Ang^3
#
#
#
# Elastic Constant Matrix: (Units=GPa)
#
#
# Indices 1 2 3 4 5 6 
#
# 1 104.0075 27.6223 40.4142 0.0000 0.0000 0.0000
# 2 27.6223 49.2975 18.6580 0.0000 0.0000 0.0000
# 3 40.4142 18.6580 99.3461 0.0000 0.0000 0.0000
# 4 0.0000 0.0000 0.0000 24.1691 0.0000 0.0000
# 5 0.0000 0.0000 0.0000 0.0000 27.5530 0.0000
# 6 0.0000 0.0000 0.0000 0.0000 0.0000 19.6314
#
#
#
# Elastic Compliance Matrix: (Units=1/GPa)
#
#
# Indices 1 2 3 4 5 6 
#
# 1 0.012690 -0.005551 -0.004120 0.000000 0.000000 0.000000
# 2 -0.005551 0.024265 -0.002299 0.000000 0.000000 0.000000
# 3 -0.004120 -0.002299 0.012173 0.000000 0.000000 0.000000
# 4 0.000000 0.000000 0.000000 0.041375 0.000000 0.000000
# 5 0.000000 0.000000 0.000000 0.000000 0.036294 0.000000
# 6 0.000000 0.000000 0.000000 0.000000 0.000000 0.050939
#
#
# Mechanical properties :
#
#
# Convention : Reuss Voigt Hill
#
# Bulk Modulus (GPa) = 39.69970 47.33776 43.51873
# Shear Modulus (GPa) = 23.80132 25.33447 24.56790
#
# Velocity S-wave (km/s) = 3.66750 3.78377 3.72609
# Velocity P-wave (km/s) = 6.35366 6.77057 6.56543
#
# Compressibility (1/GPa) = 0.02518911
#
# Stress axis : x y z
#
# Youngs Moduli (GPa) = 78.80391 41.21078 82.14568
#
# Poissons Ratio (x) = 0.22876 0.33841
# Poissons Ratio (y) = 0.43745 0.18886
# Poissons Ratio (z) = 0.32465 0.09475
#
# Static dielectric constant tensor:
#      x y z
#    x 1.419240 0.000000 0.000000 
#    y 0.000000 1.625270 0.000000 
#    z 0.000000 0.000000 1.580920 
# 
# From -- ./inp_files/21142.got.cif
#   From: 2010.05.17/outbox.cif.g08.bks.cpg/sg51_11_cif.got.tgz:21142.got - 2010.06.03 11:52:47.
