data_PCOD9404749
_publ_section_title
;
Structure prediction by ZEFSAII (Michael W. Deem and Ramdas Pophale) SiO2 
 PCOD9404749
Probable space group: P M M A
;
_chemical_formula_sum "Si O2"
_cell_formula_units_Z 48
_cell_length_a 29.444194
_cell_length_b 8.575788
_cell_length_c 10.237348
_cell_angle_alpha 90.000000
_cell_angle_beta 90.000000
_cell_angle_gamma 90.000000
_cell_volume 2585.003726
_symmetry_space_group_name_H-M "P M M A"
_symmetry_group_IT_number 51
_symmetry_cell_setting 'orthorhombic'
loop_
_space_group_symop_operation_xyz
x,y,z
1/2-x,-y,z
1/2+x,-y,-z
-x,y,-z
-x,-y,-z
1/2+x,y,-z
1/2-x,y,z
x,-y,z
loop_
_atom_site_type_symbol
_atom_site_label
_atom_site_fract_x
_atom_site_fract_y
_atom_site_fract_z
Si Si1 0.302727 0.688317 0.771983
Si Si2 0.523514 0.811258 0.635823
Si Si3 0.802794 0.813215 0.512853
Si Si4 0.877725 0.312639 0.710946
Si Si5 0.035524 0.817729 0.881737
Si Si6 0.872241 0.313615 0.010107
O O1 0.250000 0.728663 0.792455
O O2 0.306216 0.500000 0.763643
O O3 0.316787 0.757387 0.632123
O O4 0.332901 0.744422 0.893119
O O5 0.500000 0.767041 0.500000
O O6 0.573788 0.745220 0.656960
O O7 0.490490 0.760554 0.753352
O O8 0.526796 0.000000 0.640864
O O9 0.750000 0.763603 0.532927
O O10 0.836842 0.745655 0.620070
O O11 0.804294 0.000000 0.517457
O O12 0.877866 0.500000 0.711463
O O13 0.871922 0.254831 0.860860
O O14 0.080203 0.726639 0.922386
O O15 0.047593 0.000000 0.862585
O O16 0.000000 0.808680 0.000000
O O17 0.867366 0.500000 0.002009
#
# Coordination Sequence:
#
# PCOD9404749 Si02
#       6
#     8   8   8   8   8   8
#     4   9  19  38  61  85 114 147 185 229 280 339
#     4  10  22  39  57  81 114 152 193 237 283 333
#     4  10  22  40  61  85 114 149 189 235 285 337
#     4  11  23  38  58  86 118 153 191 233 284 339
#     4  10  20  36  57  80 110 151 190 229 280 333
#     4  10  22  37  57  86 116 150 188 232 282 335
#
# _framework density 18.568638
#
# number of rings (size 3 to 8) (size 9 to 14) (size 15 to 20)
#    0.000    2.000    1.667    1.000    2.333    4.333 
#    0.000    1.667    0.000    2.000    0.000    0.000 
#    0.000    0.000    0.000    0.000    0.000    0.000 
#
# Total GULP energy -267981.898256 kJ/mol
# GULP energy per Si atom -5582.956214 kJ/mol
# Density = 1.852638 g / cm^3
# Si number density = 18.568638 Si / 1000 Ang^3
#
#
#
# Elastic Constant Matrix: (Units=GPa)
#
#
# Indices 1 2 3 4 5 6 
#
# 1 117.8965 23.9831 105.8423 0.0000 0.0000 0.0000
# 2 23.9831 15.5847 34.5137 0.0000 0.0000 0.0000
# 3 105.8423 34.5137 183.3464 0.0000 0.0000 0.0000
# 4 0.0000 0.0000 0.0000 -6.4569 0.0000 0.0000
# 5 0.0000 0.0000 0.0000 0.0000 37.5417 0.0000
# 6 0.0000 0.0000 0.0000 0.0000 0.0000 11.3479
#
#
#
# Elastic Compliance Matrix: (Units=1/GPa)
#
#
# Indices 1 2 3 4 5 6 
#
# 1 0.018187 -0.008123 -0.008970 0.000000 0.000000 0.000000
# 2 -0.008123 0.113666 -0.016707 0.000000 0.000000 0.000000
# 3 -0.008970 -0.016707 0.013777 0.000000 0.000000 0.000000
# 4 0.000000 0.000000 0.000000 -0.154872 0.000000 0.000000
# 5 0.000000 0.000000 0.000000 0.000000 0.026637 0.000000
# 6 0.000000 0.000000 0.000000 0.000000 0.000000 0.088122
#
#
# Mechanical properties :
#
#
# Convention : Reuss Voigt Hill
#
# Bulk Modulus (GPa) = 12.81565 71.72284 42.26925
# Shear Modulus (GPa) = 25.10927 18.65245 21.88086
#
# Velocity S-wave (km/s) = 3.68127 3.17284 3.43647
# Velocity P-wave (km/s) = 4.99858 7.22027 6.20959
#
# Compressibility (1/GPa) = 0.07802959
#
# Stress axis : x y z
#
# Youngs Moduli (GPa) = 54.98290 8.79767 72.58217
#
# Poissons Ratio (x) = 0.07147 0.65107
# Poissons Ratio (y) = 0.44664 1.21267
# Poissons Ratio (z) = 0.49320 0.14699
#
# Static dielectric constant tensor:
#      x y z
#    x 1.623600 0.000000 0.000000 
#    y 0.000000 1.645150 0.000000 
#    z 0.000000 0.000000 1.638760 
# 
# From -- ./inp_files/12750.got.cif
#   From: 2010.05.17/outbox.cif.g08.bks.cpg/sg51_7_cif.got.tgz:12750.got - 2010.06.03 11:52:47.
