data_PCOD9404508
_publ_section_title
;
Structure prediction by ZEFSAII (Michael W. Deem and Ramdas Pophale) SiO2 
 PCOD9404508
Probable space group: P M M A
;
_chemical_formula_sum "Si O2"
_cell_formula_units_Z 64
_cell_length_a 24.183272
_cell_length_b 8.823837
_cell_length_c 15.126576
_cell_angle_alpha 90.000000
_cell_angle_beta 90.000000
_cell_angle_gamma 90.000000
_cell_volume 3227.848712
_symmetry_space_group_name_H-M "P M M A"
_symmetry_group_IT_number 51
_symmetry_cell_setting 'orthorhombic'
loop_
_space_group_symop_operation_xyz
x,y,z
1/2-x,-y,z
1/2+x,-y,-z
-x,y,-z
-x,-y,-z
1/2+x,y,-z
1/2-x,y,z
x,-y,z
loop_
_atom_site_type_symbol
_atom_site_label
_atom_site_fract_x
_atom_site_fract_y
_atom_site_fract_z
Si Si1 0.187534 0.826184 0.268412
Si Si2 0.002857 0.181584 0.217306
Si Si3 0.377449 0.817762 0.804259
Si Si4 0.341823 0.676131 0.442089
Si Si5 0.472818 0.677315 0.408537
Si Si6 0.686779 0.317807 0.357563
Si Si7 0.390333 0.322165 0.133301
Si Si8 0.314045 0.183307 0.980979
O O1 0.250000 0.812502 0.233654
O O2 0.186652 0.783131 0.370917
O O3 0.146734 0.712808 0.219543
O O4 0.169240 0.000000 0.254751
O O5 0.941510 0.227183 0.185793
O O6 0.011436 0.237773 0.318396
O O7 0.050324 0.250224 0.155045
O O8 0.007182 0.000000 0.215781
O O9 0.353630 0.753671 0.713527
O O10 0.375984 0.000000 0.800761
O O11 0.338710 0.770392 0.885874
O O12 0.324005 0.500000 0.430823
O O13 0.407143 0.683366 0.423251
O O14 0.329114 0.721712 0.542186
O O15 0.500000 0.734536 0.500000
O O16 0.489244 0.500000 0.398317
O O17 0.750000 0.271183 0.339927
O O18 0.683547 0.500000 0.351145
O O19 0.395944 0.500000 0.118848
O O20 0.355515 0.246911 0.054543
O O21 0.250000 0.232038 0.991987
O O22 0.314695 0.000000 0.986255
#
# Coordination Sequence:
#
# PCOD9404508 Si02
#       8
#     8   8   8   8   8   8   8   8
#     4  11  23  38  58  86 120 158 199 246 300 358
#     4  11  23  40  62  90 125 163 207 256 306 365
#     4  10  23  42  65  92 122 162 207 255 311 365
#     4  10  20  35  56  84 119 162 207 250 300 361
#     4  10  20  35  57  85 119 163 211 256 304 359
#     4  10  21  37  59  89 125 165 208 256 310 366
#     4  12  25  41  63  91 124 160 200 249 307 368
#     4  10  22  43  69  94 122 158 202 252 307 369
#
# _framework density 19.827448
#
# number of rings (size 3 to 8) (size 9 to 14) (size 15 to 20)
#    0.000    1.500    1.250    3.750    0.000    7.750 
#    0.000    2.500    0.000    0.000    0.000    0.000 
#    0.000    0.000    0.000    0.000    0.000    0.000 
#
# Total GULP energy -357726.594159 kJ/mol
# GULP energy per Si atom -5589.478034 kJ/mol
# Density = 1.978232 g / cm^3
# Si number density = 19.827448 Si / 1000 Ang^3
#
#
#
# Elastic Constant Matrix: (Units=GPa)
#
#
# Indices 1 2 3 4 5 6 
#
# 1 103.3031 27.5103 36.7084 0.0000 0.0000 0.0000
# 2 27.5103 31.0093 10.2519 0.0000 0.0000 0.0000
# 3 36.7084 10.2519 67.1339 0.0000 0.0000 0.0000
# 4 0.0000 0.0000 0.0000 35.6730 0.0000 0.0000
# 5 0.0000 0.0000 0.0000 0.0000 34.7833 0.0000
# 6 0.0000 0.0000 0.0000 0.0000 0.0000 -2.9284
#
#
#
# Elastic Compliance Matrix: (Units=1/GPa)
#
#
# Indices 1 2 3 4 5 6 
#
# 1 0.014940 -0.011114 -0.006472 0.000000 0.000000 0.000000
# 2 -0.011114 0.042232 -0.000372 0.000000 0.000000 0.000000
# 3 -0.006472 -0.000372 0.018491 0.000000 0.000000 0.000000
# 4 0.000000 0.000000 0.000000 0.028032 0.000000 0.000000
# 5 0.000000 0.000000 0.000000 0.000000 0.028749 0.000000
# 6 0.000000 0.000000 0.000000 0.000000 0.000000 -0.341484
#
#
# Mechanical properties :
#
#
# Convention : Reuss Voigt Hill
#
# Bulk Modulus (GPa) = 25.15941 38.93196 32.04569
# Shear Modulus (GPa) = -31.27457 21.97063 -4.65197
#
# Velocity S-wave (km/s) = -3.97588 3.33241 -1.53340
# Velocity P-wave (km/s) = 2.89138 5.87236 3.61418
#
# Compressibility (1/GPa) = 0.03974656
#
# Stress axis : x y z
#
# Youngs Moduli (GPa) = 66.93528 23.67890 54.08015
#
# Poissons Ratio (x) = 0.26318 0.34999
# Poissons Ratio (y) = 0.74395 0.02011
# Poissons Ratio (z) = 0.43319 0.00880
#
# Static dielectric constant tensor:
#      x y z
#    x 1.708460 0.000000 0.000000 
#    y 0.000000 1.672150 0.000000 
#    z 0.000000 0.000000 1.687340 
# 
# From -- ./inp_files/26301.got.cif
#   From: 2010.05.17/outbox.cif.g08.bks.cpg/sg51_14_cif.got.tgz:26301.got - 2010.06.03 11:52:47.
