data_PCOD9404438
_publ_section_title
;
Structure prediction by ZEFSAII (Michael W. Deem and Ramdas Pophale) SiO2 
 PCOD9404438
Probable space group: P M M A
;
_chemical_formula_sum "Si O2"
_cell_formula_units_Z 64
_cell_length_a 14.687875
_cell_length_b 19.087304
_cell_length_c 10.944702
_cell_angle_alpha 90.000000
_cell_angle_beta 90.000000
_cell_angle_gamma 90.000000
_cell_volume 3068.368386
_symmetry_space_group_name_H-M "P M M A"
_symmetry_group_IT_number 51
_symmetry_cell_setting 'orthorhombic'
loop_
_space_group_symop_operation_xyz
x,y,z
1/2-x,-y,z
1/2+x,-y,-z
-x,y,-z
-x,-y,-z
1/2+x,y,-z
1/2-x,y,z
x,-y,z
loop_
_atom_site_type_symbol
_atom_site_label
_atom_site_fract_x
_atom_site_fract_y
_atom_site_fract_z
Si Si1 0.857494 0.194567 0.450995
Si Si2 0.645631 0.285848 0.204427
Si Si3 0.860084 0.855320 0.092278
Si Si4 0.641251 0.137094 0.814464
Si Si5 0.885568 0.577964 0.614740
Si Si6 0.530781 0.080791 0.315400
Si Si7 0.856255 0.727716 0.689960
Si Si8 0.099612 0.421970 0.660360
O O1 0.750000 0.174437 0.467736
O O2 0.859155 0.245591 0.334174
O O3 0.919931 0.129132 0.415797
O O4 0.895566 0.238524 0.565876
O O5 0.750000 0.297528 0.169023
O O6 0.609659 0.226101 0.112446
O O7 0.608563 0.362460 0.237491
O O8 0.750000 0.857078 0.113843
O O9 0.911946 0.901107 0.192154
O O10 0.876845 0.880835 0.955071
O O11 0.750000 0.126004 0.791716
O O12 0.573557 0.099109 0.720853
O O13 0.617736 0.219910 0.797613
O O14 0.850657 0.500000 0.644578
O O15 0.865798 0.644989 0.697550
O O16 0.857818 0.594785 0.473824
O O17 0.993804 0.573218 0.627498
O O18 0.538176 0.000000 0.347485
O O19 0.750000 0.738181 0.674425
O O20 0.131333 0.500000 0.696939
#
# Coordination Sequence:
#
# PCOD9404438 Si02
#       8
#     8   8   8   8   8   8   8   8
#     4   9  19  35  55  85 115 139 178 228 276 329
#     4   9  16  29  50  74 103 138 175 222 277 325
#     4   9  20  38  58  83 112 139 180 235 282 326
#     4  10  23  40  56  80 112 148 189 229 268 324
#     4   9  18  29  45  75 112 147 183 225 270 321
#     4  11  23  38  61  88 109 139 180 223 283 344
#     4  10  20  35  56  79 109 151 189 225 273 326
#     4   9  17  27  42  72 111 144 176 220 277 329
#
# _framework density 20.857990999999998
#
# number of rings (size 3 to 8) (size 9 to 14) (size 15 to 20)
#    0.000    2.500    1.250    2.250    3.500    3.250 
#    0.000    3.750    0.000    3.000    0.000    5.250 
#    0.000    0.000    0.000    0.000    0.000    0.000 
#
# Total GULP energy -356616.060694 kJ/mol
# GULP energy per Si atom -5572.125948 kJ/mol
# Density = 2.081052 g / cm^3
# Si number density = 20.857991 Si / 1000 Ang^3
#
#
#
# Elastic Constant Matrix: (Units=GPa)
#
#
# Indices 1 2 3 4 5 6 
#
# 1 75.0433 18.2225 15.1014 0.0000 0.0000 0.0000
# 2 18.2225 116.9853 -0.4530 0.0000 0.0000 0.0000
# 3 15.1014 -0.4530 33.4640 0.0000 0.0000 0.0000
# 4 0.0000 0.0000 0.0000 9.1076 0.0000 0.0000
# 5 0.0000 0.0000 0.0000 0.0000 20.2775 0.0000
# 6 0.0000 0.0000 0.0000 0.0000 0.0000 33.1959
#
#
#
# Elastic Compliance Matrix: (Units=1/GPa)
#
#
# Indices 1 2 3 4 5 6 
#
# 1 0.015308 -0.002411 -0.006941 0.000000 0.000000 0.000000
# 2 -0.002411 0.008928 0.001209 0.000000 0.000000 0.000000
# 3 -0.006941 0.001209 0.033031 0.000000 0.000000 0.000000
# 4 0.000000 0.000000 0.000000 0.109798 0.000000 0.000000
# 5 0.000000 0.000000 0.000000 0.000000 0.049316 0.000000
# 6 0.000000 0.000000 0.000000 0.000000 0.000000 0.030124
#
#
# Mechanical properties :
#
#
# Convention : Reuss Voigt Hill
#
# Bulk Modulus (GPa) = 24.40116 32.35938 28.38027
# Shear Modulus (GPa) = 18.08632 25.35765 21.72199
#
# Velocity S-wave (km/s) = 2.94788 3.49051 3.23061
# Velocity P-wave (km/s) = 4.82812 5.63850 5.24898
#
# Compressibility (1/GPa) = 0.04098166
#
# Stress axis : x y z
#
# Youngs Moduli (GPa) = 65.32572 112.00250 30.27422
#
# Poissons Ratio (x) = 0.27008 0.21012
# Poissons Ratio (y) = 0.15752 -0.03660
# Poissons Ratio (z) = 0.45341 -0.13541
#
# Static dielectric constant tensor:
#      x y z
#    x 1.809430 0.000000 0.000000 
#    y 0.000000 1.782710 0.000000 
#    z 0.000000 0.000000 1.753990 
# 
# From -- ./inp_files/16888.got.cif
#   From: 2010.05.17/outbox.cif.g08.bks.cpg/sg51_9_cif.got.tgz:16888.got - 2010.06.03 11:52:47.
