data_PCOD9404240
_publ_section_title
;
Structure prediction by ZEFSAII (Michael W. Deem and Ramdas Pophale) SiO2 
 PCOD9404240
Probable space group: P M M A
;
_chemical_formula_sum "Si O2"
_cell_formula_units_Z 48
_cell_length_a 13.267271
_cell_length_b 14.005083
_cell_length_c 13.160038
_cell_angle_alpha 90.000000
_cell_angle_beta 90.000000
_cell_angle_gamma 90.000000
_cell_volume 2445.256548
_symmetry_space_group_name_H-M "P M M A"
_symmetry_group_IT_number 51
_symmetry_cell_setting 'orthorhombic'
loop_
_space_group_symop_operation_xyz
x,y,z
1/2-x,-y,z
1/2+x,-y,-z
-x,y,-z
-x,-y,-z
1/2+x,y,-z
1/2-x,y,z
x,-y,z
loop_
_atom_site_type_symbol
_atom_site_label
_atom_site_fract_x
_atom_site_fract_y
_atom_site_fract_z
Si Si1 0.931951 0.696545 0.144123
Si Si2 0.628224 0.109819 0.226471
Si Si3 0.136452 0.614250 0.068036
Si Si4 0.634528 0.701282 0.564087
Si Si5 0.370948 0.108083 0.539632
Si Si6 0.066339 0.613531 0.644418
O O1 0.892874 0.652516 0.249452
O O2 0.919068 0.809819 0.155296
O O3 0.875834 0.653096 0.046833
O O4 0.047995 0.665153 0.130051
O O5 0.750000 0.118923 0.221967
O O6 0.595929 0.126403 0.344137
O O7 0.603322 0.000000 0.201195
O O8 0.250000 0.632617 0.104371
O O9 0.119198 0.500000 0.068890
O O10 0.750000 0.695246 0.600642
O O11 0.603359 0.810839 0.541358
O O12 0.626572 0.652896 0.452541
O O13 0.548635 0.650715 0.629750
O O14 0.250000 0.112176 0.545742
O O15 0.396473 0.000000 0.510124
O O16 0.066916 0.500000 0.643187
#
# Coordination Sequence:
#
# PCOD9404240 Si02
#       6
#     8   8   8   8   8   8
#     4  11  20  37  60  81 110 142 183 232 281 332
#     4   9  17  31  55  87 117 145 182 227 275 328
#     4  10  22  39  59  84 111 142 184 233 285 338
#     4  10  20  35  51  73 109 148 182 219 265 317
#     4   8  14  28  51  77 105 139 181 225 265 308
#     4  11  23  35  50  77 109 142 184 226 269 321
#
# _framework density 19.629842
#
# number of rings (size 3 to 8) (size 9 to 14) (size 15 to 20)
#    0.000    2.167    1.667    4.500    0.000    2.667 
#    0.000    4.167    0.000    1.500    0.000    0.000 
#    0.000    0.000    0.000    0.000    0.000    0.000 
#
# Total GULP energy -268013.183656 kJ/mol
# GULP energy per Si atom -5583.607993 kJ/mol
# Density = 1.958516 g / cm^3
# Si number density = 19.629842 Si / 1000 Ang^3
#
#
#
# Elastic Constant Matrix: (Units=GPa)
#
#
# Indices 1 2 3 4 5 6 
#
# 1 88.3324 21.5222 -8.5205 0.0000 0.0000 0.0000
# 2 21.5222 145.7227 18.7959 0.0000 0.0000 0.0000
# 3 -8.5205 18.7959 48.8306 0.0000 0.0000 0.0000
# 4 0.0000 0.0000 0.0000 18.1009 0.0000 0.0000
# 5 0.0000 0.0000 0.0000 0.0000 4.8221 0.0000
# 6 0.0000 0.0000 0.0000 0.0000 0.0000 42.4664
#
#
#
# Elastic Compliance Matrix: (Units=1/GPa)
#
#
# Indices 1 2 3 4 5 6 
#
# 1 0.012135 -0.002173 0.002954 0.000000 0.000000 0.000000
# 2 -0.002173 0.007610 -0.003309 0.000000 0.000000 0.000000
# 3 0.002954 -0.003309 0.022268 0.000000 0.000000 0.000000
# 4 0.000000 0.000000 0.000000 0.055246 0.000000 0.000000
# 5 0.000000 0.000000 0.000000 0.000000 0.207378 0.000000
# 6 0.000000 0.000000 0.000000 0.000000 0.000000 0.023548
#
#
# Mechanical properties :
#
#
# Convention : Reuss Voigt Hill
#
# Bulk Modulus (GPa) = 27.05784 38.49787 32.77786
# Shear Modulus (GPa) = 14.46924 29.81707 22.14315
#
# Velocity S-wave (km/s) = 2.71791 3.90162 3.36227
# Velocity P-wave (km/s) = 4.86450 6.32071 5.63980
#
# Compressibility (1/GPa) = 0.03695787
#
# Stress axis : x y z
#
# Youngs Moduli (GPa) = 82.40379 131.40461 44.90758
#
# Poissons Ratio (x) = 0.28559 -0.13266
# Poissons Ratio (y) = 0.17909 0.14858
# Poissons Ratio (z) = -0.24343 0.43475
#
# Static dielectric constant tensor:
#      x y z
#    x 1.724000 0.000000 0.000000 
#    y 0.000000 1.690600 0.000000 
#    z 0.000000 0.000000 1.670890 
# 
# From -- ./inp_files/24037.got.cif
#   From: 2010.05.17/outbox.cif.g08.bks.cpg/sg51_13_cif.got.tgz:24037.got - 2010.06.03 11:52:47.
