data_PCOD9404742
_publ_section_title
;
Structure prediction by ZEFSAII (Michael W. Deem and Ramdas Pophale) SiO2 
 PCOD9404742
Probable space group: P M M A
;
_chemical_formula_sum "Si O2"
_cell_formula_units_Z 40
_cell_length_a 16.406960
_cell_length_b 13.096552
_cell_length_c 9.392027
_cell_angle_alpha 90.000000
_cell_angle_beta 90.000000
_cell_angle_gamma 90.000000
_cell_volume 2018.108090
_symmetry_space_group_name_H-M "P M M A"
_symmetry_group_IT_number 51
_symmetry_cell_setting 'orthorhombic'
loop_
_space_group_symop_operation_xyz
x,y,z
1/2-x,-y,z
1/2+x,-y,-z
-x,y,-z
-x,-y,-z
1/2+x,y,-z
1/2-x,y,z
x,-y,z
loop_
_atom_site_type_symbol
_atom_site_label
_atom_site_fract_x
_atom_site_fract_y
_atom_site_fract_z
Si Si1 0.840612 0.113404 0.748689
Si Si2 0.847821 0.384080 0.827208
Si Si3 0.084893 0.737452 0.432017
Si Si4 0.404187 0.804861 0.983352
Si Si5 0.152904 0.881042 0.679564
O O1 0.750000 0.157518 0.715444
O O2 0.917588 0.172997 0.686220
O O3 0.840636 0.000000 0.692794
O O4 0.852819 0.118838 0.916606
O O5 0.750000 0.380713 0.835846
O O6 0.875308 0.500000 0.852272
O O7 0.873872 0.348824 0.666949
O O8 0.882030 0.305464 0.946059
O O9 0.132002 0.800766 0.553785
O O10 0.000000 0.704604 0.500000
O O11 0.379974 0.828438 0.822814
O O12 0.500000 0.821322 0.000000
O O13 0.250000 0.887563 0.687597
O O14 0.122885 0.000000 0.662090
#
# Coordination Sequence:
#
# PCOD9404742 Si02
#       5
#     8   8   8   8   8
#     4  10  20  36  57  79 111 160 206 233 263 325
#     4  10  22  43  66  81 102 146 197 238 281 340
#     4  11  22  36  56  84 116 146 183 234 285 333
#     4  11  22  36  56  84 116 146 183 234 285 333
#     4  11  22  35  54  83 119 153 182 220 273 331
#
# _framework density 19.820544000000002
#
# number of rings (size 3 to 8) (size 9 to 14) (size 15 to 20)
#    0.000    1.400    0.000    8.400    0.000    8.800 
#    0.000    1.000    0.000    3.600    0.000    0.000 
#    0.000    0.000    0.000    0.000    0.000    0.000 
#
# Total GULP energy -222783.598387 kJ/mol
# GULP energy per Si atom -5569.589960 kJ/mol
# Density = 1.977543 g / cm^3
# Si number density = 19.820544 Si / 1000 Ang^3
#
#
#
# Elastic Constant Matrix: (Units=GPa)
#
#
# Indices 1 2 3 4 5 6 
#
# 1 68.1592 5.6578 14.3150 0.0000 0.0000 0.0000
# 2 5.6578 105.5922 22.5739 0.0000 0.0000 0.0000
# 3 14.3150 22.5739 112.7099 0.0000 0.0000 0.0000
# 4 0.0000 0.0000 0.0000 20.3962 0.0000 0.0000
# 5 0.0000 0.0000 0.0000 0.0000 29.4602 0.0000
# 6 0.0000 0.0000 0.0000 0.0000 0.0000 -3.9287
#
#
#
# Elastic Compliance Matrix: (Units=1/GPa)
#
#
# Indices 1 2 3 4 5 6 
#
# 1 0.015091 -0.000417 -0.001833 0.000000 0.000000 0.000000
# 2 -0.000417 0.009906 -0.001931 0.000000 0.000000 0.000000
# 3 -0.001833 -0.001931 0.009492 0.000000 0.000000 0.000000
# 4 0.000000 0.000000 0.000000 0.049029 0.000000 0.000000
# 5 0.000000 0.000000 0.000000 0.000000 0.033944 0.000000
# 6 0.000000 0.000000 0.000000 0.000000 0.000000 -0.254538
#
#
# Mechanical properties :
#
#
# Convention : Reuss Voigt Hill
#
# Bulk Modulus (GPa) = 38.27491 41.28385 39.77938
# Shear Modulus (GPa) = -41.66481 25.44651 -8.10915
#
# Velocity S-wave (km/s) = -4.58984 3.58697 -2.02489
# Velocity P-wave (km/s) = 2.95571 6.16678 3.82707
#
# Compressibility (1/GPa) = 0.02612678
#
# Stress axis : x y z
#
# Youngs Moduli (GPa) = 66.26406 100.95367 105.35285
#
# Poissons Ratio (x) = 0.04207 0.19314
# Poissons Ratio (y) = 0.02761 0.20344
# Poissons Ratio (z) = 0.12148 0.19494
#
# Static dielectric constant tensor:
#      x y z
#    x 1.706300 0.000000 0.000000 
#    y 0.000000 1.748870 0.000000 
#    z 0.000000 0.000000 1.746910 
# 
# From -- ./inp_files/7946.got.cif
#   From: 2010.05.17/outbox.cif.g08.bks.cpg/sg51_4_cif.got.tgz:7946.got - 2010.06.03 11:52:47.
