data_PCOD9404159
_publ_section_title
;
Structure prediction by ZEFSAII (Michael W. Deem and Ramdas Pophale) SiO2 
 PCOD9404159
Probable space group: P M M A
;
_chemical_formula_sum "Si O2"
_cell_formula_units_Z 48
_cell_length_a 16.586147
_cell_length_b 8.403472
_cell_length_c 18.542358
_cell_angle_alpha 90.000000
_cell_angle_beta 90.000000
_cell_angle_gamma 90.000000
_cell_volume 2584.456515
_symmetry_space_group_name_H-M "P M M A"
_symmetry_group_IT_number 51
_symmetry_cell_setting 'orthorhombic'
loop_
_space_group_symop_operation_xyz
x,y,z
1/2-x,-y,z
1/2+x,-y,-z
-x,y,-z
-x,-y,-z
1/2+x,y,-z
1/2-x,y,z
x,-y,z
loop_
_atom_site_type_symbol
_atom_site_label
_atom_site_fract_x
_atom_site_fract_y
_atom_site_fract_z
Si Si1 0.161700 0.193513 0.331630
Si Si2 0.918491 0.308964 0.279110
Si Si3 0.995153 0.807035 0.582892
Si Si4 0.750000 0.811207 0.046782
Si Si5 0.250000 0.692054 0.789097
Si Si6 0.586832 0.311267 0.970358
Si Si7 0.928573 0.809879 0.810113
O O1 0.250000 0.252139 0.350929
O O2 0.137167 0.235932 0.250226
O O3 0.090490 0.245626 0.384041
O O4 0.162266 0.000000 0.334246
O O5 0.923652 0.500000 0.274463
O O6 0.939058 0.256615 0.360604
O O7 0.830914 0.256025 0.251913
O O8 0.986314 0.236204 0.226292
O O9 0.000000 0.756532 0.500000
O O10 0.999000 0.000000 0.584942
O O11 0.750000 0.747596 0.128457
O O12 0.750000 0.000000 0.048036
O O13 0.832584 0.756699 0.007429
O O14 0.250000 0.500000 0.789430
O O15 0.588395 0.500000 0.982995
O O16 0.586470 0.273761 0.885605
O O17 0.500000 0.249892 0.000000
O O18 0.925876 0.000000 0.820405
#
# Coordination Sequence:
#
# PCOD9404159 Si02
#       7
#     8   8   8   4   4   8   8
#     4   8  15  29  50  75 104 139 175 214 265 322
#     4  10  20  36  58  81 108 149 191 227 281 340
#     4   9  18  34  54  80 113 143 179 227 276 327
#     4  12  26  40  60  88 117 152 197 250 298 342
#     4  10  22  40  58  78 109 148 191 236 280 340
#     4  11  24  41  59  82 116 156 194 237 295 357
#     4  10  20  34  56  82 110 142 186 236 280 333
#
# _framework density 18.572569999999999
#
# number of rings (size 3 to 8) (size 9 to 14) (size 15 to 20)
#    0.000    2.167    0.000    4.250    1.167    7.000 
#    1.500    0.000    0.000    4.500    0.000    0.000 
#    0.000    0.000    0.000    0.000    0.000    0.000 
#
# Total GULP energy -267881.613930 kJ/mol
# GULP energy per Si atom -5580.866957 kJ/mol
# Density = 1.853030 g / cm^3
# Si number density = 18.572570 Si / 1000 Ang^3
#
#
#
# Elastic Constant Matrix: (Units=GPa)
#
#
# Indices 1 2 3 4 5 6 
#
# 1 136.3976 12.5628 73.7491 0.0000 0.0000 0.0000
# 2 12.5628 8.2750 -2.2814 0.0000 0.0000 0.0000
# 3 73.7491 -2.2814 142.7194 0.0000 0.0000 0.0000
# 4 0.0000 0.0000 0.0000 31.1980 0.0000 0.0000
# 5 0.0000 0.0000 0.0000 0.0000 10.9518 0.0000
# 6 0.0000 0.0000 0.0000 0.0000 0.0000 18.1038
#
#
#
# Elastic Compliance Matrix: (Units=1/GPa)
#
#
# Indices 1 2 3 4 5 6 
#
# 1 0.013268 -0.022131 -0.007210 0.000000 0.000000 0.000000
# 2 -0.022131 0.158296 0.013967 0.000000 0.000000 0.000000
# 3 -0.007210 0.013967 0.010956 0.000000 0.000000 0.000000
# 4 0.000000 0.000000 0.000000 0.032053 0.000000 0.000000
# 5 0.000000 0.000000 0.000000 0.000000 0.091309 0.000000
# 6 0.000000 0.000000 0.000000 0.000000 0.000000 0.055237
#
#
# Mechanical properties :
#
#
# Convention : Reuss Voigt Hill
#
# Bulk Modulus (GPa) = 6.58891 50.60589 28.59740
# Shear Modulus (GPa) = 11.30048 25.60816 18.45432
#
# Velocity S-wave (km/s) = 2.46935 3.71727 3.15561
# Velocity P-wave (km/s) = 3.41843 6.76246 5.35801
#
# Compressibility (1/GPa) = 0.15177026
#
# Stress axis : x y z
#
# Youngs Moduli (GPa) = 75.36729 6.31729 91.27602
#
# Poissons Ratio (x) = 0.13981 0.65811
# Poissons Ratio (y) = 1.66799 -1.27482
# Poissons Ratio (z) = 0.54341 -0.08823
#
# Static dielectric constant tensor:
#      x y z
#    x 1.649400 0.000000 0.000000 
#    y 0.000000 1.640760 0.000000 
#    z 0.000000 0.000000 1.608780 
# 
# From -- ./inp_files/29565.got.cif
#   From: 2010.05.17/outbox.cif.g08.bks.cpg/sg51_15_cif.got.tgz:29565.got - 2010.06.03 11:52:47.
