data_PCOD9404165
_publ_section_title
;
Structure prediction by ZEFSAII (Michael W. Deem and Ramdas Pophale) SiO2 
 PCOD9404165
Probable space group: P M M A
;
_chemical_formula_sum "Si O2"
_cell_formula_units_Z 48
_cell_length_a 15.153742
_cell_length_b 7.831096
_cell_length_c 20.221168
_cell_angle_alpha 90.000000
_cell_angle_beta 90.000000
_cell_angle_gamma 90.000000
_cell_volume 2399.654264
_symmetry_space_group_name_H-M "P M M A"
_symmetry_group_IT_number 51
_symmetry_cell_setting 'orthorhombic'
loop_
_space_group_symop_operation_xyz
x,y,z
1/2-x,-y,z
1/2+x,-y,-z
-x,y,-z
-x,-y,-z
1/2+x,y,-z
1/2-x,y,z
x,-y,z
loop_
_atom_site_type_symbol
_atom_site_label
_atom_site_fract_x
_atom_site_fract_y
_atom_site_fract_z
Si Si1 0.850094 0.702777 0.595665
Si Si2 0.750000 0.207351 0.122619
Si Si3 0.442712 0.294397 0.062679
Si Si4 0.021636 0.797407 0.669364
Si Si5 0.750000 0.702810 0.968643
Si Si6 0.565195 0.206175 0.184638
Si Si7 0.648534 0.793502 0.446452
O O1 0.750000 0.770474 0.603594
O O2 0.847329 0.500000 0.603632
O O3 0.921422 0.773010 0.646360
O O4 0.878693 0.741516 0.520332
O O5 0.661124 0.264714 0.159375
O O6 0.750000 0.000000 0.121022
O O7 0.750000 0.270808 0.047488
O O8 0.438645 0.500000 0.056327
O O9 0.342532 0.227465 0.058913
O O10 0.492926 0.253629 0.130061
O O11 0.500000 0.230444 0.000000
O O12 0.042058 0.728396 0.742222
O O13 0.084962 0.728126 0.611298
O O14 0.038926 0.000000 0.672166
O O15 0.750000 0.500000 0.955148
O O16 0.568225 0.000000 0.187197
O O17 0.750000 0.737308 0.436539
O O18 0.647480 0.000000 0.445209
#
# Coordination Sequence:
#
# PCOD9404165 Si02
#       7
#     8   4   8   8   4   8   8
#     4  10  21  37  56  78 106 141 182 227 271 314
#     4  10  20  34  56  84 112 141 170 213 272 323
#     4  10  20  36  58  81 108 142 182 224 265 316
#     4  10  21  36  55  80 110 144 179 217 265 321
#     4  10  20  36  58  82 106 139 182 225 268 315
#     4  10  22  37  55  82 114 143 175 218 268 321
#     4   9  18  33  56  83 109 140 178 219 264 319
#
# _framework density 20.002882
#
# number of rings (size 3 to 8) (size 9 to 14) (size 15 to 20)
#    0.000    2.167    1.667    1.000    1.167    5.333 
#    1.500    0.000    0.000    0.000    0.000    0.000 
#    0.000    0.000    0.000    0.000    0.000    0.000 
#
# Total GULP energy -268023.893929 kJ/mol
# GULP energy per Si atom -5583.831124 kJ/mol
# Density = 1.995735 g / cm^3
# Si number density = 20.002882 Si / 1000 Ang^3
#
#
#
# Elastic Constant Matrix: (Units=GPa)
#
#
# Indices 1 2 3 4 5 6 
#
# 1 161.6301 -2.9265 85.2059 0.0000 0.0000 0.0000
# 2 -2.9265 17.2102 -15.4091 0.0000 0.0000 0.0000
# 3 85.2059 -15.4091 109.7043 0.0000 0.0000 0.0000
# 4 0.0000 0.0000 0.0000 51.8479 0.0000 0.0000
# 5 0.0000 0.0000 0.0000 0.0000 11.8645 0.0000
# 6 0.0000 0.0000 0.0000 0.0000 0.0000 6.4272
#
#
#
# Elastic Compliance Matrix: (Units=1/GPa)
#
#
# Indices 1 2 3 4 5 6 
#
# 1 0.011109 -0.006676 -0.009566 0.000000 0.000000 0.000000
# 2 -0.006676 0.070475 0.015084 0.000000 0.000000 0.000000
# 3 -0.009566 0.015084 0.018664 0.000000 0.000000 0.000000
# 4 0.000000 0.000000 0.000000 0.019287 0.000000 0.000000
# 5 0.000000 0.000000 0.000000 0.000000 0.084285 0.000000
# 6 0.000000 0.000000 0.000000 0.000000 0.000000 0.155588
#
#
# Mechanical properties :
#
#
# Convention : Reuss Voigt Hill
#
# Bulk Modulus (GPa) = 10.21109 46.92056 28.56583
# Shear Modulus (GPa) = 12.67853 28.80622 20.74237
#
# Velocity S-wave (km/s) = 2.52034 3.79899 3.22369
# Velocity P-wave (km/s) = 3.68583 6.53842 5.30737
#
# Compressibility (1/GPa) = 0.09793272
#
# Stress axis : x y z
#
# Youngs Moduli (GPa) = 90.01841 14.18938 53.57991
#
# Poissons Ratio (x) = 0.09472 0.51253
# Poissons Ratio (y) = 0.60094 -0.80820
# Poissons Ratio (z) = 0.86109 -0.21403
#
# Static dielectric constant tensor:
#      x y z
#    x 1.717460 0.000000 0.000000 
#    y 0.000000 1.725040 0.000000 
#    z 0.000000 0.000000 1.668960 
# 
# From -- ./inp_files/29503.got.cif
#   From: 2010.05.17/outbox.cif.g08.bks.cpg/sg51_15_cif.got.tgz:29503.got - 2010.06.03 11:52:47.
