data_PCOD9404179
_publ_section_title
;
Structure prediction by ZEFSAII (Michael W. Deem and Ramdas Pophale) SiO2 
 PCOD9404179
Probable space group: P M M A
;
_chemical_formula_sum "Si O2"
_cell_formula_units_Z 48
_cell_length_a 21.006667
_cell_length_b 8.697109
_cell_length_c 14.829551
_cell_angle_alpha 90.000000
_cell_angle_beta 90.000000
_cell_angle_gamma 90.000000
_cell_volume 2709.318522
_symmetry_space_group_name_H-M "P M M A"
_symmetry_group_IT_number 51
_symmetry_cell_setting 'orthorhombic'
loop_
_space_group_symop_operation_xyz
x,y,z
1/2-x,-y,z
1/2+x,-y,-z
-x,y,-z
-x,-y,-z
1/2+x,y,-z
1/2-x,y,z
x,-y,z
loop_
_atom_site_type_symbol
_atom_site_label
_atom_site_fract_x
_atom_site_fract_y
_atom_site_fract_z
Si Si1 0.322492 0.314188 0.055691
Si Si2 0.178438 0.185544 0.438525
Si Si3 0.478145 0.315887 0.751642
Si Si4 0.060936 0.814279 0.561363
Si Si5 0.372882 0.314804 0.252125
Si Si6 0.561750 0.184217 0.058567
O O1 0.250000 0.268664 0.034860
O O2 0.326428 0.500000 0.051404
O O3 0.340067 0.268886 0.158296
O O4 0.374914 0.245052 0.989478
O O5 0.250000 0.235470 0.461800
O O6 0.124632 0.235953 0.509328
O O7 0.159934 0.244098 0.339531
O O8 0.177063 0.000000 0.437083
O O9 0.475439 0.500000 0.755373
O O10 0.446790 0.256429 0.659840
O O11 0.552798 0.269659 0.750422
O O12 0.446413 0.247537 0.840872
O O13 0.000000 0.771367 0.500000
O O14 0.061198 0.000000 0.568956
O O15 0.369509 0.500000 0.258777
O O16 0.562495 0.000000 0.060328
O O17 0.500000 0.234489 0.000000
#
# Coordination Sequence:
#
# PCOD9404179 Si02
#       6
#     8   8   8   8   8   8
#     4  10  21  38  59  84 117 154 189 230 286 345
#     4  10  21  36  55  81 113 149 186 227 279 335
#     4  11  22  36  59  87 113 145 190 237 281 333
#     4  10  20  36  57  80 111 148 186 230 279 333
#     4  10  20  34  56  85 117 148 181 230 284 337
#     4  11  23  38  59  85 115 151 192 236 282 335
#
# _framework density 17.716631
#
# number of rings (size 3 to 8) (size 9 to 14) (size 15 to 20)
#    0.000    1.667    3.333    1.500    0.000    4.333 
#    0.000    0.833    0.000    3.000    0.000    0.000 
#    0.000    0.000    0.000    0.000    0.000    0.000 
#
# Total GULP energy -268145.667487 kJ/mol
# GULP energy per Si atom -5586.368073 kJ/mol
# Density = 1.767631 g / cm^3
# Si number density = 17.716631 Si / 1000 Ang^3
#
#
#
# Elastic Constant Matrix: (Units=GPa)
#
#
# Indices 1 2 3 4 5 6 
#
# 1 183.6911 41.0096 102.0597 0.0000 0.0000 0.0000
# 2 41.0096 19.1040 38.1867 0.0000 0.0000 0.0000
# 3 102.0597 38.1867 165.4594 0.0000 0.0000 0.0000
# 4 0.0000 0.0000 0.0000 35.1162 0.0000 0.0000
# 5 0.0000 0.0000 0.0000 0.0000 19.5281 0.0000
# 6 0.0000 0.0000 0.0000 0.0000 0.0000 18.0670
#
#
#
# Elastic Compliance Matrix: (Units=1/GPa)
#
#
# Indices 1 2 3 4 5 6 
#
# 1 0.010973 -0.018612 -0.002473 0.000000 0.000000 0.000000
# 2 -0.018612 0.128744 -0.018232 0.000000 0.000000 0.000000
# 3 -0.002473 -0.018232 0.011777 0.000000 0.000000 0.000000
# 4 0.000000 0.000000 0.000000 0.028477 0.000000 0.000000
# 5 0.000000 0.000000 0.000000 0.000000 0.051208 0.000000
# 6 0.000000 0.000000 0.000000 0.000000 0.000000 0.055349
#
#
# Mechanical properties :
#
#
# Convention : Reuss Voigt Hill
#
# Bulk Modulus (GPa) = 13.72522 81.19628 47.46075
# Shear Modulus (GPa) = 12.83859 27.00884 19.92372
#
# Velocity S-wave (km/s) = 2.69488 3.90871 3.35711
# Velocity P-wave (km/s) = 4.17697 8.14252 6.47100
#
# Compressibility (1/GPa) = 0.07285856
#
# Stress axis : x y z
#
# Youngs Moduli (GPa) = 91.13125 7.76735 84.91085
#
# Poissons Ratio (x) = 0.14457 0.20998
# Poissons Ratio (y) = 1.69618 1.54813
# Poissons Ratio (z) = 0.22536 0.14162
#
# Static dielectric constant tensor:
#      x y z
#    x 1.603850 0.000000 0.000000 
#    y 0.000000 1.599640 0.000000 
#    z 0.000000 0.000000 1.561520 
# 
# From -- ./inp_files/24686.got.cif
#   From: 2010.05.17/outbox.cif.g08.bks.cpg/sg51_13_cif.got.tgz:24686.got - 2010.06.03 11:52:47.
