data_PCOD9404846
_publ_section_title
;
Structure prediction by ZEFSAII (Michael W. Deem and Ramdas Pophale) SiO2 
 PCOD9404846
Probable space group: P M M A
;
_chemical_formula_sum "Si O2"
_cell_formula_units_Z 48
_cell_length_a 31.588132
_cell_length_b 7.650804
_cell_length_c 9.347693
_cell_angle_alpha 90.000000
_cell_angle_beta 90.000000
_cell_angle_gamma 90.000000
_cell_volume 2259.100029
_symmetry_space_group_name_H-M "P M M A"
_symmetry_group_IT_number 51
_symmetry_cell_setting 'orthorhombic'
loop_
_space_group_symop_operation_xyz
x,y,z
1/2-x,-y,z
1/2+x,-y,-z
-x,y,-z
-x,-y,-z
1/2+x,y,-z
1/2-x,y,z
x,-y,z
loop_
_atom_site_type_symbol
_atom_site_label
_atom_site_fract_x
_atom_site_fract_y
_atom_site_fract_z
Si Si1 0.456419 0.713445 0.578360
Si Si2 0.297853 0.211321 0.559523
Si Si3 0.202591 0.786865 0.889902
Si Si4 0.879735 0.703974 0.619095
Si Si5 0.879461 0.202142 0.945336
Si Si6 0.036421 0.298108 0.900329
O O1 0.500000 0.760063 0.500000
O O2 0.453716 0.500000 0.581364
O O3 0.416026 0.774247 0.487135
O O4 0.457323 0.777298 0.741857
O O5 0.250000 0.266274 0.520654
O O6 0.305475 0.263641 0.724804
O O7 0.334544 0.277624 0.457378
O O8 0.298762 0.000000 0.555211
O O9 0.250000 0.728267 0.929928
O O10 0.203414 0.000000 0.893747
O O11 0.164706 0.727685 0.991269
O O12 0.888776 0.500000 0.643768
O O13 0.879922 0.788592 0.774656
O O14 0.882849 0.000000 0.989785
O O15 0.919795 0.294031 0.014274
O O16 0.023381 0.500000 0.875728
O O17 0.000000 0.216886 0.000000
#
# Coordination Sequence:
#
# PCOD9404846 Si02
#       6
#     8   8   8   8   8   8
#     4   9  18  34  56  80 105 137 177 218 266 325
#     4   9  18  35  58  80 104 137 176 218 267 321
#     4   8  16  33  56  79 103 136 178 220 264 316
#     4  11  22  35  53  78 110 144 179 220 264 316
#     4  11  22  35  54  80 110 143 182 226 269 317
#     4  10  20  36  59  82 106 139 178 221 272 328
#
# _framework density 21.247401
#
# number of rings (size 3 to 8) (size 9 to 14) (size 15 to 20)
#    0.000    2.333    0.000    4.000    0.000    4.000 
#    0.000    3.333    0.000    7.000    0.000    0.000 
#    0.000    0.000    0.000    0.000    0.000    0.000 
#
# Total GULP energy -268117.492284 kJ/mol
# GULP energy per Si atom -5585.781089 kJ/mol
# Density = 2.119904 g / cm^3
# Si number density = 21.247401 Si / 1000 Ang^3
#
#
#
# Elastic Constant Matrix: (Units=GPa)
#
#
# Indices 1 2 3 4 5 6 
#
# 1 148.9936 -11.1428 98.4862 0.0000 0.0000 0.0000
# 2 -11.1428 39.5355 -9.3274 0.0000 0.0000 0.0000
# 3 98.4862 -9.3274 153.4036 0.0000 0.0000 0.0000
# 4 0.0000 0.0000 0.0000 13.2105 0.0000 0.0000
# 5 0.0000 0.0000 0.0000 0.0000 41.0525 0.0000
# 6 0.0000 0.0000 0.0000 0.0000 0.0000 16.0009
#
#
#
# Elastic Compliance Matrix: (Units=1/GPa)
#
#
# Indices 1 2 3 4 5 6 
#
# 1 0.011753 0.001555 -0.007451 0.000000 0.000000 0.000000
# 2 0.001555 0.025867 0.000575 0.000000 0.000000 0.000000
# 3 -0.007451 0.000575 0.011337 0.000000 0.000000 0.000000
# 4 0.000000 0.000000 0.000000 0.075697 0.000000 0.000000
# 5 0.000000 0.000000 0.000000 0.000000 0.024359 0.000000
# 6 0.000000 0.000000 0.000000 0.000000 0.000000 0.062496
#
#
# Mechanical properties :
#
#
# Convention : Reuss Voigt Hill
#
# Bulk Modulus (GPa) = 26.09976 55.32944 40.71460
# Shear Modulus (GPa) = 21.28331 31.64722 26.46526
#
# Velocity S-wave (km/s) = 3.16838 3.86354 3.53310
# Velocity P-wave (km/s) = 5.06905 6.78231 5.98728
#
# Compressibility (1/GPa) = 0.03831453
#
# Stress axis : x y z
#
# Youngs Moduli (GPa) = 85.08287 38.65862 88.20373
#
# Poissons Ratio (x) = -0.06010 0.65722
# Poissons Ratio (y) = -0.13227 -0.05069
# Poissons Ratio (z) = 0.63396 -0.02222
#
# Static dielectric constant tensor:
#      x y z
#    x 1.737800 0.000000 0.000000 
#    y 0.000000 1.813600 0.000000 
#    z 0.000000 0.000000 1.725860 
# 
# From -- ./inp_files/12761.got.cif
#   From: 2010.05.17/outbox.cif.g08.bks.cpg/sg51_7_cif.got.tgz:12761.got - 2010.06.03 11:52:47.
