data_PCOD9404314
_publ_section_title
;
Structure prediction by ZEFSAII (Michael W. Deem and Ramdas Pophale) SiO2 
 PCOD9404314
Probable space group: P M M A
;
_chemical_formula_sum "Si O2"
_cell_formula_units_Z 44
_cell_length_a 8.687213
_cell_length_b 13.876273
_cell_length_c 19.525753
_cell_angle_alpha 90.000000
_cell_angle_beta 90.000000
_cell_angle_gamma 90.000000
_cell_volume 2353.754139
_symmetry_space_group_name_H-M "P M M A"
_symmetry_group_IT_number 51
_symmetry_cell_setting 'orthorhombic'
loop_
_space_group_symop_operation_xyz
x,y,z
1/2-x,-y,z
1/2+x,-y,-z
-x,y,-z
-x,-y,-z
1/2+x,y,-z
1/2-x,y,z
x,-y,z
loop_
_atom_site_type_symbol
_atom_site_label
_atom_site_fract_x
_atom_site_fract_y
_atom_site_fract_z
Si Si1 0.928312 0.613044 0.287357
Si Si2 0.565779 0.709248 0.425757
Si Si3 0.563890 0.891768 0.813194
Si Si4 0.931074 0.685867 0.846974
Si Si5 0.933009 0.500000 0.076124
Si Si6 0.064449 0.107437 0.659348
O O1 0.750000 0.646418 0.277865
O O2 0.932294 0.500000 0.273571
O O3 0.971845 0.634028 0.365552
O O4 0.036161 0.664666 0.232978
O O5 0.500000 0.689015 0.500000
O O6 0.750000 0.711910 0.432105
O O7 0.512666 0.811155 0.393567
O O8 0.750000 0.889638 0.811130
O O9 0.515261 0.797105 0.856352
O O10 0.502650 0.880521 0.735540
O O11 0.517065 0.000000 0.836566
O O12 0.750000 0.680237 0.861948
O O13 0.012188 0.598397 0.886687
O O14 0.750000 0.500000 0.075267
O O15 0.000000 0.500000 0.000000
O O16 0.250000 0.113936 0.664924
O O17 0.023680 0.000000 0.635681
#
# Coordination Sequence:
#
# PCOD9404314 Si02
#       6
#     8   8   8   8   4   8
#     4  10  20  35  54  76 104 142 186 234 289 347
#     4  10  21  34  47  67  98 138 187 238 295 350
#     4   9  18  32  53  84 119 152 188 234 284 334
#     4  11  21  35  60  92 122 153 193 234 278 335
#     4  12  26  44  66  94 129 160 189 228 276 328
#     4   9  17  30  48  70  98 134 181 236 289 344
#
# _framework density 18.693541
#
# number of rings (size 3 to 8) (size 9 to 14) (size 15 to 20)
#    0.000    2.000    2.727    1.364    0.000    2.909 
#    0.000    0.000    0.000    0.545    0.000    0.000 
#    0.000    0.000    0.000    0.000    0.000    0.000 
#
# Total GULP energy -245324.794054 kJ/mol
# GULP energy per Si atom -5575.563501 kJ/mol
# Density = 1.865099 g / cm^3
# Si number density = 18.693541 Si / 1000 Ang^3
#
#
#
# Elastic Constant Matrix: (Units=GPa)
#
#
# Indices 1 2 3 4 5 6 
#
# 1 33.9039 29.0924 21.1171 0.0000 0.0000 0.0000
# 2 29.0924 108.0177 46.7396 0.0000 0.0000 0.0000
# 3 21.1171 46.7396 63.9088 0.0000 0.0000 0.0000
# 4 0.0000 0.0000 0.0000 16.3790 0.0000 0.0000
# 5 0.0000 0.0000 0.0000 0.0000 28.9024 0.0000
# 6 0.0000 0.0000 0.0000 0.0000 0.0000 13.8744
#
#
#
# Elastic Compliance Matrix: (Units=1/GPa)
#
#
# Indices 1 2 3 4 5 6 
#
# 1 0.040978 -0.007575 -0.008000 0.000000 0.000000 0.000000
# 2 -0.007575 0.014944 -0.008426 0.000000 0.000000 0.000000
# 3 -0.008000 -0.008426 0.024453 0.000000 0.000000 0.000000
# 4 0.000000 0.000000 0.000000 0.061054 0.000000 0.000000
# 5 0.000000 0.000000 0.000000 0.000000 0.034599 0.000000
# 6 0.000000 0.000000 0.000000 0.000000 0.000000 0.072075
#
#
# Mechanical properties :
#
#
# Convention : Reuss Voigt Hill
#
# Bulk Modulus (GPa) = 30.89053 44.41430 37.65242
# Shear Modulus (GPa) = 16.29210 19.08992 17.69101
#
# Velocity S-wave (km/s) = 2.95538 3.19909 3.07965
# Velocity P-wave (km/s) = 5.31096 6.12016 5.72986
#
# Compressibility (1/GPa) = 0.03237238
#
# Stress axis : x y z
#
# Youngs Moduli (GPa) = 24.40330 66.91661 40.89406
#
# Poissons Ratio (x) = 0.50688 0.32717
# Poissons Ratio (y) = 0.18485 0.34459
# Poissons Ratio (z) = 0.19524 0.56386
#
# Static dielectric constant tensor:
#      x y z
#    x 1.641300 0.000000 0.000000 
#    y 0.000000 1.707680 0.000000 
#    z 0.000000 0.000000 1.612730 
# 
# From -- ./inp_files/27405.got.cif
#   From: 2010.05.17/outbox.cif.g08.bks.cpg/sg51_14_cif.got.tgz:27405.got - 2010.06.03 11:52:47.
