data_PCOD9404294
_publ_section_title
;
Structure prediction by ZEFSAII (Michael W. Deem and Ramdas Pophale) SiO2 
 PCOD9404294
Probable space group: P M M A
;
_chemical_formula_sum "Si O2"
_cell_formula_units_Z 52
_cell_length_a 8.892611
_cell_length_b 22.215100
_cell_length_c 15.206378
_cell_angle_alpha 90.000000
_cell_angle_beta 90.000000
_cell_angle_gamma 90.000000
_cell_volume 3004.023663
_symmetry_space_group_name_H-M "P M M A"
_symmetry_group_IT_number 51
_symmetry_cell_setting 'orthorhombic'
loop_
_space_group_symop_operation_xyz
x,y,z
1/2-x,-y,z
1/2+x,-y,-z
-x,y,-z
-x,-y,-z
1/2+x,y,-z
1/2-x,y,z
x,-y,z
loop_
_atom_site_type_symbol
_atom_site_label
_atom_site_fract_x
_atom_site_fract_y
_atom_site_fract_z
Si Si1 0.569899 0.431954 0.646536
Si Si2 0.074059 0.323742 0.083006
Si Si3 0.930778 0.866865 0.098514
Si Si4 0.430806 0.000000 0.903255
Si Si5 0.929336 0.304823 0.409555
Si Si6 0.077482 0.568128 0.837535
Si Si7 0.569902 0.243548 0.225841
O O1 0.750000 0.427480 0.638972
O O2 0.525563 0.500000 0.614411
O O3 0.495180 0.372368 0.605750
O O4 0.518277 0.429969 0.748154
O O5 0.250000 0.328227 0.071372
O O6 0.994978 0.387646 0.093526
O O7 0.027812 0.290705 0.171446
O O8 0.000000 0.290896 0.000000
O O9 0.750000 0.864867 0.086513
O O10 0.966687 0.818979 0.175572
O O11 0.974812 0.934103 0.131948
O O12 0.000000 0.856979 0.000000
O O13 0.250000 0.000000 0.906751
O O14 0.500000 0.000000 0.000000
O O15 0.750000 0.310317 0.416995
O O16 0.960887 0.259761 0.327647
O O17 0.000000 0.281797 0.500000
O O18 0.250000 0.585963 0.817553
O O19 0.078154 0.500000 0.869627
O O20 0.750000 0.253454 0.213267
#
# Coordination Sequence:
#
# PCOD9404294 Si02
#       7
#     8   8   8   4   8   8   8
#     4  10  20  35  56  80 103 128 163 209 265 327
#     4  12  24  36  53  74 101 135 173 214 256 308
#     4   9  17  30  50  78 111 145 179 211 251 298
#     4   8  14  26  46  74 109 144 176 212 247 292
#     4  11  23  38  57  77 102 133 171 219 270 323
#     4  10  20  35  54  74  98 129 166 209 258 309
#     4  10  21  37  54  75 104 137 173 215 260 310
#
# _framework density 17.310116000000001
#
# number of rings (size 3 to 8) (size 9 to 14) (size 15 to 20)
#    0.000    1.846    1.538    3.231    0.000    4.923 
#    0.000    0.000    0.000    0.000    0.000    0.538 
#    0.000    0.000    0.000    0.000    0.000    0.000 
#
# Total GULP energy -289767.184844 kJ/mol
# GULP energy per Si atom -5572.445862 kJ/mol
# Density = 1.727072 g / cm^3
# Si number density = 17.310116 Si / 1000 Ang^3
#
#
#
# Elastic Constant Matrix: (Units=GPa)
#
#
# Indices 1 2 3 4 5 6 
#
# 1 43.0975 29.7412 25.8888 0.0000 0.0000 0.0000
# 2 29.7412 112.9208 48.8445 0.0000 0.0000 0.0000
# 3 25.8888 48.8445 88.7110 0.0000 0.0000 0.0000
# 4 0.0000 0.0000 0.0000 14.9910 0.0000 0.0000
# 5 0.0000 0.0000 0.0000 0.0000 25.5138 0.0000
# 6 0.0000 0.0000 0.0000 0.0000 0.0000 13.3255
#
#
#
# Elastic Compliance Matrix: (Units=1/GPa)
#
#
# Indices 1 2 3 4 5 6 
#
# 1 0.030530 -0.005496 -0.005884 0.000000 0.000000 0.000000
# 2 -0.005496 0.012614 -0.005341 0.000000 0.000000 0.000000
# 3 -0.005884 -0.005341 0.015930 0.000000 0.000000 0.000000
# 4 0.000000 0.000000 0.000000 0.066707 0.000000 0.000000
# 5 0.000000 0.000000 0.000000 0.000000 0.039194 0.000000
# 6 0.000000 0.000000 0.000000 0.000000 0.000000 0.075044
#
#
# Mechanical properties :
#
#
# Convention : Reuss Voigt Hill
#
# Bulk Modulus (GPa) = 39.01271 50.40872 44.71071
# Shear Modulus (GPa) = 17.73014 20.11638 18.92326
#
# Velocity S-wave (km/s) = 3.20389 3.41268 3.30993
# Velocity P-wave (km/s) = 6.02270 6.68676 6.36340
#
# Compressibility (1/GPa) = 0.02563267
#
# Stress axis : x y z
#
# Youngs Moduli (GPa) = 32.75435 79.27880 62.77286
#
# Poissons Ratio (x) = 0.43573 0.36933
# Poissons Ratio (y) = 0.18002 0.33528
# Poissons Ratio (z) = 0.19271 0.42344
#
# Static dielectric constant tensor:
#      x y z
#    x 1.579070 0.000000 0.000000 
#    y 0.000000 1.669740 0.000000 
#    z 0.000000 0.000000 1.587760 
# 
# From -- ./inp_files/22019.got.cif
#   From: 2010.05.17/outbox.cif.g08.bks.cpg/sg51_12_cif.got.tgz:22019.got - 2010.06.03 11:52:47.
