data_PCOD9404635
_publ_section_title
;
Structure prediction by ZEFSAII (Michael W. Deem and Ramdas Pophale) SiO2 
 PCOD9404635
Probable space group: P M M A
;
_chemical_formula_sum "Si O2"
_cell_formula_units_Z 48
_cell_length_a 7.902187
_cell_length_b 9.040961
_cell_length_c 35.345444
_cell_angle_alpha 90.000000
_cell_angle_beta 90.000000
_cell_angle_gamma 90.000000
_cell_volume 2525.197438
_symmetry_space_group_name_H-M "P M M A"
_symmetry_group_IT_number 51
_symmetry_cell_setting 'orthorhombic'
loop_
_space_group_symop_operation_xyz
x,y,z
1/2-x,-y,z
1/2+x,-y,-z
-x,y,-z
-x,-y,-z
1/2+x,y,-z
1/2-x,y,z
x,-y,z
loop_
_atom_site_type_symbol
_atom_site_label
_atom_site_fract_x
_atom_site_fract_y
_atom_site_fract_z
Si Si1 0.250000 0.679265 0.754466
Si Si2 0.952864 0.333544 0.616162
Si Si3 0.452390 0.172853 0.957288
Si Si4 0.951042 0.166837 0.459698
Si Si5 0.750000 0.177036 0.163194
Si Si6 0.945161 0.319734 0.698945
Si Si7 0.057358 0.675749 0.118046
O O1 0.250000 0.500000 0.759444
O O2 0.250000 0.759024 0.794540
O O3 0.417641 0.719698 0.730432
O O4 0.750000 0.342590 0.618855
O O5 0.022256 0.500000 0.612809
O O6 0.004087 0.269126 0.657031
O O7 0.994508 0.246898 0.578347
O O8 0.250000 0.182269 0.952843
O O9 0.537359 0.271337 0.925241
O O10 0.501969 0.000000 0.952292
O O11 0.500000 0.215630 0.000000
O O12 0.750000 0.158604 0.459152
O O13 0.000000 0.237677 0.500000
O O14 0.023657 0.000000 0.459531
O O15 0.584107 0.238410 0.141779
O O16 0.750000 0.000000 0.162464
O O17 0.750000 0.272964 0.706250
O O18 0.942377 0.500000 0.696913
O O19 0.250000 0.706142 0.130679
O O20 0.027559 0.500000 0.120854
#
# Coordination Sequence:
#
# PCOD9404635 Si02
#       7
#     4   8   8   8   4   8   8
#     4  10  20  36  62  88 114 152 194 238 294 354
#     4   9  18  33  54  80 108 138 176 224 276 328
#     4  10  20  35  58  90 128 170 210 252 305 367
#     4  10  21  35  50  70  99 139 184 226 271 328
#     4  12  26  44  64  90 126 166 204 254 314 372
#     4   8  16  32  55  85 116 144 181 230 283 343
#     4  11  24  42  65  92 123 163 211 262 312 364
#
# _framework density 19.008413000000001
#
# number of rings (size 3 to 8) (size 9 to 14) (size 15 to 20)
#    0.000    2.167    0.833    3.250    1.167    4.667 
#    0.000    2.500    0.000    1.000    0.000    0.000 
#    0.000    0.000    0.000    0.000    0.000    0.000 
#
# Total GULP energy -267850.301241 kJ/mol
# GULP energy per Si atom -5580.214609 kJ/mol
# Density = 1.896515 g / cm^3
# Si number density = 19.008413 Si / 1000 Ang^3
#
#
#
# Elastic Constant Matrix: (Units=GPa)
#
#
# Indices 1 2 3 4 5 6 
#
# 1 99.8468 47.2848 72.7718 0.0000 0.0000 0.0000
# 2 47.2848 65.0945 64.3488 0.0000 0.0000 0.0000
# 3 72.7718 64.3488 167.7811 0.0000 0.0000 0.0000
# 4 0.0000 0.0000 0.0000 49.0940 0.0000 0.0000
# 5 0.0000 0.0000 0.0000 0.0000 31.6579 0.0000
# 6 0.0000 0.0000 0.0000 0.0000 0.0000 3.9670
#
#
#
# Elastic Compliance Matrix: (Units=1/GPa)
#
#
# Indices 1 2 3 4 5 6 
#
# 1 0.016951 -0.008126 -0.004235 0.000000 0.000000 0.000000
# 2 -0.008126 0.028639 -0.007459 0.000000 0.000000 0.000000
# 3 -0.004235 -0.007459 0.010658 0.000000 0.000000 0.000000
# 4 0.000000 0.000000 0.000000 0.020369 0.000000 0.000000
# 5 0.000000 0.000000 0.000000 0.000000 0.031588 0.000000
# 6 0.000000 0.000000 0.000000 0.000000 0.000000 0.252081
#
#
# Mechanical properties :
#
#
# Convention : Reuss Voigt Hill
#
# Bulk Modulus (GPa) = 60.21931 77.94814 69.08372
# Shear Modulus (GPa) = 12.33162 26.83157 19.58160
#
# Velocity S-wave (km/s) = 2.54981 3.76115 3.21308
# Velocity P-wave (km/s) = 6.35750 7.74325 7.08434
#
# Compressibility (1/GPa) = 0.01660597
#
# Stress axis : x y z
#
# Youngs Moduli (GPa) = 58.99527 34.91757 93.82598
#
# Poissons Ratio (x) = 0.28374 0.39739
# Poissons Ratio (y) = 0.47940 0.69988
# Poissons Ratio (z) = 0.24987 0.26046
#
# Static dielectric constant tensor:
#      x y z
#    x 1.671220 0.000000 0.000000 
#    y 0.000000 1.662140 0.000000 
#    z 0.000000 0.000000 1.666450 
# 
# From -- ./inp_files/37096.got.cif
#   From: 2010.05.17/outbox.cif.g08.bks.cpg/sg51_19_cif.got.tgz:37096.got - 2010.06.03 11:52:47.
