data_PCOD9404236
_publ_section_title
;
Structure prediction by ZEFSAII (Michael W. Deem and Ramdas Pophale) SiO2 
 PCOD9404236
Probable space group: P M M A
;
_chemical_formula_sum "Si O2"
_cell_formula_units_Z 64
_cell_length_a 14.131747
_cell_length_b 19.925344
_cell_length_c 12.082273
_cell_angle_alpha 90.000000
_cell_angle_beta 90.000000
_cell_angle_gamma 90.000000
_cell_volume 3402.125468
_symmetry_space_group_name_H-M "P M M A"
_symmetry_group_IT_number 51
_symmetry_cell_setting 'orthorhombic'
loop_
_space_group_symop_operation_xyz
x,y,z
1/2-x,-y,z
1/2+x,-y,-z
-x,y,-z
-x,-y,-z
1/2+x,y,-z
1/2-x,y,z
x,-y,z
loop_
_atom_site_type_symbol
_atom_site_label
_atom_site_fract_x
_atom_site_fract_y
_atom_site_fract_z
Si Si1 0.979874 0.239509 0.629980
Si Si2 0.362582 0.160570 0.217680
Si Si3 0.635943 0.206846 0.191607
Si Si4 0.139530 0.273113 0.035446
Si Si5 0.144811 0.577916 0.551859
Si Si6 0.023523 0.924356 0.870449
Si Si7 0.542369 0.387154 0.670249
Si Si8 0.587022 0.573757 0.915363
O O1 0.075598 0.227146 0.700418
O O2 0.000000 0.243124 0.500000
O O3 0.903342 0.184243 0.664712
O O4 0.934140 0.309104 0.670722
O O5 0.250000 0.152069 0.215270
O O6 0.392232 0.219607 0.129062
O O7 0.424515 0.096430 0.185949
O O8 0.750000 0.210952 0.206082
O O9 0.601278 0.131780 0.160119
O O10 0.603774 0.253967 0.087441
O O11 0.250000 0.258954 0.028654
O O12 0.130247 0.352285 0.061458
O O13 0.250000 0.606855 0.560270
O O14 0.148129 0.500000 0.583376
O O15 0.106107 0.581369 0.426600
O O16 0.065967 0.610303 0.629071
O O17 0.052650 0.000000 0.841856
O O18 0.000000 0.921015 0.000000
O O19 0.555656 0.421230 0.787610
O O20 0.636122 0.500000 0.928798
O O21 0.500000 0.571693 0.000000
#
# Coordination Sequence:
#
# PCOD9404236 Si02
#       8
#     8   8   8   8   8   8   8   8
#     4  11  22  37  58  87 114 153 202 254 300 350
#     4  10  21  37  59  86 122 161 193 237 293 353
#     4  10  22  39  61  89 124 163 196 237 296 358
#     4  10  20  36  58  83 112 153 196 235 291 356
#     4  10  21  36  56  79 105 142 186 238 306 371
#     4  10  20  34  60  97 130 160 191 233 289 350
#     4  11  20  38  58  79 111 146 188 249 308 355
#     4  11  23  36  55  80 111 154 197 241 291 351
#
# _framework density 18.811769000000002
#
# number of rings (size 3 to 8) (size 9 to 14) (size 15 to 20)
#    0.000    1.625    3.750    2.250    1.750    2.750 
#    0.000    1.875    0.000    6.750    0.000    7.000 
#    0.000    0.000    0.000    0.000    0.000    0.000 
#
# Total GULP energy -356718.613444 kJ/mol
# GULP energy per Si atom -5573.728335 kJ/mol
# Density = 1.876895 g / cm^3
# Si number density = 18.811769 Si / 1000 Ang^3
#
#
#
# Elastic Constant Matrix: (Units=GPa)
#
#
# Indices 1 2 3 4 5 6 
#
# 1 63.2132 -14.1427 3.6305 0.0000 0.0000 0.0000
# 2 -14.1427 83.9332 20.8074 0.0000 0.0000 0.0000
# 3 3.6305 20.8074 79.8680 0.0000 0.0000 0.0000
# 4 0.0000 0.0000 0.0000 11.2950 0.0000 0.0000
# 5 0.0000 0.0000 0.0000 0.0000 8.7222 0.0000
# 6 0.0000 0.0000 0.0000 0.0000 0.0000 11.0118
#
#
#
# Elastic Compliance Matrix: (Units=1/GPa)
#
#
# Indices 1 2 3 4 5 6 
#
# 1 0.016626 0.003195 -0.001588 0.000000 0.000000 0.000000
# 2 0.003195 0.013351 -0.003623 0.000000 0.000000 0.000000
# 3 -0.001588 -0.003623 0.013537 0.000000 0.000000 0.000000
# 4 0.000000 0.000000 0.000000 0.088535 0.000000 0.000000
# 5 0.000000 0.000000 0.000000 0.000000 0.114650 0.000000
# 6 0.000000 0.000000 0.000000 0.000000 0.000000 0.090812
#
#
# Mechanical properties :
#
#
# Convention : Reuss Voigt Hill
#
# Bulk Modulus (GPa) = 25.32910 27.51165 26.42037
# Shear Modulus (GPa) = 14.09630 20.65374 17.37502
#
# Velocity S-wave (km/s) = 2.74037 3.31708 3.04242
# Velocity P-wave (km/s) = 4.84835 5.41545 5.13973
#
# Compressibility (1/GPa) = 0.03948029
#
# Stress axis : x y z
#
# Youngs Moduli (GPa) = 60.14850 74.90154 73.87253
#
# Poissons Ratio (x) = -0.23932 0.11732
# Poissons Ratio (y) = -0.19218 0.26767
# Poissons Ratio (z) = 0.09552 0.27140
#
# Static dielectric constant tensor:
#      x y z
#    x 1.665600 0.000000 0.000000 
#    y 0.000000 1.674270 0.000000 
#    z 0.000000 0.000000 1.658670 
# 
# From -- ./inp_files/16823.got.cif
#   From: 2010.05.17/outbox.cif.g08.bks.cpg/sg51_9_cif.got.tgz:16823.got - 2010.06.03 11:52:47.
