data_PCOD9404763
_publ_section_title
;
Structure prediction by ZEFSAII (Michael W. Deem and Ramdas Pophale) SiO2 
 PCOD9404763
Probable space group: P M M A
;
_chemical_formula_sum "Si O2"
_cell_formula_units_Z 64
_cell_length_a 31.114113
_cell_length_b 8.946665
_cell_length_c 12.278649
_cell_angle_alpha 90.000000
_cell_angle_beta 90.000000
_cell_angle_gamma 90.000000
_cell_volume 3417.977388
_symmetry_space_group_name_H-M "P M M A"
_symmetry_group_IT_number 51
_symmetry_cell_setting 'orthorhombic'
loop_
_space_group_symop_operation_xyz
x,y,z
1/2-x,-y,z
1/2+x,-y,-z
-x,y,-z
-x,-y,-z
1/2+x,y,-z
1/2-x,y,z
x,-y,z
loop_
_atom_site_type_symbol
_atom_site_label
_atom_site_fract_x
_atom_site_fract_y
_atom_site_fract_z
Si Si1 0.385222 0.826274 0.858451
Si Si2 0.550605 0.179049 0.511081
Si Si3 0.300171 0.179380 0.489554
Si Si4 0.512222 0.174014 0.123582
Si Si5 0.375277 0.322302 0.631063
Si Si6 0.058637 0.322539 0.258540
Si Si7 0.867185 0.323477 0.913898
Si Si8 0.198881 0.827727 0.235968
O O1 0.436985 0.815971 0.862705
O O2 0.370318 0.732868 0.754671
O O3 0.373459 0.000000 0.845262
O O4 0.368805 0.763507 0.972926
O O5 0.500000 0.219253 0.500000
O O6 0.581528 0.250721 0.420755
O O7 0.565967 0.236621 0.628960
O O8 0.553935 0.000000 0.504034
O O9 0.250000 0.217768 0.510825
O O10 0.334506 0.263599 0.562812
O O11 0.309476 0.210583 0.362245
O O12 0.304396 0.000000 0.504399
O O13 0.487104 0.274593 0.209307
O O14 0.499203 0.000000 0.139468
O O15 0.500000 0.216658 0.000000
O O16 0.378305 0.500000 0.625070
O O17 0.061002 0.500000 0.277456
O O18 0.093073 0.281522 0.165318
O O19 0.869865 0.500000 0.934571
O O20 0.825415 0.279925 0.845473
O O21 0.250000 0.822350 0.220866
O O22 0.184795 0.000000 0.218128
#
# Coordination Sequence:
#
# PCOD9404763 Si02
#       8
#     8   8   8   8   8   8   8   8
#     4  11  23  40  61  82 112 156 202 244 287 342
#     4  11  24  41  60  83 115 158 206 250 293 349
#     4   9  19  39  67  95 121 154 199 245 291 353
#     4  10  20  36  57  82 110 149 200 244 286 340
#     4  12  25  40  60  88 124 159 196 247 307 363
#     4  11  23  36  56  86 118 150 187 238 297 347
#     4  11  23  37  55  85 119 149 186 231 285 342
#     4   9  19  37  62  90 117 147 185 231 283 340
#
# _framework density 18.724523999999999
#
# number of rings (size 3 to 8) (size 9 to 14) (size 15 to 20)
#    0.000    1.500    1.250    4.875    0.000    9.750 
#    0.000    1.875    0.000    3.750    0.000    0.000 
#    0.000    0.000    0.000    0.000    0.000    0.000 
#
# Total GULP energy -357795.932013 kJ/mol
# GULP energy per Si atom -5590.561438 kJ/mol
# Density = 1.868191 g / cm^3
# Si number density = 18.724524 Si / 1000 Ang^3
#
#
#
# Elastic Constant Matrix: (Units=GPa)
#
#
# Indices 1 2 3 4 5 6 
#
# 1 64.0879 41.4264 47.7549 0.0000 0.0000 0.0000
# 2 41.4264 70.1047 55.4543 0.0000 0.0000 0.0000
# 3 47.7549 55.4543 106.2560 0.0000 0.0000 0.0000
# 4 0.0000 0.0000 0.0000 35.1949 0.0000 0.0000
# 5 0.0000 0.0000 0.0000 0.0000 30.0104 0.0000
# 6 0.0000 0.0000 0.0000 0.0000 0.0000 -36.6443
#
#
#
# Elastic Compliance Matrix: (Units=1/GPa)
#
#
# Indices 1 2 3 4 5 6 
#
# 1 0.027771 -0.011134 -0.006670 0.000000 0.000000 0.000000
# 2 -0.011134 0.028757 -0.010004 0.000000 0.000000 0.000000
# 3 -0.006670 -0.010004 0.017630 0.000000 0.000000 0.000000
# 4 0.000000 0.000000 0.000000 0.028413 0.000000 0.000000
# 5 0.000000 0.000000 0.000000 0.000000 0.033322 0.000000
# 6 0.000000 0.000000 0.000000 0.000000 0.000000 -0.027289
#
#
# Mechanical properties :
#
#
# Convention : Reuss Voigt Hill
#
# Bulk Modulus (GPa) = 53.93396 58.85774 56.39585
# Shear Modulus (GPa) = 29.34236 12.09975 20.72106
#
# Velocity S-wave (km/s) = 3.96290 2.54480 3.33021
# Velocity P-wave (km/s) = 7.05733 6.33533 6.70605
#
# Compressibility (1/GPa) = 0.01854120
#
# Stress axis : x y z
#
# Youngs Moduli (GPa) = 36.00870 34.77374 56.72061
#
# Poissons Ratio (x) = 0.38717 0.37835
# Poissons Ratio (y) = 0.40092 0.56745
# Poissons Ratio (z) = 0.24019 0.34788
#
# Static dielectric constant tensor:
#      x y z
#    x 1.647440 0.000000 0.000000 
#    y 0.000000 1.636040 0.000000 
#    z 0.000000 0.000000 1.633220 
# 
# From -- ./inp_files/19446.got.cif
#   From: 2010.05.17/outbox.cif.g08.bks.cpg/sg51_10_cif.got.tgz:19446.got - 2010.06.03 11:52:47.
