data_PCOD9404072
_publ_section_title
;
Structure prediction by ZEFSAII (Michael W. Deem and Ramdas Pophale) SiO2 
 PCOD9404072
Probable space group: P M M A
;
_chemical_formula_sum "Si O2"
_cell_formula_units_Z 58
_cell_length_a 19.216457
_cell_length_b 9.803162
_cell_length_c 17.484576
_cell_angle_alpha 90.000000
_cell_angle_beta 90.000000
_cell_angle_gamma 90.000000
_cell_volume 3293.780114
_symmetry_space_group_name_H-M "P M M A"
_symmetry_group_IT_number 51
_symmetry_cell_setting 'orthorhombic'
loop_
_space_group_symop_operation_xyz
x,y,z
1/2-x,-y,z
1/2+x,-y,-z
-x,y,-z
-x,-y,-z
1/2+x,y,-z
1/2-x,y,z
x,-y,z
loop_
_atom_site_type_symbol
_atom_site_label
_atom_site_fract_x
_atom_site_fract_y
_atom_site_fract_z
Si Si1 0.064016 0.660474 0.440956
Si Si2 0.828667 0.664240 0.434862
Si Si3 0.875056 0.220168 0.273418
Si Si4 0.169075 0.841339 0.003130
Si Si5 0.410401 0.340687 0.885388
Si Si6 0.452588 0.839906 0.125466
Si Si7 0.250000 0.000000 0.746946
Si Si8 0.033495 0.848243 0.297766
O O1 0.071821 0.500000 0.423150
O O2 0.128977 0.711062 0.491091
O O3 0.051339 0.743124 0.364091
O O4 0.000000 0.673406 0.500000
O O5 0.750000 0.714301 0.437781
O O6 0.829669 0.500000 0.436744
O O7 0.860485 0.709410 0.354558
O O8 0.886066 0.321924 0.202317
O O9 0.811938 0.118364 0.255468
O O10 0.950514 0.151294 0.283281
O O11 0.250000 0.821521 0.024106
O O12 0.145352 0.737648 0.937698
O O13 0.162242 0.000000 0.976702
O O14 0.114512 0.822096 0.072145
O O15 0.417531 0.500000 0.904171
O O16 0.483343 0.258770 0.895695
O O17 0.435197 0.814838 0.214501
O O18 0.474750 0.000000 0.118678
O O19 0.055752 0.000000 0.320584
#
# Coordination Sequence:
#
# PCOD9404072 Si02
#       8
#     8   8   8   8   8   8   2   8
#     4  10  20  34  55  81 109 143 188 231 271 328
#     4  10  20  36  54  75 110 152 188 226 277 338
#     4  11  22  36  55  81 113 151 187 225 277 344
#     4  10  22  39  62  85 112 152 194 235 286 346
#     4  11  24  37  57  87 119 150 190 236 283 338
#     4   9  20  40  62  84 113 150 193 237 288 344
#     4  12  24  36  54  82 122 156 182 232 284 344
#     4  10  20  36  57  83 110 139 184 234 278 326
#
# _framework density 17.608946
#
# number of rings (size 3 to 8) (size 9 to 14) (size 15 to 20)
#    0.000    1.793    2.759    1.241    2.897    4.966 
#    1.241    0.690    0.000    0.828    0.000    0.000 
#    0.000    0.000    0.000    0.000    0.000    0.000 
#
# Total GULP energy -323035.590752 kJ/mol
# GULP energy per Si atom -5569.579151 kJ/mol
# Density = 1.756887 g / cm^3
# Si number density = 17.608946 Si / 1000 Ang^3
#
#
#
# Elastic Constant Matrix: (Units=GPa)
#
#
# Indices 1 2 3 4 5 6 
#
# 1 82.6099 42.2905 48.8533 0.0000 0.0000 0.0000
# 2 42.2905 82.7606 54.0771 0.0000 0.0000 0.0000
# 3 48.8533 54.0771 91.1817 0.0000 0.0000 0.0000
# 4 0.0000 0.0000 0.0000 15.6774 0.0000 0.0000
# 5 0.0000 0.0000 0.0000 0.0000 16.2559 0.0000
# 6 0.0000 0.0000 0.0000 0.0000 0.0000 13.2067
#
#
#
# Elastic Compliance Matrix: (Units=1/GPa)
#
#
# Indices 1 2 3 4 5 6 
#
# 1 0.018891 -0.004963 -0.007178 0.000000 0.000000 0.000000
# 2 -0.004963 0.021032 -0.009814 0.000000 0.000000 0.000000
# 3 -0.007178 -0.009814 0.020633 0.000000 0.000000 0.000000
# 4 0.000000 0.000000 0.000000 0.063786 0.000000 0.000000
# 5 0.000000 0.000000 0.000000 0.000000 0.061516 0.000000
# 6 0.000000 0.000000 0.000000 0.000000 0.000000 0.075719
#
#
# Mechanical properties :
#
#
# Convention : Reuss Voigt Hill
#
# Bulk Modulus (GPa) = 60.07554 60.77711 60.42632
# Shear Modulus (GPa) = 16.07531 16.45009 16.26270
#
# Velocity S-wave (km/s) = 3.02471 3.05977 3.04229
# Velocity P-wave (km/s) = 6.81095 6.86096 6.83600
#
# Compressibility (1/GPa) = 0.01664571
#
# Stress axis : x y z
#
# Youngs Moduli (GPa) = 52.93665 47.54663 48.46502
#
# Poissons Ratio (x) = 0.23597 0.34787
# Poissons Ratio (y) = 0.26272 0.47565
# Poissons Ratio (z) = 0.37997 0.46664
#
# Static dielectric constant tensor:
#      x y z
#    x 1.603370 0.000000 0.000000 
#    y 0.000000 1.596560 0.000000 
#    z 0.000000 0.000000 1.602030 
# 
# From -- ./inp_files/30212.got.cif
#   From: 2010.05.17/outbox.cif.g08.bks.cpg/sg51_16_cif.got.tgz:30212.got - 2010.06.03 11:52:47.
