data_PCOD9404265
_publ_section_title
;
Structure prediction by ZEFSAII (Michael W. Deem and Ramdas Pophale) SiO2 
 PCOD9404265
Probable space group: P M M A
;
_chemical_formula_sum "Si O2"
_cell_formula_units_Z 44
_cell_length_a 8.504161
_cell_length_b 29.131395
_cell_length_c 9.758044
_cell_angle_alpha 90.000000
_cell_angle_beta 90.000000
_cell_angle_gamma 90.000000
_cell_volume 2417.439019
_symmetry_space_group_name_H-M "P M M A"
_symmetry_group_IT_number 51
_symmetry_cell_setting 'orthorhombic'
loop_
_space_group_symop_operation_xyz
x,y,z
1/2-x,-y,z
1/2+x,-y,-z
-x,y,-z
-x,-y,-z
1/2+x,y,-z
1/2-x,y,z
x,-y,z
loop_
_atom_site_type_symbol
_atom_site_label
_atom_site_fract_x
_atom_site_fract_y
_atom_site_fract_z
Si Si1 0.939323 0.816374 0.153318
Si Si2 0.940163 0.100057 0.344514
Si Si3 0.439661 0.000000 0.656239
Si Si4 0.438865 0.634638 0.654518
Si Si5 0.562385 0.715683 0.845841
Si Si6 0.560248 0.447523 0.150750
O O1 0.750000 0.814495 0.152108
O O2 0.992321 0.857277 0.252741
O O3 0.003664 0.766470 0.194673
O O4 0.000000 0.825154 0.000000
O O5 0.750000 0.100654 0.347436
O O6 0.990460 0.049735 0.287417
O O7 0.000000 0.104298 0.500000
O O8 0.500000 0.000000 0.500000
O O9 0.250000 0.000000 0.656655
O O10 0.500000 0.635508 0.500000
O O11 0.250000 0.635455 0.653225
O O12 0.499497 0.677793 0.741555
O O13 0.491477 0.588667 0.735090
O O14 0.750000 0.715057 0.849113
O O15 0.500000 0.706687 0.000000
O O16 0.750000 0.447301 0.147352
O O17 0.508050 0.500000 0.177428
O O18 0.500000 0.434085 0.000000
#
# Coordination Sequence:
#
# PCOD9404265 Si02
#       6
#     8   8   4   8   8   8
#     4  10  20  35  53  76 104 136 173 214 260 311
#     4   9  18  31  51  75 101 132 169 211 255 306
#     4   8  14  28  47  70  98 130 166 206 251 300
#     4  11  23  38  56  81 113 145 179 221 268 316
#     4  11  22  38  59  80 104 138 178 220 265 317
#     4   9  19  36  58  83 110 142 181 221 261 310
#
# _framework density 18.201082
#
# number of rings (size 3 to 8) (size 9 to 14) (size 15 to 20)
#    0.000    2.182    0.000    4.364    0.000    5.455 
#    0.000    2.273    0.000    0.000    0.000    0.000 
#    0.000    0.000    0.000    0.000    0.000    0.000 
#
# Total GULP energy -245510.457323 kJ/mol
# GULP energy per Si atom -5579.783121 kJ/mol
# Density = 1.815966 g / cm^3
# Si number density = 18.201082 Si / 1000 Ang^3
#
#
#
# Elastic Constant Matrix: (Units=GPa)
#
#
# Indices 1 2 3 4 5 6 
#
# 1 55.9500 41.4467 30.9942 0.0000 0.0000 0.0000
# 2 41.4467 178.6444 120.9764 0.0000 0.0000 0.0000
# 3 30.9942 120.9764 114.0626 0.0000 0.0000 0.0000
# 4 0.0000 0.0000 0.0000 36.8264 0.0000 0.0000
# 5 0.0000 0.0000 0.0000 0.0000 28.8051 0.0000
# 6 0.0000 0.0000 0.0000 0.0000 0.0000 63.2238
#
#
#
# Elastic Compliance Matrix: (Units=1/GPa)
#
#
# Indices 1 2 3 4 5 6 
#
# 1 0.021707 -0.003698 -0.001977 0.000000 0.000000 0.000000
# 2 -0.003698 0.020497 -0.020734 0.000000 0.000000 0.000000
# 3 -0.001977 -0.020734 0.031295 0.000000 0.000000 0.000000
# 4 0.000000 0.000000 0.000000 0.027154 0.000000 0.000000
# 5 0.000000 0.000000 0.000000 0.000000 0.034716 0.000000
# 6 0.000000 0.000000 0.000000 0.000000 0.000000 0.015817
#
#
# Mechanical properties :
#
#
# Convention : Reuss Voigt Hill
#
# Bulk Modulus (GPa) = 48.35143 81.72130 65.03637
# Shear Modulus (GPa) = 23.70813 36.12039 29.91426
#
# Velocity S-wave (km/s) = 3.61302 4.45963 4.05846
# Velocity P-wave (km/s) = 6.63537 8.45661 7.60074
#
# Compressibility (1/GPa) = 0.02068191
#
# Stress axis : x y z
#
# Youngs Moduli (GPa) = 46.06759 48.78833 31.95354
#
# Poissons Ratio (x) = 0.18040 0.06317
# Poissons Ratio (y) = 0.17034 0.66254
# Poissons Ratio (z) = 0.09107 1.01160
#
# Static dielectric constant tensor:
#      x y z
#    x 1.614070 0.000000 0.000000 
#    y 0.000000 1.655220 0.000000 
#    z 0.000000 0.000000 1.581400 
# 
# From -- ./inp_files/5705.got.cif
#   From: 2010.05.17/outbox.cif.g08.bks.cpg/sg51_3_cif.got.tgz:5705.got - 2010.06.03 11:52:47.
