data_PCOD9404260
_publ_section_title
;
Structure prediction by ZEFSAII (Michael W. Deem and Ramdas Pophale) SiO2 
 PCOD9404260
Probable space group: P M M A
;
_chemical_formula_sum "Si O2"
_cell_formula_units_Z 36
_cell_length_a 8.571910
_cell_length_b 16.016019
_cell_length_c 14.711296
_cell_angle_alpha 90.000000
_cell_angle_beta 90.000000
_cell_angle_gamma 90.000000
_cell_volume 2019.682543
_symmetry_space_group_name_H-M "P M M A"
_symmetry_group_IT_number 51
_symmetry_cell_setting 'orthorhombic'
loop_
_space_group_symop_operation_xyz
x,y,z
1/2-x,-y,z
1/2+x,-y,-z
-x,y,-z
-x,-y,-z
1/2+x,y,-z
1/2-x,y,z
x,-y,z
loop_
_atom_site_type_symbol
_atom_site_label
_atom_site_fract_x
_atom_site_fract_y
_atom_site_fract_z
Si Si1 0.561651 0.594281 0.898836
Si Si2 0.062779 0.183430 0.602376
Si Si3 0.562221 0.000000 0.397352
Si Si4 0.063071 0.750820 0.220149
Si Si5 0.437529 0.905221 0.897130
O O1 0.750000 0.595521 0.901405
O O2 0.512475 0.500000 0.873137
O O3 0.509692 0.667170 0.831517
O O4 0.500000 0.611064 0.000000
O O5 0.250000 0.186106 0.599734
O O6 0.000000 0.194524 0.500000
O O7 0.998088 0.245972 0.677043
O O8 0.012857 0.090442 0.637928
O O9 0.500000 0.000000 0.500000
O O10 0.750000 0.000000 0.395915
O O11 0.250000 0.752923 0.220407
O O12 0.002252 0.831499 0.165193
O O13 0.250000 0.900594 0.897412
O O14 0.480624 0.000000 0.867004
O O15 0.500000 0.895023 0.000000
#
# Coordination Sequence:
#
# PCOD9404260 Si02
#       5
#     8   8   4   8   8
#     4   9  19  36  57  81 109 138 171 215 266 319
#     4  10  20  35  53  75 105 140 180 223 269 314
#     4   8  16  30  48  68  93 128 169 212 256 300
#     4  11  22  34  53  80 107 139 178 218 265 318
#     4  10  21  36  52  72 104 143 180 217 259 310
#
# _framework density 17.824583000000001
#
# number of rings (size 3 to 8) (size 9 to 14) (size 15 to 20)
#    0.000    2.222    0.000    2.667    1.556    5.778 
#    0.000    0.000    0.000    0.667    0.000    0.000 
#    0.000    0.000    0.000    0.000    0.000    0.000 
#
# Total GULP energy -200834.181559 kJ/mol
# GULP energy per Si atom -5578.727266 kJ/mol
# Density = 1.778401 g / cm^3
# Si number density = 17.824583 Si / 1000 Ang^3
#
#
#
# Elastic Constant Matrix: (Units=GPa)
#
#
# Indices 1 2 3 4 5 6 
#
# 1 37.1088 36.2298 30.8315 0.0000 0.0000 0.0000
# 2 36.2298 130.5011 98.7818 0.0000 0.0000 0.0000
# 3 30.8315 98.7818 118.9754 0.0000 0.0000 0.0000
# 4 0.0000 0.0000 0.0000 27.4374 0.0000 0.0000
# 5 0.0000 0.0000 0.0000 0.0000 29.1362 0.0000
# 6 0.0000 0.0000 0.0000 0.0000 0.0000 17.7865
#
#
#
# Elastic Compliance Matrix: (Units=1/GPa)
#
#
# Indices 1 2 3 4 5 6 
#
# 1 0.037330 -0.008185 -0.002878 0.000000 0.000000 0.000000
# 2 -0.008185 0.022420 -0.016493 0.000000 0.000000 0.000000
# 3 -0.002878 -0.016493 0.022845 0.000000 0.000000 0.000000
# 4 0.000000 0.000000 0.000000 0.036447 0.000000 0.000000
# 5 0.000000 0.000000 0.000000 0.000000 0.034322 0.000000
# 6 0.000000 0.000000 0.000000 0.000000 0.000000 0.056222
#
#
# Mechanical properties :
#
#
# Convention : Reuss Voigt Hill
#
# Bulk Modulus (GPa) = 36.38765 68.69686 52.54226
# Shear Modulus (GPa) = 18.25765 22.92150 20.58958
#
# Velocity S-wave (km/s) = 3.20393 3.58990 3.40240
# Velocity P-wave (km/s) = 5.84342 7.47043 6.70645
#
# Compressibility (1/GPa) = 0.02748185
#
# Stress axis : x y z
#
# Youngs Moduli (GPa) = 26.78800 44.60402 43.77405
#
# Poissons Ratio (x) = 0.36510 0.12597
# Poissons Ratio (y) = 0.21927 0.72197
# Poissons Ratio (z) = 0.07709 0.73566
#
# Static dielectric constant tensor:
#      x y z
#    x 1.607000 0.000000 0.000000 
#    y 0.000000 1.633900 0.000000 
#    z 0.000000 0.000000 1.589630 
# 
# From -- ./inp_files/20325.got.cif
#   From: 2010.05.17/outbox.cif.g08.bks.cpg/sg51_11_cif.got.tgz:20325.got - 2010.06.03 11:52:47.
