data_PCOD9404662
_publ_section_title
;
Structure prediction by ZEFSAII (Michael W. Deem and Ramdas Pophale) SiO2 
 PCOD9404662
Probable space group: P M M A
;
_chemical_formula_sum "Si O2"
_cell_formula_units_Z 40
_cell_length_a 18.062236
_cell_length_b 7.737117
_cell_length_c 15.873599
_cell_angle_alpha 90.000000
_cell_angle_beta 90.000000
_cell_angle_gamma 90.000000
_cell_volume 2218.329638
_symmetry_space_group_name_H-M "P M M A"
_symmetry_group_IT_number 51
_symmetry_cell_setting 'orthorhombic'
loop_
_space_group_symop_operation_xyz
x,y,z
1/2-x,-y,z
1/2+x,-y,-z
-x,y,-z
-x,-y,-z
1/2+x,y,-z
1/2-x,y,z
x,-y,z
loop_
_atom_site_type_symbol
_atom_site_label
_atom_site_fract_x
_atom_site_fract_y
_atom_site_fract_z
Si Si1 0.338092 0.500000 0.830498
Si Si2 0.519820 0.709745 0.594006
Si Si3 0.589870 0.801892 0.857750
Si Si4 0.435882 0.801322 0.761185
Si Si5 0.411465 0.500000 0.013502
Si Si6 0.167200 0.709399 0.313126
O O1 0.250000 0.500000 0.828807
O O2 0.372701 0.667186 0.784791
O O3 0.368930 0.500000 0.925718
O O4 0.500000 0.766010 0.500000
O O5 0.516567 0.500000 0.596541
O O6 0.464464 0.776975 0.665752
O O7 0.602352 0.762601 0.622912
O O8 0.508165 0.763010 0.819387
O O9 0.607108 0.668059 0.930977
O O10 0.644664 0.777862 0.778792
O O11 0.590880 0.000000 0.886396
O O12 0.414767 0.000000 0.775116
O O13 0.500000 0.500000 0.000000
O O14 0.250000 0.763279 0.336492
O O15 0.165565 0.500000 0.308545
#
# Coordination Sequence:
#
# PCOD9404662 Si02
#       6
#     4   8   8   8   4   8
#     4  12  26  42  59  82 114 154 197 241 288 336
#     4   9  17  32  58  87 119 153 198 240 280 338
#     4  10  20  35  60  88 111 146 190 230 285 355
#     4  10  20  38  62  85 113 151 193 234 284 344
#     4  12  22  38  62  84 113 148 186 239 288 339
#     4   9  17  31  53  81 117 154 187 234 293 343
#
# _framework density 18.031586000000001
#
# number of rings (size 3 to 8) (size 9 to 14) (size 15 to 20)
#    0.000    2.000    4.000    0.000    0.000    3.200 
#    0.000    1.000    0.000    0.000    0.000    0.000 
#    0.000    0.000    0.000    0.000    0.000    0.000 
#
# Total GULP energy -223363.713410 kJ/mol
# GULP energy per Si atom -5584.092835 kJ/mol
# Density = 1.799054 g / cm^3
# Si number density = 18.031586 Si / 1000 Ang^3
#
#
#
# Elastic Constant Matrix: (Units=GPa)
#
#
# Indices 1 2 3 4 5 6 
#
# 1 135.5088 52.8543 68.1355 0.0000 0.0000 0.0000
# 2 52.8543 79.3409 52.7722 0.0000 0.0000 0.0000
# 3 68.1355 52.7722 119.4052 0.0000 0.0000 0.0000
# 4 0.0000 0.0000 0.0000 -13.5957 0.0000 0.0000
# 5 0.0000 0.0000 0.0000 0.0000 15.3790 0.0000
# 6 0.0000 0.0000 0.0000 0.0000 0.0000 -0.1774
#
#
#
# Elastic Compliance Matrix: (Units=1/GPa)
#
#
# Indices 1 2 3 4 5 6 
#
# 1 0.011442 -0.004645 -0.004476 0.000000 0.000000 0.000000
# 2 -0.004645 0.019737 -0.006072 0.000000 0.000000 0.000000
# 3 -0.004476 -0.006072 0.013613 0.000000 0.000000 0.000000
# 4 0.000000 0.000000 0.000000 -0.073553 0.000000 0.000000
# 5 0.000000 0.000000 0.000000 0.000000 0.065024 0.000000
# 6 0.000000 0.000000 0.000000 0.000000 0.000000 -5.635849
#
#
# Mechanical properties :
#
#
# Convention : Reuss Voigt Hill
#
# Bulk Modulus (GPa) = 69.42175 75.75319 72.58747
# Shear Modulus (GPa) = -0.89857 11.02071 5.06107
#
# Velocity S-wave (km/s) = -0.70669 2.47491 1.67716
# Velocity P-wave (km/s) = 6.15774 7.09010 6.64030
#
# Compressibility (1/GPa) = 0.01440471
#
# Stress axis : x y z
#
# Youngs Moduli (GPa) = 87.39697 50.66572 73.46005
#
# Poissons Ratio (x) = 0.23535 0.32882
# Poissons Ratio (y) = 0.40596 0.44608
# Poissons Ratio (z) = 0.39121 0.30767
#
# Static dielectric constant tensor:
#      x y z
#    x 1.602090 0.000000 0.000000 
#    y 0.000000 1.648390 0.000000 
#    z 0.000000 0.000000 1.591490 
# 
# From -- ./inp_files/23798.got.cif
#   From: 2010.05.17/outbox.cif.g08.bks.cpg/sg51_12_cif.got.tgz:23798.got - 2010.06.03 11:52:47.
