data_PCOD9404269
_publ_section_title
;
Structure prediction by ZEFSAII (Michael W. Deem and Ramdas Pophale) SiO2 
 PCOD9404269
Probable space group: P M M A
;
_chemical_formula_sum "Si O2"
_cell_formula_units_Z 36
_cell_length_a 8.523488
_cell_length_b 15.906603
_cell_length_c 14.744109
_cell_angle_alpha 90.000000
_cell_angle_beta 90.000000
_cell_angle_gamma 90.000000
_cell_volume 1999.002462
_symmetry_space_group_name_H-M "P M M A"
_symmetry_group_IT_number 51
_symmetry_cell_setting 'orthorhombic'
loop_
_space_group_symop_operation_xyz
x,y,z
1/2-x,-y,z
1/2+x,-y,-z
-x,y,-z
-x,-y,-z
1/2+x,y,-z
1/2-x,y,z
x,-y,z
loop_
_atom_site_type_symbol
_atom_site_label
_atom_site_fract_x
_atom_site_fract_y
_atom_site_fract_z
Si Si1 0.939762 0.405617 0.602760
Si Si2 0.562049 0.096592 0.399489
Si Si3 0.562379 0.753856 0.721544
Si Si4 0.938091 0.316194 0.102322
Si Si5 0.060997 0.500000 0.897081
O O1 0.750000 0.404417 0.601417
O O2 0.989374 0.500000 0.633035
O O3 0.994268 0.328628 0.665327
O O4 0.000000 0.394184 0.500000
O O5 0.500000 0.117067 0.500000
O O6 0.750000 0.100953 0.399959
O O7 0.495191 0.163361 0.329392
O O8 0.515260 0.000000 0.379449
O O9 0.750000 0.751893 0.722449
O O10 0.500094 0.748253 0.823768
O O11 0.750000 0.314934 0.099396
O O12 0.992102 0.409245 0.137771
O O13 0.000000 0.304519 0.000000
O O14 0.250000 0.500000 0.895374
O O15 0.000000 0.500000 0.000000
#
# Coordination Sequence:
#
# PCOD9404269 Si02
#       5
#     8   8   8   8   4
#     4   9  19  34  49  70 103 142 180 217 259 311
#     4  10  21  38  60  85 113 143 177 223 276 329
#     4  11  22  34  54  81 109 144 184 226 272 325
#     4  10  20  35  53  76 107 143 186 232 278 324
#     4   8  16  30  48  70  97 134 179 226 272 314
#
# _framework density 18.008980999999999
#
# number of rings (size 3 to 8) (size 9 to 14) (size 15 to 20)
#    0.000    2.222    0.000    2.667    1.556    5.778 
#    0.000    0.000    0.000    0.667    0.000    0.000 
#    0.000    0.000    0.000    0.000    0.000    0.000 
#
# Total GULP energy -200866.935045 kJ/mol
# GULP energy per Si atom -5579.637085 kJ/mol
# Density = 1.796799 g / cm^3
# Si number density = 18.008981 Si / 1000 Ang^3
#
#
#
# Elastic Constant Matrix: (Units=GPa)
#
#
# Indices 1 2 3 4 5 6 
#
# 1 36.5504 34.3005 30.9070 0.0000 0.0000 0.0000
# 2 34.3005 103.7992 90.2940 0.0000 0.0000 0.0000
# 3 30.9070 90.2940 122.7159 0.0000 0.0000 0.0000
# 4 0.0000 0.0000 0.0000 30.9981 0.0000 0.0000
# 5 0.0000 0.0000 0.0000 0.0000 29.0319 0.0000
# 6 0.0000 0.0000 0.0000 0.0000 0.0000 23.9130
#
#
#
# Elastic Compliance Matrix: (Units=1/GPa)
#
#
# Indices 1 2 3 4 5 6 
#
# 1 0.039699 -0.012282 -0.000961 0.000000 0.000000 0.000000
# 2 -0.012282 0.030566 -0.019397 0.000000 0.000000 0.000000
# 3 -0.000961 -0.019397 0.022663 0.000000 0.000000 0.000000
# 4 0.000000 0.000000 0.000000 0.032260 0.000000 0.000000
# 5 0.000000 0.000000 0.000000 0.000000 0.034445 0.000000
# 6 0.000000 0.000000 0.000000 0.000000 0.000000 0.041818
#
#
# Mechanical properties :
#
#
# Convention : Reuss Voigt Hill
#
# Bulk Modulus (GPa) = 36.17042 63.78539 49.97791
# Shear Modulus (GPa) = 18.11942 23.95954 21.03948
#
# Velocity S-wave (km/s) = 3.17540 3.65145 3.42171
# Velocity P-wave (km/s) = 5.79418 7.29884 6.58959
#
# Compressibility (1/GPa) = 0.02764690
#
# Stress axis : x y z
#
# Youngs Moduli (GPa) = 25.18984 32.71619 44.12459
#
# Poissons Ratio (x) = 0.40184 0.04240
# Poissons Ratio (y) = 0.30939 0.85588
# Poissons Ratio (z) = 0.02421 0.63459
#
# Static dielectric constant tensor:
#      x y z
#    x 1.608100 0.000000 0.000000 
#    y 0.000000 1.639460 0.000000 
#    z 0.000000 0.000000 1.598490 
# 
# From -- ./inp_files/20305.got.cif
#   From: 2010.05.17/outbox.cif.g08.bks.cpg/sg51_11_cif.got.tgz:20305.got - 2010.06.03 11:52:47.
