data_PCOD9404415
_publ_section_title
;
Structure prediction by ZEFSAII (Michael W. Deem and Ramdas Pophale) SiO2 
 PCOD9404415
Probable space group: P M M A
;
_chemical_formula_sum "Si O2"
_cell_formula_units_Z 48
_cell_length_a 8.727798
_cell_length_b 18.796861
_cell_length_c 14.712554
_cell_angle_alpha 90.000000
_cell_angle_beta 90.000000
_cell_angle_gamma 90.000000
_cell_volume 2413.671075
_symmetry_space_group_name_H-M "P M M A"
_symmetry_group_IT_number 51
_symmetry_cell_setting 'orthorhombic'
loop_
_space_group_symop_operation_xyz
x,y,z
1/2-x,-y,z
1/2+x,-y,-z
-x,y,-z
-x,-y,-z
1/2+x,y,-z
1/2-x,y,z
x,-y,z
loop_
_atom_site_type_symbol
_atom_site_label
_atom_site_fract_x
_atom_site_fract_y
_atom_site_fract_z
Si Si1 0.932548 0.129575 0.713206
Si Si2 0.433597 0.656248 0.898866
Si Si3 0.565844 0.500000 0.101530
Si Si4 0.570373 0.086170 0.096798
Si Si5 0.934355 0.286879 0.722788
Si Si6 0.935365 0.579580 0.601836
Si Si7 0.931578 0.000000 0.399791
O O1 0.750000 0.120982 0.706542
O O2 0.973851 0.209633 0.683096
O O3 0.983087 0.118358 0.817461
O O4 0.012427 0.069330 0.654152
O O5 0.250000 0.659415 0.903904
O O6 0.482017 0.577026 0.862664
O O7 0.497124 0.708765 0.823640
O O8 0.500000 0.666148 0.000000
O O9 0.750000 0.500000 0.099373
O O10 0.500000 0.500000 0.000000
O O11 0.750000 0.104349 0.100621
O O12 0.557254 0.000000 0.102864
O O13 0.500000 0.108116 0.000000
O O14 0.750000 0.290865 0.729540
O O15 0.987782 0.354158 0.663130
O O16 0.750000 0.581519 0.598351
O O17 0.980029 0.500000 0.635680
O O18 0.000000 0.586608 0.500000
O O19 0.000000 0.000000 0.500000
O O20 0.750000 0.000000 0.403866
#
# Coordination Sequence:
#
# PCOD9404415 Si02
#       7
#     8   8   4   8   8   8   4
#     4  11  23  41  63  90 127 161 198 249 299 356
#     4  10  20  35  55  81 117 160 205 252 300 352
#     4   8  16  30  48  74 105 144 197 250 295 342
#     4  10  20  35  59  90 122 159 202 246 294 353
#     4  10  23  39  58  89 123 159 199 243 298 356
#     4   9  19  38  62  87 116 151 193 243 297 353
#     4  12  26  46  71  96 121 156 200 242 298 362
#
# _framework density 19.886721000000001
#
# number of rings (size 3 to 8) (size 9 to 14) (size 15 to 20)
#    0.000    2.000    0.833    2.250    1.167    4.667 
#    0.000    1.667    0.000    0.000    0.000    0.000 
#    0.000    0.000    0.000    0.000    0.000    0.000 
#
# Total GULP energy -268015.978684 kJ/mol
# GULP energy per Si atom -5583.666223 kJ/mol
# Density = 1.984146 g / cm^3
# Si number density = 19.886721 Si / 1000 Ang^3
#
#
#
# Elastic Constant Matrix: (Units=GPa)
#
#
# Indices 1 2 3 4 5 6 
#
# 1 48.7677 60.0148 30.1012 0.0000 0.0000 0.0000
# 2 60.0148 145.9080 80.2761 0.0000 0.0000 0.0000
# 3 30.1012 80.2761 111.4399 0.0000 0.0000 0.0000
# 4 0.0000 0.0000 0.0000 4.8268 0.0000 0.0000
# 5 0.0000 0.0000 0.0000 0.0000 33.7879 0.0000
# 6 0.0000 0.0000 0.0000 0.0000 0.0000 7.3402
#
#
#
# Elastic Compliance Matrix: (Units=1/GPa)
#
#
# Indices 1 2 3 4 5 6 
#
# 1 0.041743 -0.018166 0.001811 0.000000 0.000000 0.000000
# 2 -0.018166 0.019259 -0.008966 0.000000 0.000000 0.000000
# 3 0.001811 -0.008966 0.014943 0.000000 0.000000 0.000000
# 4 0.000000 0.000000 0.000000 0.207175 0.000000 0.000000
# 5 0.000000 0.000000 0.000000 0.000000 0.029596 0.000000
# 6 0.000000 0.000000 0.000000 0.000000 0.000000 0.136236
#
#
# Mechanical properties :
#
#
# Convention : Reuss Voigt Hill
#
# Bulk Modulus (GPa) = 39.52256 71.87775 55.70016
# Shear Modulus (GPa) = 9.84195 18.23923 14.04059
#
# Velocity S-wave (km/s) = 2.22705 3.03174 2.66000
# Velocity P-wave (km/s) = 5.15073 6.96257 6.12402
#
# Compressibility (1/GPa) = 0.02530200
#
# Stress axis : x y z
#
# Youngs Moduli (GPa) = 23.95591 51.92456 66.91986
#
# Poissons Ratio (x) = 0.94326 -0.12116
# Poissons Ratio (y) = 0.43518 0.60002
# Poissons Ratio (z) = -0.04337 0.46557
#
# Static dielectric constant tensor:
#      x y z
#    x 1.663400 0.000000 0.000000 
#    y 0.000000 1.760520 0.000000 
#    z 0.000000 0.000000 1.649870 
# 
# From -- ./inp_files/21254.got.cif
#   From: 2010.05.17/outbox.cif.g08.bks.cpg/sg51_11_cif.got.tgz:21254.got - 2010.06.03 11:52:47.
