data_PCOD9404155
_publ_section_title
;
Structure prediction by ZEFSAII (Michael W. Deem and Ramdas Pophale) SiO2 
 PCOD9404155
Probable space group: P M M A
;
_chemical_formula_sum "Si O2"
_cell_formula_units_Z 48
_cell_length_a 16.561064
_cell_length_b 8.700143
_cell_length_c 18.481840
_cell_angle_alpha 90.000000
_cell_angle_beta 90.000000
_cell_angle_gamma 90.000000
_cell_volume 2662.930504
_symmetry_space_group_name_H-M "P M M A"
_symmetry_group_IT_number 51
_symmetry_cell_setting 'orthorhombic'
loop_
_space_group_symop_operation_xyz
x,y,z
1/2-x,-y,z
1/2+x,-y,-z
-x,y,-z
-x,-y,-z
1/2+x,y,-z
1/2-x,y,z
x,-y,z
loop_
_atom_site_type_symbol
_atom_site_label
_atom_site_fract_x
_atom_site_fract_y
_atom_site_fract_z
Si Si1 0.158833 0.184220 0.334029
Si Si2 0.412689 0.685609 0.032977
Si Si3 0.750000 0.816808 0.216288
Si Si4 0.011068 0.315188 0.418414
Si Si5 0.750000 0.686196 0.053953
Si Si6 0.914467 0.684762 0.277582
Si Si7 0.563304 0.183318 0.809692
O O1 0.250000 0.235376 0.344878
O O2 0.096998 0.263565 0.387902
O O3 0.128967 0.216240 0.252566
O O4 0.154373 0.000000 0.343746
O O5 0.412304 0.500000 0.035626
O O6 0.410002 0.751436 0.113624
O O7 0.500000 0.732761 0.000000
O O8 0.332965 0.732285 0.987455
O O9 0.750000 0.753039 0.134461
O O10 0.829273 0.755591 0.256734
O O11 0.750000 0.000000 0.214636
O O12 0.007321 0.500000 0.420154
O O13 0.000000 0.257102 0.500000
O O14 0.946625 0.265328 0.357042
O O15 0.750000 0.500000 0.058306
O O16 0.909994 0.500000 0.275831
O O17 0.980992 0.740003 0.219360
O O18 0.551896 0.000000 0.814084
#
# Coordination Sequence:
#
# PCOD9404155 Si02
#       7
#     8   8   4   8   4   8   8
#     4   9  19  35  54  80 113 148 182 218 270 330
#     4  10  21  36  53  76 108 146 187 232 284 340
#     4  12  24  38  58  84 113 142 189 238 273 328
#     4   9  19  37  59  84 112 142 182 229 273 320
#     4  10  22  38  56  80 111 150 191 234 287 340
#     4  10  20  37  60  82 110 150 187 225 281 333
#     4  10  20  34  56  81 110 145 187 233 276 327
#
# _framework density 18.025255000000001
#
# number of rings (size 3 to 8) (size 9 to 14) (size 15 to 20)
#    0.000    2.167    0.000    2.750    1.167    4.333 
#    1.500    0.000    0.000    0.000    0.000    0.000 
#    0.000    0.000    0.000    0.000    0.000    0.000 
#
# Total GULP energy -267928.975582 kJ/mol
# GULP energy per Si atom -5581.853658 kJ/mol
# Density = 1.798423 g / cm^3
# Si number density = 18.025255 Si / 1000 Ang^3
#
#
#
# Elastic Constant Matrix: (Units=GPa)
#
#
# Indices 1 2 3 4 5 6 
#
# 1 165.6118 37.6844 100.7652 0.0000 0.0000 0.0000
# 2 37.6844 18.3776 35.7214 0.0000 0.0000 0.0000
# 3 100.7652 35.7214 156.0094 0.0000 0.0000 0.0000
# 4 0.0000 0.0000 0.0000 18.6772 0.0000 0.0000
# 5 0.0000 0.0000 0.0000 0.0000 9.3570 0.0000
# 6 0.0000 0.0000 0.0000 0.0000 0.0000 24.4400
#
#
#
# Elastic Compliance Matrix: (Units=1/GPa)
#
#
# Indices 1 2 3 4 5 6 
#
# 1 0.012564 -0.018002 -0.003993 0.000000 0.000000 0.000000
# 2 -0.018002 0.123846 -0.016730 0.000000 0.000000 0.000000
# 3 -0.003993 -0.016730 0.012820 0.000000 0.000000 0.000000
# 4 0.000000 0.000000 0.000000 0.053541 0.000000 0.000000
# 5 0.000000 0.000000 0.000000 0.000000 0.106872 0.000000
# 6 0.000000 0.000000 0.000000 0.000000 0.000000 0.040917
#
#
# Mechanical properties :
#
#
# Convention : Reuss Voigt Hill
#
# Bulk Modulus (GPa) = 13.93142 76.48232 45.20687
# Shear Modulus (GPa) = 11.06352 21.55001 16.30677
#
# Velocity S-wave (km/s) = 2.48014 3.46142 3.01102
# Velocity P-wave (km/s) = 3.99338 7.64840 6.10103
#
# Compressibility (1/GPa) = 0.07178020
#
# Stress axis : x y z
#
# Youngs Moduli (GPa) = 79.59220 8.07457 78.00508
#
# Poissons Ratio (x) = 0.14535 0.31149
# Poissons Ratio (y) = 1.43278 1.30501
# Poissons Ratio (z) = 0.31783 0.13509
#
# Static dielectric constant tensor:
#      x y z
#    x 1.605600 0.000000 0.000000 
#    y 0.000000 1.605100 0.000000 
#    z 0.000000 0.000000 1.599760 
# 
# From -- ./inp_files/29587.got.cif
#   From: 2010.05.17/outbox.cif.g08.bks.cpg/sg51_15_cif.got.tgz:29587.got - 2010.06.03 11:52:47.
