data_PCOD9404583
_publ_section_title
;
Structure prediction by ZEFSAII (Michael W. Deem and Ramdas Pophale) SiO2 
 PCOD9404583
Probable space group: P M M A
;
_chemical_formula_sum "Si O2"
_cell_formula_units_Z 64
_cell_length_a 25.697059
_cell_length_b 15.243402
_cell_length_c 8.178254
_cell_angle_alpha 90.000000
_cell_angle_beta 90.000000
_cell_angle_gamma 90.000000
_cell_volume 3203.508786
_symmetry_space_group_name_H-M "P M M A"
_symmetry_group_IT_number 51
_symmetry_cell_setting 'orthorhombic'
loop_
_space_group_symop_operation_xyz
x,y,z
1/2-x,-y,z
1/2+x,-y,-z
-x,y,-z
-x,-y,-z
1/2+x,y,-z
1/2-x,y,z
x,-y,z
loop_
_atom_site_type_symbol
_atom_site_label
_atom_site_fract_x
_atom_site_fract_y
_atom_site_fract_z
Si Si1 0.481153 0.904513 0.189047
Si Si2 0.312732 0.905440 0.811563
Si Si3 0.501584 0.285056 0.194920
Si Si4 0.809351 0.284214 0.206270
Si Si5 0.190588 0.279390 0.190238
Si Si6 0.597321 0.598853 0.310283
Si Si7 0.902828 0.399825 0.700495
Si Si8 0.143741 0.095950 0.179488
O O1 0.502761 0.814347 0.263349
O O2 0.418493 0.896402 0.191386
O O3 0.495661 0.000000 0.261061
O O4 0.500000 0.907275 0.000000
O O5 0.250000 0.901430 0.839107
O O6 0.326409 0.812625 0.730492
O O7 0.324191 0.000000 0.731231
O O8 0.340565 0.906305 0.987654
O O9 0.551646 0.339613 0.245793
O O10 0.450280 0.338629 0.243663
O O11 0.500000 0.277063 0.000000
O O12 0.750000 0.300587 0.257123
O O13 0.848190 0.358708 0.261277
O O14 0.810470 0.278916 0.008331
O O15 0.250000 0.294281 0.242109
O O16 0.150670 0.353203 0.248216
O O17 0.171105 0.183074 0.247081
O O18 0.591617 0.500000 0.246017
O O19 0.594338 0.596171 0.505296
O O20 0.906889 0.500000 0.763803
O O21 0.159518 0.000000 0.247532
#
# Coordination Sequence:
#
# PCOD9404583 Si02
#       8
#     8   8   8   8   8   8   8   8
#     4   9  18  30  50  85 120 147 177 220 275 334
#     4   8  14  25  46  78 112 144 178 220 271 325
#     4  11  22  38  64  90 113 143 184 235 284 329
#     4   9  19  35  57  86 117 146 185 237 282 324
#     4  10  20  35  57  87 116 146 190 239 285 330
#     4  11  25  41  59  81 109 151 194 232 283 347
#     4  11  24  42  59  79 111 150 191 235 287 345
#     4   9  15  27  49  79 116 149 181 225 277 331
#
# _framework density 19.978093000000001
#
# number of rings (size 3 to 8) (size 9 to 14) (size 15 to 20)
#    0.000    2.250    1.250    2.625    5.250    5.250 
#    0.000    2.500    0.000    3.750    0.000    1.750 
#    0.000    0.000    0.000    0.000    0.000    0.000 
#
# Total GULP energy -356992.438960 kJ/mol
# GULP energy per Si atom -5578.006859 kJ/mol
# Density = 1.993262 g / cm^3
# Si number density = 19.978093 Si / 1000 Ang^3
#
#
#
# Elastic Constant Matrix: (Units=GPa)
#
#
# Indices 1 2 3 4 5 6 
#
# 1 86.4083 73.2990 9.2850 0.0000 0.0000 0.0000
# 2 73.2990 209.1194 18.2897 0.0000 0.0000 0.0000
# 3 9.2850 18.2897 18.9887 0.0000 0.0000 0.0000
# 4 0.0000 0.0000 0.0000 90.4783 0.0000 0.0000
# 5 0.0000 0.0000 0.0000 0.0000 263.7450 0.0000
# 6 0.0000 0.0000 0.0000 0.0000 0.0000 32.4335
#
#
#
# Elastic Compliance Matrix: (Units=1/GPa)
#
#
# Indices 1 2 3 4 5 6 
#
# 1 0.016600 -0.005579 -0.002744 0.000000 0.000000 0.000000
# 2 -0.005579 0.007097 -0.004108 0.000000 0.000000 0.000000
# 3 -0.002744 -0.004108 0.057961 0.000000 0.000000 0.000000
# 4 0.000000 0.000000 0.000000 0.011052 0.000000 0.000000
# 5 0.000000 0.000000 0.000000 0.000000 0.003792 0.000000
# 6 0.000000 0.000000 0.000000 0.000000 0.000000 0.030832
#
#
# Mechanical properties :
#
#
# Convention : Reuss Voigt Hill
#
# Bulk Modulus (GPa) = 17.60639 57.36265 37.48452
# Shear Modulus (GPa) = 29.21826 91.57420 60.39623
#
# Velocity S-wave (km/s) = 3.82843 6.77767 5.50426
# Velocity P-wave (km/s) = 5.32677 9.48811 7.69411
#
# Compressibility (1/GPa) = 0.05679757
#
# Stress axis : x y z
#
# Youngs Moduli (GPa) = 60.24100 140.91343 17.25305
#
# Poissons Ratio (x) = 0.78609 0.04734
# Poissons Ratio (y) = 0.33606 0.07087
# Poissons Ratio (z) = 0.16529 0.57881
#
# Static dielectric constant tensor:
#      x y z
#    x 1.685160 0.000000 0.000000 
#    y 0.000000 1.767180 0.000000 
#    z 0.000000 0.000000 1.690990 
# 
# From -- ./inp_files/11901.got.cif
#   From: 2010.05.17/outbox.cif.g08.bks.cpg/sg51_6_cif.got.tgz:11901.got - 2010.06.03 11:52:47.
