data_PCOD9404807
_publ_section_title
;
Structure prediction by ZEFSAII (Michael W. Deem and Ramdas Pophale) SiO2 
 PCOD9404807
Probable space group: P M M A
;
_chemical_formula_sum "Si O2"
_cell_formula_units_Z 64
_cell_length_a 8.438680
_cell_length_b 18.938237
_cell_length_c 21.194436
_cell_angle_alpha 90.000000
_cell_angle_beta 90.000000
_cell_angle_gamma 90.000000
_cell_volume 3387.161699
_symmetry_space_group_name_H-M "P M M A"
_symmetry_group_IT_number 51
_symmetry_cell_setting 'orthorhombic'
loop_
_space_group_symop_operation_xyz
x,y,z
1/2-x,-y,z
1/2+x,-y,-z
-x,y,-z
-x,-y,-z
1/2+x,y,-z
1/2-x,y,z
x,-y,z
loop_
_atom_site_type_symbol
_atom_site_label
_atom_site_fract_x
_atom_site_fract_y
_atom_site_fract_z
Si Si1 0.556217 0.581233 0.689216
Si Si2 0.056280 0.670902 0.189042
Si Si3 0.560160 0.081148 0.310599
Si Si4 0.939991 0.833718 0.569187
Si Si5 0.439927 0.166731 0.189591
Si Si6 0.558913 0.329609 0.568772
Si Si7 0.058779 0.418570 0.068936
Si Si8 0.439872 0.918027 0.930929
O O1 0.750000 0.581034 0.689210
O O2 0.504746 0.500000 0.692237
O O3 0.506073 0.626039 0.750092
O O4 0.504492 0.620455 0.625432
O O5 0.250000 0.670905 0.188998
O O6 0.004497 0.751995 0.192131
O O7 0.004304 0.631810 0.125228
O O8 0.750000 0.081071 0.309519
O O9 0.503296 0.118408 0.374551
O O10 0.500095 0.123961 0.250074
O O11 0.504305 0.000000 0.307861
O O12 0.750000 0.835351 0.569714
O O13 0.991605 0.751921 0.578943
O O14 0.000000 0.855762 0.500000
O O15 0.250000 0.166973 0.191005
O O16 0.495696 0.129295 0.125568
O O17 0.500000 0.352222 0.500000
O O18 0.750000 0.330085 0.568456
O O19 0.250000 0.418181 0.068733
O O20 0.007726 0.500000 0.079617
O O21 0.000000 0.396510 0.000000
O O22 0.250000 0.916044 0.930332
O O23 0.490291 0.000000 0.921696
O O24 0.500000 0.895576 0.000000
#
# Coordination Sequence:
#
# PCOD9404807 Si02
#       8
#     8   8   8   8   8   8   8   8
#     4   9  16  28  49  75 102 134 174 218 259 301
#     4   9  18  32  50  75 104 134 173 218 261 307
#     4  11  24  40  57  79 108 141 179 223 269 320
#     4  10  20  36  58  82 110 143 179 220 266 319
#     4  11  22  36  56  81 110 143 180 223 269 320
#     4   9  18  32  51  77 106 136 171 211 257 309
#     4   9  17  31  52  76 103 136 172 211 256 306
#     4  10  21  38  59  82 109 141 178 220 266 319
#
# _framework density 18.894877000000001
#
# number of rings (size 3 to 8) (size 9 to 14) (size 15 to 20)
#    0.000    2.250    0.000    3.000    0.000    8.250 
#    0.000    2.500    0.000    0.750    0.000    0.000 
#    0.000    0.000    0.000    0.000    0.000    0.000 
#
# Total GULP energy -357395.137812 kJ/mol
# GULP energy per Si atom -5584.299028 kJ/mol
# Density = 1.885187 g / cm^3
# Si number density = 18.894877 Si / 1000 Ang^3
#
#
#
# Elastic Constant Matrix: (Units=GPa)
#
#
# Indices 1 2 3 4 5 6 
#
# 1 22.2195 26.4915 29.8078 0.0000 0.0000 0.0000
# 2 26.4915 160.0486 144.4641 0.0000 0.0000 0.0000
# 3 29.8078 144.4641 218.9971 0.0000 0.0000 0.0000
# 4 0.0000 0.0000 0.0000 42.7556 0.0000 0.0000
# 5 0.0000 0.0000 0.0000 0.0000 36.0113 0.0000
# 6 0.0000 0.0000 0.0000 0.0000 0.0000 35.1456
#
#
#
# Elastic Compliance Matrix: (Units=1/GPa)
#
#
# Indices 1 2 3 4 5 6 
#
# 1 0.057332 -0.006046 -0.003815 0.000000 0.000000 0.000000
# 2 -0.006046 0.016081 -0.009785 0.000000 0.000000 0.000000
# 3 -0.003815 -0.009785 0.011541 0.000000 0.000000 0.000000
# 4 0.000000 0.000000 0.000000 0.023389 0.000000 0.000000
# 5 0.000000 0.000000 0.000000 0.000000 0.027769 0.000000
# 6 0.000000 0.000000 0.000000 0.000000 0.000000 0.028453
#
#
# Mechanical properties :
#
#
# Convention : Reuss Voigt Hill
#
# Bulk Modulus (GPa) = 21.90061 89.19909 55.54985
# Shear Modulus (GPa) = 22.82293 36.14930 29.48611
#
# Velocity S-wave (km/s) = 3.47924 4.37874 3.95465
# Velocity P-wave (km/s) = 5.26840 8.53669 7.09335
#
# Compressibility (1/GPa) = 0.04566083
#
# Stress axis : x y z
#
# Youngs Moduli (GPa) = 17.44229 62.18384 86.65096
#
# Poissons Ratio (x) = 0.37597 0.33058
# Poissons Ratio (y) = 0.10546 0.84791
# Poissons Ratio (z) = 0.06654 0.60849
#
# Static dielectric constant tensor:
#      x y z
#    x 1.649590 0.000000 0.000000 
#    y 0.000000 1.648750 0.000000 
#    z 0.000000 0.000000 1.623920 
# 
# From -- ./inp_files/32358.got.cif
#   From: 2010.05.17/outbox.cif.g08.bks.cpg/sg51_17_cif.got.tgz:32358.got - 2010.06.03 11:52:47.
