data_PCOD9404645
_publ_section_title
;
Structure prediction by ZEFSAII (Michael W. Deem and Ramdas Pophale) SiO2 
 PCOD9404645
Probable space group: P M M A
;
_chemical_formula_sum "Si O2"
_cell_formula_units_Z 52
_cell_length_a 8.633421
_cell_length_b 23.555109
_cell_length_c 14.583113
_cell_angle_alpha 90.000000
_cell_angle_beta 90.000000
_cell_angle_gamma 90.000000
_cell_volume 2965.638961
_symmetry_space_group_name_H-M "P M M A"
_symmetry_group_IT_number 51
_symmetry_cell_setting 'orthorhombic'
loop_
_space_group_symop_operation_xyz
x,y,z
1/2-x,-y,z
1/2+x,-y,-z
-x,y,-z
-x,-y,-z
1/2+x,y,-z
1/2-x,y,z
x,-y,z
loop_
_atom_site_type_symbol
_atom_site_label
_atom_site_fract_x
_atom_site_fract_y
_atom_site_fract_z
Si Si1 0.063478 0.672260 0.217582
Si Si2 0.063245 0.564482 0.100930
Si Si3 0.435720 0.778404 0.896965
Si Si4 0.565033 0.279663 0.401460
Si Si5 0.435007 0.000000 0.896683
Si Si6 0.936070 0.110434 0.794867
Si Si7 0.935456 0.847857 0.597352
O O1 0.250000 0.675811 0.219037
O O2 0.016235 0.612216 0.173432
O O3 0.998250 0.722711 0.154347
O O4 0.998722 0.682723 0.318808
O O5 0.250000 0.564884 0.096583
O O6 0.013151 0.500000 0.123221
O O7 0.000000 0.578670 0.000000
O O8 0.250000 0.778200 0.897535
O O9 0.496955 0.833574 0.843394
O O10 0.500000 0.779639 0.000000
O O11 0.500000 0.298126 0.500000
O O12 0.750000 0.279378 0.402211
O O13 0.505487 0.215001 0.387464
O O14 0.494815 0.944583 0.843386
O O15 0.250000 0.000000 0.900240
O O16 0.500000 0.000000 0.000000
O O17 0.750000 0.110345 0.804468
O O18 0.972952 0.114826 0.686489
O O19 0.750000 0.842259 0.591018
O O20 0.000000 0.869072 0.500000
#
# Coordination Sequence:
#
# PCOD9404645 Si02
#       7
#     8   8   8   8   4   8   8
#     4  11  21  35  55  82 115 147 187 234 284 339
#     4   9  19  35  55  79 110 150 192 234 280 334
#     4  12  24  37  55  81 114 149 186 232 286 339
#     4  11  21  34  55  82 115 149 187 230 282 341
#     4  12  26  44  65  86 113 150 195 238 282 342
#     4  11  23  41  62  85 115 150 190 235 283 337
#     4  10  20  35  59  86 117 149 185 230 282 337
#
# _framework density 17.534164000000001
#
# number of rings (size 3 to 8) (size 9 to 14) (size 15 to 20)
#    0.000    1.231    1.538    6.692    0.000    4.308 
#    0.000    0.385    0.000    0.462    0.000    0.000 
#    0.000    0.000    0.000    0.000    0.000    0.000 
#
# Total GULP energy -290662.702996 kJ/mol
# GULP energy per Si atom -5589.667365 kJ/mol
# Density = 1.749426 g / cm^3
# Si number density = 17.534164 Si / 1000 Ang^3
#
#
#
# Elastic Constant Matrix: (Units=GPa)
#
#
# Indices 1 2 3 4 5 6 
#
# 1 111.6855 50.6904 74.4658 0.0000 0.0000 0.0000
# 2 50.6904 112.9506 94.7598 0.0000 0.0000 0.0000
# 3 74.4658 94.7598 189.6947 0.0000 0.0000 0.0000
# 4 0.0000 0.0000 0.0000 29.0712 0.0000 0.0000
# 5 0.0000 0.0000 0.0000 0.0000 34.2045 0.0000
# 6 0.0000 0.0000 0.0000 0.0000 0.0000 2.2168
#
#
#
# Elastic Compliance Matrix: (Units=1/GPa)
#
#
# Indices 1 2 3 4 5 6 
#
# 1 0.012550 -0.002581 -0.003638 0.000000 0.000000 0.000000
# 2 -0.002581 0.015771 -0.006865 0.000000 0.000000 0.000000
# 3 -0.003638 -0.006865 0.010129 0.000000 0.000000 0.000000
# 4 0.000000 0.000000 0.000000 0.034398 0.000000 0.000000
# 5 0.000000 0.000000 0.000000 0.000000 0.029236 0.000000
# 6 0.000000 0.000000 0.000000 0.000000 0.000000 0.451109
#
#
# Mechanical properties :
#
#
# Convention : Reuss Voigt Hill
#
# Bulk Modulus (GPa) = 81.40946 94.90699 88.15823
# Shear Modulus (GPa) = 8.56964 26.05948 17.31456
#
# Velocity S-wave (km/s) = 2.21314 3.85932 3.14582
# Velocity P-wave (km/s) = 7.28427 8.60834 7.97384
#
# Compressibility (1/GPa) = 0.01228358
#
# Stress axis : x y z
#
# Youngs Moduli (GPa) = 79.67925 63.40677 98.72596
#
# Poissons Ratio (x) = 0.16363 0.35912
# Poissons Ratio (y) = 0.20562 0.67778
# Poissons Ratio (z) = 0.28984 0.43530
#
# Static dielectric constant tensor:
#      x y z
#    x 1.586480 0.000000 0.000000 
#    y 0.000000 1.574040 0.000000 
#    z 0.000000 0.000000 1.594950 
# 
# From -- ./inp_files/21626.got.cif
#   From: 2010.05.17/outbox.cif.g08.bks.cpg/sg51_11_cif.got.tgz:21626.got - 2010.06.03 11:52:47.
