data_PCOD9404326
_publ_section_title
;
Structure prediction by ZEFSAII (Michael W. Deem and Ramdas Pophale) SiO2 
 PCOD9404326
Probable space group: P M M A
;
_chemical_formula_sum "Si O2"
_cell_formula_units_Z 44
_cell_length_a 8.691026
_cell_length_b 28.252551
_cell_length_c 9.974433
_cell_angle_alpha 90.000000
_cell_angle_beta 90.000000
_cell_angle_gamma 90.000000
_cell_volume 2449.158738
_symmetry_space_group_name_H-M "P M M A"
_symmetry_group_IT_number 51
_symmetry_cell_setting 'orthorhombic'
loop_
_space_group_symop_operation_xyz
x,y,z
1/2-x,-y,z
1/2+x,-y,-z
-x,y,-z
-x,-y,-z
1/2+x,y,-z
1/2-x,y,z
x,-y,z
loop_
_atom_site_type_symbol
_atom_site_label
_atom_site_fract_x
_atom_site_fract_y
_atom_site_fract_z
Si Si1 0.933671 0.812385 0.146307
Si Si2 0.933753 0.076214 0.147149
Si Si3 0.435346 0.364085 0.649253
Si Si4 0.066367 0.262905 0.350925
Si Si5 0.566316 0.000000 0.650493
Si Si6 0.064491 0.446323 0.852398
O O1 0.750000 0.805852 0.147788
O O2 0.965488 0.868088 0.170102
O O3 0.010975 0.778984 0.255481
O O4 0.000000 0.800712 0.000000
O O5 0.750000 0.069031 0.145680
O O6 0.007780 0.044820 0.263322
O O7 0.000000 0.063705 0.000000
O O8 0.500000 0.371705 0.500000
O O9 0.250000 0.361824 0.644144
O O10 0.499940 0.313483 0.696815
O O11 0.483527 0.406709 0.746346
O O12 0.250000 0.265253 0.356616
O O13 0.000000 0.255542 0.500000
O O14 0.500000 0.000000 0.500000
O O15 0.750000 0.000000 0.644293
O O16 0.250000 0.445584 0.858512
O O17 0.016889 0.500000 0.815056
O O18 0.000000 0.436346 0.000000
#
# Coordination Sequence:
#
# PCOD9404326 Si02
#       6
#     8   8   8   8   4   8
#     4  10  21  38  60  86 114 145 184 228 273 324
#     4  10  21  39  62  86 114 148 186 227 273 326
#     4  10  20  35  54  77 107 140 179 223 267 321
#     4  11  22  37  57  80 110 146 184 226 274 327
#     4  12  25  40  59  84 116 150 188 232 277 326
#     4   9  19  35  54  77 105 137 174 218 267 319
#
# _framework density 17.965350999999998
#
# number of rings (size 3 to 8) (size 9 to 14) (size 15 to 20)
#    0.000    1.818    0.000    5.455    0.000    5.455 
#    0.000    1.818    0.000    0.000    0.000    0.000 
#    0.000    0.000    0.000    0.000    0.000    0.000 
#
# Total GULP energy -245803.514367 kJ/mol
# GULP energy per Si atom -5586.443508 kJ/mol
# Density = 1.792446 g / cm^3
# Si number density = 17.965351 Si / 1000 Ang^3
#
#
#
# Elastic Constant Matrix: (Units=GPa)
#
#
# Indices 1 2 3 4 5 6 
#
# 1 102.0258 69.6277 63.2620 0.0000 0.0000 0.0000
# 2 69.6277 127.2346 102.9883 0.0000 0.0000 0.0000
# 3 63.2620 102.9883 125.6395 0.0000 0.0000 0.0000
# 4 0.0000 0.0000 0.0000 30.0618 0.0000 0.0000
# 5 0.0000 0.0000 0.0000 0.0000 36.6312 0.0000
# 6 0.0000 0.0000 0.0000 0.0000 0.0000 64.2603
#
#
#
# Elastic Compliance Matrix: (Units=1/GPa)
#
#
# Indices 1 2 3 4 5 6 
#
# 1 0.015925 -0.006610 -0.002600 0.000000 0.000000 0.000000
# 2 -0.006610 0.026101 -0.018067 0.000000 0.000000 0.000000
# 3 -0.002600 -0.018067 0.024078 0.000000 0.000000 0.000000
# 4 0.000000 0.000000 0.000000 0.033265 0.000000 0.000000
# 5 0.000000 0.000000 0.000000 0.000000 0.027299 0.000000
# 6 0.000000 0.000000 0.000000 0.000000 0.000000 0.015562
#
#
# Mechanical properties :
#
#
# Convention : Reuss Voigt Hill
#
# Bulk Modulus (GPa) = 86.58277 91.85065 89.21671
# Shear Modulus (GPa) = 24.92117 34.12545 29.52331
#
# Velocity S-wave (km/s) = 3.72853 4.36307 4.05822
# Velocity P-wave (km/s) = 8.17526 8.75325 8.46919
#
# Compressibility (1/GPa) = 0.01154964
#
# Stress axis : x y z
#
# Youngs Moduli (GPa) = 62.79575 38.31322 41.53161
#
# Poissons Ratio (x) = 0.25325 0.10799
# Poissons Ratio (y) = 0.41508 0.75034
# Poissons Ratio (z) = 0.16327 0.69220
#
# Static dielectric constant tensor:
#      x y z
#    x 1.600180 0.000000 0.000000 
#    y 0.000000 1.616490 0.000000 
#    z 0.000000 0.000000 1.576550 
# 
# From -- ./inp_files/5878.got.cif
#   From: 2010.05.17/outbox.cif.g08.bks.cpg/sg51_3_cif.got.tgz:5878.got - 2010.06.03 11:52:47.
