data_PCOD9404667
_publ_section_title
;
Structure prediction by ZEFSAII (Michael W. Deem and Ramdas Pophale) SiO2 
 PCOD9404667
Probable space group: P M M A
;
_chemical_formula_sum "Si O2"
_cell_formula_units_Z 64
_cell_length_a 8.698910
_cell_length_b 14.817337
_cell_length_c 25.709469
_cell_angle_alpha 90.000000
_cell_angle_beta 90.000000
_cell_angle_gamma 90.000000
_cell_volume 3313.813806
_symmetry_space_group_name_H-M "P M M A"
_symmetry_group_IT_number 51
_symmetry_cell_setting 'orthorhombic'
loop_
_space_group_symop_operation_xyz
x,y,z
1/2-x,-y,z
1/2+x,-y,-z
-x,y,-z
-x,-y,-z
1/2+x,y,-z
1/2-x,y,z
x,-y,z
loop_
_atom_site_type_symbol
_atom_site_label
_atom_site_fract_x
_atom_site_fract_y
_atom_site_fract_z
Si Si1 0.564981 0.704905 0.941626
Si Si2 0.566153 0.898549 0.281972
Si Si3 0.933195 0.395616 0.153094
Si Si4 0.065621 0.290759 0.444404
Si Si5 0.432425 0.715985 0.247507
Si Si6 0.935309 0.899576 0.601422
Si Si7 0.435302 0.096443 0.058726
Si Si8 0.434483 0.394375 0.654832
O O1 0.750000 0.698309 0.942707
O O2 0.493479 0.631845 0.903523
O O3 0.520559 0.805316 0.920038
O O4 0.500000 0.697216 0.000000
O O5 0.750000 0.890045 0.281184
O O6 0.491403 0.818450 0.249696
O O7 0.508347 0.889279 0.341482
O O8 0.524319 0.000000 0.264656
O O9 0.750000 0.383299 0.155856
O O10 0.967842 0.500000 0.164272
O O11 0.014049 0.333265 0.195489
O O12 0.250000 0.295459 0.444748
O O13 0.019131 0.186499 0.432682
O O14 0.000000 0.318750 0.500000
O O15 0.001735 0.351495 0.397696
O O16 0.250000 0.714866 0.252073
O O17 0.503346 0.662358 0.296457
O O18 0.750000 0.896951 0.607000
O O19 0.977402 0.000000 0.581533
O O20 0.250000 0.096300 0.056500
O O21 0.484013 0.000000 0.083087
O O22 0.500000 0.095879 0.000000
O O23 0.250000 0.387714 0.653917
O O24 0.476332 0.500000 0.659629
#
# Coordination Sequence:
#
# PCOD9404667 Si02
#       8
#     8   8   8   8   8   8   8   8
#     4  10  20  36  60  89 122 161 202 246 298 358
#     4  10  20  35  60  92 124 160 199 239 287 347
#     4  11  25  44  64  87 117 155 201 255 308 357
#     4  11  23  38  58  85 119 160 201 250 303 357
#     4  12  24  40  65  94 123 156 193 242 300 361
#     4   9  18  34  56  84 118 156 198 242 292 351
#     4   8  14  26  47  77 112 149 189 231 276 330
#     4  11  24  42  64  88 115 151 197 250 305 363
#
# _framework density 19.313094
#
# number of rings (size 3 to 8) (size 9 to 14) (size 15 to 20)
#    0.000    1.750    1.250    3.375    0.000    6.000 
#    0.000    0.625    0.000    2.250    0.000    0.000 
#    0.000    0.000    0.000    0.000    0.000    0.000 
#
# Total GULP energy -357399.201719 kJ/mol
# GULP energy per Si atom -5584.362527 kJ/mol
# Density = 1.926914 g / cm^3
# Si number density = 19.313094 Si / 1000 Ang^3
#
#
#
# Elastic Constant Matrix: (Units=GPa)
#
#
# Indices 1 2 3 4 5 6 
#
# 1 45.9931 44.7389 22.2478 0.0000 0.0000 0.0000
# 2 44.7389 110.3631 43.9124 0.0000 0.0000 0.0000
# 3 22.2478 43.9124 72.8821 0.0000 0.0000 0.0000
# 4 0.0000 0.0000 0.0000 0.3563 0.0000 0.0000
# 5 0.0000 0.0000 0.0000 0.0000 29.2795 0.0000
# 6 0.0000 0.0000 0.0000 0.0000 0.0000 22.6269
#
#
#
# Elastic Compliance Matrix: (Units=1/GPa)
#
#
# Indices 1 2 3 4 5 6 
#
# 1 0.036364 -0.013580 -0.002918 0.000000 0.000000 0.000000
# 2 -0.013580 0.016990 -0.006091 0.000000 0.000000 0.000000
# 3 -0.002918 -0.006091 0.018282 0.000000 0.000000 0.000000
# 4 0.000000 0.000000 0.000000 2.807005 0.000000 0.000000
# 5 0.000000 0.000000 0.000000 0.000000 0.034154 0.000000
# 6 0.000000 0.000000 0.000000 0.000000 0.000000 0.044195
#
#
# Mechanical properties :
#
#
# Convention : Reuss Voigt Hill
#
# Bulk Modulus (GPa) = 37.79808 50.11517 43.95662
# Shear Modulus (GPa) = 1.66059 18.34181 10.00120
#
# Velocity S-wave (km/s) = 0.92827 3.08508 2.27809
# Velocity P-wave (km/s) = 4.55660 6.22056 5.45243
#
# Compressibility (1/GPa) = 0.02645637
#
# Stress axis : x y z
#
# Youngs Moduli (GPa) = 27.50003 58.85954 54.70003
#
# Poissons Ratio (x) = 0.79931 0.15962
# Poissons Ratio (y) = 0.37345 0.33318
# Poissons Ratio (z) = 0.08025 0.35852
#
# Static dielectric constant tensor:
#      x y z
#    x 1.647250 0.000000 0.000000 
#    y 0.000000 1.711590 0.000000 
#    z 0.000000 0.000000 1.640560 
# 
# From -- ./inp_files/35027.got.cif
#   From: 2010.05.17/outbox.cif.g08.bks.cpg/sg51_18_cif.got.tgz:35027.got - 2010.06.03 11:52:47.
