data_PCOD9404665
_publ_section_title
;
Structure prediction by ZEFSAII (Michael W. Deem and Ramdas Pophale) SiO2 
 PCOD9404665
Probable space group: P M M A
;
_chemical_formula_sum "Si O2"
_cell_formula_units_Z 40
_cell_length_a 20.851042
_cell_length_b 8.032393
_cell_length_c 11.731105
_cell_angle_alpha 90.000000
_cell_angle_beta 90.000000
_cell_angle_gamma 90.000000
_cell_volume 1964.769619
_symmetry_space_group_name_H-M "P M M A"
_symmetry_group_IT_number 51
_symmetry_cell_setting 'orthorhombic'
loop_
_space_group_symop_operation_xyz
x,y,z
1/2-x,-y,z
1/2+x,-y,-z
-x,y,-z
-x,-y,-z
1/2+x,y,-z
1/2-x,y,z
x,-y,z
loop_
_atom_site_type_symbol
_atom_site_label
_atom_site_fract_x
_atom_site_fract_y
_atom_site_fract_z
Si Si1 0.507549 0.303061 0.369088
Si Si2 0.637452 0.804274 0.253777
Si Si3 0.750000 0.189812 0.652721
Si Si4 0.619469 0.202675 0.763509
Si Si5 0.750000 0.315065 0.410949
Si Si6 0.824525 0.202522 0.001734
O O1 0.500000 0.242276 0.500000
O O2 0.520717 0.500000 0.374560
O O3 0.566901 0.220241 0.303858
O O4 0.442970 0.271738 0.298197
O O5 0.688048 0.712000 0.333580
O O6 0.654038 0.000000 0.256438
O O7 0.646952 0.746172 0.123577
O O8 0.683585 0.261745 0.698141
O O9 0.750000 0.192738 0.517269
O O10 0.750000 0.000000 0.697118
O O11 0.631960 0.252449 0.894560
O O12 0.615066 0.000000 0.757818
O O13 0.750000 0.500000 0.460218
O O14 0.750000 0.256765 0.989915
O O15 0.823196 0.000000 0.000021
#
# Coordination Sequence:
#
# PCOD9404665 Si02
#       6
#     8   8   4   8   4   8
#     4  11  25  43  59  82 124 167 200 245 304 358
#     4  11  22  39  65  90 116 155 204 250 294 352
#     4  10  20  35  60  90 116 151 203 252 289 344
#     4  10  20  37  64  92 118 153 199 249 297 351
#     4  12  24  37  56  86 124 159 195 244 303 358
#     4   9  17  35  63  93 122 149 190 250 303 346
#
# _framework density 20.358620999999999
#
# number of rings (size 3 to 8) (size 9 to 14) (size 15 to 20)
#    0.000    1.600    2.000    3.300    0.000    6.400 
#    0.000    6.000    0.000    0.000    0.000    0.000 
#    0.000    0.000    0.000    0.000    0.000    0.000 
#
# Total GULP energy -223490.627799 kJ/mol
# GULP energy per Si atom -5587.265695 kJ/mol
# Density = 2.031228 g / cm^3
# Si number density = 20.358621 Si / 1000 Ang^3
#
#
#
# Elastic Constant Matrix: (Units=GPa)
#
#
# Indices 1 2 3 4 5 6 
#
# 1 120.3834 -10.8488 43.3299 0.0000 0.0000 0.0000
# 2 -10.8488 27.6698 -10.1865 0.0000 0.0000 0.0000
# 3 43.3299 -10.1865 135.0652 0.0000 0.0000 0.0000
# 4 0.0000 0.0000 0.0000 -4.3836 0.0000 0.0000
# 5 0.0000 0.0000 0.0000 0.0000 54.8991 0.0000
# 6 0.0000 0.0000 0.0000 0.0000 0.0000 169.2974
#
#
#
# Elastic Compliance Matrix: (Units=1/GPa)
#
#
# Indices 1 2 3 4 5 6 
#
# 1 0.009583 0.002701 -0.002871 0.000000 0.000000 0.000000
# 2 0.002701 0.037934 0.001995 0.000000 0.000000 0.000000
# 3 -0.002871 0.001995 0.008475 0.000000 0.000000 0.000000
# 4 0.000000 0.000000 0.000000 -0.228121 0.000000 0.000000
# 5 0.000000 0.000000 0.000000 0.000000 0.018215 0.000000
# 6 0.000000 0.000000 0.000000 0.000000 0.000000 0.005907
#
#
# Mechanical properties :
#
#
# Convention : Reuss Voigt Hill
#
# Bulk Modulus (GPa) = 16.76696 36.41195 26.58946
# Shear Modulus (GPa) = -37.94353 61.35083 11.70365
#
# Velocity S-wave (km/s) = -4.32181 5.49550 2.40025
# Velocity P-wave (km/s) = 4.08049 7.62833 4.55747
#
# Compressibility (1/GPa) = 0.05964109
#
# Stress axis : x y z
#
# Youngs Moduli (GPa) = 104.34663 26.36185 117.99106
#
# Poissons Ratio (x) = -0.07119 0.33872
# Poissons Ratio (y) = -0.28180 -0.23534
# Poissons Ratio (z) = 0.29955 -0.05258
#
# Static dielectric constant tensor:
#      x y z
#    x 1.682680 0.000000 0.000000 
#    y 0.000000 1.735060 0.000000 
#    z 0.000000 0.000000 1.707580 
# 
# From -- ./inp_files/17938.got.cif
#   From: 2010.05.17/outbox.cif.g08.bks.cpg/sg51_9_cif.got.tgz:17938.got - 2010.06.03 11:52:47.
