data_PCOD9404549
_publ_section_title
;
Structure prediction by ZEFSAII (Michael W. Deem and Ramdas Pophale) SiO2 
 PCOD9404549
Probable space group: P M M A
;
_chemical_formula_sum "Si O2"
_cell_formula_units_Z 48
_cell_length_a 16.237813
_cell_length_b 8.141811
_cell_length_c 18.312821
_cell_angle_alpha 90.000000
_cell_angle_beta 90.000000
_cell_angle_gamma 90.000000
_cell_volume 2421.050245
_symmetry_space_group_name_H-M "P M M A"
_symmetry_group_IT_number 51
_symmetry_cell_setting 'orthorhombic'
loop_
_space_group_symop_operation_xyz
x,y,z
1/2-x,-y,z
1/2+x,-y,-z
-x,y,-z
-x,-y,-z
1/2+x,y,-z
1/2-x,y,z
x,-y,z
loop_
_atom_site_type_symbol
_atom_site_label
_atom_site_fract_x
_atom_site_fract_y
_atom_site_fract_z
Si Si1 0.955833 0.311310 0.577720
Si Si2 0.077366 0.308081 0.709857
Si Si3 0.569671 0.316263 0.810348
Si Si4 0.592595 0.805830 0.969154
Si Si5 0.750000 0.807393 0.234425
Si Si6 0.159415 0.000000 0.419905
Si Si7 0.750000 0.799852 0.067714
Si Si8 0.838928 0.000000 0.753048
O O1 0.927703 0.500000 0.596313
O O2 0.000000 0.322965 0.500000
O O3 0.018835 0.254180 0.642336
O O4 0.888522 0.169603 0.565808
O O5 0.090056 0.500000 0.696601
O O6 0.166912 0.234285 0.722015
O O7 0.024624 0.289327 0.784598
O O8 0.592109 0.500000 0.785181
O O9 0.589119 0.297678 0.895262
O O10 0.616809 0.167169 0.773734
O O11 0.606309 0.000000 0.951340
O O12 0.500000 0.794058 0.000000
O O13 0.666375 0.754420 0.023656
O O14 0.750000 0.735684 0.151356
O O15 0.750000 0.000000 0.223662
O O16 0.168038 0.000000 0.333056
O O17 0.250000 0.000000 0.454575
O O18 0.750000 0.000000 0.069631
O O19 0.750000 0.000000 0.789864
#
# Coordination Sequence:
#
# PCOD9404549 Si02
#       8
#     8   8   8   8   4   4   4   4
#     4  10  22  43  68  95 135 179 214 263 326 384
#     4  10  22  41  62  89 125 164 210 262 313 378
#     4  11  23  39  63  88 120 165 210 255 314 386
#     4  10  20  35  57  83 116 160 204 255 317 380
#     4  11  23  37  65  95 120 163 212 263 319 380
#     4  11  23  41  67 100 129 171 221 269 314 385
#     4   9  20  37  55  85 122 156 203 256 319 382
#     4  11  24  39  62  88 124 159 202 266 316 361
#
# _framework density 19.826105999999999
#
# number of rings (size 3 to 8) (size 9 to 14) (size 15 to 20)
#    0.000    1.667    2.500    1.500    3.500    2.333 
#    1.500    3.333    0.000    0.000    0.000    0.000 
#    0.000    0.000    0.000    0.000    0.000    0.000 
#
# Total GULP energy -267576.394665 kJ/mol
# GULP energy per Si atom -5574.508222 kJ/mol
# Density = 1.978098 g / cm^3
# Si number density = 19.826106 Si / 1000 Ang^3
#
#
#
# Elastic Constant Matrix: (Units=GPa)
#
#
# Indices 1 2 3 4 5 6 
#
# 1 141.5078 68.5342 28.0013 0.0000 0.0000 0.0000
# 2 68.5342 105.2650 14.5957 0.0000 0.0000 0.0000
# 3 28.0013 14.5957 65.7399 0.0000 0.0000 0.0000
# 4 0.0000 0.0000 0.0000 418.6092 0.0000 0.0000
# 5 0.0000 0.0000 0.0000 0.0000 15.3954 0.0000
# 6 0.0000 0.0000 0.0000 0.0000 0.0000 14.3312
#
#
#
# Elastic Compliance Matrix: (Units=1/GPa)
#
#
# Indices 1 2 3 4 5 6 
#
# 1 0.010927 -0.006674 -0.003172 0.000000 0.000000 0.000000
# 2 -0.006674 0.013878 -0.000238 0.000000 0.000000 0.000000
# 3 -0.003172 -0.000238 0.016616 0.000000 0.000000 0.000000
# 4 0.000000 0.000000 0.000000 0.002389 0.000000 0.000000
# 5 0.000000 0.000000 0.000000 0.000000 0.064955 0.000000
# 6 0.000000 0.000000 0.000000 0.000000 0.000000 0.069778
#
#
# Mechanical properties :
#
#
# Convention : Reuss Voigt Hill
#
# Bulk Modulus (GPa) = 47.05735 59.41946 53.23841
# Shear Modulus (GPa) = 24.29591 103.09258 63.69424
#
# Velocity S-wave (km/s) = 3.50444 7.21881 5.67417
# Velocity P-wave (km/s) = 6.33730 9.97583 8.35699
#
# Compressibility (1/GPa) = 0.02125066
#
# Stress axis : x y z
#
# Youngs Moduli (GPa) = 91.51706 72.05519 60.18418
#
# Poissons Ratio (x) = 0.48091 0.19093
# Poissons Ratio (y) = 0.61081 0.01435
# Poissons Ratio (z) = 0.29033 0.01718
#
# Static dielectric constant tensor:
#      x y z
#    x 1.752840 0.000000 0.000000 
#    y 0.000000 1.624660 0.000000 
#    z 0.000000 0.000000 1.719240 
# 
# From -- ./inp_files/29664.got.cif
#   From: 2010.05.17/outbox.cif.g08.bks.cpg/sg51_15_cif.got.tgz:29664.got - 2010.06.03 11:52:47.
