data_PCOD9404704
_publ_section_title
;
Structure prediction by ZEFSAII (Michael W. Deem and Ramdas Pophale) SiO2 
 PCOD9404704
Probable space group: P M M A
;
_chemical_formula_sum "Si O2"
_cell_formula_units_Z 44
_cell_length_a 9.575334
_cell_length_b 15.933891
_cell_length_c 16.001554
_cell_angle_alpha 90.000000
_cell_angle_beta 90.000000
_cell_angle_gamma 90.000000
_cell_volume 2441.394349
_symmetry_space_group_name_H-M "P M M A"
_symmetry_group_IT_number 51
_symmetry_cell_setting 'orthorhombic'
loop_
_space_group_symop_operation_xyz
x,y,z
1/2-x,-y,z
1/2+x,-y,-z
-x,y,-z
-x,-y,-z
1/2+x,y,-z
1/2-x,y,z
x,-y,z
loop_
_atom_site_type_symbol
_atom_site_label
_atom_site_fract_x
_atom_site_fract_y
_atom_site_fract_z
Si Si1 0.082984 0.500000 0.827868
Si Si2 0.086098 0.903507 0.660701
Si Si3 0.589393 0.500000 0.374241
Si Si4 0.912946 0.776099 0.765160
Si Si5 0.596694 0.344964 0.612620
Si Si6 0.080699 0.654925 0.087413
Si Si7 0.500000 0.201805 0.500000
O O1 0.250000 0.500000 0.850810
O O2 0.077515 0.500000 0.727066
O O3 0.999104 0.579533 0.864696
O O4 0.250000 0.902296 0.679062
O O5 0.005228 0.852161 0.731880
O O6 0.063125 0.856146 0.572404
O O7 0.038801 0.000000 0.654491
O O8 0.750000 0.500000 0.398559
O O9 0.514900 0.416093 0.405347
O O10 0.750000 0.798667 0.756869
O O11 0.937805 0.699129 0.700831
O O12 0.937341 0.738501 0.856541
O O13 0.750000 0.383673 0.617916
O O14 0.598122 0.267676 0.548239
O O15 0.250000 0.639651 0.079664
O O16 0.000000 0.663143 0.000000
#
# Coordination Sequence:
#
# PCOD9404704 Si02
#       7
#     4   8   4   8   8   8   4
#     4  11  22  36  54  82 113 150 192 234 280 325
#     4  10  21  37  60  88 115 143 178 225 279 335
#     4  11  23  35  53  77 106 145 192 237 277 320
#     4   9  20  37  57  81 111 147 184 224 276 333
#     4  10  20  36  56  76 104 146 190 230 275 326
#     4  11  22  37  57  84 116 151 188 232 278 326
#     4  10  21  37  56  84 112 144 182 227 279 330
#
# _framework density 18.022489
#
# number of rings (size 3 to 8) (size 9 to 14) (size 15 to 20)
#    0.000    1.818    1.818    2.182    0.000    7.273 
#    0.000    0.000    0.000    0.545    0.000    0.000 
#    0.000    0.000    0.000    0.000    0.000    0.000 
#
# Total GULP energy -245484.049058 kJ/mol
# GULP energy per Si atom -5579.182933 kJ/mol
# Density = 1.798147 g / cm^3
# Si number density = 18.022489 Si / 1000 Ang^3
#
#
#
# Elastic Constant Matrix: (Units=GPa)
#
#
# Indices 1 2 3 4 5 6 
#
# 1 107.6434 85.2255 41.0227 0.0000 0.0000 0.0000
# 2 85.2255 128.9331 49.8092 0.0000 0.0000 0.0000
# 3 41.0227 49.8092 93.4835 0.0000 0.0000 0.0000
# 4 0.0000 0.0000 0.0000 9.9957 0.0000 0.0000
# 5 0.0000 0.0000 0.0000 0.0000 3.9032 0.0000
# 6 0.0000 0.0000 0.0000 0.0000 0.0000 29.7934
#
#
#
# Elastic Compliance Matrix: (Units=1/GPa)
#
#
# Indices 1 2 3 4 5 6 
#
# 1 0.019831 -0.012273 -0.002163 0.000000 0.000000 0.000000
# 2 -0.012273 0.017361 -0.003865 0.000000 0.000000 0.000000
# 3 -0.002163 -0.003865 0.013706 0.000000 0.000000 0.000000
# 4 0.000000 0.000000 0.000000 0.100043 0.000000 0.000000
# 5 0.000000 0.000000 0.000000 0.000000 0.256202 0.000000
# 6 0.000000 0.000000 0.000000 0.000000 0.000000 0.033564
#
#
# Mechanical properties :
#
#
# Convention : Reuss Voigt Hill
#
# Bulk Modulus (GPa) = 69.94751 75.79720 72.87235
# Shear Modulus (GPa) = 10.37182 19.00529 14.68855
#
# Velocity S-wave (km/s) = 2.40155 3.25088 2.85794
# Velocity P-wave (km/s) = 6.82535 7.49928 7.17024
#
# Compressibility (1/GPa) = 0.01429643
#
# Stress axis : x y z
#
# Youngs Moduli (GPa) = 50.42541 57.59893 72.96304
#
# Poissons Ratio (x) = 0.70690 0.15784
# Poissons Ratio (y) = 0.61886 0.28199
# Poissons Ratio (z) = 0.10908 0.22261
#
# Static dielectric constant tensor:
#      x y z
#    x 1.618890 0.000000 0.000000 
#    y 0.000000 1.595670 0.000000 
#    z 0.000000 0.000000 1.643360 
# 
# From -- ./inp_files/27445.got.cif
#   From: 2010.05.17/outbox.cif.g08.bks.cpg/sg51_14_cif.got.tgz:27445.got - 2010.06.03 11:52:47.
