data_PCOD9404974
_publ_section_title
;
Structure prediction by ZEFSAII (Michael W. Deem and Ramdas Pophale) SiO2 
 PCOD9404974
Probable space group: P M M A
;
_chemical_formula_sum "Si O2"
_cell_formula_units_Z 64
_cell_length_a 14.588759
_cell_length_b 18.792932
_cell_length_c 11.826634
_cell_angle_alpha 90.000000
_cell_angle_beta 90.000000
_cell_angle_gamma 90.000000
_cell_volume 3242.455684
_symmetry_space_group_name_H-M "P M M A"
_symmetry_group_IT_number 51
_symmetry_cell_setting 'orthorhombic'
loop_
_space_group_symop_operation_xyz
x,y,z
1/2-x,-y,z
1/2+x,-y,-z
-x,y,-z
-x,-y,-z
1/2+x,y,-z
1/2-x,y,z
x,-y,z
loop_
_atom_site_type_symbol
_atom_site_label
_atom_site_fract_x
_atom_site_fract_y
_atom_site_fract_z
Si Si1 0.644686 0.582058 0.257818
Si Si2 0.357420 0.667627 0.523703
Si Si3 0.011151 0.808177 0.131869
Si Si4 0.139407 0.580863 0.314674
Si Si5 0.520604 0.355360 0.871557
Si Si6 0.109786 0.918289 0.511367
Si Si7 0.853810 0.916429 0.745549
Si Si8 0.644136 0.794948 0.317222
O O1 0.750000 0.593524 0.222626
O O2 0.620579 0.500000 0.238756
O O3 0.639686 0.601665 0.389773
O O4 0.574655 0.632138 0.193541
O O5 0.250000 0.685135 0.502490
O O6 0.396451 0.639095 0.405642
O O7 0.393747 0.734693 0.595096
O O8 0.048561 0.727300 0.133258
O O9 0.918396 0.804453 0.206855
O O10 0.077889 0.864411 0.190758
O O11 0.000000 0.827131 0.000000
O O12 0.250000 0.584861 0.311640
O O13 0.114899 0.500000 0.347854
O O14 0.095559 0.598714 0.194296
O O15 0.500000 0.375943 0.000000
O O16 0.146063 0.897970 0.387638
O O17 0.141788 0.866861 0.609878
O O18 0.000000 0.914425 0.500000
O O19 0.135470 0.000000 0.533814
O O20 0.750000 0.909737 0.788693
O O21 0.881248 0.000000 0.753358
O O22 0.750000 0.776359 0.288961
#
# Coordination Sequence:
#
# PCOD9404974 Si02
#       8
#     8   8   8   8   8   8   8   8
#     4  10  20  37  62  87 115 155 201 251 306 364
#     4   9  19  36  59  89 121 153 193 245 309 375
#     4  11  25  43  63  89 125 168 212 261 310 362
#     4  10  22  40  62  90 123 157 199 258 319 371
#     4  11  25  42  59  84 121 164 209 252 297 360
#     4  10  20  36  62  96 131 164 197 243 308 378
#     4  10  22  42  67  94 126 164 207 255 309 372
#     4  11  22  38  64  93 125 163 204 254 313 375
#
# _framework density 19.738126000000001
#
# number of rings (size 3 to 8) (size 9 to 14) (size 15 to 20)
#    0.000    1.750    2.500    1.125    1.750    5.500 
#    0.000    5.000    0.000    0.000    0.000    0.000 
#    0.000    0.000    0.000    0.000    0.000    0.000 
#
# Total GULP energy -357351.848848 kJ/mol
# GULP energy per Si atom -5583.622638 kJ/mol
# Density = 1.969320 g / cm^3
# Si number density = 19.738126 Si / 1000 Ang^3
#
#
#
# Elastic Constant Matrix: (Units=GPa)
#
#
# Indices 1 2 3 4 5 6 
#
# 1 65.9521 27.4918 28.8458 0.0000 0.0000 0.0000
# 2 27.4918 76.1930 55.6606 0.0000 0.0000 0.0000
# 3 28.8458 55.6606 116.3868 0.0000 0.0000 0.0000
# 4 0.0000 0.0000 0.0000 27.0070 0.0000 0.0000
# 5 0.0000 0.0000 0.0000 0.0000 31.2756 0.0000
# 6 0.0000 0.0000 0.0000 0.0000 0.0000 15.8293
#
#
#
# Elastic Compliance Matrix: (Units=1/GPa)
#
#
# Indices 1 2 3 4 5 6 
#
# 1 0.018176 -0.005022 -0.002103 0.000000 0.000000 0.000000
# 2 -0.005022 0.021559 -0.009066 0.000000 0.000000 0.000000
# 3 -0.002103 -0.009066 0.013449 0.000000 0.000000 0.000000
# 4 0.000000 0.000000 0.000000 0.037027 0.000000 0.000000
# 5 0.000000 0.000000 0.000000 0.000000 0.031974 0.000000
# 6 0.000000 0.000000 0.000000 0.000000 0.000000 0.063174
#
#
# Mechanical properties :
#
#
# Convention : Reuss Voigt Hill
#
# Bulk Modulus (GPa) = 48.07130 53.61423 50.84277
# Shear Modulus (GPa) = 22.25441 24.59131 23.42286
#
# Velocity S-wave (km/s) = 3.36144 3.53353 3.44856
# Velocity P-wave (km/s) = 6.28277 6.62341 6.45533
#
# Compressibility (1/GPa) = 0.02080243
#
# Stress axis : x y z
#
# Youngs Moduli (GPa) = 55.01865 46.38366 74.35520
#
# Poissons Ratio (x) = 0.23292 0.15638
# Poissons Ratio (y) = 0.27629 0.67410
# Poissons Ratio (z) = 0.11571 0.42051
#
# Static dielectric constant tensor:
#      x y z
#    x 1.494670 0.000000 0.000000 
#    y 0.000000 1.696050 0.000000 
#    z 0.000000 0.000000 1.675920 
# 
# From -- ./inp_files/16810.got.cif
#   From: 2010.05.17/outbox.cif.g08.bks.cpg/sg51_9_cif.got.tgz:16810.got - 2010.06.03 11:52:47.
