data_PCOD9404267
_publ_section_title
;
Structure prediction by ZEFSAII (Michael W. Deem and Ramdas Pophale) SiO2 
 PCOD9404267
Probable space group: P M M A
;
_chemical_formula_sum "Si O2"
_cell_formula_units_Z 64
_cell_length_a 18.343835
_cell_length_b 20.781232
_cell_length_c 9.952515
_cell_angle_alpha 90.000000
_cell_angle_beta 90.000000
_cell_angle_gamma 90.000000
_cell_volume 3793.973271
_symmetry_space_group_name_H-M "P M M A"
_symmetry_group_IT_number 51
_symmetry_cell_setting 'orthorhombic'
loop_
_space_group_symop_operation_xyz
x,y,z
1/2-x,-y,z
1/2+x,-y,-z
-x,y,-z
-x,-y,-z
1/2+x,y,-z
1/2-x,y,z
x,-y,z
loop_
_atom_site_type_symbol
_atom_site_label
_atom_site_fract_x
_atom_site_fract_y
_atom_site_fract_z
Si Si1 0.838642 0.927610 0.119603
Si Si2 0.574392 0.424294 0.083007
Si Si3 0.906982 0.321390 0.629634
Si Si4 0.163628 0.574116 0.178295
Si Si5 0.838839 0.072109 0.809221
Si Si6 0.661945 0.191903 0.303908
Si Si7 0.421864 0.322619 0.679876
Si Si8 0.337308 0.814932 0.383340
O O1 0.750000 0.928311 0.123310
O O2 0.861269 0.868092 0.211837
O O3 0.862299 0.000000 0.160537
O O4 0.860117 0.917354 0.964298
O O5 0.571153 0.500000 0.120176
O O6 0.584930 0.379386 0.211802
O O7 0.500000 0.409440 0.000000
O O8 0.638211 0.414424 0.974421
O O9 0.876760 0.377559 0.722874
O O10 0.894777 0.337693 0.471878
O O11 0.867413 0.254191 0.658330
O O12 0.992112 0.311084 0.659546
O O13 0.250000 0.581429 0.191192
O O14 0.143552 0.500000 0.209423
O O15 0.750000 0.072824 0.806706
O O16 0.865106 0.127496 0.710042
O O17 0.861452 0.000000 0.769134
O O18 0.750000 0.200712 0.291215
O O19 0.620353 0.258391 0.273263
O O20 0.645484 0.175717 0.459532
O O21 0.250000 0.813454 0.372074
#
# Coordination Sequence:
#
# PCOD9404267 Si02
#       8
#     8   8   8   8   8   8   8   8
#     4   8  14  26  44  67  96 128 164 209 259 307
#     4  10  20  37  57  78 105 136 173 216 260 310
#     4  10  20  35  53  76 105 138 174 213 257 314
#     4  10  21  37  57  81 108 137 171 214 262 310
#     4   8  14  25  42  66  94 123 160 205 250 299
#     4   9  18  31  47  71 101 131 166 210 257 307
#     4  10  21  35  54  77 104 138 176 215 261 310
#     4   9  17  29  46  69  98 129 162 206 256 303
#
# _framework density 16.868859
#
# number of rings (size 3 to 8) (size 9 to 14) (size 15 to 20)
#    0.000    2.750    1.250    1.125    0.000    3.000 
#    0.000    5.000    0.000    2.250    0.000    5.250 
#    0.000    0.000    0.000    0.000    0.000    0.000 
#
# Total GULP energy -356570.350689 kJ/mol
# GULP energy per Si atom -5571.411730 kJ/mol
# Density = 1.683046 g / cm^3
# Si number density = 16.868859 Si / 1000 Ang^3
#
#
#
# Elastic Constant Matrix: (Units=GPa)
#
#
# Indices 1 2 3 4 5 6 
#
# 1 20.1335 35.0287 23.5065 0.0000 0.0000 0.0000
# 2 35.0287 150.4180 100.6833 0.0000 0.0000 0.0000
# 3 23.5065 100.6833 87.2529 0.0000 0.0000 0.0000
# 4 0.0000 0.0000 0.0000 36.3356 0.0000 0.0000
# 5 0.0000 0.0000 0.0000 0.0000 16.2134 0.0000
# 6 0.0000 0.0000 0.0000 0.0000 0.0000 3.0125
#
#
#
# Elastic Compliance Matrix: (Units=1/GPa)
#
#
# Indices 1 2 3 4 5 6 
#
# 1 0.083500 -0.019277 -0.000251 0.000000 0.000000 0.000000
# 2 -0.019277 0.033658 -0.033646 0.000000 0.000000 0.000000
# 3 -0.000251 -0.033646 0.050354 0.000000 0.000000 0.000000
# 4 0.000000 0.000000 0.000000 0.027521 0.000000 0.000000
# 5 0.000000 0.000000 0.000000 0.000000 0.061677 0.000000
# 6 0.000000 0.000000 0.000000 0.000000 0.000000 0.331945
#
#
# Mechanical properties :
#
#
# Convention : Reuss Voigt Hill
#
# Bulk Modulus (GPa) = 16.34951 64.02680 40.18816
# Shear Modulus (GPa) = 6.98917 17.68472 12.33695
#
# Velocity S-wave (km/s) = 2.03770 3.24136 2.70727
# Velocity P-wave (km/s) = 3.90506 7.21433 5.80069
#
# Compressibility (1/GPa) = 0.06116392
#
# Stress axis : x y z
#
# Youngs Moduli (GPa) = 11.97598 29.71021 19.85958
#
# Poissons Ratio (x) = 0.57273 0.00499
# Poissons Ratio (y) = 0.23086 0.66819
# Poissons Ratio (z) = 0.00301 0.99963
#
# Static dielectric constant tensor:
#      x y z
#    x 1.569640 0.000000 0.000000 
#    y 0.000000 1.556830 0.000000 
#    z 0.000000 0.000000 1.563430 
# 
# From -- ./inp_files/10040.got.cif
#   From: 2010.05.17/outbox.cif.g08.bks.cpg/sg51_6_cif.got.tgz:10040.got - 2010.06.03 11:52:47.
