data_PCOD9404862
_publ_section_title
;
Structure prediction by ZEFSAII (Michael W. Deem and Ramdas Pophale) SiO2 
 PCOD9404862
Probable space group: P M M A
;
_chemical_formula_sum "Si O2"
_cell_formula_units_Z 48
_cell_length_a 31.587651
_cell_length_b 8.456520
_cell_length_c 9.393709
_cell_angle_alpha 90.000000
_cell_angle_beta 90.000000
_cell_angle_gamma 90.000000
_cell_volume 2509.262601
_symmetry_space_group_name_H-M "P M M A"
_symmetry_group_IT_number 51
_symmetry_cell_setting 'orthorhombic'
loop_
_space_group_symop_operation_xyz
x,y,z
1/2-x,-y,z
1/2+x,-y,-z
-x,y,-z
-x,-y,-z
1/2+x,y,-z
1/2-x,y,z
x,-y,z
loop_
_atom_site_type_symbol
_atom_site_label
_atom_site_fract_x
_atom_site_fract_y
_atom_site_fract_z
Si Si1 0.121734 0.689270 0.415563
Si Si2 0.201968 0.691232 0.903938
Si Si3 0.458952 0.691208 0.910724
Si Si4 0.541051 0.189203 0.411553
Si Si5 0.298416 0.810676 0.584869
Si Si6 0.622858 0.307000 0.910619
O O1 0.118458 0.500000 0.416836
O O2 0.083607 0.756539 0.509685
O O3 0.166535 0.738023 0.482465
O O4 0.118567 0.745425 0.252218
O O5 0.250000 0.737608 0.942856
O O6 0.200600 0.500000 0.895558
O O7 0.192787 0.757398 0.746955
O O8 0.166635 0.743401 0.015894
O O9 0.458846 0.500000 0.908268
O O10 0.460155 0.749261 0.749406
O O11 0.500000 0.742878 0.000000
O O12 0.416634 0.743765 0.992769
O O13 0.500000 0.246162 0.500000
O O14 0.540140 0.000000 0.408558
O O15 0.250000 0.760872 0.551469
O O16 0.300505 0.000000 0.577227
O O17 0.622774 0.500000 0.909031
#
# Coordination Sequence:
#
# PCOD9404862 Si02
#       6
#     8   8   8   8   8   8
#     4  11  22  37  59  84 112 147 188 233 280 331
#     4   9  17  32  55  80 106 140 184 230 274 325
#     4  10  20  36  59  84 110 142 184 231 276 326
#     4  11  24  40  58  83 116 151 187 228 277 334
#     4  10  21  37  56  81 115 151 187 229 278 334
#     4   9  19  34  53  80 109 138 178 229 279 324
#
# _framework density 19.129127
#
# number of rings (size 3 to 8) (size 9 to 14) (size 15 to 20)
#    0.000    2.000    0.000    3.500    0.000    6.000 
#    0.000    5.000    0.000    2.000    0.000    0.000 
#    0.000    0.000    0.000    0.000    0.000    0.000 
#
# Total GULP energy -268163.792573 kJ/mol
# GULP energy per Si atom -5586.745679 kJ/mol
# Density = 1.908559 g / cm^3
# Si number density = 19.129127 Si / 1000 Ang^3
#
#
#
# Elastic Constant Matrix: (Units=GPa)
#
#
# Indices 1 2 3 4 5 6 
#
# 1 146.2718 19.0546 118.9810 0.0000 0.0000 0.0000
# 2 19.0546 13.6882 21.5022 0.0000 0.0000 0.0000
# 3 118.9810 21.5022 191.4789 0.0000 0.0000 0.0000
# 4 0.0000 0.0000 0.0000 -23.5900 0.0000 0.0000
# 5 0.0000 0.0000 0.0000 0.0000 42.7593 0.0000
# 6 0.0000 0.0000 0.0000 0.0000 0.0000 -11.7682
#
#
#
# Elastic Compliance Matrix: (Units=1/GPa)
#
#
# Indices 1 2 3 4 5 6 
#
# 1 0.014396 -0.007270 -0.008129 0.000000 0.000000 0.000000
# 2 -0.007270 0.092375 -0.005856 0.000000 0.000000 0.000000
# 3 -0.008129 -0.005856 0.010931 0.000000 0.000000 0.000000
# 4 0.000000 0.000000 0.000000 -0.042391 0.000000 0.000000
# 5 0.000000 0.000000 0.000000 0.000000 0.023387 0.000000
# 6 0.000000 0.000000 0.000000 0.000000 0.000000 -0.084975
#
#
# Mechanical properties :
#
#
# Convention : Reuss Voigt Hill
#
# Bulk Modulus (GPa) = 13.29931 74.50164 43.90047
# Shear Modulus (GPa) = 61.50318 14.27362 37.88840
#
# Velocity S-wave (km/s) = 5.67639 2.73458 4.45529
# Velocity P-wave (km/s) = 7.06607 7.00013 7.03318
#
# Compressibility (1/GPa) = 0.07519189
#
# Stress axis : x y z
#
# Youngs Moduli (GPa) = 69.46397 10.82549 91.48134
#
# Poissons Ratio (x) = 0.07871 0.74364
# Poissons Ratio (y) = 0.50504 0.53567
# Poissons Ratio (z) = 0.56467 0.06339
#
# Static dielectric constant tensor:
#      x y z
#    x 1.657460 0.000000 0.000000 
#    y 0.000000 1.650140 0.000000 
#    z 0.000000 0.000000 1.625520 
# 
# From -- ./inp_files/12727.got.cif
#   From: 2010.05.17/outbox.cif.g08.bks.cpg/sg51_7_cif.got.tgz:12727.got - 2010.06.03 11:52:47.
