data_PCOD9404634
_publ_section_title
;
Structure prediction by ZEFSAII (Michael W. Deem and Ramdas Pophale) SiO2 
 PCOD9404634
Probable space group: P M M A
;
_chemical_formula_sum "Si O2"
_cell_formula_units_Z 40
_cell_length_a 7.759692
_cell_length_b 9.073153
_cell_length_c 29.896633
_cell_angle_alpha 90.000000
_cell_angle_beta 90.000000
_cell_angle_gamma 90.000000
_cell_volume 2104.868642
_symmetry_space_group_name_H-M "P M M A"
_symmetry_group_IT_number 51
_symmetry_cell_setting 'orthorhombic'
loop_
_space_group_symop_operation_xyz
x,y,z
1/2-x,-y,z
1/2+x,-y,-z
-x,y,-z
-x,-y,-z
1/2+x,y,-z
1/2-x,y,z
x,-y,z
loop_
_atom_site_type_symbol
_atom_site_label
_atom_site_fract_x
_atom_site_fract_y
_atom_site_fract_z
Si Si1 0.750000 0.824036 0.805129
Si Si2 0.250000 0.322013 0.291740
Si Si3 0.544076 0.171140 0.949471
Si Si4 0.543433 0.168006 0.451322
Si Si5 0.553609 0.673759 0.139732
Si Si6 0.049839 0.323200 0.639646
O O1 0.750000 0.758991 0.755352
O O2 0.583104 0.763504 0.831252
O O3 0.750000 0.000000 0.805222
O O4 0.250000 0.500000 0.285075
O O5 0.419005 0.282874 0.320886
O O6 0.750000 0.175689 0.943826
O O7 0.462173 0.270382 0.911222
O O8 0.487911 0.000000 0.944335
O O9 0.500000 0.216809 0.000000
O O10 0.500000 0.232502 0.500000
O O11 0.750000 0.162080 0.449078
O O12 0.488059 0.255368 0.407412
O O13 0.475465 0.000000 0.450074
O O14 0.750000 0.696251 0.155137
O O15 0.513964 0.500000 0.142118
O O16 0.250000 0.278856 0.647846
O O17 0.047221 0.500000 0.635643
#
# Coordination Sequence:
#
# PCOD9404634 Si02
#       6
#     4   4   8   8   8   8
#     4  12  26  44  66  94 124 158 204 260 315 370
#     4  10  22  40  62  86 114 150 194 244 301 362
#     4  10  20  35  58  90 128 170 210 252 303 362
#     4   9  18  31  48  74 108 146 186 230 280 337
#     4  11  24  42  65  92 125 166 207 254 310 366
#     4   9  19  36  56  80 111 146 186 235 288 345
#
# _framework density 19.00356
#
# number of rings (size 3 to 8) (size 9 to 14) (size 15 to 20)
#    0.000    2.000    1.000    2.100    1.400    4.800 
#    0.000    2.000    0.000    0.000    0.000    0.000 
#    0.000    0.000    0.000    0.000    0.000    0.000 
#
# Total GULP energy -223374.355072 kJ/mol
# GULP energy per Si atom -5584.358877 kJ/mol
# Density = 1.896031 g / cm^3
# Si number density = 19.003560 Si / 1000 Ang^3
#
#
#
# Elastic Constant Matrix: (Units=GPa)
#
#
# Indices 1 2 3 4 5 6 
#
# 1 94.5756 55.0400 68.4168 0.0000 0.0000 0.0000
# 2 55.0400 72.9741 73.6506 0.0000 0.0000 0.0000
# 3 68.4168 73.6506 163.2620 0.0000 0.0000 0.0000
# 4 0.0000 0.0000 0.0000 39.4840 0.0000 0.0000
# 5 0.0000 0.0000 0.0000 0.0000 27.8963 0.0000
# 6 0.0000 0.0000 0.0000 0.0000 0.0000 -14.5339
#
#
#
# Elastic Compliance Matrix: (Units=1/GPa)
#
#
# Indices 1 2 3 4 5 6 
#
# 1 0.019531 -0.011879 -0.002826 0.000000 0.000000 0.000000
# 2 -0.011879 0.032383 -0.009630 0.000000 0.000000 0.000000
# 3 -0.002826 -0.009630 0.011654 0.000000 0.000000 0.000000
# 4 0.000000 0.000000 0.000000 0.025327 0.000000 0.000000
# 5 0.000000 0.000000 0.000000 0.000000 0.035847 0.000000
# 6 0.000000 0.000000 0.000000 0.000000 0.000000 -0.068804
#
#
# Mechanical properties :
#
#
# Convention : Reuss Voigt Hill
#
# Bulk Modulus (GPa) = 67.12764 80.55851 73.84308
# Shear Modulus (GPa) = 45.63153 19.48290 32.55721
#
# Velocity S-wave (km/s) = 4.90553 3.20539 4.14359
# Velocity P-wave (km/s) = 8.21499 7.49551 7.86348
#
# Compressibility (1/GPa) = 0.01489699
#
# Stress axis : x y z
#
# Youngs Moduli (GPa) = 51.20059 30.88051 85.80879
#
# Poissons Ratio (x) = 0.36683 0.24248
# Poissons Ratio (y) = 0.60821 0.82638
# Poissons Ratio (z) = 0.14468 0.29739
#
# Static dielectric constant tensor:
#      x y z
#    x 1.652040 0.000000 0.000000 
#    y 0.000000 1.646460 0.000000 
#    z 0.000000 0.000000 1.636640 
# 
# From -- ./inp_files/36006.got.cif
#   From: 2010.05.17/outbox.cif.g08.bks.cpg/sg51_19_cif.got.tgz:36006.got - 2010.06.03 11:52:47.
