data_PCOD9404773
_publ_section_title
;
Structure prediction by ZEFSAII (Michael W. Deem and Ramdas Pophale) SiO2 
 PCOD9404773
Probable space group: P M M A
;
_chemical_formula_sum "Si O2"
_cell_formula_units_Z 56
_cell_length_a 18.748653
_cell_length_b 19.906284
_cell_length_c 8.123707
_cell_angle_alpha 90.000000
_cell_angle_beta 90.000000
_cell_angle_gamma 90.000000
_cell_volume 3031.897523
_symmetry_space_group_name_H-M "P M M A"
_symmetry_group_IT_number 51
_symmetry_cell_setting 'orthorhombic'
loop_
_space_group_symop_operation_xyz
x,y,z
1/2-x,-y,z
1/2+x,-y,-z
-x,y,-z
-x,-y,-z
1/2+x,y,-z
1/2-x,y,z
x,-y,z
loop_
_atom_site_type_symbol
_atom_site_label
_atom_site_fract_x
_atom_site_fract_y
_atom_site_fract_z
Si Si1 0.668447 0.208824 0.217691
Si Si2 0.163221 0.423324 0.619904
Si Si3 0.922041 0.789496 0.548382
Si Si4 0.663543 0.670686 0.690214
Si Si5 0.836269 0.653699 0.054920
Si Si6 0.888352 0.925665 0.096538
Si Si7 0.957994 0.074841 0.736357
O O1 0.750000 0.223267 0.262662
O O2 0.622925 0.207265 0.382150
O O3 0.644005 0.269695 0.100954
O O4 0.661262 0.137038 0.132081
O O5 0.250000 0.423830 0.624188
O O6 0.139379 0.500000 0.598698
O O7 0.144568 0.376110 0.465500
O O8 0.138290 0.392573 0.794339
O O9 0.878736 0.740195 0.668089
O O10 0.934219 0.863206 0.625349
O O11 0.000000 0.762279 0.500000
O O12 0.750000 0.681267 0.688130
O O13 0.643373 0.638978 0.866932
O O14 0.750000 0.649509 0.056932
O O15 0.959161 0.918919 0.210324
O O16 0.857646 0.000000 0.126118
O O17 0.915547 0.922876 0.908811
O O18 0.947089 0.000000 0.663858
#
# Coordination Sequence:
#
# PCOD9404773 Si02
#       7
#     8   8   8   8   8   8   8
#     4  11  21  35  54  78 111 146 183 231 284 335
#     4   9  17  31  54  85 117 145 181 227 271 328
#     4  12  22  34  54  82 108 144 191 238 281 330
#     4  10  20  36  57  82 115 150 184 229 282 330
#     4   9  18  33  54  79 110 148 182 219 275 330
#     4   9  18  35  55  76 104 140 184 235 284 335
#     4   9  19  35  54  76 105 141 186 236 283 332
#
# _framework density 18.470281
#
# number of rings (size 3 to 8) (size 9 to 14) (size 15 to 20)
#    0.000    2.143    2.857    2.143    0.000    1.714 
#    0.000    3.571    0.000    3.429    0.000    1.000 
#    0.000    0.000    0.000    0.000    0.000    0.000 
#
# Total GULP energy -312288.071817 kJ/mol
# GULP energy per Si atom -5576.572711 kJ/mol
# Density = 1.842824 g / cm^3
# Si number density = 18.470281 Si / 1000 Ang^3
#
#
#
# Elastic Constant Matrix: (Units=GPa)
#
#
# Indices 1 2 3 4 5 6 
#
# 1 36.8298 17.1619 21.3744 0.0000 0.0000 0.0000
# 2 17.1619 105.7138 50.2133 0.0000 0.0000 0.0000
# 3 21.3744 50.2133 123.2311 0.0000 0.0000 0.0000
# 4 0.0000 0.0000 0.0000 15.2378 0.0000 0.0000
# 5 0.0000 0.0000 0.0000 0.0000 20.1504 0.0000
# 6 0.0000 0.0000 0.0000 0.0000 0.0000 10.2935
#
#
#
# Elastic Compliance Matrix: (Units=1/GPa)
#
#
# Indices 1 2 3 4 5 6 
#
# 1 0.030975 -0.003071 -0.004121 0.000000 0.000000 0.000000
# 2 -0.003071 0.012034 -0.004371 0.000000 0.000000 0.000000
# 3 -0.004121 -0.004371 0.010611 0.000000 0.000000 0.000000
# 4 0.000000 0.000000 0.000000 0.065626 0.000000 0.000000
# 5 0.000000 0.000000 0.000000 0.000000 0.049627 0.000000
# 6 0.000000 0.000000 0.000000 0.000000 0.000000 0.097149
#
#
# Mechanical properties :
#
#
# Convention : Reuss Voigt Hill
#
# Bulk Modulus (GPa) = 32.79405 49.25266 41.02335
# Shear Modulus (GPa) = 16.70497 20.93801 18.82149
#
# Velocity S-wave (km/s) = 3.01063 3.37056 3.19566
# Velocity P-wave (km/s) = 5.46615 6.47081 5.98958
#
# Compressibility (1/GPa) = 0.03049334
#
# Stress axis : x y z
#
# Youngs Moduli (GPa) = 32.28438 83.09627 94.24445
#
# Poissons Ratio (x) = 0.25519 0.38840
# Poissons Ratio (y) = 0.09914 0.41194
# Poissons Ratio (z) = 0.13305 0.36321
#
# Static dielectric constant tensor:
#      x y z
#    x 1.618260 0.000000 0.000000 
#    y 0.000000 1.648360 0.000000 
#    z 0.000000 0.000000 1.648920 
# 
# From -- ./inp_files/11115.got.cif
#   From: 2010.05.17/outbox.cif.g08.bks.cpg/sg51_6_cif.got.tgz:11115.got - 2010.06.03 11:52:47.
