data_PCOD9404246
_publ_section_title
;
Structure prediction by ZEFSAII (Michael W. Deem and Ramdas Pophale) SiO2 
 PCOD9404246
Probable space group: P M M A
;
_chemical_formula_sum "Si O2"
_cell_formula_units_Z 64
_cell_length_a 25.301098
_cell_length_b 13.624472
_cell_length_c 9.260195
_cell_angle_alpha 90.000000
_cell_angle_beta 90.000000
_cell_angle_gamma 90.000000
_cell_volume 3192.119797
_symmetry_space_group_name_H-M "P M M A"
_symmetry_group_IT_number 51
_symmetry_cell_setting 'orthorhombic'
loop_
_space_group_symop_operation_xyz
x,y,z
1/2-x,-y,z
1/2+x,-y,-z
-x,y,-z
-x,-y,-z
1/2+x,y,-z
1/2-x,y,z
x,-y,z
loop_
_atom_site_type_symbol
_atom_site_label
_atom_site_fract_x
_atom_site_fract_y
_atom_site_fract_z
Si Si1 0.441816 0.389272 0.426839
Si Si2 0.190887 0.211940 0.248146
Si Si3 0.890126 0.741821 0.162444
Si Si4 0.408816 0.116675 0.099679
Si Si5 0.040350 0.887034 0.386379
Si Si6 0.367528 0.787940 0.525223
Si Si7 0.812404 0.385420 0.964938
Si Si8 0.490049 0.386081 0.831645
O O1 0.500000 0.384766 0.500000
O O2 0.421743 0.500000 0.448005
O O3 0.401540 0.308328 0.480624
O O4 0.456664 0.372462 0.259386
O O5 0.250000 0.181081 0.210460
O O6 0.147379 0.143096 0.173314
O O7 0.182288 0.212714 0.419744
O O8 0.182288 0.320441 0.180290
O O9 0.862320 0.786999 0.303489
O O10 0.941957 0.682841 0.212959
O O11 0.909598 0.823246 0.048145
O O12 0.850428 0.667723 0.080264
O O13 0.451264 0.149528 0.222749
O O14 0.414157 0.000000 0.077966
O O15 0.095802 0.876686 0.468943
O O16 0.000000 0.839013 0.500000
O O17 0.024741 0.000000 0.368572
O O18 0.750000 0.380049 0.006577
O O19 0.826159 0.500000 0.946700
O O20 0.474434 0.500000 0.808831
O O21 0.500000 0.370937 0.000000
#
# Coordination Sequence:
#
# PCOD9404246 Si02
#       8
#     8   8   8   8   8   8   8   8
#     4  10  20  35  52  75 111 152 192 229 268 321
#     4   9  20  38  60  84 105 138 185 232 283 336
#     4  11  22  34  55  83 115 152 184 228 279 340
#     4   9  20  38  59  84 112 144 184 229 279 337
#     4   9  19  36  58  80 106 144 186 226 272 327
#     4  11  22  34  56  82 112 149 182 232 280 331
#     4   9  19  37  58  79 108 145 185 229 277 332
#     4  10  22  35  51  78 111 149 193 235 272 322
#
# _framework density 20.049372000000002
#
# number of rings (size 3 to 8) (size 9 to 14) (size 15 to 20)
#    0.000    2.250    1.250    0.750    5.250    2.250 
#    0.000    0.000    0.000    4.125    0.000    3.500 
#    0.000    0.000    0.000    0.000    0.000    0.000 
#
# Total GULP energy -357116.308279 kJ/mol
# GULP energy per Si atom -5579.942317 kJ/mol
# Density = 2.000374 g / cm^3
# Si number density = 20.049372 Si / 1000 Ang^3
#
#
#
# Elastic Constant Matrix: (Units=GPa)
#
#
# Indices 1 2 3 4 5 6 
#
# 1 41.7346 -0.7149 4.8897 0.0000 0.0000 0.0000
# 2 -0.7149 73.6740 6.9928 0.0000 0.0000 0.0000
# 3 4.8897 6.9928 115.6157 0.0000 0.0000 0.0000
# 4 0.0000 0.0000 0.0000 17.3615 0.0000 0.0000
# 5 0.0000 0.0000 0.0000 0.0000 20.9661 0.0000
# 6 0.0000 0.0000 0.0000 0.0000 0.0000 15.0983
#
#
#
# Elastic Compliance Matrix: (Units=1/GPa)
#
#
# Indices 1 2 3 4 5 6 
#
# 1 0.024088 0.000332 -0.001039 0.000000 0.000000 0.000000
# 2 0.000332 0.013656 -0.000840 0.000000 0.000000 0.000000
# 3 -0.001039 -0.000840 0.008744 0.000000 0.000000 0.000000
# 4 0.000000 0.000000 0.000000 0.057599 0.000000 0.000000
# 5 0.000000 0.000000 0.000000 0.000000 0.047696 0.000000
# 6 0.000000 0.000000 0.000000 0.000000 0.000000 0.066232
#
#
# Mechanical properties :
#
#
# Convention : Reuss Voigt Hill
#
# Bulk Modulus (GPa) = 23.04380 28.15104 25.59742
# Shear Modulus (GPa) = 21.22474 25.34230 23.28352
#
# Velocity S-wave (km/s) = 3.25718 3.55913 3.41150
# Velocity P-wave (km/s) = 5.06597 5.56428 5.32096
#
# Compressibility (1/GPa) = 0.04339563
#
# Stress axis : x y z
#
# Youngs Moduli (GPa) = 41.51382 73.22645 114.36297
#
# Poissons Ratio (x) = -0.02434 0.11881
# Poissons Ratio (y) = -0.01380 0.09607
# Poissons Ratio (z) = 0.04313 0.06151
#
# Static dielectric constant tensor:
#      x y z
#    x 1.710530 0.000000 0.000000 
#    y 0.000000 1.721860 0.000000 
#    z 0.000000 0.000000 1.764510 
# 
# From -- ./inp_files/11913.got.cif
#   From: 2010.05.17/outbox.cif.g08.bks.cpg/sg51_6_cif.got.tgz:11913.got - 2010.06.03 11:52:47.
