data_PCOD9404586
_publ_section_title
;
Structure prediction by ZEFSAII (Michael W. Deem and Ramdas Pophale) SiO2 
 PCOD9404586
Probable space group: P M M A
;
_chemical_formula_sum "Si O2"
_cell_formula_units_Z 52
_cell_length_a 9.484637
_cell_length_b 10.797351
_cell_length_c 28.214452
_cell_angle_alpha 90.000000
_cell_angle_beta 90.000000
_cell_angle_gamma 90.000000
_cell_volume 2889.412539
_symmetry_space_group_name_H-M "P M M A"
_symmetry_group_IT_number 51
_symmetry_cell_setting 'orthorhombic'
loop_
_space_group_symop_operation_xyz
x,y,z
1/2-x,-y,z
1/2+x,-y,-z
-x,y,-z
-x,-y,-z
1/2+x,y,-z
1/2-x,y,z
x,-y,z
loop_
_atom_site_type_symbol
_atom_site_label
_atom_site_fract_x
_atom_site_fract_y
_atom_site_fract_z
Si Si1 0.579577 0.147415 0.143480
Si Si2 0.479560 0.256463 0.601597
Si Si3 0.418909 0.352568 0.207072
Si Si4 0.587288 0.851036 0.954607
Si Si5 0.250000 0.851319 0.531748
Si Si6 0.250000 0.141185 0.424792
Si Si7 0.083131 0.500000 0.450760
Si Si8 0.595351 0.645297 0.298710
O O1 0.750000 0.163839 0.141761
O O2 0.504943 0.250210 0.176861
O O3 0.505209 0.168259 0.092501
O O4 0.554952 0.000000 0.156138
O O5 0.381141 0.197876 0.561621
O O6 0.614775 0.171737 0.605268
O O7 0.536639 0.383489 0.580080
O O8 0.414305 0.279316 0.652732
O O9 0.250000 0.335533 0.202446
O O10 0.449285 0.500000 0.195940
O O11 0.472783 0.332587 0.260946
O O12 0.750000 0.805137 0.951310
O O13 0.597772 0.000000 0.960132
O O14 0.500000 0.803101 0.000000
O O15 0.250000 0.799898 0.477913
O O16 0.250000 0.000000 0.532928
O O17 0.250000 0.000000 0.436820
O O18 0.250000 0.500000 0.458826
O O19 0.000000 0.500000 0.500000
O O20 0.750000 0.667705 0.276399
O O21 0.588933 0.500000 0.311671
#
# Coordination Sequence:
#
# PCOD9404586 Si02
#       8
#     8   8   8   8   4   4   4   8
#     4  10  20  35  57  87 122 159 200 249 299 349
#     4  12  23  39  62  87 114 143 184 231 277 333
#     4  10  22  39  63  88 113 149 196 243 294 355
#     4   9  16  27  47  78 118 162 206 251 300 352
#     4  11  24  43  63  83 113 156 193 223 264 331
#     4  11  24  41  59  81 113 154 191 223 266 327
#     4  12  26  38  58  90 120 144 174 226 287 334
#     4  10  21  39  60  85 112 144 180 226 285 346
#
# _framework density 17.996735999999999
#
# number of rings (size 3 to 8) (size 9 to 14) (size 15 to 20)
#    0.000    1.538    2.308    3.231    2.154    4.923 
#    0.000    1.538    0.000    0.462    0.000    0.000 
#    0.000    0.000    0.000    0.000    0.000    0.000 
#
# Total GULP energy -289839.725010 kJ/mol
# GULP energy per Si atom -5573.840866 kJ/mol
# Density = 1.795578 g / cm^3
# Si number density = 17.996736 Si / 1000 Ang^3
#
#
#
# Elastic Constant Matrix: (Units=GPa)
#
#
# Indices 1 2 3 4 5 6 
#
# 1 140.3979 45.2977 43.5814 0.0000 0.0000 0.0000
# 2 45.2977 77.2740 38.9620 0.0000 0.0000 0.0000
# 3 43.5814 38.9620 88.4639 0.0000 0.0000 0.0000
# 4 0.0000 0.0000 0.0000 20.9009 0.0000 0.0000
# 5 0.0000 0.0000 0.0000 0.0000 30.9782 0.0000
# 6 0.0000 0.0000 0.0000 0.0000 0.0000 29.9062
#
#
#
# Elastic Compliance Matrix: (Units=1/GPa)
#
#
# Indices 1 2 3 4 5 6 
#
# 1 0.009294 -0.004036 -0.002801 0.000000 0.000000 0.000000
# 2 -0.004036 0.018388 -0.006110 0.000000 0.000000 0.000000
# 3 -0.002801 -0.006110 0.015375 0.000000 0.000000 0.000000
# 4 0.000000 0.000000 0.000000 0.047845 0.000000 0.000000
# 5 0.000000 0.000000 0.000000 0.000000 0.032281 0.000000
# 6 0.000000 0.000000 0.000000 0.000000 0.000000 0.033438
#
#
# Mechanical properties :
#
#
# Convention : Reuss Voigt Hill
#
# Bulk Modulus (GPa) = 58.26681 62.42422 60.34552
# Shear Modulus (GPa) = 26.56243 28.24338 27.40291
#
# Velocity S-wave (km/s) = 3.84599 3.96581 3.90636
# Velocity P-wave (km/s) = 7.22280 7.46538 7.34509
#
# Compressibility (1/GPa) = 0.01716243
#
# Stress axis : x y z
#
# Youngs Moduli (GPa) = 107.59288 54.38468 65.03993
#
# Poissons Ratio (x) = 0.21949 0.18220
# Poissons Ratio (y) = 0.43423 0.39740
# Poissons Ratio (z) = 0.30140 0.33230
#
# Static dielectric constant tensor:
#      x y z
#    x 1.607920 0.000000 0.000000 
#    y 0.000000 1.626350 0.000000 
#    z 0.000000 0.000000 1.599020 
# 
# From -- ./inp_files/36283.got.cif
#   From: 2010.05.17/outbox.cif.g08.bks.cpg/sg51_19_cif.got.tgz:36283.got - 2010.06.03 11:52:47.
