data_PCOD9404398
_publ_section_title
;
Structure prediction by ZEFSAII (Michael W. Deem and Ramdas Pophale) SiO2 
 PCOD9404398
Probable space group: P M M A
;
_chemical_formula_sum "Si O2"
_cell_formula_units_Z 52
_cell_length_a 8.849010
_cell_length_b 20.258236
_cell_length_c 15.077322
_cell_angle_alpha 90.000000
_cell_angle_beta 90.000000
_cell_angle_gamma 90.000000
_cell_volume 2702.841148
_symmetry_space_group_name_H-M "P M M A"
_symmetry_group_IT_number 51
_symmetry_cell_setting 'orthorhombic'
loop_
_space_group_symop_operation_xyz
x,y,z
1/2-x,-y,z
1/2+x,-y,-z
-x,y,-z
-x,-y,-z
1/2+x,y,-z
1/2-x,y,z
x,-y,z
loop_
_atom_site_type_symbol
_atom_site_label
_atom_site_fract_x
_atom_site_fract_y
_atom_site_fract_z
Si Si1 0.067622 0.427661 0.714603
Si Si2 0.931677 0.764980 0.092573
Si Si3 0.068156 0.000000 0.901544
Si Si4 0.069240 0.160269 0.404289
Si Si5 0.068962 0.388645 0.908526
Si Si6 0.430702 0.685891 0.404504
Si Si7 0.567783 0.122289 0.224664
O O1 0.250000 0.421642 0.709393
O O2 0.024955 0.500000 0.678426
O O3 0.025328 0.424304 0.818241
O O4 0.995003 0.366123 0.665068
O O5 0.750000 0.767762 0.086607
O O6 0.976403 0.688503 0.102200
O O7 0.977991 0.810129 0.174777
O O8 0.000000 0.789988 0.000000
O O9 0.025805 0.936399 0.842544
O O10 0.250000 0.000000 0.910628
O O11 0.000000 0.000000 0.000000
O O12 0.250000 0.155534 0.408693
O O13 0.027596 0.237528 0.386932
O O14 0.000000 0.142281 0.500000
O O15 0.005877 0.119488 0.321307
O O16 0.250000 0.391251 0.916030
O O17 0.000000 0.413822 0.000000
O O18 0.500000 0.669038 0.500000
O O19 0.250000 0.681950 0.407464
O O20 0.750000 0.121674 0.234689
#
# Coordination Sequence:
#
# PCOD9404398 Si02
#       7
#     8   8   4   8   8   8   8
#     4  10  21  36  53  74 103 141 182 221 265 321
#     4   9  17  29  48  73 101 134 172 218 268 315
#     4  10  22  38  57  84 119 158 195 228 266 316
#     4  10  21  37  59  86 111 138 176 223 274 326
#     4   9  18  32  49  71  99 132 172 218 268 317
#     4  10  21  37  58  83 109 137 172 218 272 327
#     4  10  20  35  55  80 112 149 186 224 267 315
#
# _framework density 19.239015999999999
#
# number of rings (size 3 to 8) (size 9 to 14) (size 15 to 20)
#    0.000    2.308    0.000    2.308    0.000    5.846 
#    0.000    3.462    0.000    0.000    0.000    0.000 
#    0.000    0.000    0.000    0.000    0.000    0.000 
#
# Total GULP energy -290272.216414 kJ/mol
# GULP energy per Si atom -5582.158008 kJ/mol
# Density = 1.919523 g / cm^3
# Si number density = 19.239016 Si / 1000 Ang^3
#
#
#
# Elastic Constant Matrix: (Units=GPa)
#
#
# Indices 1 2 3 4 5 6 
#
# 1 20.2019 23.7414 38.1151 0.0000 0.0000 0.0000
# 2 23.7414 57.0169 54.4870 0.0000 0.0000 0.0000
# 3 38.1151 54.4870 154.2094 0.0000 0.0000 0.0000
# 4 0.0000 0.0000 0.0000 11.9987 0.0000 0.0000
# 5 0.0000 0.0000 0.0000 0.0000 38.6326 0.0000
# 6 0.0000 0.0000 0.0000 0.0000 0.0000 21.1376
#
#
#
# Elastic Compliance Matrix: (Units=1/GPa)
#
#
# Indices 1 2 3 4 5 6 
#
# 1 0.125218 -0.034066 -0.018913 0.000000 0.000000 0.000000
# 2 -0.034066 0.035748 -0.004211 0.000000 0.000000 0.000000
# 3 -0.018913 -0.004211 0.012647 0.000000 0.000000 0.000000
# 4 0.000000 0.000000 0.000000 0.083343 0.000000 0.000000
# 5 0.000000 0.000000 0.000000 0.000000 0.025885 0.000000
# 6 0.000000 0.000000 0.000000 0.000000 0.000000 0.047309
#
#
# Mechanical properties :
#
#
# Convention : Reuss Voigt Hill
#
# Bulk Modulus (GPa) = 16.88246 51.56837 34.22541
# Shear Modulus (GPa) = 10.76951 22.02608 16.39779
#
# Velocity S-wave (km/s) = 2.36852 3.38726 2.92262
# Velocity P-wave (km/s) = 4.03411 6.49309 5.40529
#
# Compressibility (1/GPa) = 0.05923306
#
# Stress axis : x y z
#
# Youngs Moduli (GPa) = 7.98605 27.97395 79.06992
#
# Poissons Ratio (x) = 0.95297 1.49543
# Poissons Ratio (y) = 0.27206 0.33294
# Poissons Ratio (z) = 0.15104 0.11779
#
# Static dielectric constant tensor:
#      x y z
#    x 1.644290 0.000000 0.000000 
#    y 0.000000 1.692630 0.000000 
#    z 0.000000 0.000000 1.651080 
# 
# From -- ./inp_files/21606.got.cif
#   From: 2010.05.17/outbox.cif.g08.bks.cpg/sg51_11_cif.got.tgz:21606.got - 2010.06.03 11:52:47.
