data_PCOD9404401
_publ_section_title
;
Structure prediction by ZEFSAII (Michael W. Deem and Ramdas Pophale) SiO2 
 PCOD9404401
Probable space group: P M M A
;
_chemical_formula_sum "Si O2"
_cell_formula_units_Z 44
_cell_length_a 8.964562
_cell_length_b 16.493584
_cell_length_c 14.976331
_cell_angle_alpha 90.000000
_cell_angle_beta 90.000000
_cell_angle_gamma 90.000000
_cell_volume 2214.366700
_symmetry_space_group_name_H-M "P M M A"
_symmetry_group_IT_number 51
_symmetry_cell_setting 'orthorhombic'
loop_
_space_group_symop_operation_xyz
x,y,z
1/2-x,-y,z
1/2+x,-y,-z
-x,y,-z
-x,-y,-z
1/2+x,y,-z
1/2-x,y,z
x,-y,z
loop_
_atom_site_type_symbol
_atom_site_label
_atom_site_fract_x
_atom_site_fract_y
_atom_site_fract_z
Si Si1 0.072977 0.340623 0.220210
Si Si2 0.576619 0.234754 0.081463
Si Si3 0.573134 0.500000 0.899809
Si Si4 0.579522 0.091224 0.837188
Si Si5 0.071491 0.091807 0.645330
Si Si6 0.926998 0.737040 0.590412
O O1 0.250000 0.322359 0.204314
O O2 0.041882 0.423665 0.166349
O O3 0.049259 0.323725 0.325482
O O4 0.962075 0.278690 0.172785
O O5 0.750000 0.224928 0.066604
O O6 0.488196 0.151624 0.092339
O O7 0.500000 0.282165 0.000000
O O8 0.750000 0.500000 0.917266
O O9 0.500000 0.500000 0.000000
O O10 0.750000 0.113913 0.813426
O O11 0.479337 0.093308 0.748586
O O12 0.580639 0.000000 0.871339
O O13 0.250000 0.098303 0.636885
O O14 0.995567 0.172549 0.605842
O O15 0.028033 0.000000 0.612438
O O16 0.750000 0.746743 0.579923
O O17 0.000000 0.704497 0.500000
#
# Coordination Sequence:
#
# PCOD9404401 Si02
#       6
#     8   8   4   8   8   8
#     4  10  22  42  65  91 124 160 198 249 308 368
#     4  12  24  37  58  85 118 158 202 251 303 366
#     4  10  22  42  69 100 130 160 199 244 303 371
#     4  10  20  35  55  80 114 156 202 251 304 361
#     4  10  20  35  57  86 120 160 209 262 314 365
#     4  11  23  39  62  89 123 165 211 259 311 368
#
# _framework density 19.870242000000001
#
# number of rings (size 3 to 8) (size 9 to 14) (size 15 to 20)
#    0.000    1.455    1.818    3.818    0.000    5.818 
#    0.000    0.455    0.000    0.000    0.000    0.000 
#    0.000    0.000    0.000    0.000    0.000    0.000 
#
# Total GULP energy -245339.394072 kJ/mol
# GULP energy per Si atom -5575.895320 kJ/mol
# Density = 1.982502 g / cm^3
# Si number density = 19.870242 Si / 1000 Ang^3
#
#
#
# Elastic Constant Matrix: (Units=GPa)
#
#
# Indices 1 2 3 4 5 6 
#
# 1 75.3953 32.6800 40.6432 0.0000 0.0000 0.0000
# 2 32.6800 95.3250 47.4522 0.0000 0.0000 0.0000
# 3 40.6432 47.4522 122.5633 0.0000 0.0000 0.0000
# 4 0.0000 0.0000 0.0000 10.3392 0.0000 0.0000
# 5 0.0000 0.0000 0.0000 0.0000 35.0229 0.0000
# 6 0.0000 0.0000 0.0000 0.0000 0.0000 15.1158
#
#
#
# Elastic Compliance Matrix: (Units=1/GPa)
#
#
# Indices 1 2 3 4 5 6 
#
# 1 0.017186 -0.003784 -0.004234 0.000000 0.000000 0.000000
# 2 -0.003784 0.013828 -0.004099 0.000000 0.000000 0.000000
# 3 -0.004234 -0.004099 0.011150 0.000000 0.000000 0.000000
# 4 0.000000 0.000000 0.000000 0.096719 0.000000 0.000000
# 5 0.000000 0.000000 0.000000 0.000000 0.028553 0.000000
# 6 0.000000 0.000000 0.000000 0.000000 0.000000 0.066156
#
#
# Mechanical properties :
#
#
# Convention : Reuss Voigt Hill
#
# Bulk Modulus (GPa) = 55.77208 59.42605 57.59906
# Shear Modulus (GPa) = 18.95355 23.59613 21.27484
#
# Velocity S-wave (km/s) = 3.09182 3.44977 3.27569
# Velocity P-wave (km/s) = 6.39335 6.77051 6.58463
#
# Compressibility (1/GPa) = 0.01793012
#
# Stress axis : x y z
#
# Youngs Moduli (GPa) = 58.18662 72.31612 89.68596
#
# Poissons Ratio (x) = 0.27366 0.37973
# Poissons Ratio (y) = 0.22019 0.36761
# Poissons Ratio (z) = 0.24636 0.29642
#
# Static dielectric constant tensor:
#      x y z
#    x 1.660190 0.000000 0.000000 
#    y 0.000000 1.780480 0.000000 
#    z 0.000000 0.000000 1.710870 
# 
# From -- ./inp_files/20961.got.cif
#   From: 2010.05.17/outbox.cif.g08.bks.cpg/sg51_11_cif.got.tgz:20961.got - 2010.06.03 11:52:47.
