data_PCOD9404150
_publ_section_title
;
Structure prediction by ZEFSAII (Michael W. Deem and Ramdas Pophale) SiO2 
 PCOD9404150
Probable space group: P M M A
;
_chemical_formula_sum "Si O2"
_cell_formula_units_Z 56
_cell_length_a 13.875158
_cell_length_b 8.916477
_cell_length_c 24.084194
_cell_angle_alpha 90.000000
_cell_angle_beta 90.000000
_cell_angle_gamma 90.000000
_cell_volume 2979.636926
_symmetry_space_group_name_H-M "P M M A"
_symmetry_group_IT_number 51
_symmetry_cell_setting 'orthorhombic'
loop_
_space_group_symop_operation_xyz
x,y,z
1/2-x,-y,z
1/2+x,-y,-z
-x,y,-z
-x,-y,-z
1/2+x,y,-z
1/2-x,y,z
x,-y,z
loop_
_atom_site_type_symbol
_atom_site_label
_atom_site_fract_x
_atom_site_fract_y
_atom_site_fract_z
Si Si1 0.361729 0.320342 0.027208
Si Si2 0.542497 0.180067 0.080650
Si Si3 0.366626 0.173873 0.584902
Si Si4 0.137036 0.177929 0.354472
Si Si5 0.136744 0.820515 0.801067
Si Si6 0.632728 0.671290 0.529368
Si Si7 0.958852 0.321941 0.306590
O O1 0.250000 0.288200 0.038875
O O2 0.375391 0.500000 0.026457
O O3 0.436107 0.245680 0.070118
O O4 0.391785 0.253071 0.967427
O O5 0.584262 0.215517 0.141098
O O6 0.541947 0.000000 0.073593
O O7 0.250000 0.177471 0.585902
O O8 0.398815 0.258724 0.529025
O O9 0.404633 0.251246 0.640361
O O10 0.396490 0.000000 0.583092
O O11 0.250000 0.212543 0.346618
O O12 0.109069 0.231290 0.416566
O O13 0.068083 0.263437 0.312244
O O14 0.124016 0.000000 0.349732
O O15 0.250000 0.784841 0.805292
O O16 0.089808 0.736580 0.749396
O O17 0.128194 0.000000 0.792035
O O18 0.750000 0.668941 0.527250
O O19 0.599924 0.500000 0.536428
O O20 0.955047 0.500000 0.309794
#
# Coordination Sequence:
#
# PCOD9404150 Si02
#       7
#     8   8   8   8   8   8   8
#     4  10  20  34  55  86 125 163 195 233 283 334
#     4  10  20  35  59  88 117 153 198 242 282 329
#     4  10  20  35  55  79 110 146 182 223 273 330
#     4  10  21  39  61  81 104 138 180 225 276 336
#     4  10  22  41  62  84 113 149 189 232 277 328
#     4   9  17  31  53  81 111 139 172 220 277 335
#     4  12  25  38  56  82 110 142 183 229 278 332
#
# _framework density 18.794236999999999
#
# number of rings (size 3 to 8) (size 9 to 14) (size 15 to 20)
#    0.000    1.857    0.000    5.143    0.000    8.857 
#    0.000    3.571    0.000    0.857    0.000    0.000 
#    0.000    0.000    0.000    0.000    0.000    0.000 
#
# Total GULP energy -313088.500816 kJ/mol
# GULP energy per Si atom -5590.866086 kJ/mol
# Density = 1.875146 g / cm^3
# Si number density = 18.794237 Si / 1000 Ang^3
#
#
#
# Elastic Constant Matrix: (Units=GPa)
#
#
# Indices 1 2 3 4 5 6 
#
# 1 108.5715 55.5486 61.2569 0.0000 0.0000 0.0000
# 2 55.5486 112.9419 72.3769 0.0000 0.0000 0.0000
# 3 61.2569 72.3769 121.5629 0.0000 0.0000 0.0000
# 4 0.0000 0.0000 0.0000 377.6716 0.0000 0.0000
# 5 0.0000 0.0000 0.0000 0.0000 25.9376 0.0000
# 6 0.0000 0.0000 0.0000 0.0000 0.0000 27.7037
#
#
#
# Elastic Compliance Matrix: (Units=1/GPa)
#
#
# Indices 1 2 3 4 5 6 
#
# 1 0.013794 -0.003767 -0.004708 0.000000 0.000000 0.000000
# 2 -0.003767 0.015345 -0.007238 0.000000 0.000000 0.000000
# 3 -0.004708 -0.007238 0.014908 0.000000 0.000000 0.000000
# 4 0.000000 0.000000 0.000000 0.002648 0.000000 0.000000
# 5 0.000000 0.000000 0.000000 0.000000 0.038554 0.000000
# 6 0.000000 0.000000 0.000000 0.000000 0.000000 0.036096
#
#
# Mechanical properties :
#
#
# Convention : Reuss Voigt Hill
#
# Bulk Modulus (GPa) = 79.23404 80.16012 79.69708
# Shear Modulus (GPa) = 31.85119 96.52217 64.18668
#
# Velocity S-wave (km/s) = 4.12118 7.17418 5.85034
# Velocity P-wave (km/s) = 8.05579 10.55316 9.38789
#
# Compressibility (1/GPa) = 0.01262084
#
# Stress axis : x y z
#
# Youngs Moduli (GPa) = 72.49323 65.16606 67.07798
#
# Poissons Ratio (x) = 0.24551 0.31581
# Poissons Ratio (y) = 0.27312 0.48551
# Poissons Ratio (z) = 0.34130 0.47167
#
# Static dielectric constant tensor:
#      x y z
#    x 1.691720 0.000000 0.000000 
#    y 0.000000 1.627300 0.000000 
#    z 0.000000 0.000000 1.604210 
# 
# From -- ./inp_files/33477.got.cif
#   From: 2010.05.17/outbox.cif.g08.bks.cpg/sg51_17_cif.got.tgz:33477.got - 2010.06.03 11:52:47.
