data_PCOD9404817
_publ_section_title
;
Structure prediction by ZEFSAII (Michael W. Deem and Ramdas Pophale) SiO2 
 PCOD9404817
Probable space group: P M M A
;
_chemical_formula_sum "Si O2"
_cell_formula_units_Z 36
_cell_length_a 8.772487
_cell_length_b 23.045255
_cell_length_c 9.743973
_cell_angle_alpha 90.000000
_cell_angle_beta 90.000000
_cell_angle_gamma 90.000000
_cell_volume 1969.882505
_symmetry_space_group_name_H-M "P M M A"
_symmetry_group_IT_number 51
_symmetry_cell_setting 'orthorhombic'
loop_
_space_group_symop_operation_xyz
x,y,z
1/2-x,-y,z
1/2+x,-y,-z
-x,y,-z
-x,-y,-z
1/2+x,y,-z
1/2-x,y,z
x,-y,z
loop_
_atom_site_type_symbol
_atom_site_label
_atom_site_fract_x
_atom_site_fract_y
_atom_site_fract_z
Si Si1 0.432092 0.068072 0.351517
Si Si2 0.566494 0.395208 0.649626
Si Si3 0.566537 0.500000 0.848246
Si Si4 0.432905 0.731172 0.648867
Si Si5 0.932437 0.162873 0.151671
O O1 0.500000 0.084392 0.500000
O O2 0.250000 0.074753 0.354988
O O3 0.502258 0.108243 0.234820
O O4 0.467517 0.000000 0.328561
O O5 0.500000 0.410756 0.500000
O O6 0.750000 0.392899 0.640889
O O7 0.521594 0.443196 0.761123
O O8 0.502089 0.331617 0.684195
O O9 0.750000 0.500000 0.856916
O O10 0.500000 0.500000 0.000000
O O11 0.500000 0.747626 0.500000
O O12 0.250000 0.726569 0.638113
O O13 0.471677 0.779672 0.760638
O O14 0.750000 0.158663 0.144938
O O15 0.000000 0.165708 0.000000
#
# Coordination Sequence:
#
# PCOD9404817 Si02
#       5
#     8   8   4   8   8
#     4  10  21  38  61  87 114 146 186 231 277 328
#     4  10  20  36  58  83 109 141 182 227 273 323
#     4  10  23  38  54  80 112 146 183 222 270 326
#     4  10  21  37  58  84 110 142 184 228 275 326
#     4  11  24  39  57  82 114 151 188 229 279 333
#
# _framework density 18.275200000000002
#
# number of rings (size 3 to 8) (size 9 to 14) (size 15 to 20)
#    0.000    1.778    0.000    5.000    0.000    9.778 
#    0.000    4.444    0.000    0.000    0.000    0.000 
#    0.000    0.000    0.000    0.000    0.000    0.000 
#
# Total GULP energy -201201.741427 kJ/mol
# GULP energy per Si atom -5588.937262 kJ/mol
# Density = 1.823360 g / cm^3
# Si number density = 18.275200 Si / 1000 Ang^3
#
#
#
# Elastic Constant Matrix: (Units=GPa)
#
#
# Indices 1 2 3 4 5 6 
#
# 1 63.9704 62.4146 69.4684 0.0000 0.0000 0.0000
# 2 62.4146 127.3367 131.0231 0.0000 0.0000 0.0000
# 3 69.4684 131.0231 187.3186 0.0000 0.0000 0.0000
# 4 0.0000 0.0000 0.0000 -15.7164 0.0000 0.0000
# 5 0.0000 0.0000 0.0000 0.0000 37.7978 0.0000
# 6 0.0000 0.0000 0.0000 0.0000 0.0000 23.8143
#
#
#
# Elastic Compliance Matrix: (Units=1/GPa)
#
#
# Indices 1 2 3 4 5 6 
#
# 1 0.030438 -0.011790 -0.003042 0.000000 0.000000 0.000000
# 2 -0.011790 0.032585 -0.018420 0.000000 0.000000 0.000000
# 3 -0.003042 -0.018420 0.019351 0.000000 0.000000 0.000000
# 4 0.000000 0.000000 0.000000 -0.063628 0.000000 0.000000
# 5 0.000000 0.000000 0.000000 0.000000 0.026457 0.000000
# 6 0.000000 0.000000 0.000000 0.000000 0.000000 0.041992
#
#
# Mechanical properties :
#
#
# Convention : Reuss Voigt Hill
#
# Bulk Modulus (GPa) = 63.00624 100.49311 81.74967
# Shear Modulus (GPa) = 31.44890 16.89377 24.17133
#
# Velocity S-wave (km/s) = 4.15281 3.04371 3.64074
# Velocity P-wave (km/s) = 7.58589 8.21343 7.90589
#
# Compressibility (1/GPa) = 0.01587144
#
# Stress axis : x y z
#
# Youngs Moduli (GPa) = 32.85325 30.68883 51.67758
#
# Poissons Ratio (x) = 0.36181 0.15720
# Poissons Ratio (y) = 0.38733 0.95190
# Poissons Ratio (z) = 0.09993 0.56529
#
# Static dielectric constant tensor:
#      x y z
#    x 1.612750 0.000000 0.000000 
#    y 0.000000 1.622770 0.000000 
#    z 0.000000 0.000000 1.587590 
# 
# From -- ./inp_files/5221.got.cif
#   From: 2010.05.17/outbox.cif.g08.bks.cpg/sg51_3_cif.got.tgz:5221.got - 2010.06.03 11:52:47.
