data_PCOD9404041
_publ_section_title
;
Structure prediction by ZEFSAII (Michael W. Deem and Ramdas Pophale) SiO2 
 PCOD9404041
Probable space group: P M M A
;
_chemical_formula_sum "Si O2"
_cell_formula_units_Z 32
_cell_length_a 13.707805
_cell_length_b 8.908692
_cell_length_c 13.897989
_cell_angle_alpha 90.000000
_cell_angle_beta 90.000000
_cell_angle_gamma 90.000000
_cell_volume 1697.203137
_symmetry_space_group_name_H-M "P M M A"
_symmetry_group_IT_number 51
_symmetry_cell_setting 'orthorhombic'
loop_
_space_group_symop_operation_xyz
x,y,z
1/2-x,-y,z
1/2+x,-y,-z
-x,y,-z
-x,-y,-z
1/2+x,y,-z
1/2-x,y,z
x,-y,z
loop_
_atom_site_type_symbol
_atom_site_label
_atom_site_fract_x
_atom_site_fract_y
_atom_site_fract_z
Si Si1 0.250000 0.178169 0.608125
Si Si2 0.391279 0.671171 0.462364
Si Si3 0.966427 0.817067 0.106356
Si Si4 0.250000 0.816692 0.828646
Si Si5 0.861631 0.181347 0.746030
O O1 0.161466 0.237459 0.545696
O O2 0.250000 0.231974 0.717427
O O3 0.250000 0.000000 0.611335
O O4 0.500000 0.666123 0.500000
O O5 0.356060 0.500000 0.455050
O O6 0.377659 0.749652 0.359494
O O7 0.854620 0.768579 0.127394
O O8 0.049907 0.770584 0.183327
O O9 0.965408 0.000000 0.109000
O O10 0.000000 0.771086 0.000000
O O11 0.250000 0.000000 0.832936
O O12 0.750000 0.219132 0.778314
O O13 0.865807 0.000000 0.739316
#
# Coordination Sequence:
#
# PCOD9404041 Si02
#       5
#     4   8   8   4   8
#     4  11  21  35  56  81 112 150 189 233 278 333
#     4  11  23  37  55  81 114 152 190 231 281 338
#     4   9  18  31  51  78 111 146 182 230 282 334
#     4   9  18  31  48  75 108 144 183 225 276 329
#     4  10  20  34  54  83 113 146 188 233 282 335
#
# _framework density 18.854548000000001
#
# number of rings (size 3 to 8) (size 9 to 14) (size 15 to 20)
#    0.000    2.000    1.250    2.625    1.750    4.000 
#    0.000    0.000    0.000    0.750    0.000    0.000 
#    0.000    0.000    0.000    0.000    0.000    0.000 
#
# Total GULP energy -178377.226561 kJ/mol
# GULP energy per Si atom -5574.288330 kJ/mol
# Density = 1.881163 g / cm^3
# Si number density = 18.854548 Si / 1000 Ang^3
#
#
#
# Elastic Constant Matrix: (Units=GPa)
#
#
# Indices 1 2 3 4 5 6 
#
# 1 208.6625 28.3440 104.4267 0.0000 0.0000 0.0000
# 2 28.3440 19.7441 22.9516 0.0000 0.0000 0.0000
# 3 104.4267 22.9516 163.6396 0.0000 0.0000 0.0000
# 4 0.0000 0.0000 0.0000 -27.5229 0.0000 0.0000
# 5 0.0000 0.0000 0.0000 0.0000 39.5145 0.0000
# 6 0.0000 0.0000 0.0000 0.0000 0.0000 13.0388
#
#
#
# Elastic Compliance Matrix: (Units=1/GPa)
#
#
# Indices 1 2 3 4 5 6 
#
# 1 0.007653 -0.006343 -0.003994 0.000000 0.000000 0.000000
# 2 -0.006343 0.065773 -0.005177 0.000000 0.000000 0.000000
# 3 -0.003994 -0.005177 0.009386 0.000000 0.000000 0.000000
# 4 0.000000 0.000000 0.000000 -0.036333 0.000000 0.000000
# 5 0.000000 0.000000 0.000000 0.000000 0.025307 0.000000
# 6 0.000000 0.000000 0.000000 0.000000 0.000000 0.076694
#
#
# Mechanical properties :
#
#
# Convention : Reuss Voigt Hill
#
# Bulk Modulus (GPa) = 19.31152 78.16564 48.73858
# Shear Modulus (GPa) = 25.41045 20.76100 23.08573
#
# Velocity S-wave (km/s) = 3.67510 3.32190 3.50296
# Velocity P-wave (km/s) = 5.31724 7.50070 6.50129
#
# Compressibility (1/GPa) = 0.05178256
#
# Stress axis : x y z
#
# Youngs Moduli (GPa) = 130.66882 15.20387 106.54305
#
# Poissons Ratio (x) = 0.09645 0.42553
# Poissons Ratio (y) = 0.82890 0.55157
# Poissons Ratio (z) = 0.52189 0.07871
#
# Static dielectric constant tensor:
#      x y z
#    x 1.658160 0.000000 0.000000 
#    y 0.000000 1.621140 0.000000 
#    z 0.000000 0.000000 1.616620 
# 
# From -- ./inp_files/15971.got.cif
#   From: 2010.05.17/outbox.cif.g08.bks.cpg/sg51_8_cif.got.tgz:15971.got - 2010.06.03 11:52:47.
