data_PCOD9404719
_publ_section_title
;
Structure prediction by ZEFSAII (Michael W. Deem and Ramdas Pophale) SiO2 
 PCOD9404719
Probable space group: P M M A
;
_chemical_formula_sum "Si O2"
_cell_formula_units_Z 64
_cell_length_a 20.278564
_cell_length_b 8.864823
_cell_length_c 20.468908
_cell_angle_alpha 90.000000
_cell_angle_beta 90.000000
_cell_angle_gamma 90.000000
_cell_volume 3679.611271
_symmetry_space_group_name_H-M "P M M A"
_symmetry_group_IT_number 51
_symmetry_cell_setting 'orthorhombic'
loop_
_space_group_symop_operation_xyz
x,y,z
1/2-x,-y,z
1/2+x,-y,-z
-x,y,-z
-x,-y,-z
1/2+x,y,-z
1/2-x,y,z
x,-y,z
loop_
_atom_site_type_symbol
_atom_site_label
_atom_site_fract_x
_atom_site_fract_y
_atom_site_fract_z
Si Si1 0.415357 0.819793 0.663912
Si Si2 0.674025 0.181535 0.588892
Si Si3 0.539735 0.319892 0.832827
Si Si4 0.071323 0.819984 0.032120
Si Si5 0.826193 0.319757 0.448035
Si Si6 0.326568 0.678273 0.931394
Si Si7 0.395439 0.180793 0.812514
Si Si8 0.934226 0.182123 0.695902
O O1 0.375184 0.739904 0.607136
O O2 0.386384 0.785122 0.735871
O O3 0.493023 0.779558 0.667821
O O4 0.411387 0.000000 0.654360
O O5 0.750000 0.222819 0.604449
O O6 0.656928 0.253301 0.519130
O O7 0.622768 0.224924 0.645217
O O8 0.671085 0.000000 0.582522
O O9 0.535474 0.500000 0.833140
O O10 0.574816 0.259927 0.897806
O O11 0.466459 0.247887 0.832440
O O12 0.572438 0.260961 0.765957
O O13 0.075994 0.000000 0.039950
O O14 0.126806 0.760260 0.983286
O O15 0.000000 0.785993 0.000000
O O16 0.750000 0.274387 0.433850
O O17 0.828758 0.500000 0.450709
O O18 0.250000 0.699533 0.947347
O O19 0.341297 0.500000 0.930875
O O20 0.342552 0.746958 0.860457
O O21 0.397410 0.000000 0.820346
O O22 0.933286 0.000000 0.705240
#
# Coordination Sequence:
#
# PCOD9404719 Si02
#       8
#     8   8   8   8   8   8   8   8
#     4   9  19  34  53  77 107 142 180 223 267 317
#     4   9  18  35  59  81 103 139 184 225 269 325
#     4  11  21  34  57  85 112 142 180 227 278 328
#     4  11  22  37  61  86 109 146 192 233 272 326
#     4  10  21  35  51  74 106 142 180 225 274 326
#     4  11  24  39  56  83 117 149 184 230 282 335
#     4  10  20  36  56  79 108 145 186 225 271 328
#     4   9  19  36  56  81 112 141 178 227 274 326
#
# _framework density 17.393141
#
# number of rings (size 3 to 8) (size 9 to 14) (size 15 to 20)
#    0.000    2.000    1.250    3.375    0.000    6.250 
#    0.000    5.625    0.000    2.250    0.000    0.000 
#    0.000    0.000    0.000    0.000    0.000    0.000 
#
# Total GULP energy -357326.960613 kJ/mol
# GULP energy per Si atom -5583.233760 kJ/mol
# Density = 1.735355 g / cm^3
# Si number density = 17.393141 Si / 1000 Ang^3
#
#
#
# Elastic Constant Matrix: (Units=GPa)
#
#
# Indices 1 2 3 4 5 6 
#
# 1 68.7371 37.8606 70.6455 0.0000 0.0000 0.0000
# 2 37.8606 50.4141 51.2477 0.0000 0.0000 0.0000
# 3 70.6455 51.2477 134.0120 0.0000 0.0000 0.0000
# 4 0.0000 0.0000 0.0000 -3.3885 0.0000 0.0000
# 5 0.0000 0.0000 0.0000 0.0000 30.5102 0.0000
# 6 0.0000 0.0000 0.0000 0.0000 0.0000 22.1234
#
#
#
# Elastic Compliance Matrix: (Units=1/GPa)
#
#
# Indices 1 2 3 4 5 6 
#
# 1 0.036128 -0.012714 -0.014183 0.000000 0.000000 0.000000
# 2 -0.012714 0.036925 -0.007418 0.000000 0.000000 0.000000
# 3 -0.014183 -0.007418 0.017776 0.000000 0.000000 0.000000
# 4 0.000000 0.000000 0.000000 -0.295115 0.000000 0.000000
# 5 0.000000 0.000000 0.000000 0.000000 0.032776 0.000000
# 6 0.000000 0.000000 0.000000 0.000000 0.000000 0.045201
#
#
# Mechanical properties :
#
#
# Convention : Reuss Voigt Hill
#
# Bulk Modulus (GPa) = 45.05008 63.63009 54.34008
# Shear Modulus (GPa) = -99.44385 16.07629 -41.68378
#
# Velocity S-wave (km/s) = -7.56956 3.04351 -4.90078
# Velocity P-wave (km/s) = 7.10214 7.00096 0.84468
#
# Compressibility (1/GPa) = 0.02219752
#
# Stress axis : x y z
#
# Youngs Moduli (GPa) = 27.67915 27.08215 56.25706
#
# Poissons Ratio (x) = 0.34433 0.79791
# Poissons Ratio (y) = 0.35192 0.41731
# Poissons Ratio (z) = 0.39258 0.20089
#
# Static dielectric constant tensor:
#      x y z
#    x 1.580010 0.000000 0.000000 
#    y 0.000000 1.576900 0.000000 
#    z 0.000000 0.000000 1.573400 
# 
# From -- ./inp_files/30624.got.cif
#   From: 2010.05.17/outbox.cif.g08.bks.cpg/sg51_16_cif.got.tgz:30624.got - 2010.06.03 11:52:47.
