data_PCOD9404559
_publ_section_title
;
Structure prediction by ZEFSAII (Michael W. Deem and Ramdas Pophale) SiO2 
 PCOD9404559
Probable space group: P M M A
;
_chemical_formula_sum "Si O2"
_cell_formula_units_Z 64
_cell_length_a 18.552752
_cell_length_b 14.009630
_cell_length_c 12.471757
_cell_angle_alpha 90.000000
_cell_angle_beta 90.000000
_cell_angle_gamma 90.000000
_cell_volume 3241.624046
_symmetry_space_group_name_H-M "P M M A"
_symmetry_group_IT_number 51
_symmetry_cell_setting 'orthorhombic'
loop_
_space_group_symop_operation_xyz
x,y,z
1/2-x,-y,z
1/2+x,-y,-z
-x,y,-z
-x,-y,-z
1/2+x,y,-z
1/2-x,y,z
x,-y,z
loop_
_atom_site_type_symbol
_atom_site_label
_atom_site_fract_x
_atom_site_fract_y
_atom_site_fract_z
Si Si1 0.044850 0.392107 0.611509
Si Si2 0.420783 0.111441 0.152666
Si Si3 0.081607 0.702022 0.275393
Si Si4 0.421100 0.109988 0.544629
Si Si5 0.335098 0.705908 0.487653
Si Si6 0.585170 0.892561 0.199261
Si Si7 0.419277 0.612021 0.042251
Si Si8 0.665582 0.784262 0.035910
O O1 0.045552 0.500000 0.655502
O O2 0.122916 0.354558 0.578174
O O3 0.000000 0.394224 0.500000
O O4 0.999631 0.320502 0.685619
O O5 0.404195 0.187405 0.246508
O O6 0.507410 0.120712 0.142977
O O7 0.405394 0.000000 0.174534
O O8 0.378065 0.149663 0.049381
O O9 0.134662 0.673162 0.371490
O O10 0.089505 0.642824 0.166153
O O11 0.500000 0.136972 0.500000
O O12 0.363502 0.185980 0.503672
O O13 0.424095 0.113284 0.673413
O O14 0.406855 0.000000 0.512428
O O15 0.250000 0.698432 0.493897
O O16 0.642290 0.820021 0.152351
O O17 0.609692 0.000000 0.173771
O O18 0.407886 0.500000 0.028994
O O19 0.500000 0.635120 0.000000
O O20 0.363104 0.677633 0.979832
O O21 0.750000 0.792203 0.016608
#
# Coordination Sequence:
#
# PCOD9404559 Si02
#       8
#     8   8   8   8   8   8   8   8
#     4   9  18  35  58  80 104 141 191 242 287 336
#     4  10  20  35  57  84 113 149 198 249 287 329
#     4  10  20  37  61  85 113 153 196 238 291 352
#     4  10  21  39  62  86 114 153 202 250 292 339
#     4  11  23  36  53  84 122 153 186 233 292 357
#     4  10  20  36  60  84 109 151 202 244 285 338
#     4  10  22  41  65  90 113 144 194 250 297 345
#     4  11  23  37  55  84 123 159 190 232 289 353
#
# _framework density 19.743189000000001
#
# number of rings (size 3 to 8) (size 9 to 14) (size 15 to 20)
#    0.000    1.875    0.000    5.250    0.000    7.250 
#    0.000    1.250    0.000    0.375    0.000    3.500 
#    0.000    0.000    0.000    0.000    0.000    0.000 
#
# Total GULP energy -357508.934108 kJ/mol
# GULP energy per Si atom -5586.077095 kJ/mol
# Density = 1.969825 g / cm^3
# Si number density = 19.743189 Si / 1000 Ang^3
#
#
#
# Elastic Constant Matrix: (Units=GPa)
#
#
# Indices 1 2 3 4 5 6 
#
# 1 119.7938 35.1979 38.2508 0.0000 0.0000 0.0000
# 2 35.1979 96.5583 27.8379 0.0000 0.0000 0.0000
# 3 38.2508 27.8379 64.3361 0.0000 0.0000 0.0000
# 4 0.0000 0.0000 0.0000 19.1528 0.0000 0.0000
# 5 0.0000 0.0000 0.0000 0.0000 14.1344 0.0000
# 6 0.0000 0.0000 0.0000 0.0000 0.0000 9.1051
#
#
#
# Elastic Compliance Matrix: (Units=1/GPa)
#
#
# Indices 1 2 3 4 5 6 
#
# 1 0.010760 -0.002374 -0.005370 0.000000 0.000000 0.000000
# 2 -0.002374 0.012356 -0.003935 0.000000 0.000000 0.000000
# 3 -0.005370 -0.003935 0.020439 0.000000 0.000000 0.000000
# 4 0.000000 0.000000 0.000000 0.052212 0.000000 0.000000
# 5 0.000000 0.000000 0.000000 0.000000 0.070749 0.000000
# 6 0.000000 0.000000 0.000000 0.000000 0.000000 0.109829
#
#
# Mechanical properties :
#
#
# Convention : Reuss Voigt Hill
#
# Bulk Modulus (GPa) = 49.51285 53.69571 51.60428
# Shear Modulus (GPa) = 16.31664 20.43857 18.37760
#
# Velocity S-wave (km/s) = 2.87791 3.22098 3.05426
# Velocity P-wave (km/s) = 6.01465 6.41007 6.21551
#
# Compressibility (1/GPa) = 0.02019678
#
# Stress axis : x y z
#
# Youngs Moduli (GPa) = 92.93767 80.93032 48.92664
#
# Poissons Ratio (x) = 0.19213 0.26274
# Poissons Ratio (y) = 0.22064 0.19253
# Poissons Ratio (z) = 0.49908 0.31846
#
# Static dielectric constant tensor:
#      x y z
#    x 1.650310 0.000000 0.000000 
#    y 0.000000 1.721260 0.000000 
#    z 0.000000 0.000000 1.718080 
# 
# From -- ./inp_files/17619.got.cif
#   From: 2010.05.17/outbox.cif.g08.bks.cpg/sg51_9_cif.got.tgz:17619.got - 2010.06.03 11:52:47.
