data_PCOD9404968
_publ_section_title
;
Structure prediction by ZEFSAII (Michael W. Deem and Ramdas Pophale) SiO2 
 PCOD9404968
Probable space group: P M M A
;
_chemical_formula_sum "Si O2"
_cell_formula_units_Z 48
_cell_length_a 8.780360
_cell_length_b 15.498031
_cell_length_c 19.424961
_cell_angle_alpha 90.000000
_cell_angle_beta 90.000000
_cell_angle_gamma 90.000000
_cell_volume 2643.315505
_symmetry_space_group_name_H-M "P M M A"
_symmetry_group_IT_number 51
_symmetry_cell_setting 'orthorhombic'
loop_
_space_group_symop_operation_xyz
x,y,z
1/2-x,-y,z
1/2+x,-y,-z
-x,y,-z
-x,-y,-z
1/2+x,y,-z
1/2-x,y,z
x,-y,z
loop_
_atom_site_type_symbol
_atom_site_label
_atom_site_fract_x
_atom_site_fract_y
_atom_site_fract_z
Si Si1 0.931131 0.500000 0.923835
Si Si2 0.566289 0.000000 0.076070
Si Si3 0.066277 0.846471 0.822838
Si Si4 0.933349 0.351525 0.170626
Si Si5 0.067498 0.747336 0.423876
Si Si6 0.566196 0.901625 0.675691
Si Si7 0.566784 0.599602 0.328206
O O1 0.750000 0.500000 0.927678
O O2 0.988480 0.416676 0.881707
O O3 0.000000 0.500000 0.000000
O O4 0.519311 0.084302 0.119716
O O5 0.750000 0.000000 0.072147
O O6 0.500000 0.000000 0.000000
O O7 0.250000 0.849523 0.816970
O O8 0.024131 0.748259 0.840543
O O9 0.998170 0.872897 0.749397
O O10 0.750000 0.360155 0.163747
O O11 0.972326 0.376618 0.249316
O O12 0.250000 0.746727 0.427553
O O13 0.018113 0.832992 0.382008
O O14 0.000000 0.746071 0.500000
O O15 0.011436 0.665394 0.380110
O O16 0.750000 0.899769 0.679201
O O17 0.518500 0.000000 0.660965
O O18 0.750000 0.607889 0.334588
O O19 0.525861 0.500000 0.341208
#
# Coordination Sequence:
#
# PCOD9404968 Si02
#       7
#     4   4   8   8   8   8   8
#     4  12  26  42  62  88 123 162 201 250 302 354
#     4  10  22  38  56  86 121 156 195 238 289 346
#     4  10  20  36  62  90 118 153 198 243 291 354
#     4  10  20  38  63  91 121 154 196 248 299 356
#     4  11  24  40  59  86 121 157 197 245 297 351
#     4  10  21  37  59  88 120 154 196 245 295 350
#     4  10  20  37  63  90 117 153 193 238 295 355
#
# _framework density 18.159013000000002
#
# number of rings (size 3 to 8) (size 9 to 14) (size 15 to 20)
#    0.000    1.667    3.333    1.250    0.000    4.333 
#    0.000    1.667    0.000    0.000    0.000    0.000 
#    0.000    0.000    0.000    0.000    0.000    0.000 
#
# Total GULP energy -268174.965716 kJ/mol
# GULP energy per Si atom -5586.978452 kJ/mol
# Density = 1.811768 g / cm^3
# Si number density = 18.159013 Si / 1000 Ang^3
#
#
#
# Elastic Constant Matrix: (Units=GPa)
#
#
# Indices 1 2 3 4 5 6 
#
# 1 32.8150 58.4863 57.4878 0.0000 0.0000 0.0000
# 2 58.4863 212.4099 120.4597 0.0000 0.0000 0.0000
# 3 57.4878 120.4597 191.9011 0.0000 0.0000 0.0000
# 4 0.0000 0.0000 0.0000 30.1644 0.0000 0.0000
# 5 0.0000 0.0000 0.0000 0.0000 32.2732 0.0000
# 6 0.0000 0.0000 0.0000 0.0000 0.0000 23.5169
#
#
#
# Elastic Compliance Matrix: (Units=1/GPa)
#
#
# Indices 1 2 3 4 5 6 
#
# 1 0.083855 -0.013731 -0.016501 0.000000 0.000000 0.000000
# 2 -0.013731 0.009559 -0.001887 0.000000 0.000000 0.000000
# 3 -0.016501 -0.001887 0.011339 0.000000 0.000000 0.000000
# 4 0.000000 0.000000 0.000000 0.033152 0.000000 0.000000
# 5 0.000000 0.000000 0.000000 0.000000 0.030985 0.000000
# 6 0.000000 0.000000 0.000000 0.000000 0.000000 0.042523
#
#
# Mechanical properties :
#
#
# Convention : Reuss Voigt Hill
#
# Bulk Modulus (GPa) = 24.68267 101.11039 62.89653
# Shear Modulus (GPa) = 17.29177 30.57039 23.93108
#
# Velocity S-wave (km/s) = 3.08919 4.10748 3.63418
# Velocity P-wave (km/s) = 5.13285 8.84854 7.23335
#
# Compressibility (1/GPa) = 0.04051425
#
# Stress axis : x y z
#
# Youngs Moduli (GPa) = 11.92534 104.61681 88.19474
#
# Poissons Ratio (x) = 1.43652 1.45531
# Poissons Ratio (y) = 0.16375 0.16640
# Poissons Ratio (z) = 0.19678 0.19738
#
# Static dielectric constant tensor:
#      x y z
#    x 1.614490 0.000000 0.000000 
#    y 0.000000 1.623800 0.000000 
#    z 0.000000 0.000000 1.574350 
# 
# From -- ./inp_files/27654.got.cif
#   From: 2010.05.17/outbox.cif.g08.bks.cpg/sg51_14_cif.got.tgz:27654.got - 2010.06.03 11:52:47.
