data_PCOD9404441
_publ_section_title
;
Structure prediction by ZEFSAII (Michael W. Deem and Ramdas Pophale) SiO2 
 PCOD9404441
Probable space group: P M M A
;
_chemical_formula_sum "Si O2"
_cell_formula_units_Z 56
_cell_length_a 17.321061
_cell_length_b 14.515986
_cell_length_c 11.834382
_cell_angle_alpha 90.000000
_cell_angle_beta 90.000000
_cell_angle_gamma 90.000000
_cell_volume 2975.545637
_symmetry_space_group_name_H-M "P M M A"
_symmetry_group_IT_number 51
_symmetry_cell_setting 'orthorhombic'
loop_
_space_group_symop_operation_xyz
x,y,z
1/2-x,-y,z
1/2+x,-y,-z
-x,y,-z
-x,-y,-z
1/2+x,y,-z
1/2-x,y,z
x,-y,z
loop_
_atom_site_type_symbol
_atom_site_label
_atom_site_fract_x
_atom_site_fract_y
_atom_site_fract_z
Si Si1 0.839237 0.600535 0.321379
Si Si2 0.335840 0.109191 0.452563
Si Si3 0.339944 0.392446 0.162752
Si Si4 0.942714 0.237945 0.407223
Si Si5 0.660076 0.109278 0.818262
Si Si6 0.961651 0.254905 0.810676
Si Si7 0.086879 0.606013 0.914287
O O1 0.750000 0.602348 0.349137
O O2 0.871602 0.500000 0.353114
O O3 0.851811 0.610149 0.186902
O O4 0.882403 0.684010 0.376985
O O5 0.250000 0.143931 0.482638
O O6 0.399692 0.155118 0.530264
O O7 0.345505 0.123289 0.317791
O O8 0.337325 0.000000 0.469430
O O9 0.250000 0.366651 0.171811
O O10 0.347243 0.500000 0.191678
O O11 0.397449 0.328144 0.232756
O O12 0.370339 0.381254 0.033462
O O13 0.989066 0.214274 0.292993
O O14 0.000000 0.277623 0.500000
O O15 0.750000 0.130929 0.850353
O O16 0.592448 0.175505 0.866466
O O17 0.648214 0.000000 0.840987
O O18 0.021984 0.317633 0.883136
O O19 0.055397 0.500000 0.910564
#
# Coordination Sequence:
#
# PCOD9404441 Si02
#       7
#     8   8   8   8   8   8   8
#     4   9  18  33  51  70  95 133 178 213 244 296
#     4   9  18  34  55  75  97 130 173 219 261 298
#     4  10  20  35  56  80 104 132 169 214 262 307
#     4  11  21  32  47  73 105 140 170 205 251 301
#     4   9  18  33  52  73 100 136 175 212 251 299
#     4  11  20  31  50  78 109 134 165 209 260 307
#     4   9  18  33  55  79 103 129 163 213 267 308
#
# _framework density 18.820077999999999
#
# number of rings (size 3 to 8) (size 9 to 14) (size 15 to 20)
#    0.000    2.286    1.429    3.000    0.000    4.571 
#    0.000    0.000    0.000    3.429    0.000    0.000 
#    0.000    6.857    0.000    0.000    0.000    0.000 
#
# Total GULP energy -312065.943925 kJ/mol
# GULP energy per Si atom -5572.606142 kJ/mol
# Density = 1.877724 g / cm^3
# Si number density = 18.820078 Si / 1000 Ang^3
#
#
#
# Elastic Constant Matrix: (Units=GPa)
#
#
# Indices 1 2 3 4 5 6 
#
# 1 82.4937 30.5536 -2.9203 0.0000 0.0000 0.0000
# 2 30.5536 71.2841 -1.4244 0.0000 0.0000 0.0000
# 3 -2.9203 -1.4244 21.4460 0.0000 0.0000 0.0000
# 4 0.0000 0.0000 0.0000 17.4453 0.0000 0.0000
# 5 0.0000 0.0000 0.0000 0.0000 25.6907 0.0000
# 6 0.0000 0.0000 0.0000 0.0000 0.0000 42.6482
#
#
#
# Elastic Compliance Matrix: (Units=1/GPa)
#
#
# Indices 1 2 3 4 5 6 
#
# 1 0.014462 -0.006167 0.001560 0.000000 0.000000 0.000000
# 2 -0.006167 0.016677 0.000268 0.000000 0.000000 0.000000
# 3 0.001560 0.000268 0.046859 0.000000 0.000000 0.000000
# 4 0.000000 0.000000 0.000000 0.057322 0.000000 0.000000
# 5 0.000000 0.000000 0.000000 0.000000 0.038925 0.000000
# 6 0.000000 0.000000 0.000000 0.000000 0.000000 0.023448
#
#
# Mechanical properties :
#
#
# Convention : Reuss Voigt Hill
#
# Bulk Modulus (GPa) = 14.42628 25.29351 19.85989
# Shear Modulus (GPa) = 21.78864 27.09119 24.43992
#
# Velocity S-wave (km/s) = 3.40624 3.79817 3.60753
# Velocity P-wave (km/s) = 4.81165 5.71871 5.28467
#
# Compressibility (1/GPa) = 0.06931796
#
# Stress axis : x y z
#
# Youngs Moduli (GPa) = 69.14881 59.96231 21.34065
#
# Poissons Ratio (x) = 0.36981 -0.03328
# Poissons Ratio (y) = 0.42646 -0.00572
# Poissons Ratio (z) = -0.10784 -0.01606
#
# Static dielectric constant tensor:
#      x y z
#    x 1.686140 0.000000 0.000000 
#    y 0.000000 1.668770 0.000000 
#    z 0.000000 0.000000 1.655220 
# 
# From -- ./inp_files/24288.got.cif
#   From: 2010.05.17/outbox.cif.g08.bks.cpg/sg51_13_cif.got.tgz:24288.got - 2010.06.03 11:52:47.
