data_PCOD9404474
_publ_section_title
;
Structure prediction by ZEFSAII (Michael W. Deem and Ramdas Pophale) SiO2 
 PCOD9404474
Probable space group: P M M A
;
_chemical_formula_sum "Si O2"
_cell_formula_units_Z 48
_cell_length_a 8.835378
_cell_length_b 31.042142
_cell_length_c 9.634296
_cell_angle_alpha 90.000000
_cell_angle_beta 90.000000
_cell_angle_gamma 90.000000
_cell_volume 2642.389293
_symmetry_space_group_name_H-M "P M M A"
_symmetry_group_IT_number 51
_symmetry_cell_setting 'orthorhombic'
loop_
_space_group_symop_operation_xyz
x,y,z
1/2-x,-y,z
1/2+x,-y,-z
-x,y,-z
-x,-y,-z
1/2+x,y,-z
1/2-x,y,z
x,-y,z
loop_
_atom_site_type_symbol
_atom_site_label
_atom_site_fract_x
_atom_site_fract_y
_atom_site_fract_z
Si Si1 0.430265 0.449003 0.850581
Si Si2 0.932146 0.219654 0.652250
Si Si3 0.432365 0.297771 0.153184
Si Si4 0.931415 0.878781 0.652188
Si Si5 0.431622 0.621075 0.346927
Si Si6 0.430978 0.951473 0.846581
O O1 0.250000 0.442050 0.853285
O O2 0.458576 0.500000 0.830953
O O3 0.505128 0.421066 0.730077
O O4 0.500000 0.436605 0.000000
O O5 0.750000 0.222203 0.640609
O O6 0.981532 0.254622 0.765298
O O7 0.971377 0.170529 0.692641
O O8 0.000000 0.228518 0.500000
O O9 0.250000 0.297080 0.141815
O O10 0.473683 0.338398 0.249509
O O11 0.500000 0.300884 0.000000
O O12 0.750000 0.882096 0.647856
O O13 0.000000 0.885602 0.500000
O O14 0.998772 0.914320 0.753356
O O15 0.500000 0.625668 0.500000
O O16 0.250000 0.619158 0.356085
O O17 0.250000 0.946996 0.853005
O O18 0.465304 0.000000 0.793647
O O19 0.500000 0.948399 0.000000
#
# Coordination Sequence:
#
# PCOD9404474 Si02
#       6
#     8   8   8   8   8   8
#     4  10  21  38  60  85 114 148 185 227 275 326
#     4   9  19  36  56  80 109 141 178 219 266 319
#     4  10  22  38  56  81 111 143 181 223 269 322
#     4  10  20  35  56  81 110 143 180 223 269 320
#     4  11  23  38  58  83 112 147 186 229 276 326
#     4  10  21  37  56  78 106 141 180 223 272 324
#
# _framework density 18.165379999999999
#
# number of rings (size 3 to 8) (size 9 to 14) (size 15 to 20)
#    0.000    2.000    0.000    3.000    0.000    7.333 
#    0.000    1.667    0.000    0.000    0.000    0.000 
#    0.000    0.000    0.000    0.000    0.000    0.000 
#
# Total GULP energy -268097.852548 kJ/mol
# GULP energy per Si atom -5585.371928 kJ/mol
# Density = 1.812403 g / cm^3
# Si number density = 18.165380 Si / 1000 Ang^3
#
#
#
# Elastic Constant Matrix: (Units=GPa)
#
#
# Indices 1 2 3 4 5 6 
#
# 1 55.9623 60.9940 57.7339 0.0000 0.0000 0.0000
# 2 60.9940 124.2263 107.0501 0.0000 0.0000 0.0000
# 3 57.7339 107.0501 154.8137 0.0000 0.0000 0.0000
# 4 0.0000 0.0000 0.0000 40.9919 0.0000 0.0000
# 5 0.0000 0.0000 0.0000 0.0000 40.0266 0.0000
# 6 0.0000 0.0000 0.0000 0.0000 0.0000 44.3047
#
#
#
# Elastic Compliance Matrix: (Units=1/GPa)
#
#
# Indices 1 2 3 4 5 6 
#
# 1 0.039082 -0.016404 -0.003232 0.000000 0.000000 0.000000
# 2 -0.016404 0.026804 -0.012417 0.000000 0.000000 0.000000
# 3 -0.003232 -0.012417 0.016251 0.000000 0.000000 0.000000
# 4 0.000000 0.000000 0.000000 0.024395 0.000000 0.000000
# 5 0.000000 0.000000 0.000000 0.000000 0.024983 0.000000
# 6 0.000000 0.000000 0.000000 0.000000 0.000000 0.022571
#
#
# Mechanical properties :
#
#
# Convention : Reuss Voigt Hill
#
# Bulk Modulus (GPa) = 55.45862 87.39536 71.42699
# Shear Modulus (GPa) = 22.30122 32.34626 27.32374
#
# Velocity S-wave (km/s) = 3.50762 4.22436 3.88256
# Velocity P-wave (km/s) = 6.85570 8.48581 7.71394
#
# Compressibility (1/GPa) = 0.01803146
#
# Stress axis : x y z
#
# Youngs Moduli (GPa) = 25.58703 37.30732 61.53617
#
# Poissons Ratio (x) = 0.61200 0.19886
# Poissons Ratio (y) = 0.41974 0.76410
# Poissons Ratio (z) = 0.08269 0.46325
#
# Static dielectric constant tensor:
#      x y z
#    x 1.607520 0.000000 0.000000 
#    y 0.000000 1.631820 0.000000 
#    z 0.000000 0.000000 1.566000 
# 
# From -- ./inp_files/5959.got.cif
#   From: 2010.05.17/outbox.cif.g08.bks.cpg/sg51_3_cif.got.tgz:5959.got - 2010.06.03 11:52:47.
