data_PCOD9404989
_publ_section_title
;
Structure prediction by ZEFSAII (Michael W. Deem and Ramdas Pophale) SiO2 
 PCOD9404989
Probable space group: P M M A
;
_chemical_formula_sum "Si O2"
_cell_formula_units_Z 64
_cell_length_a 30.262652
_cell_length_b 8.436842
_cell_length_c 13.402057
_cell_angle_alpha 90.000000
_cell_angle_beta 90.000000
_cell_angle_gamma 90.000000
_cell_volume 3421.829456
_symmetry_space_group_name_H-M "P M M A"
_symmetry_group_IT_number 51
_symmetry_cell_setting 'orthorhombic'
loop_
_space_group_symop_operation_xyz
x,y,z
1/2-x,-y,z
1/2+x,-y,-z
-x,y,-z
-x,-y,-z
1/2+x,y,-z
1/2-x,y,z
x,-y,z
loop_
_atom_site_type_symbol
_atom_site_label
_atom_site_fract_x
_atom_site_fract_y
_atom_site_fract_z
Si Si1 0.301270 0.310624 0.584118
Si Si2 0.120092 0.190288 0.181826
Si Si3 0.137697 0.191677 0.408707
Si Si4 0.301730 0.810224 0.800585
Si Si5 0.037397 0.184039 0.914115
Si Si6 0.133884 0.311199 0.973592
Si Si7 0.527428 0.318298 0.764706
Si Si8 0.459339 0.816006 0.442549
O O1 0.250000 0.262700 0.575565
O O2 0.303907 0.500000 0.590568
O O3 0.326395 0.253839 0.485524
O O4 0.317600 0.240347 0.689764
O O5 0.140210 0.234124 0.290692
O O6 0.072129 0.274234 0.176005
O O7 0.113958 0.000000 0.180266
O O8 0.145964 0.243061 0.083171
O O9 0.089939 0.251031 0.448470
O O10 0.137764 0.000000 0.411290
O O11 0.250000 0.760442 0.809776
O O12 0.331632 0.738248 0.887950
O O13 0.303513 0.000000 0.807542
O O14 0.085560 0.241298 0.946679
O O15 0.016462 0.289639 0.827327
O O16 0.040232 0.000000 0.883556
O O17 0.000000 0.193063 0.000000
O O18 0.131101 0.500000 0.979258
O O19 0.530405 0.500000 0.731245
O O20 0.528451 0.198407 0.672860
O O21 0.500000 0.738605 0.500000
O O22 0.456196 0.000000 0.473793
#
# Coordination Sequence:
#
# PCOD9404989 Si02
#       8
#     8   8   8   8   8   8   8   8
#     4  10  21  38  61  88 118 149 185 237 298 348
#     4  10  20  37  57  80 113 154 195 231 278 343
#     4   9  19  35  58  84 110 146 192 237 280 337
#     4  10  22  42  66  88 114 152 195 236 285 350
#     4  11  22  36  56  79 111 154 195 235 276 332
#     4  12  24  37  59  89 120 152 192 245 299 349
#     4  11  21  33  52  78 111 147 187 237 286 331
#     4   9  19  36  55  75 106 149 190 228 276 337
#
# _framework density 18.703446
#
# number of rings (size 3 to 8) (size 9 to 14) (size 15 to 20)
#    0.000    1.750    1.250    4.500    0.000    5.750 
#    0.000    4.375    0.000    0.750    0.000    0.000 
#    0.000    0.000    0.000    0.000    0.000    0.000 
#
# Total GULP energy -356988.338623 kJ/mol
# GULP energy per Si atom -5577.942791 kJ/mol
# Density = 1.866088 g / cm^3
# Si number density = 18.703446 Si / 1000 Ang^3
#
#
#
# Elastic Constant Matrix: (Units=GPa)
#
#
# Indices 1 2 3 4 5 6 
#
# 1 73.5867 23.6300 66.2992 0.0000 0.0000 0.0000
# 2 23.6300 53.8208 17.7051 0.0000 0.0000 0.0000
# 3 66.2992 17.7051 111.5871 0.0000 0.0000 0.0000
# 4 0.0000 0.0000 0.0000 -54.7025 0.0000 0.0000
# 5 0.0000 0.0000 0.0000 0.0000 37.0676 0.0000
# 6 0.0000 0.0000 0.0000 0.0000 0.0000 23.1153
#
#
#
# Elastic Compliance Matrix: (Units=1/GPa)
#
#
# Indices 1 2 3 4 5 6 
#
# 1 0.032441 -0.008338 -0.017952 0.000000 0.000000 0.000000
# 2 -0.008338 0.021746 0.001503 0.000000 0.000000 0.000000
# 3 -0.017952 0.001503 0.019389 0.000000 0.000000 0.000000
# 4 0.000000 0.000000 0.000000 -0.018281 0.000000 0.000000
# 5 0.000000 0.000000 0.000000 0.000000 0.026978 0.000000
# 6 0.000000 0.000000 0.000000 0.000000 0.000000 0.043261
#
#
# Mechanical properties :
#
#
# Convention : Reuss Voigt Hill
#
# Bulk Modulus (GPa) = 41.65946 50.47369 46.06658
# Shear Modulus (GPa) = 27.30644 9.85345 18.57995
#
# Velocity S-wave (km/s) = 3.82510 2.29776 3.15524
# Velocity P-wave (km/s) = 6.46765 5.83819 6.16097
#
# Compressibility (1/GPa) = 0.02400415
#
# Stress axis : x y z
#
# Youngs Moduli (GPa) = 30.82565 45.98490 51.57583
#
# Poissons Ratio (x) = 0.38340 0.92587
# Poissons Ratio (y) = 0.25701 -0.07754
# Poissons Ratio (z) = 0.55337 -0.06913
#
# Static dielectric constant tensor:
#      x y z
#    x 1.655920 0.000000 0.000000 
#    y 0.000000 1.646090 0.000000 
#    z 0.000000 0.000000 1.674420 
# 
# From -- ./inp_files/19472.got.cif
#   From: 2010.05.17/outbox.cif.g08.bks.cpg/sg51_10_cif.got.tgz:19472.got - 2010.06.03 11:52:47.
