data_PCOD9404868
_publ_section_title
;
Structure prediction by ZEFSAII (Michael W. Deem and Ramdas Pophale) SiO2 
 PCOD9404868
Probable space group: P M M A
;
_chemical_formula_sum "Si O2"
_cell_formula_units_Z 56
_cell_length_a 20.757173
_cell_length_b 9.555937
_cell_length_c 14.714750
_cell_angle_alpha 90.000000
_cell_angle_beta 90.000000
_cell_angle_gamma 90.000000
_cell_volume 2918.733016
_symmetry_space_group_name_H-M "P M M A"
_symmetry_group_IT_number 51
_symmetry_cell_setting 'orthorhombic'
loop_
_space_group_symop_operation_xyz
x,y,z
1/2-x,-y,z
1/2+x,-y,-z
-x,y,-z
-x,-y,-z
1/2+x,y,-z
1/2-x,y,z
x,-y,z
loop_
_atom_site_type_symbol
_atom_site_label
_atom_site_fract_x
_atom_site_fract_y
_atom_site_fract_z
Si Si1 0.132392 0.835283 0.498644
Si Si2 0.250000 0.659069 0.423455
Si Si3 0.533784 0.835897 0.643812
Si Si4 0.573688 0.341215 0.967748
Si Si5 0.750000 0.341578 0.794647
Si Si6 0.624595 0.837614 0.815189
Si Si7 0.103624 0.834651 0.708177
Si Si8 0.325863 0.666848 0.867750
O O1 0.188272 0.742554 0.457474
O O2 0.065376 0.788458 0.451003
O O3 0.133020 0.825229 0.607080
O O4 0.141016 0.000000 0.475036
O O5 0.250000 0.500000 0.457610
O O6 0.250000 0.654706 0.314654
O O7 0.590704 0.824089 0.717415
O O8 0.469105 0.777526 0.690021
O O9 0.517365 0.000000 0.629322
O O10 0.587994 0.500000 0.934013
O O11 0.626372 0.309700 0.046346
O O12 0.500000 0.342510 0.000000
O O13 0.577974 0.224868 0.890671
O O14 0.750000 0.500000 0.830105
O O15 0.812521 0.256630 0.822775
O O16 0.639225 0.000000 0.829606
O O17 0.143909 0.750701 0.782841
O O18 0.101197 0.000000 0.734234
O O19 0.250000 0.703515 0.883692
O O20 0.327976 0.500000 0.849356
#
# Coordination Sequence:
#
# PCOD9404868 Si02
#       8
#     8   4   8   8   4   8   8   8
#     4  10  20  36  59  84 117 156 195 239 291 350
#     4  11  23  37  55  82 117 156 199 243 288 340
#     4   9  18  35  58  87 121 152 185 235 296 354
#     4  10  22  41  64  89 118 158 202 243 297 365
#     4  11  23  39  57  82 119 160 197 237 288 354
#     4  11  22  36  61  92 120 151 190 241 301 352
#     4  10  21  37  61  88 113 151 201 245 290 344
#     4  10  23  42  60  81 116 160 198 243 301 352
#
# _framework density 19.186406000000002
#
# number of rings (size 3 to 8) (size 9 to 14) (size 15 to 20)
#    0.000    1.857    1.429    2.143    2.000    4.000 
#    0.000    1.429    0.000    1.714    0.000    0.000 
#    0.000    0.000    0.000    0.000    0.000    0.000 
#
# Total GULP energy -312413.383507 kJ/mol
# GULP energy per Si atom -5578.810420 kJ/mol
# Density = 1.914274 g / cm^3
# Si number density = 19.186406 Si / 1000 Ang^3
#
#
#
# Elastic Constant Matrix: (Units=GPa)
#
#
# Indices 1 2 3 4 5 6 
#
# 1 90.2093 24.6769 -0.6004 0.0000 0.0000 0.0000
# 2 24.6769 72.6021 25.0499 0.0000 0.0000 0.0000
# 3 -0.6004 25.0499 49.6243 0.0000 0.0000 0.0000
# 4 0.0000 0.0000 0.0000 29.3135 0.0000 0.0000
# 5 0.0000 0.0000 0.0000 0.0000 30.5702 0.0000
# 6 0.0000 0.0000 0.0000 0.0000 0.0000 23.9029
#
#
#
# Elastic Compliance Matrix: (Units=1/GPa)
#
#
# Indices 1 2 3 4 5 6 
#
# 1 0.012532 -0.005221 0.002787 0.000000 0.000000 0.000000
# 2 -0.005221 0.018854 -0.009580 0.000000 0.000000 0.000000
# 3 0.002787 -0.009580 0.025021 0.000000 0.000000 0.000000
# 4 0.000000 0.000000 0.000000 0.034114 0.000000 0.000000
# 5 0.000000 0.000000 0.000000 0.000000 0.032712 0.000000
# 6 0.000000 0.000000 0.000000 0.000000 0.000000 0.041836
#
#
# Mechanical properties :
#
#
# Convention : Reuss Voigt Hill
#
# Bulk Modulus (GPa) = 30.88476 34.52095 32.70285
# Shear Modulus (GPa) = 25.01369 27.64460 26.32915
#
# Velocity S-wave (km/s) = 3.61462 3.79996 3.70845
# Velocity P-wave (km/s) = 5.79248 6.10610 5.95135
#
# Compressibility (1/GPa) = 0.03237843
#
# Stress axis : x y z
#
# Youngs Moduli (GPa) = 79.79467 53.03945 39.96605
#
# Poissons Ratio (x) = 0.27693 -0.11140
# Poissons Ratio (y) = 0.41663 0.38289
# Poissons Ratio (z) = -0.22241 0.50814
#
# Static dielectric constant tensor:
#      x y z
#    x 1.713570 0.000000 0.000000 
#    y 0.000000 1.641950 0.000000 
#    z 0.000000 0.000000 1.670330 
# 
# From -- ./inp_files/25896.got.cif
#   From: 2010.05.17/outbox.cif.g08.bks.cpg/sg51_13_cif.got.tgz:25896.got - 2010.06.03 11:52:47.
