data_PCOD9404562
_publ_section_title
;
Structure prediction by ZEFSAII (Michael W. Deem and Ramdas Pophale) SiO2 
 PCOD9404562
Probable space group: P M M A
;
_chemical_formula_sum "Si O2"
_cell_formula_units_Z 56
_cell_length_a 8.243014
_cell_length_b 15.776818
_cell_length_c 20.075227
_cell_angle_alpha 90.000000
_cell_angle_beta 90.000000
_cell_angle_gamma 90.000000
_cell_volume 2610.753794
_symmetry_space_group_name_H-M "P M M A"
_symmetry_group_IT_number 51
_symmetry_cell_setting 'orthorhombic'
loop_
_space_group_symop_operation_xyz
x,y,z
1/2-x,-y,z
1/2+x,-y,-z
-x,y,-z
-x,-y,-z
1/2+x,y,-z
1/2-x,y,z
x,-y,z
loop_
_atom_site_type_symbol
_atom_site_label
_atom_site_fract_x
_atom_site_fract_y
_atom_site_fract_z
Si Si1 0.558134 0.275281 0.926110
Si Si2 0.937370 0.261417 0.206702
Si Si3 0.446768 0.096370 0.713821
Si Si4 0.438104 0.406937 0.291330
Si Si5 0.555654 0.166053 0.571854
Si Si6 0.445853 0.087709 0.076682
Si Si7 0.059564 0.639801 0.572139
O O1 0.750000 0.272366 0.931708
O O2 0.511347 0.314870 0.856018
O O3 0.493062 0.180670 0.906723
O O4 0.500000 0.300167 0.000000
O O5 0.750000 0.247179 0.191780
O O6 0.006687 0.171571 0.236096
O O7 0.957848 0.328523 0.265790
O O8 0.250000 0.099763 0.714821
O O9 0.504229 0.116264 0.638528
O O10 0.497093 0.000000 0.731683
O O11 0.250000 0.392741 0.273365
O O12 0.488374 0.500000 0.266610
O O13 0.458303 0.404097 0.370318
O O14 0.500000 0.129140 0.500000
O O15 0.750000 0.175211 0.571176
O O16 0.474604 0.258967 0.576337
O O17 0.250000 0.088816 0.081233
O O18 0.505447 0.000000 0.109068
O O19 0.500000 0.082598 0.000000
O O20 0.250000 0.623936 0.580785
O O21 0.000000 0.612291 0.500000
#
# Coordination Sequence:
#
# PCOD9404562 Si02
#       7
#     8   8   8   8   8   8   8
#     4  10  20  35  57  84 115 151 195 244 297 361
#     4  11  23  40  63  89 122 161 200 248 304 362
#     4  10  22  40  60  85 120 163 210 258 308 363
#     4  11  24  42  65  93 124 160 202 249 303 363
#     4  11  21  35  58  85 118 160 209 260 312 362
#     4   8  14  25  42  67 100 138 179 225 275 328
#     4  11  21  36  60  90 125 164 204 250 304 360
#
# _framework density 21.449743999999999
#
# number of rings (size 3 to 8) (size 9 to 14) (size 15 to 20)
#    0.000    1.714    1.429    4.714    0.000    3.714 
#    0.000    0.000    0.000    3.857    0.000    0.000 
#    0.000    0.000    0.000    0.000    0.000    0.000 
#
# Total GULP energy -312114.836781 kJ/mol
# GULP energy per Si atom -5573.479228 kJ/mol
# Density = 2.140092 g / cm^3
# Si number density = 21.449744 Si / 1000 Ang^3
#
#
#
# Elastic Constant Matrix: (Units=GPa)
#
#
# Indices 1 2 3 4 5 6 
#
# 1 58.9966 8.9909 11.4599 0.0000 0.0000 0.0000
# 2 8.9909 53.0704 10.6224 0.0000 0.0000 0.0000
# 3 11.4599 10.6224 136.4857 0.0000 0.0000 0.0000
# 4 0.0000 0.0000 0.0000 -9.0394 0.0000 0.0000
# 5 0.0000 0.0000 0.0000 0.0000 34.8988 0.0000
# 6 0.0000 0.0000 0.0000 0.0000 0.0000 2.8310
#
#
#
# Elastic Compliance Matrix: (Units=1/GPa)
#
#
# Indices 1 2 3 4 5 6 
#
# 1 0.017612 -0.002730 -0.001266 0.000000 0.000000 0.000000
# 2 -0.002730 0.019564 -0.001293 0.000000 0.000000 0.000000
# 3 -0.001266 -0.001293 0.007534 0.000000 0.000000 0.000000
# 4 0.000000 0.000000 0.000000 -0.110627 0.000000 0.000000
# 5 0.000000 0.000000 0.000000 0.000000 0.028654 0.000000
# 6 0.000000 0.000000 0.000000 0.000000 0.000000 0.353229
#
#
# Mechanical properties :
#
#
# Convention : Reuss Voigt Hill
#
# Bulk Modulus (GPa) = 29.29949 34.52211 31.91080
# Shear Modulus (GPa) = 14.79624 20.23673 17.51648
#
# Velocity S-wave (km/s) = 2.62927 3.07489 2.86077
# Velocity P-wave (km/s) = 4.78609 5.36059 5.08147
#
# Compressibility (1/GPa) = 0.03413029
#
# Stress axis : x y z
#
# Youngs Moduli (GPa) = 56.77890 51.11344 132.73583
#
# Poissons Ratio (x) = 0.13955 0.16808
# Poissons Ratio (y) = 0.15502 0.17168
# Poissons Ratio (z) = 0.07190 0.06611
#
# Static dielectric constant tensor:
#      x y z
#    x 1.756430 0.000000 0.000000 
#    y 0.000000 1.905790 0.000000 
#    z 0.000000 0.000000 1.856900 
# 
# From -- ./inp_files/31967.got.cif
#   From: 2010.05.17/outbox.cif.g08.bks.cpg/sg51_16_cif.got.tgz:31967.got - 2010.06.03 11:52:47.
