data_PCOD9404590
_publ_section_title
;
Structure prediction by ZEFSAII (Michael W. Deem and Ramdas Pophale) SiO2 
 PCOD9404590
Probable space group: P M M A
;
_chemical_formula_sum "Si O2"
_cell_formula_units_Z 48
_cell_length_a 16.538974
_cell_length_b 8.474923
_cell_length_c 18.528816
_cell_angle_alpha 90.000000
_cell_angle_beta 90.000000
_cell_angle_gamma 90.000000
_cell_volume 2597.119865
_symmetry_space_group_name_H-M "P M M A"
_symmetry_group_IT_number 51
_symmetry_cell_setting 'orthorhombic'
loop_
_space_group_symop_operation_xyz
x,y,z
1/2-x,-y,z
1/2+x,-y,-z
-x,y,-z
-x,-y,-z
1/2+x,y,-z
1/2-x,y,z
x,-y,z
loop_
_atom_site_type_symbol
_atom_site_label
_atom_site_fract_x
_atom_site_fract_y
_atom_site_fract_z
Si Si1 0.161478 0.191733 0.331591
Si Si2 0.412871 0.687861 0.030200
Si Si3 0.750000 0.810140 0.214644
Si Si4 0.004035 0.191400 0.416763
Si Si5 0.750000 0.188863 0.046747
Si Si6 0.916748 0.687933 0.279206
Si Si7 0.569529 0.188878 0.809825
O O1 0.250000 0.250881 0.350280
O O2 0.135829 0.233204 0.250374
O O3 0.090314 0.242792 0.384331
O O4 0.162514 0.000000 0.334449
O O5 0.411068 0.500000 0.020336
O O6 0.413247 0.730695 0.114439
O O7 0.500000 0.746781 0.000000
O O8 0.332763 0.754831 0.991602
O O9 0.750000 0.759395 0.130547
O O10 0.829772 0.746824 0.253740
O O11 0.750000 0.000000 0.216570
O O12 0.938625 0.257631 0.360481
O O13 0.000000 0.239457 0.500000
O O14 0.998996 0.000000 0.413771
O O15 0.750000 0.000000 0.045046
O O16 0.921742 0.500000 0.274618
O O17 0.984314 0.761573 0.225788
O O18 0.570183 0.000000 0.819015
#
# Coordination Sequence:
#
# PCOD9404590 Si02
#       7
#     8   8   4   8   4   8   8
#     4   8  15  29  51  79 108 140 183 233 279 323
#     4  11  24  40  58  84 119 156 194 244 308 365
#     4  11  23  41  63  85 112 147 200 251 289 343
#     4   9  18  35  57  83 116 152 194 238 283 337
#     4  11  25  41  61  87 116 155 202 253 303 355
#     4  11  22  37  59  86 117 155 194 236 298 355
#     4  10  20  35  58  82 111 149 196 243 286 343
#
# _framework density 18.482012000000001
#
# number of rings (size 3 to 8) (size 9 to 14) (size 15 to 20)
#    0.000    2.000    0.000    5.000    1.167    5.667 
#    1.500    0.000    0.000    4.500    0.000    0.000 
#    0.000    0.000    0.000    0.000    0.000    0.000 
#
# Total GULP energy -267968.664834 kJ/mol
# GULP energy per Si atom -5582.680517 kJ/mol
# Density = 1.843995 g / cm^3
# Si number density = 18.482012 Si / 1000 Ang^3
#
#
#
# Elastic Constant Matrix: (Units=GPa)
#
#
# Indices 1 2 3 4 5 6 
#
# 1 140.6399 20.7208 80.6789 0.0000 0.0000 0.0000
# 2 20.7208 30.5524 14.9017 0.0000 0.0000 0.0000
# 3 80.6789 14.9017 154.7136 0.0000 0.0000 0.0000
# 4 0.0000 0.0000 0.0000 10.1616 0.0000 0.0000
# 5 0.0000 0.0000 0.0000 0.0000 7.7379 0.0000
# 6 0.0000 0.0000 0.0000 0.0000 0.0000 18.2621
#
#
#
# Elastic Compliance Matrix: (Units=1/GPa)
#
#
# Indices 1 2 3 4 5 6 
#
# 1 0.010775 -0.004792 -0.005157 0.000000 0.000000 0.000000
# 2 -0.004792 0.036475 -0.001014 0.000000 0.000000 0.000000
# 3 -0.005157 -0.001014 0.009251 0.000000 0.000000 0.000000
# 4 0.000000 0.000000 0.000000 0.098409 0.000000 0.000000
# 5 0.000000 0.000000 0.000000 0.000000 0.129234 0.000000
# 6 0.000000 0.000000 0.000000 0.000000 0.000000 0.054758
#
#
# Mechanical properties :
#
#
# Convention : Reuss Voigt Hill
#
# Bulk Modulus (GPa) = 28.92384 62.05653 45.49018
# Shear Modulus (GPa) = 13.42809 21.20596 17.31702
#
# Velocity S-wave (km/s) = 2.69838 3.39098 3.06431
# Velocity P-wave (km/s) = 5.03905 6.99866 6.09809
#
# Compressibility (1/GPa) = 0.03457356
#
# Stress axis : x y z
#
# Youngs Moduli (GPa) = 92.80839 27.41575 108.10105
#
# Poissons Ratio (x) = 0.13138 0.55750
# Poissons Ratio (y) = 0.44476 0.10964
# Poissons Ratio (z) = 0.47864 0.02781
#
# Static dielectric constant tensor:
#      x y z
#    x 1.631220 0.000000 0.000000 
#    y 0.000000 1.625920 0.000000 
#    z 0.000000 0.000000 1.614220 
# 
# From -- ./inp_files/29584.got.cif
#   From: 2010.05.17/outbox.cif.g08.bks.cpg/sg51_15_cif.got.tgz:29584.got - 2010.06.03 11:52:47.
