data_PCOD9404322
_publ_section_title
;
Structure prediction by ZEFSAII (Michael W. Deem and Ramdas Pophale) SiO2 
 PCOD9404322
Probable space group: P M M A
;
_chemical_formula_sum "Si O2"
_cell_formula_units_Z 48
_cell_length_a 8.586842
_cell_length_b 30.060811
_cell_length_c 10.499739
_cell_angle_alpha 90.000000
_cell_angle_beta 90.000000
_cell_angle_gamma 90.000000
_cell_volume 2710.270690
_symmetry_space_group_name_H-M "P M M A"
_symmetry_group_IT_number 51
_symmetry_cell_setting 'orthorhombic'
loop_
_space_group_symop_operation_xyz
x,y,z
1/2-x,-y,z
1/2+x,-y,-z
-x,y,-z
-x,-y,-z
1/2+x,y,-z
1/2-x,y,z
x,-y,z
loop_
_atom_site_type_symbol
_atom_site_label
_atom_site_fract_x
_atom_site_fract_y
_atom_site_fract_z
Si Si1 0.937151 0.219987 0.860423
Si Si2 0.062466 0.617708 0.361723
Si Si3 0.938075 0.051242 0.638953
Si Si4 0.062158 0.551168 0.138400
Si Si5 0.062310 0.116790 0.138232
Si Si6 0.564010 0.717188 0.361133
O O1 0.750000 0.222809 0.860060
O O2 0.983174 0.168256 0.839672
O O3 0.005079 0.250580 0.749698
O O4 0.000000 0.233007 0.000000
O O5 0.250000 0.619391 0.365567
O O6 0.012488 0.584007 0.250841
O O7 0.000000 0.603476 0.500000
O O8 0.998748 0.667268 0.337900
O O9 0.750000 0.052319 0.635922
O O10 0.991994 0.084358 0.749581
O O11 0.000000 0.064150 0.500000
O O12 0.985968 0.000000 0.663256
O O13 0.250000 0.551642 0.134632
O O14 0.011929 0.500000 0.161075
O O15 0.000000 0.564891 0.000000
O O16 0.250000 0.115365 0.134868
O O17 0.000000 0.103209 0.000000
O O18 0.500000 0.731096 0.500000
O O19 0.750000 0.716414 0.365253
#
# Coordination Sequence:
#
# PCOD9404322 Si02
#       6
#     8   8   8   8   8   8
#     4  10  20  36  55  77 105 136 173 214 259 309
#     4  10  20  35  54  77 106 137 172 213 256 304
#     4   9  18  33  51  73 102 134 169 209 252 299
#     4   9  19  35  54  77 105 136 171 211 253 300
#     4   9  19  34  52  75 103 134 168 209 253 301
#     4  11  22  37  56  78 105 137 174 215 261 310
#
# _framework density 17.710408000000001
#
# number of rings (size 3 to 8) (size 9 to 14) (size 15 to 20)
#    0.000    2.333    0.000    3.500    0.000    4.667 
#    0.000    3.333    0.000    0.000    0.000    0.000 
#    0.000    0.000    0.000    0.000    0.000    0.000 
#
# Total GULP energy -267886.581256 kJ/mol
# GULP energy per Si atom -5580.970443 kJ/mol
# Density = 1.767010 g / cm^3
# Si number density = 17.710408 Si / 1000 Ang^3
#
#
#
# Elastic Constant Matrix: (Units=GPa)
#
#
# Indices 1 2 3 4 5 6 
#
# 1 53.2901 33.6295 47.5161 0.0000 0.0000 0.0000
# 2 33.6295 94.3909 127.4111 0.0000 0.0000 0.0000
# 3 47.5161 127.4111 209.2527 0.0000 0.0000 0.0000
# 4 0.0000 0.0000 0.0000 44.7887 0.0000 0.0000
# 5 0.0000 0.0000 0.0000 0.0000 35.2812 0.0000
# 6 0.0000 0.0000 0.0000 0.0000 0.0000 -67.2160
#
#
#
# Elastic Compliance Matrix: (Units=1/GPa)
#
#
# Indices 1 2 3 4 5 6 
#
# 1 0.024279 -0.006784 -0.001382 0.000000 0.000000 0.000000
# 2 -0.006784 0.061377 -0.035831 0.000000 0.000000 0.000000
# 3 -0.001382 -0.035831 0.026910 0.000000 0.000000 0.000000
# 4 0.000000 0.000000 0.000000 0.022327 0.000000 0.000000
# 5 0.000000 0.000000 0.000000 0.000000 0.028344 0.000000
# 6 0.000000 0.000000 0.000000 0.000000 0.000000 -0.014877
#
#
# Mechanical properties :
#
#
# Convention : Reuss Voigt Hill
#
# Bulk Modulus (GPa) = 40.69893 86.00524 63.35208
# Shear Modulus (GPa) = 20.44614 12.46258 16.45436
#
# Velocity S-wave (km/s) = 3.40144 2.65559 3.05139
# Velocity P-wave (km/s) = 6.20133 7.62038 6.94718
#
# Compressibility (1/GPa) = 0.02457067
#
# Stress axis : x y z
#
# Youngs Moduli (GPa) = 41.18777 16.29273 37.16101
#
# Poissons Ratio (x) = 0.11053 0.05137
# Poissons Ratio (y) = 0.27942 1.33152
# Poissons Ratio (z) = 0.05694 0.58379
#
# Static dielectric constant tensor:
#      x y z
#    x 1.597280 0.000000 0.000000 
#    y 0.000000 1.597440 0.000000 
#    z 0.000000 0.000000 1.574800 
# 
# From -- ./inp_files/5954.got.cif
#   From: 2010.05.17/outbox.cif.g08.bks.cpg/sg51_3_cif.got.tgz:5954.got - 2010.06.03 11:52:47.
