data_PCOD9404180
_publ_section_title
;
Structure prediction by ZEFSAII (Michael W. Deem and Ramdas Pophale) SiO2 
 PCOD9404180
Probable space group: P M M A
;
_chemical_formula_sum "Si O2"
_cell_formula_units_Z 40
_cell_length_a 9.160824
_cell_length_b 7.912893
_cell_length_c 29.984088
_cell_angle_alpha 90.000000
_cell_angle_beta 90.000000
_cell_angle_gamma 90.000000
_cell_volume 2173.505164
_symmetry_space_group_name_H-M "P M M A"
_symmetry_group_IT_number 51
_symmetry_cell_setting 'orthorhombic'
loop_
_space_group_symop_operation_xyz
x,y,z
1/2-x,-y,z
1/2+x,-y,-z
-x,y,-z
-x,-y,-z
1/2+x,y,-z
1/2-x,y,z
x,-y,z
loop_
_atom_site_type_symbol
_atom_site_label
_atom_site_fract_x
_atom_site_fract_y
_atom_site_fract_z
Si Si1 0.424270 0.809526 0.635851
Si Si2 0.920185 0.295378 0.545452
Si Si3 0.921223 0.703948 0.954989
Si Si4 0.927768 0.187431 0.857603
Si Si5 0.427055 0.500000 0.204059
Si Si6 0.574060 0.500000 0.300104
O O1 0.250000 0.792986 0.628410
O O2 0.504445 0.779074 0.589158
O O3 0.466617 0.665445 0.671072
O O4 0.453770 0.000000 0.651907
O O5 0.750000 0.250559 0.543732
O O6 0.931562 0.500000 0.548344
O O7 0.000000 0.242198 0.500000
O O8 0.750000 0.744268 0.958750
O O9 0.934750 0.500000 0.951756
O O10 0.977025 0.778544 0.908369
O O11 0.000000 0.760500 0.000000
O O12 0.750000 0.193516 0.859010
O O13 0.972748 0.335371 0.824290
O O14 0.971770 0.000000 0.843204
O O15 0.250000 0.500000 0.207304
O O16 0.496611 0.500000 0.252635
O O17 0.750000 0.500000 0.294513
#
# Coordination Sequence:
#
# PCOD9404180 Si02
#       6
#     8   8   8   8   4   4
#     4  10  21  38  60  83 109 145 185 222 267 324
#     4  10  20  34  56  85 117 152 188 225 267 316
#     4   9  16  28  47  71 100 134 170 207 249 301
#     4   9  17  31  52  76 102 134 172 213 257 307
#     4  10  20  36  57  78 100 130 174 220 262 314
#     4  10  22  40  59  80 109 140 172 220 279 328
#
# _framework density 18.403452999999999
#
# number of rings (size 3 to 8) (size 9 to 14) (size 15 to 20)
#    0.000    2.400    2.000    0.600    0.000    3.600 
#    0.000    1.000    0.000    1.200    0.000    0.000 
#    0.000    0.000    0.000    0.000    0.000    0.000 
#
# Total GULP energy -223226.459052 kJ/mol
# GULP energy per Si atom -5580.661476 kJ/mol
# Density = 1.836157 g / cm^3
# Si number density = 18.403453 Si / 1000 Ang^3
#
#
#
# Elastic Constant Matrix: (Units=GPa)
#
#
# Indices 1 2 3 4 5 6 
#
# 1 25.4944 45.7825 45.7564 0.0000 0.0000 0.0000
# 2 45.7825 131.7505 99.5619 0.0000 0.0000 0.0000
# 3 45.7564 99.5619 172.3065 0.0000 0.0000 0.0000
# 4 0.0000 0.0000 0.0000 -2.2435 0.0000 0.0000
# 5 0.0000 0.0000 0.0000 0.0000 37.9320 0.0000
# 6 0.0000 0.0000 0.0000 0.0000 0.0000 9.5237
#
#
#
# Elastic Compliance Matrix: (Units=1/GPa)
#
#
# Indices 1 2 3 4 5 6 
#
# 1 0.120447 -0.031391 -0.013847 0.000000 0.000000 0.000000
# 2 -0.031391 0.021654 -0.004176 0.000000 0.000000 0.000000
# 3 -0.013847 -0.004176 0.011894 0.000000 0.000000 0.000000
# 4 0.000000 0.000000 0.000000 -0.445729 0.000000 0.000000
# 5 0.000000 0.000000 0.000000 0.000000 0.026363 0.000000
# 6 0.000000 0.000000 0.000000 0.000000 0.000000 0.105002
#
#
# Mechanical properties :
#
#
# Convention : Reuss Voigt Hill
#
# Bulk Modulus (GPa) = 18.12670 79.08365 48.60518
# Shear Modulus (GPa) = -115.86833 18.27248 -48.79793
#
# Velocity S-wave (km/s) = -7.94335 3.15442 -5.15492
# Velocity P-wave (km/s) = 8.61731 7.50551 2.99378
#
# Compressibility (1/GPa) = 0.05516723
#
# Stress axis : x y z
#
# Youngs Moduli (GPa) = 8.30241 46.18057 84.07734
#
# Poissons Ratio (x) = 1.44964 1.16421
# Poissons Ratio (y) = 0.26062 0.35113
# Poissons Ratio (z) = 0.11496 0.19286
#
# Static dielectric constant tensor:
#      x y z
#    x 1.614020 0.000000 0.000000 
#    y 0.000000 1.664410 0.000000 
#    z 0.000000 0.000000 1.590730 
# 
# From -- ./inp_files/36041.got.cif
#   From: 2010.05.17/outbox.cif.g08.bks.cpg/sg51_19_cif.got.tgz:36041.got - 2010.06.03 11:52:47.
