data_PCOD9404523
_publ_section_title
;
Structure prediction by ZEFSAII (Michael W. Deem and Ramdas Pophale) SiO2 
 PCOD9404523
Probable space group: P M M A
;
_chemical_formula_sum "Si O2"
_cell_formula_units_Z 40
_cell_length_a 8.278936
_cell_length_b 9.414904
_cell_length_c 26.508510
_cell_angle_alpha 90.000000
_cell_angle_beta 90.000000
_cell_angle_gamma 90.000000
_cell_volume 2066.216088
_symmetry_space_group_name_H-M "P M M A"
_symmetry_group_IT_number 51
_symmetry_cell_setting 'orthorhombic'
loop_
_space_group_symop_operation_xyz
x,y,z
1/2-x,-y,z
1/2+x,-y,-z
-x,y,-z
-x,-y,-z
1/2+x,y,-z
1/2-x,y,z
x,-y,z
loop_
_atom_site_type_symbol
_atom_site_label
_atom_site_fract_x
_atom_site_fract_y
_atom_site_fract_z
Si Si1 0.552329 0.336583 0.153086
Si Si2 0.057011 0.662302 0.348105
Si Si3 0.944921 0.162489 0.251335
Si Si4 0.556558 0.836216 0.444159
Si Si5 0.555154 0.836203 0.055215
O O1 0.750000 0.335916 0.153141
O O2 0.500411 0.500000 0.155987
O O3 0.499013 0.247144 0.201752
O O4 0.499567 0.260863 0.101442
O O5 0.250000 0.659681 0.344997
O O6 0.996399 0.500000 0.345449
O O7 0.992355 0.754238 0.301589
O O8 0.008050 0.735944 0.400370
O O9 0.750000 0.157845 0.249148
O O10 0.003885 0.000000 0.251961
O O11 0.500000 0.793323 0.500000
O O12 0.750000 0.834967 0.442698
O O13 0.501769 0.000000 0.435945
O O14 0.750000 0.837007 0.055907
O O15 0.500452 0.000000 0.061875
O O16 0.500000 0.787282 0.000000
#
# Coordination Sequence:
#
# PCOD9404523 Si02
#       5
#     8   8   8   8   8
#     4   9  17  30  50  75 102 133 170 213 261 313
#     4  11  24  39  55  79 112 147 181 219 266 318
#     4  10  20  35  57  82 105 134 176 222 267 318
#     4  10  21  38  61  87 113 144 183 224 266 314
#     4   9  17  30  48  70  97 130 169 212 257 308
#
# _framework density 19.359058000000001
#
# number of rings (size 3 to 8) (size 9 to 14) (size 15 to 20)
#    0.000    2.200    0.000    3.000    0.000    9.600 
#    0.000    1.000    0.000    3.600    0.000    0.000 
#    0.000    0.000    0.000    0.000    0.000    0.000 
#
# Total GULP energy -223408.843134 kJ/mol
# GULP energy per Si atom -5585.221078 kJ/mol
# Density = 1.931500 g / cm^3
# Si number density = 19.359058 Si / 1000 Ang^3
#
#
#
# Elastic Constant Matrix: (Units=GPa)
#
#
# Indices 1 2 3 4 5 6 
#
# 1 9.8798 16.8993 10.9234 0.0000 0.0000 0.0000
# 2 16.8993 178.5574 137.5173 0.0000 0.0000 0.0000
# 3 10.9234 137.5173 197.9750 0.0000 0.0000 0.0000
# 4 0.0000 0.0000 0.0000 -12.1426 0.0000 0.0000
# 5 0.0000 0.0000 0.0000 0.0000 31.1637 0.0000
# 6 0.0000 0.0000 0.0000 0.0000 0.0000 8.2329
#
#
#
# Elastic Compliance Matrix: (Units=1/GPa)
#
#
# Indices 1 2 3 4 5 6 
#
# 1 0.121464 -0.013621 0.002760 0.000000 0.000000 0.000000
# 2 -0.013621 0.013571 -0.008675 0.000000 0.000000 0.000000
# 3 0.002760 -0.008675 0.010925 0.000000 0.000000 0.000000
# 4 0.000000 0.000000 0.000000 -0.082355 0.000000 0.000000
# 5 0.000000 0.000000 0.000000 0.000000 0.032089 0.000000
# 6 0.000000 0.000000 0.000000 0.000000 0.000000 0.121464
#
#
# Mechanical properties :
#
#
# Convention : Reuss Voigt Hill
#
# Bulk Modulus (GPa) = 9.35569 79.67694 44.51631
# Shear Modulus (GPa) = 17.13151 20.18893 18.66022
#
# Velocity S-wave (km/s) = 2.97801 3.23285 3.10804
# Velocity P-wave (km/s) = 4.08264 7.42845 5.99374
#
# Compressibility (1/GPa) = 0.10688688
#
# Stress axis : x y z
#
# Youngs Moduli (GPa) = 8.23286 73.68875 91.53663
#
# Poissons Ratio (x) = 1.00373 -0.25261
# Poissons Ratio (y) = 0.11214 0.79407
# Poissons Ratio (z) = -0.02272 0.63924
#
# Static dielectric constant tensor:
#      x y z
#    x 1.678210 0.000000 0.000000 
#    y 0.000000 1.669440 0.000000 
#    z 0.000000 0.000000 1.636970 
# 
# From -- ./inp_files/34297.got.cif
#   From: 2010.05.17/outbox.cif.g08.bks.cpg/sg51_18_cif.got.tgz:34297.got - 2010.06.03 11:52:47.
