data_PCOD9404545
_publ_section_title
;
Structure prediction by ZEFSAII (Michael W. Deem and Ramdas Pophale) SiO2 
 PCOD9404545
Probable space group: P M M A
;
_chemical_formula_sum "Si O2"
_cell_formula_units_Z 48
_cell_length_a 14.682380
_cell_length_b 10.368688
_cell_length_c 16.806519
_cell_angle_alpha 90.000000
_cell_angle_beta 90.000000
_cell_angle_gamma 90.000000
_cell_volume 2558.574324
_symmetry_space_group_name_H-M "P M M A"
_symmetry_group_IT_number 51
_symmetry_cell_setting 'orthorhombic'
loop_
_space_group_symop_operation_xyz
x,y,z
1/2-x,-y,z
1/2+x,-y,-z
-x,y,-z
-x,-y,-z
1/2+x,y,-z
1/2-x,y,z
x,-y,z
loop_
_atom_site_type_symbol
_atom_site_label
_atom_site_fract_x
_atom_site_fract_y
_atom_site_fract_z
Si Si1 0.643146 0.854516 0.464812
Si Si2 0.474982 0.846994 0.907391
Si Si3 0.450302 0.357196 0.643475
Si Si4 0.351912 0.263717 0.362868
Si Si5 0.151731 0.153117 0.188594
Si Si6 0.858073 0.350484 0.184700
O O1 0.750000 0.845515 0.442370
O O2 0.587062 0.750593 0.415668
O O3 0.638260 0.822611 0.558328
O O4 0.611477 0.000000 0.449385
O O5 0.563853 0.800993 0.858381
O O6 0.394575 0.754162 0.877989
O O7 0.456889 0.000000 0.890737
O O8 0.500000 0.836565 0.000000
O O9 0.418535 0.500000 0.619151
O O10 0.559726 0.352972 0.641603
O O11 0.411050 0.331669 0.731663
O O12 0.250000 0.323463 0.366449
O O13 0.355714 0.181518 0.282002
O O14 0.250000 0.206435 0.161380
O O15 0.153530 0.000000 0.176351
O O16 0.750000 0.335521 0.197823
O O17 0.874429 0.500000 0.159922
#
# Coordination Sequence:
#
# PCOD9404545 Si02
#       6
#     8   8   8   8   8   8
#     4  10  22  38  57  85 117 151 197 247 290 341
#     4  10  21  37  61  93 122 149 187 238 293 350
#     4  11  23  39  59  84 117 157 198 242 292 344
#     4  10  20  35  57  83 113 152 195 240 290 344
#     4   9  17  32  55  82 115 153 188 228 284 344
#     4  10  22  41  62  84 116 159 202 241 285 342
#
# _framework density 18.760449000000001
#
# number of rings (size 3 to 8) (size 9 to 14) (size 15 to 20)
#    0.000    2.000    1.667    1.500    0.000    8.667 
#    0.000    3.333    0.000    0.500    0.000    0.000 
#    0.000    0.000    0.000    0.000    0.000    0.000 
#
# Total GULP energy -267732.175282 kJ/mol
# GULP energy per Si atom -5577.753652 kJ/mol
# Density = 1.871775 g / cm^3
# Si number density = 18.760449 Si / 1000 Ang^3
#
#
#
# Elastic Constant Matrix: (Units=GPa)
#
#
# Indices 1 2 3 4 5 6 
#
# 1 110.1994 58.6888 44.9226 0.0000 0.0000 0.0000
# 2 58.6888 85.2610 45.5878 0.0000 0.0000 0.0000
# 3 44.9226 45.5878 73.3664 0.0000 0.0000 0.0000
# 4 0.0000 0.0000 0.0000 13.3995 0.0000 0.0000
# 5 0.0000 0.0000 0.0000 0.0000 21.3834 0.0000
# 6 0.0000 0.0000 0.0000 0.0000 0.0000 40.3311
#
#
#
# Elastic Compliance Matrix: (Units=1/GPa)
#
#
# Indices 1 2 3 4 5 6 
#
# 1 0.015138 -0.008183 -0.004185 0.000000 0.000000 0.000000
# 2 -0.008183 0.021987 -0.008652 0.000000 0.000000 0.000000
# 3 -0.004185 -0.008652 0.021569 0.000000 0.000000 0.000000
# 4 0.000000 0.000000 0.000000 0.074629 0.000000 0.000000
# 5 0.000000 0.000000 0.000000 0.000000 0.046765 0.000000
# 6 0.000000 0.000000 0.000000 0.000000 0.000000 0.024795
#
#
# Mechanical properties :
#
#
# Convention : Reuss Voigt Hill
#
# Bulk Modulus (GPa) = 60.04078 63.02503 61.53290
# Shear Modulus (GPa) = 19.80400 22.99798 21.40099
#
# Velocity S-wave (km/s) = 3.25256 3.50505 3.38116
# Velocity P-wave (km/s) = 6.79551 7.07446 6.93639
#
# Compressibility (1/GPa) = 0.01665535
#
# Stress axis : x y z
#
# Youngs Moduli (GPa) = 66.05784 45.48067 46.36379
#
# Poissons Ratio (x) = 0.37216 0.19402
# Poissons Ratio (y) = 0.54054 0.40114
# Poissons Ratio (z) = 0.27643 0.39350
#
# Static dielectric constant tensor:
#      x y z
#    x 1.694060 0.000000 0.000000 
#    y 0.000000 1.628370 0.000000 
#    z 0.000000 0.000000 1.617770 
# 
# From -- ./inp_files/29466.got.cif
#   From: 2010.05.17/outbox.cif.g08.bks.cpg/sg51_15_cif.got.tgz:29466.got - 2010.06.03 11:52:47.
