data_PCOD9404996
_publ_section_title
;
Structure prediction by ZEFSAII (Michael W. Deem and Ramdas Pophale) SiO2 
 PCOD9404996
Probable space group: P M M A
;
_chemical_formula_sum "Si O2"
_cell_formula_units_Z 48
_cell_length_a 19.558985
_cell_length_b 8.871732
_cell_length_c 15.448923
_cell_angle_alpha 90.000000
_cell_angle_beta 90.000000
_cell_angle_gamma 90.000000
_cell_volume 2680.729146
_symmetry_space_group_name_H-M "P M M A"
_symmetry_group_IT_number 51
_symmetry_cell_setting 'orthorhombic'
loop_
_space_group_symop_operation_xyz
x,y,z
1/2-x,-y,z
1/2+x,-y,-z
-x,y,-z
-x,-y,-z
1/2+x,y,-z
1/2-x,y,z
x,-y,z
loop_
_atom_site_type_symbol
_atom_site_label
_atom_site_fract_x
_atom_site_fract_y
_atom_site_fract_z
Si Si1 0.072497 0.681133 0.545068
Si Si2 0.910963 0.181848 0.771332
Si Si3 0.329916 0.819028 0.057671
Si Si4 0.829790 0.680218 0.127905
Si Si5 0.932846 0.819427 0.265773
Si Si6 0.329078 0.318124 0.389500
O O1 0.074351 0.500000 0.557706
O O2 0.078434 0.760284 0.637166
O O3 0.131839 0.724019 0.477729
O O4 0.000000 0.718067 0.500000
O O5 0.876806 0.228391 0.862021
O O6 0.868821 0.249696 0.691745
O O7 0.990275 0.225204 0.762851
O O8 0.906864 0.000000 0.766573
O O9 0.250000 0.785057 0.076674
O O10 0.335752 0.000000 0.047448
O O11 0.348367 0.741480 0.967305
O O12 0.750000 0.721020 0.142665
O O13 0.835234 0.500000 0.129392
O O14 0.877984 0.750851 0.200273
O O15 0.928613 0.000000 0.264032
O O16 0.250000 0.271520 0.390003
O O17 0.331927 0.500000 0.383236
#
# Coordination Sequence:
#
# PCOD9404996 Si02
#       6
#     8   8   8   8   8   8
#     4  10  20  37  58  79 110 152 191 230 282 337
#     4  10  21  36  56  84 117 151 185 226 279 339
#     4   9  18  35  58  81 110 149 188 228 277 331
#     4  10  22  40  60  82 110 146 189 236 284 336
#     4  11  23  37  58  86 115 148 188 234 283 338
#     4  10  21  36  56  83 112 145 189 238 283 332
#
# _framework density 17.905577000000001
#
# number of rings (size 3 to 8) (size 9 to 14) (size 15 to 20)
#    0.000    2.000    1.667    1.500    0.000    5.667 
#    0.000    6.667    0.000    0.000    0.000    0.000 
#    0.000    0.000    0.000    0.000    0.000    0.000 
#
# Total GULP energy -268076.678680 kJ/mol
# GULP energy per Si atom -5584.930806 kJ/mol
# Density = 1.786482 g / cm^3
# Si number density = 17.905577 Si / 1000 Ang^3
#
#
#
# Elastic Constant Matrix: (Units=GPa)
#
#
# Indices 1 2 3 4 5 6 
#
# 1 144.3552 48.9076 122.9223 0.0000 0.0000 0.0000
# 2 48.9076 27.2984 59.3402 0.0000 0.0000 0.0000
# 3 122.9223 59.3402 205.1830 0.0000 0.0000 0.0000
# 4 0.0000 0.0000 0.0000 38.7962 0.0000 0.0000
# 5 0.0000 0.0000 0.0000 0.0000 40.2606 0.0000
# 6 0.0000 0.0000 0.0000 0.0000 0.0000 23.6520
#
#
#
# Elastic Compliance Matrix: (Units=1/GPa)
#
#
# Indices 1 2 3 4 5 6 
#
# 1 0.018828 -0.024811 -0.004104 0.000000 0.000000 0.000000
# 2 -0.024811 0.131344 -0.023122 0.000000 0.000000 0.000000
# 3 -0.004104 -0.023122 0.014019 0.000000 0.000000 0.000000
# 4 0.000000 0.000000 0.000000 0.025776 0.000000 0.000000
# 5 0.000000 0.000000 0.000000 0.000000 0.024838 0.000000
# 6 0.000000 0.000000 0.000000 0.000000 0.000000 0.042280
#
#
# Mechanical properties :
#
#
# Convention : Reuss Voigt Hill
#
# Bulk Modulus (GPa) = 16.63393 93.24187 54.93790
# Shear Modulus (GPa) = 13.11656 30.25286 21.68471
#
# Velocity S-wave (km/s) = 2.70949 4.11491 3.48380
# Velocity P-wave (km/s) = 4.37017 8.64661 6.85063
#
# Compressibility (1/GPa) = 0.06011810
#
# Stress axis : x y z
#
# Youngs Moduli (GPa) = 53.11217 7.61361 71.32933
#
# Poissons Ratio (x) = 0.18890 0.29276
# Poissons Ratio (y) = 1.31774 1.64926
# Poissons Ratio (z) = 0.21799 0.17604
#
# Static dielectric constant tensor:
#      x y z
#    x 1.604210 0.000000 0.000000 
#    y 0.000000 1.603890 0.000000 
#    z 0.000000 0.000000 1.569730 
# 
# From -- ./inp_files/24679.got.cif
#   From: 2010.05.17/outbox.cif.g08.bks.cpg/sg51_13_cif.got.tgz:24679.got - 2010.06.03 11:52:47.
