data_PCOD9404756
_publ_section_title
;
Structure prediction by ZEFSAII (Michael W. Deem and Ramdas Pophale) SiO2 
 PCOD9404756
Probable space group: P M M A
;
_chemical_formula_sum "Si O2"
_cell_formula_units_Z 52
_cell_length_a 9.330855
_cell_length_b 14.850170
_cell_length_c 20.266149
_cell_angle_alpha 90.000000
_cell_angle_beta 90.000000
_cell_angle_gamma 90.000000
_cell_volume 2808.174538
_symmetry_space_group_name_H-M "P M M A"
_symmetry_group_IT_number 51
_symmetry_cell_setting 'orthorhombic'
loop_
_space_group_symop_operation_xyz
x,y,z
1/2-x,-y,z
1/2+x,-y,-z
-x,y,-z
-x,-y,-z
1/2+x,y,-z
1/2-x,y,z
x,-y,z
loop_
_atom_site_type_symbol
_atom_site_label
_atom_site_fract_x
_atom_site_fract_y
_atom_site_fract_z
Si Si1 0.580280 0.749655 0.695173
Si Si2 0.422099 0.699917 0.571170
Si Si3 0.577561 0.392744 0.213229
Si Si4 0.914272 0.390426 0.063837
Si Si5 0.413796 0.109897 0.935648
Si Si6 0.917196 0.105294 0.806863
Si Si7 0.581850 0.500000 0.431626
O O1 0.750000 0.734734 0.683964
O O2 0.496791 0.760340 0.626334
O O3 0.510564 0.667992 0.736603
O O4 0.561927 0.836324 0.741792
O O5 0.500000 0.707670 0.500000
O O6 0.250000 0.712715 0.565338
O O7 0.448464 0.597328 0.598342
O O8 0.750000 0.378289 0.220171
O O9 0.553692 0.500000 0.222773
O O10 0.535056 0.367948 0.137752
O O11 0.750000 0.361713 0.058082
O O12 0.915715 0.500000 0.062309
O O13 0.000000 0.358503 0.000000
O O14 0.250000 0.138664 0.938709
O O15 0.487517 0.138389 0.867746
O O16 0.416739 0.000000 0.935627
O O17 0.500000 0.139373 0.000000
O O18 0.750000 0.111940 0.826451
O O19 0.948725 0.000000 0.795012
O O20 0.750000 0.500000 0.445535
O O21 0.500000 0.500000 0.500000
#
# Coordination Sequence:
#
# PCOD9404756 Si02
#       7
#     8   8   8   8   8   8   4
#     4  11  23  36  54  82 109 137 177 221 269 321
#     4  10  20  36  57  81 111 145 179 215 259 313
#     4   9  19  35  52  72 104 144 180 214 260 316
#     4   8  14  26  45  67  91 126 172 217 257 299
#     4   9  16  27  48  78 108 138 175 220 273 331
#     4   9  19  37  57  76 105 144 184 228 276 325
#     4   8  16  30  50  76 104 138 173 202 241 296
#
# _framework density 18.517367
#
# number of rings (size 3 to 8) (size 9 to 14) (size 15 to 20)
#    0.000    2.769    0.000    2.308    1.077    4.615 
#    0.000    2.308    0.000    2.308    0.000    0.000 
#    0.000    0.000    0.000    0.000    0.000    0.000 
#
# Total GULP energy -289986.661215 kJ/mol
# GULP energy per Si atom -5576.666562 kJ/mol
# Density = 1.847522 g / cm^3
# Si number density = 18.517367 Si / 1000 Ang^3
#
#
#
# Elastic Constant Matrix: (Units=GPa)
#
#
# Indices 1 2 3 4 5 6 
#
# 1 93.5846 37.7824 89.4502 0.0000 0.0000 0.0000
# 2 37.7824 52.8102 34.2203 0.0000 0.0000 0.0000
# 3 89.4502 34.2203 141.4809 0.0000 0.0000 0.0000
# 4 0.0000 0.0000 0.0000 -49.5168 0.0000 0.0000
# 5 0.0000 0.0000 0.0000 0.0000 35.8913 0.0000
# 6 0.0000 0.0000 0.0000 0.0000 0.0000 11.8298
#
#
#
# Elastic Compliance Matrix: (Units=1/GPa)
#
#
# Indices 1 2 3 4 5 6 
#
# 1 0.032076 -0.011630 -0.017467 0.000000 0.000000 0.000000
# 2 -0.011630 0.026672 0.000902 0.000000 0.000000 0.000000
# 3 -0.017467 0.000902 0.017893 0.000000 0.000000 0.000000
# 4 0.000000 0.000000 0.000000 -0.020195 0.000000 0.000000
# 5 0.000000 0.000000 0.000000 0.000000 0.027862 0.000000
# 6 0.000000 0.000000 0.000000 0.000000 0.000000 0.084532
#
#
# Mechanical properties :
#
#
# Convention : Reuss Voigt Hill
#
# Bulk Modulus (GPa) = 49.38019 67.86460 58.62239
# Shear Modulus (GPa) = 21.55351 8.06906 14.81128
#
# Velocity S-wave (km/s) = 3.41539 2.08974 2.83125
# Velocity P-wave (km/s) = 6.50216 6.52315 6.51266
#
# Compressibility (1/GPa) = 0.02025104
#
# Stress axis : x y z
#
# Youngs Moduli (GPa) = 31.17583 37.49253 55.88693
#
# Poissons Ratio (x) = 0.43604 0.97617
# Poissons Ratio (y) = 0.36258 -0.05040
# Poissons Ratio (z) = 0.54454 -0.03381
#
# Static dielectric constant tensor:
#      x y z
#    x 1.620980 0.000000 0.000000 
#    y 0.000000 1.678250 0.000000 
#    z 0.000000 0.000000 1.626370 
# 
# From -- ./inp_files/31778.got.cif
#   From: 2010.05.17/outbox.cif.g08.bks.cpg/sg51_16_cif.got.tgz:31778.got - 2010.06.03 11:52:47.
