data_PCOD9404094
_publ_section_title
;
Structure prediction by ZEFSAII (Michael W. Deem and Ramdas Pophale) SiO2 
 PCOD9404094
Probable space group: P M M A
;
_chemical_formula_sum "Si O2"
_cell_formula_units_Z 56
_cell_length_a 19.364547
_cell_length_b 9.024302
_cell_length_c 18.189264
_cell_angle_alpha 90.000000
_cell_angle_beta 90.000000
_cell_angle_gamma 90.000000
_cell_volume 3178.601536
_symmetry_space_group_name_H-M "P M M A"
_symmetry_group_IT_number 51
_symmetry_cell_setting 'orthorhombic'
loop_
_space_group_symop_operation_xyz
x,y,z
1/2-x,-y,z
1/2+x,-y,-z
-x,y,-z
-x,-y,-z
1/2+x,y,-z
1/2-x,y,z
x,-y,z
loop_
_atom_site_type_symbol
_atom_site_label
_atom_site_fract_x
_atom_site_fract_y
_atom_site_fract_z
Si Si1 0.166088 0.670303 0.479441
Si Si2 0.829756 0.321678 0.086354
Si Si3 0.330459 0.177713 0.327915
Si Si4 0.574743 0.821975 0.966655
Si Si5 0.667655 0.823712 0.368651
Si Si6 0.559991 0.178603 0.796871
Si Si7 0.587011 0.677998 0.233983
O O1 0.250000 0.672118 0.478667
O O2 0.143476 0.500000 0.484019
O O3 0.144827 0.744739 0.402838
O O4 0.145577 0.760294 0.551988
O O5 0.750000 0.275894 0.091886
O O6 0.832100 0.500000 0.080845
O O7 0.871254 0.279510 0.159999
O O8 0.866978 0.252082 0.016163
O O9 0.250000 0.217442 0.314973
O O10 0.378562 0.216136 0.259174
O O11 0.333130 0.000000 0.338307
O O12 0.577168 0.780355 0.880972
O O13 0.581070 0.000000 0.971839
O O14 0.500000 0.780452 0.000000
O O15 0.750000 0.794699 0.360076
O O16 0.626246 0.744627 0.303946
O O17 0.657344 0.000000 0.366188
O O18 0.489587 0.256968 0.772866
O O19 0.550076 0.000000 0.795102
O O20 0.585434 0.500000 0.238764
#
# Coordination Sequence:
#
# PCOD9404094 Si02
#       7
#     8   8   8   8   8   8   8
#     4   9  17  31  53  80 110 143 179 223 274 326
#     4  10  22  38  56  81 112 146 185 229 277 329
#     4   9  18  34  56  80 107 141 181 226 276 329
#     4  10  20  36  58  82 109 143 185 230 275 328
#     4  10  20  34  55  82 111 145 185 227 272 325
#     4  10  21  37  57  81 111 145 184 227 275 332
#     4  11  22  36  55  79 112 150 186 226 274 327
#
# _framework density 17.617811
#
# number of rings (size 3 to 8) (size 9 to 14) (size 15 to 20)
#    0.000    2.143    1.429    1.714    0.000    6.000 
#    0.000    2.143    0.000    6.000    0.000    0.000 
#    0.000    0.000    0.000    0.000    0.000    0.000 
#
# Total GULP energy -312589.544152 kJ/mol
# GULP energy per Si atom -5581.956146 kJ/mol
# Density = 1.757771 g / cm^3
# Si number density = 17.617811 Si / 1000 Ang^3
#
#
#
# Elastic Constant Matrix: (Units=GPa)
#
#
# Indices 1 2 3 4 5 6 
#
# 1 104.9643 47.9466 84.1888 0.0000 0.0000 0.0000
# 2 47.9466 44.8676 66.8583 0.0000 0.0000 0.0000
# 3 84.1888 66.8583 193.1957 0.0000 0.0000 0.0000
# 4 0.0000 0.0000 0.0000 28.4629 0.0000 0.0000
# 5 0.0000 0.0000 0.0000 0.0000 25.0407 0.0000
# 6 0.0000 0.0000 0.0000 0.0000 0.0000 26.5278
#
#
#
# Elastic Compliance Matrix: (Units=1/GPa)
#
#
# Indices 1 2 3 4 5 6 
#
# 1 0.019234 -0.016651 -0.002619 0.000000 0.000000 0.000000
# 2 -0.016651 0.060433 -0.013658 0.000000 0.000000 0.000000
# 3 -0.002619 -0.013658 0.011044 0.000000 0.000000 0.000000
# 4 0.000000 0.000000 0.000000 0.035133 0.000000 0.000000
# 5 0.000000 0.000000 0.000000 0.000000 0.039935 0.000000
# 6 0.000000 0.000000 0.000000 0.000000 0.000000 0.037696
#
#
# Mechanical properties :
#
#
# Convention : Reuss Voigt Hill
#
# Bulk Modulus (GPa) = 40.23306 82.33501 61.28404
# Shear Modulus (GPa) = 18.01048 25.60855 21.80951
#
# Velocity S-wave (km/s) = 3.20079 3.81669 3.52223
# Velocity P-wave (km/s) = 6.04535 8.13992 7.16954
#
# Compressibility (1/GPa) = 0.02485518
#
# Stress axis : x y z
#
# Youngs Moduli (GPa) = 51.99203 16.54723 90.54643
#
# Poissons Ratio (x) = 0.27552 0.23717
# Poissons Ratio (y) = 0.86570 1.23668
# Poissons Ratio (z) = 0.13618 0.22600
#
# Static dielectric constant tensor:
#      x y z
#    x 1.579930 0.000000 0.000000 
#    y 0.000000 1.590570 0.000000 
#    z 0.000000 0.000000 1.577770 
# 
# From -- ./inp_files/25673.got.cif
#   From: 2010.05.17/outbox.cif.g08.bks.cpg/sg51_13_cif.got.tgz:25673.got - 2010.06.03 11:52:47.
