data_PCOD9404764
_publ_section_title
;
Structure prediction by ZEFSAII (Michael W. Deem and Ramdas Pophale) SiO2 
 PCOD9404764
Probable space group: P M M A
;
_chemical_formula_sum "Si O2"
_cell_formula_units_Z 40
_cell_length_a 8.847280
_cell_length_b 25.401597
_cell_length_c 9.908465
_cell_angle_alpha 90.000000
_cell_angle_beta 90.000000
_cell_angle_gamma 90.000000
_cell_volume 2226.779289
_symmetry_space_group_name_H-M "P M M A"
_symmetry_group_IT_number 51
_symmetry_cell_setting 'orthorhombic'
loop_
_space_group_symop_operation_xyz
x,y,z
1/2-x,-y,z
1/2+x,-y,-z
-x,y,-z
-x,-y,-z
1/2+x,y,-z
1/2-x,y,z
x,-y,z
loop_
_atom_site_type_symbol
_atom_site_label
_atom_site_fract_x
_atom_site_fract_y
_atom_site_fract_z
Si Si1 0.430635 0.439859 0.648632
Si Si2 0.568309 0.143640 0.649296
Si Si3 0.068687 0.356583 0.146539
Si Si4 0.070898 0.062763 0.855349
Si Si5 0.431382 0.235163 0.145894
O O1 0.500000 0.433759 0.500000
O O2 0.250000 0.433752 0.642802
O O3 0.463611 0.500000 0.693647
O O4 0.501981 0.397073 0.746762
O O5 0.500000 0.144732 0.500000
O O6 0.750000 0.141921 0.641336
O O7 0.507796 0.094373 0.735418
O O8 0.522651 0.194925 0.737180
O O9 0.250000 0.360381 0.142649
O O10 0.027539 0.295698 0.177967
O O11 0.000000 0.368329 0.000000
O O12 0.250000 0.073452 0.856729
O O13 0.048790 0.000000 0.839280
O O14 0.000000 0.078044 0.000000
O O15 0.250000 0.232583 0.133698
O O16 0.500000 0.221380 0.000000
#
# Coordination Sequence:
#
# PCOD9404764 Si02
#       5
#     8   8   8   8   8
#     4  10  21  37  56  79 108 143 182 223 270 324
#     4  11  23  38  56  81 113 147 184 225 272 323
#     4  10  20  36  57  82 111 142 180 224 271 321
#     4  10  21  38  60  85 112 144 183 225 270 322
#     4   9  20  37  57  81 108 141 180 223 270 322
#
# _framework density 17.963163000000002
#
# number of rings (size 3 to 8) (size 9 to 14) (size 15 to 20)
#    0.000    2.000    0.000    3.000    0.000    8.000 
#    0.000    2.000    0.000    0.000    0.000    0.000 
#    0.000    0.000    0.000    0.000    0.000    0.000 
#
# Total GULP energy -223428.598613 kJ/mol
# GULP energy per Si atom -5585.714965 kJ/mol
# Density = 1.792228 g / cm^3
# Si number density = 17.963163 Si / 1000 Ang^3
#
#
#
# Elastic Constant Matrix: (Units=GPa)
#
#
# Indices 1 2 3 4 5 6 
#
# 1 75.2956 64.4629 68.9904 0.0000 0.0000 0.0000
# 2 64.4629 104.1148 101.7865 0.0000 0.0000 0.0000
# 3 68.9904 101.7865 162.3286 0.0000 0.0000 0.0000
# 4 0.0000 0.0000 0.0000 112.6827 0.0000 0.0000
# 5 0.0000 0.0000 0.0000 0.0000 39.7891 0.0000
# 6 0.0000 0.0000 0.0000 0.0000 0.0000 31.0298
#
#
#
# Elastic Compliance Matrix: (Units=1/GPa)
#
#
# Indices 1 2 3 4 5 6 
#
# 1 0.028722 -0.015115 -0.002729 0.000000 0.000000 0.000000
# 2 -0.015115 0.032774 -0.014127 0.000000 0.000000 0.000000
# 3 -0.002729 -0.014127 0.016178 0.000000 0.000000 0.000000
# 4 0.000000 0.000000 0.000000 0.008874 0.000000 0.000000
# 5 0.000000 0.000000 0.000000 0.000000 0.025133 0.000000
# 6 0.000000 0.000000 0.000000 0.000000 0.000000 0.032227
#
#
# Mechanical properties :
#
#
# Convention : Reuss Voigt Hill
#
# Bulk Modulus (GPa) = 72.82037 90.24652 81.53345
# Shear Modulus (GPa) = 23.53731 43.80026 33.66878
#
# Velocity S-wave (km/s) = 3.62375 4.94331 4.33404
# Velocity P-wave (km/s) = 7.62466 9.10662 8.39839
#
# Compressibility (1/GPa) = 0.01373242
#
# Stress axis : x y z
#
# Youngs Moduli (GPa) = 34.81615 30.51182 61.81127
#
# Poissons Ratio (x) = 0.46119 0.16870
# Poissons Ratio (y) = 0.52626 0.87319
# Poissons Ratio (z) = 0.09502 0.43103
#
# Static dielectric constant tensor:
#      x y z
#    x 1.599030 0.000000 0.000000 
#    y 0.000000 1.620980 0.000000 
#    z 0.000000 0.000000 1.581990 
# 
# From -- ./inp_files/5207.got.cif
#   From: 2010.05.17/outbox.cif.g08.bks.cpg/sg51_3_cif.got.tgz:5207.got - 2010.06.03 11:52:47.
