data_PCOD9404250
_publ_section_title
;
Structure prediction by ZEFSAII (Michael W. Deem and Ramdas Pophale) SiO2 
 PCOD9404250
Probable space group: P M M A
;
_chemical_formula_sum "Si O2"
_cell_formula_units_Z 64
_cell_length_a 8.644422
_cell_length_b 18.017536
_cell_length_c 21.136910
_cell_angle_alpha 90.000000
_cell_angle_beta 90.000000
_cell_angle_gamma 90.000000
_cell_volume 3292.098771
_symmetry_space_group_name_H-M "P M M A"
_symmetry_group_IT_number 51
_symmetry_cell_setting 'orthorhombic'
loop_
_space_group_symop_operation_xyz
x,y,z
1/2-x,-y,z
1/2+x,-y,-z
-x,y,-z
-x,-y,-z
1/2+x,y,-z
1/2-x,y,z
x,-y,z
loop_
_atom_site_type_symbol
_atom_site_label
_atom_site_fract_x
_atom_site_fract_y
_atom_site_fract_z
Si Si1 0.065907 0.583206 0.205553
Si Si2 0.566718 0.755698 0.566345
Si Si3 0.930547 0.082589 0.411159
Si Si4 0.437077 0.215623 0.066244
Si Si5 0.934542 0.291391 0.299666
Si Si6 0.073000 0.122399 0.734447
Si Si7 0.931842 0.921956 0.856309
Si Si8 0.934122 0.381295 0.068565
O O1 0.250000 0.594376 0.200202
O O2 0.036121 0.500000 0.230709
O O3 0.000303 0.645490 0.253159
O O4 0.997521 0.585900 0.134279
O O5 0.500000 0.726321 0.500000
O O6 0.750000 0.749686 0.566970
O O7 0.520063 0.843289 0.568899
O O8 0.500446 0.714856 0.628843
O O9 0.750000 0.089479 0.431150
O O10 0.932360 0.088269 0.335132
O O11 0.987221 0.000000 0.429188
O O12 0.250000 0.224746 0.066442
O O13 0.491181 0.155287 0.116615
O O14 0.515021 0.295304 0.074110
O O15 0.500000 0.185883 0.000000
O O16 0.750000 0.299797 0.303746
O O17 0.965852 0.209598 0.270908
O O18 0.250000 0.114819 0.757624
O O19 0.959474 0.082883 0.782040
O O20 0.750000 0.922298 0.870873
O O21 0.999053 0.000000 0.880412
O O22 0.750000 0.389003 0.066413
O O23 0.000000 0.407561 0.000000
#
# Coordination Sequence:
#
# PCOD9404250 Si02
#       8
#     8   8   8   8   8   8   8   8
#     4  11  24  41  62  91 125 156 187 226 275 333
#     4  11  22  37  58  84 115 152 197 245 294 348
#     4   9  18  33  51  74 109 149 189 237 290 342
#     4  10  20  35  53  71  96 131 175 226 277 331
#     4  10  21  39  62  87 116 150 191 236 283 339
#     4   9  18  32  51  75 101 134 177 223 270 323
#     4  10  21  33  45  66  97 132 172 223 280 333
#     4  11  22  38  61  87 117 153 193 234 278 333
#
# _framework density 19.440484999999999
#
# number of rings (size 3 to 8) (size 9 to 14) (size 15 to 20)
#    0.000    1.875    0.000    6.000    0.000    8.250 
#    0.000    0.000    0.000    0.375    0.000    0.000 
#    0.000    0.000    0.000    0.000    0.000    0.000 
#
# Total GULP energy -357087.816796 kJ/mol
# GULP energy per Si atom -5579.497137 kJ/mol
# Density = 1.939624 g / cm^3
# Si number density = 19.440485 Si / 1000 Ang^3
#
#
#
# Elastic Constant Matrix: (Units=GPa)
#
#
# Indices 1 2 3 4 5 6 
#
# 1 73.8099 49.1300 41.0208 0.0000 0.0000 0.0000
# 2 49.1300 100.1133 60.1510 0.0000 0.0000 0.0000
# 3 41.0208 60.1510 106.5057 0.0000 0.0000 0.0000
# 4 0.0000 0.0000 0.0000 270.2341 0.0000 0.0000
# 5 0.0000 0.0000 0.0000 0.0000 33.7437 0.0000
# 6 0.0000 0.0000 0.0000 0.0000 0.0000 -14.6114
#
#
#
# Elastic Compliance Matrix: (Units=1/GPa)
#
#
# Indices 1 2 3 4 5 6 
#
# 1 0.020912 -0.008209 -0.003418 0.000000 0.000000 0.000000
# 2 -0.008209 0.018341 -0.007197 0.000000 0.000000 0.000000
# 3 -0.003418 -0.007197 0.014770 0.000000 0.000000 0.000000
# 4 0.000000 0.000000 0.000000 0.003700 0.000000 0.000000
# 5 0.000000 0.000000 0.000000 0.000000 0.029635 0.000000
# 6 0.000000 0.000000 0.000000 0.000000 0.000000 -0.068440
#
#
# Mechanical properties :
#
#
# Convention : Reuss Voigt Hill
#
# Bulk Modulus (GPa) = 61.06594 64.55916 62.81255
# Shear Modulus (GPa) = 80.61209 66.54845 73.58027
#
# Velocity S-wave (km/s) = 6.44640 5.85715 6.15883
# Velocity P-wave (km/s) = 9.32138 8.88945 9.10797
#
# Compressibility (1/GPa) = 0.01637574
#
# Stress axis : x y z
#
# Youngs Moduli (GPa) = 47.81949 54.52236 67.70335
#
# Poissons Ratio (x) = 0.44755 0.23143
# Poissons Ratio (y) = 0.39253 0.48725
# Poissons Ratio (z) = 0.16346 0.39239
#
# Static dielectric constant tensor:
#      x y z
#    x 1.664220 0.000000 0.000000 
#    y 0.000000 1.709520 0.000000 
#    z 0.000000 0.000000 1.701280 
# 
# From -- ./inp_files/32324.got.cif
#   From: 2010.05.17/outbox.cif.g08.bks.cpg/sg51_17_cif.got.tgz:32324.got - 2010.06.03 11:52:47.
