data_PCOD9404822
_publ_section_title
;
Structure prediction by ZEFSAII (Michael W. Deem and Ramdas Pophale) SiO2 
 PCOD9404822
Probable space group: P M M A
;
_chemical_formula_sum "Si O2"
_cell_formula_units_Z 64
_cell_length_a 9.471849
_cell_length_b 18.430100
_cell_length_c 19.696060
_cell_angle_alpha 90.000000
_cell_angle_beta 90.000000
_cell_angle_gamma 90.000000
_cell_volume 3438.284553
_symmetry_space_group_name_H-M "P M M A"
_symmetry_group_IT_number 51
_symmetry_cell_setting 'orthorhombic'
loop_
_space_group_symop_operation_xyz
x,y,z
1/2-x,-y,z
1/2+x,-y,-z
-x,y,-z
-x,-y,-z
1/2+x,y,-z
1/2-x,y,z
x,-y,z
loop_
_atom_site_type_symbol
_atom_site_label
_atom_site_fract_x
_atom_site_fract_y
_atom_site_fract_z
Si Si1 0.596188 0.086125 0.439869
Si Si2 0.418377 0.699891 0.429522
Si Si3 0.085173 0.416535 0.937989
Si Si4 0.908729 0.843669 0.660999
Si Si5 0.418200 0.913352 0.929071
Si Si6 0.581828 0.586240 0.340640
Si Si7 0.085571 0.817422 0.180350
Si Si8 0.085217 0.329242 0.799986
O O1 0.500000 0.115410 0.500000
O O2 0.750000 0.119622 0.443457
O O3 0.522065 0.102657 0.369780
O O4 0.606794 0.000000 0.448820
O O5 0.500000 0.714462 0.500000
O O6 0.250000 0.691591 0.440755
O O7 0.436094 0.765604 0.374749
O O8 0.488251 0.628797 0.395483
O O9 0.250000 0.415686 0.955869
O O10 0.038591 0.500000 0.930733
O O11 0.069799 0.378934 0.866040
O O12 0.000000 0.382032 0.000000
O O13 0.750000 0.865407 0.640132
O O14 0.916289 0.844024 0.741713
O O15 0.250000 0.896826 0.934073
O O16 0.494068 0.867053 0.870210
O O17 0.431360 0.000000 0.915612
O O18 0.500000 0.898888 0.000000
O O19 0.750000 0.595106 0.355107
O O20 0.552966 0.500000 0.337803
O O21 0.554751 0.624690 0.267825
O O22 0.250000 0.814751 0.158463
O O23 0.015942 0.738418 0.187458
O O24 0.250000 0.305408 0.795406
#
# Coordination Sequence:
#
# PCOD9404822 Si02
#       8
#     8   8   8   8   8   8   8   8
#     4  10  21  36  56  83 114 149 190 235 285 344
#     4  11  23  40  60  85 115 150 195 243 299 360
#     4   9  18  33  53  79 111 147 188 233 281 337
#     4  10  22  39  58  83 116 154 195 241 291 347
#     4  10  22  42  67  94 124 160 203 248 295 348
#     4  10  21  38  61  87 113 148 195 246 304 363
#     4  11  23  39  60  88 122 156 195 241 289 344
#     4  10  20  36  58  83 115 154 195 242 294 348
#
# _framework density 18.613932999999999
#
# number of rings (size 3 to 8) (size 9 to 14) (size 15 to 20)
#    0.000    1.875    1.250    2.250    0.000    8.000 
#    0.000    3.750    0.000    2.250    0.000    0.000 
#    0.000    0.000    0.000    0.000    0.000    0.000 
#
# Total GULP energy -357125.676332 kJ/mol
# GULP energy per Si atom -5580.088693 kJ/mol
# Density = 1.857157 g / cm^3
# Si number density = 18.613933 Si / 1000 Ang^3
#
#
#
# Elastic Constant Matrix: (Units=GPa)
#
#
# Indices 1 2 3 4 5 6 
#
# 1 128.0152 55.2424 72.4336 0.0000 0.0000 0.0000
# 2 55.2424 54.6999 36.0457 0.0000 0.0000 0.0000
# 3 72.4336 36.0457 103.6448 0.0000 0.0000 0.0000
# 4 0.0000 0.0000 0.0000 22.0400 0.0000 0.0000
# 5 0.0000 0.0000 0.0000 0.0000 33.5462 0.0000
# 6 0.0000 0.0000 0.0000 0.0000 0.0000 23.7126
#
#
#
# Elastic Compliance Matrix: (Units=1/GPa)
#
#
# Indices 1 2 3 4 5 6 
#
# 1 0.017865 -0.012733 -0.008057 0.000000 0.000000 0.000000
# 2 -0.012733 0.032792 -0.002506 0.000000 0.000000 0.000000
# 3 -0.008057 -0.002506 0.016151 0.000000 0.000000 0.000000
# 4 0.000000 0.000000 0.000000 0.045372 0.000000 0.000000
# 5 0.000000 0.000000 0.000000 0.000000 0.029810 0.000000
# 6 0.000000 0.000000 0.000000 0.000000 0.000000 0.042172
#
#
# Mechanical properties :
#
#
# Convention : Reuss Voigt Hill
#
# Bulk Modulus (GPa) = 49.46548 68.20035 58.83292
# Shear Modulus (GPa) = 21.05344 24.03563 22.54454
#
# Velocity S-wave (km/s) = 3.36677 3.59732 3.48395
# Velocity P-wave (km/s) = 6.46109 7.34665 6.91805
#
# Compressibility (1/GPa) = 0.02021612
#
# Stress axis : x y z
#
# Youngs Moduli (GPa) = 55.97565 30.49529 61.91742
#
# Poissons Ratio (x) = 0.38829 0.49886
# Poissons Ratio (y) = 0.71273 0.15516
# Poissons Ratio (z) = 0.45099 0.07642
#
# Static dielectric constant tensor:
#      x y z
#    x 1.646470 0.000000 0.000000 
#    y 0.000000 1.644430 0.000000 
#    z 0.000000 0.000000 1.639490 
# 
# From -- ./inp_files/32447.got.cif
#   From: 2010.05.17/outbox.cif.g08.bks.cpg/sg51_17_cif.got.tgz:32447.got - 2010.06.03 11:52:47.
