data_PCOD9404188
_publ_section_title
;
Structure prediction by ZEFSAII (Michael W. Deem and Ramdas Pophale) SiO2 
 PCOD9404188
Probable space group: P M M A
;
_chemical_formula_sum "Si O2"
_cell_formula_units_Z 40
_cell_length_a 14.520190
_cell_length_b 9.342936
_cell_length_c 14.895009
_cell_angle_alpha 90.000000
_cell_angle_beta 90.000000
_cell_angle_gamma 90.000000
_cell_volume 2020.674883
_symmetry_space_group_name_H-M "P M M A"
_symmetry_group_IT_number 51
_symmetry_cell_setting 'orthorhombic'
loop_
_space_group_symop_operation_xyz
x,y,z
1/2-x,-y,z
1/2+x,-y,-z
-x,y,-z
-x,-y,-z
1/2+x,y,-z
1/2-x,y,z
x,-y,z
loop_
_atom_site_type_symbol
_atom_site_label
_atom_site_fract_x
_atom_site_fract_y
_atom_site_fract_z
Si Si1 0.390031 0.331637 0.512121
Si Si2 0.250000 0.828513 0.855131
Si Si3 0.392518 0.329218 0.981037
Si Si4 0.750000 0.827579 0.359593
Si Si5 0.642955 0.843584 0.663820
Si Si6 0.643799 0.342114 0.817981
O O1 0.500000 0.318156 0.500000
O O2 0.367922 0.500000 0.520360
O O3 0.338808 0.244612 0.591387
O O4 0.357000 0.262450 0.419450
O O5 0.250000 0.801480 0.747704
O O6 0.250000 0.000000 0.868326
O O7 0.161234 0.758105 0.904904
O O8 0.380696 0.500000 0.963830
O O9 0.352389 0.296074 0.079292
O O10 0.500000 0.300986 0.000000
O O11 0.750000 0.000000 0.375157
O O12 0.750000 0.865458 0.685874
O O13 0.597893 0.768308 0.750022
O O14 0.602766 0.000000 0.642372
O O15 0.750000 0.358675 0.789486
O O16 0.599401 0.500000 0.813978
#
# Coordination Sequence:
#
# PCOD9404188 Si02
#       6
#     8   4   8   4   8   8
#     4  11  24  41  64  93 123 161 210 262 314 372
#     4  11  25  43  64  91 130 173 213 262 318 383
#     4  10  21  39  64  92 123 162 211 263 313 370
#     4  11  25  45  66  93 130 173 215 260 320 383
#     4  10  20  34  56  86 117 152 190 237 301 366
#     4   9  17  32  55  83 115 150 190 242 298 356
#
# _framework density 19.795365
#
# number of rings (size 3 to 8) (size 9 to 14) (size 15 to 20)
#    0.000    1.800    2.000    1.800    0.000    6.800 
#    0.000    6.000    0.000    0.000    0.000    0.000 
#    0.000    0.000    0.000    0.000    0.000    0.000 
#
# Total GULP energy -222787.155268 kJ/mol
# GULP energy per Si atom -5569.678882 kJ/mol
# Density = 1.975031 g / cm^3
# Si number density = 19.795365 Si / 1000 Ang^3
#
#
#
# Elastic Constant Matrix: (Units=GPa)
#
#
# Indices 1 2 3 4 5 6 
#
# 1 79.6690 51.5993 54.7431 0.0000 0.0000 0.0000
# 2 51.5993 138.4925 105.1050 0.0000 0.0000 0.0000
# 3 54.7431 105.1050 146.9123 0.0000 0.0000 0.0000
# 4 0.0000 0.0000 0.0000 38.9704 0.0000 0.0000
# 5 0.0000 0.0000 0.0000 0.0000 53.1465 0.0000
# 6 0.0000 0.0000 0.0000 0.0000 0.0000 12.4140
#
#
#
# Elastic Compliance Matrix: (Units=1/GPa)
#
#
# Indices 1 2 3 4 5 6 
#
# 1 0.017597 -0.003457 -0.004084 0.000000 0.000000 0.000000
# 2 -0.003457 0.016477 -0.010500 0.000000 0.000000 0.000000
# 3 -0.004084 -0.010500 0.015841 0.000000 0.000000 0.000000
# 4 0.000000 0.000000 0.000000 0.025661 0.000000 0.000000
# 5 0.000000 0.000000 0.000000 0.000000 0.018816 0.000000
# 6 0.000000 0.000000 0.000000 0.000000 0.000000 0.080554
#
#
# Mechanical properties :
#
#
# Convention : Reuss Voigt Hill
#
# Bulk Modulus (GPa) = 72.29077 87.55205 79.92141
# Shear Modulus (GPa) = 23.18690 31.14794 27.16742
#
# Velocity S-wave (km/s) = 3.42618 3.97104 3.70863
# Velocity P-wave (km/s) = 7.22841 8.08394 7.66812
#
# Compressibility (1/GPa) = 0.01383302
#
# Stress axis : x y z
#
# Youngs Moduli (GPa) = 56.82764 60.68890 63.12827
#
# Poissons Ratio (x) = 0.20979 0.25781
# Poissons Ratio (y) = 0.19645 0.66287
# Poissons Ratio (z) = 0.23208 0.63725
#
# Static dielectric constant tensor:
#      x y z
#    x 1.658320 0.000000 0.000000 
#    y 0.000000 1.807490 0.000000 
#    z 0.000000 0.000000 1.672740 
# 
# From -- ./inp_files/23749.got.cif
#   From: 2010.05.17/outbox.cif.g08.bks.cpg/sg51_12_cif.got.tgz:23749.got - 2010.06.03 11:52:47.
