data_PCOD9404959
_publ_section_title
;
Structure prediction by ZEFSAII (Michael W. Deem and Ramdas Pophale) SiO2 
 PCOD9404959
Probable space group: P M M A
;
_chemical_formula_sum "Si O2"
_cell_formula_units_Z 64
_cell_length_a 32.015553
_cell_length_b 8.075236
_cell_length_c 12.124007
_cell_angle_alpha 90.000000
_cell_angle_beta 90.000000
_cell_angle_gamma 90.000000
_cell_volume 3134.457674
_symmetry_space_group_name_H-M "P M M A"
_symmetry_group_IT_number 51
_symmetry_cell_setting 'orthorhombic'
loop_
_space_group_symop_operation_xyz
x,y,z
1/2-x,-y,z
1/2+x,-y,-z
-x,y,-z
-x,-y,-z
1/2+x,y,-z
1/2-x,y,z
x,-y,z
loop_
_atom_site_type_symbol
_atom_site_label
_atom_site_fract_x
_atom_site_fract_y
_atom_site_fract_z
Si Si1 0.376574 0.305818 0.865972
Si Si2 0.572660 0.197812 0.509596
Si Si3 0.047996 0.693799 0.251770
Si Si4 0.670058 0.798273 0.498736
Si Si5 0.626254 0.194143 0.886317
Si Si6 0.296009 0.198800 0.735598
Si Si7 0.702984 0.797409 0.736720
Si Si8 0.956206 0.700957 0.270685
O O1 0.376101 0.500000 0.843419
O O2 0.333373 0.237468 0.818286
O O3 0.416883 0.237091 0.800627
O O4 0.379907 0.276814 0.995763
O O5 0.554167 0.283546 0.617341
O O6 0.621316 0.247543 0.498309
O O7 0.549912 0.242278 0.396323
O O8 0.570882 0.000000 0.526698
O O9 0.050922 0.500000 0.223397
O O10 0.085557 0.783339 0.189467
O O11 0.001304 0.755364 0.225608
O O12 0.691897 0.739346 0.386882
O O13 0.691493 0.744228 0.612318
O O14 0.671653 0.000000 0.498073
O O15 0.666743 0.258566 0.819766
O O16 0.632990 0.000000 0.906489
O O17 0.250000 0.260206 0.768316
O O18 0.293903 0.000000 0.728328
O O19 0.750000 0.746347 0.765952
O O20 0.702050 0.000000 0.736610
O O21 0.043345 0.500000 0.730272
#
# Coordination Sequence:
#
# PCOD9404959 Si02
#       8
#     8   8   8   8   8   8   8   8
#     4  11  24  42  61  82 113 156 202 247 299 350
#     4  11  20  34  60  92 122 151 190 242 294 346
#     4  11  23  40  61  85 118 157 196 237 292 358
#     4   9  16  30  55  88 120 147 181 231 287 338
#     4  11  23  40  61  88 117 149 198 251 299 348
#     4  10  20  36  61  91 120 153 194 239 290 349
#     4   9  17  32  57  87 117 148 183 228 284 345
#     4  10  23  41  60  84 116 158 200 238 289 360
#
# _framework density 20.418205
#
# number of rings (size 3 to 8) (size 9 to 14) (size 15 to 20)
#    0.000    1.750    2.500    2.250    0.000    5.750 
#    0.000    3.750    0.000    1.125    0.000    0.000 
#    0.000    0.000    0.000    0.000    0.000    0.000 
#
# Total GULP energy -357586.022729 kJ/mol
# GULP energy per Si atom -5587.281605 kJ/mol
# Density = 2.037173 g / cm^3
# Si number density = 20.418205 Si / 1000 Ang^3
#
#
#
# Elastic Constant Matrix: (Units=GPa)
#
#
# Indices 1 2 3 4 5 6 
#
# 1 156.0479 4.5913 38.0149 0.0000 0.0000 0.0000
# 2 4.5913 12.7491 -12.7180 0.0000 0.0000 0.0000
# 3 38.0149 -12.7180 86.3293 0.0000 0.0000 0.0000
# 4 0.0000 0.0000 0.0000 22.9295 0.0000 0.0000
# 5 0.0000 0.0000 0.0000 0.0000 -2.4059 0.0000
# 6 0.0000 0.0000 0.0000 0.0000 0.0000 -81.2579
#
#
#
# Elastic Compliance Matrix: (Units=1/GPa)
#
#
# Indices 1 2 3 4 5 6 
#
# 1 0.007707 -0.007222 -0.004458 0.000000 0.000000 0.000000
# 2 -0.007222 0.098718 0.017723 0.000000 0.000000 0.000000
# 3 -0.004458 0.017723 0.016157 0.000000 0.000000 0.000000
# 4 0.000000 0.000000 0.000000 0.043612 0.000000 0.000000
# 5 0.000000 0.000000 0.000000 0.000000 -0.415653 0.000000
# 6 0.000000 0.000000 0.000000 0.000000 0.000000 -0.012306
#
#
# Mechanical properties :
#
#
# Convention : Reuss Voigt Hill
#
# Bulk Modulus (GPa) = 7.42559 34.98920 21.20739
# Shear Modulus (GPa) = -21.83756 2.86903 -9.48426
#
# Velocity S-wave (km/s) = -3.27389 1.18667 -2.15757
# Velocity P-wave (km/s) = 3.26290 4.36475 2.04995
#
# Compressibility (1/GPa) = 0.13466942
#
# Stress axis : x y z
#
# Youngs Moduli (GPa) = 129.75728 10.12986 61.89099
#
# Poissons Ratio (x) = 0.07316 0.27588
# Poissons Ratio (y) = 0.93712 -1.09692
# Poissons Ratio (z) = 0.57840 -0.17954
#
# Static dielectric constant tensor:
#      x y z
#    x 1.740740 0.000000 0.000000 
#    y 0.000000 1.733810 0.000000 
#    z 0.000000 0.000000 1.678190 
# 
# From -- ./inp_files/19610.got.cif
#   From: 2010.05.17/outbox.cif.g08.bks.cpg/sg51_10_cif.got.tgz:19610.got - 2010.06.03 11:52:47.
