data_PCOD9404328
_publ_section_title
;
Structure prediction by ZEFSAII (Michael W. Deem and Ramdas Pophale) SiO2 
 PCOD9404328
Probable space group: P M M A
;
_chemical_formula_sum "Si O2"
_cell_formula_units_Z 64
_cell_length_a 20.129800
_cell_length_b 8.666194
_cell_length_c 21.225267
_cell_angle_alpha 90.000000
_cell_angle_beta 90.000000
_cell_angle_gamma 90.000000
_cell_volume 3702.721339
_symmetry_space_group_name_H-M "P M M A"
_symmetry_group_IT_number 51
_symmetry_cell_setting 'orthorhombic'
loop_
_space_group_symop_operation_xyz
x,y,z
1/2-x,-y,z
1/2+x,-y,-z
-x,y,-z
-x,-y,-z
1/2+x,y,-z
1/2-x,y,z
x,-y,z
loop_
_atom_site_type_symbol
_atom_site_label
_atom_site_fract_x
_atom_site_fract_y
_atom_site_fract_z
Si Si1 0.959774 0.315719 0.562888
Si Si2 0.460365 0.684474 0.815584
Si Si3 0.824574 0.185671 0.986620
Si Si4 0.825041 0.185965 0.134772
Si Si5 0.036346 0.814987 0.682619
Si Si6 0.674880 0.185682 0.515322
Si Si7 0.458695 0.686085 0.061421
Si Si8 0.823073 0.187345 0.367113
O O1 0.964771 0.500000 0.567508
O O2 0.883860 0.265236 0.553081
O O3 0.000000 0.265488 0.500000
O O4 0.992310 0.241081 0.624321
O O5 0.461692 0.500000 0.814019
O O6 0.385085 0.740480 0.827321
O O7 0.485737 0.750598 0.749711
O O8 0.504442 0.737905 0.875137
O O9 0.750000 0.234096 0.967943
O O10 0.883841 0.256266 0.946630
O O11 0.827532 0.000000 0.983171
O O12 0.833195 0.226661 0.060673
O O13 0.750000 0.231053 0.153905
O O14 0.829067 0.000000 0.140077
O O15 0.112208 0.759516 0.669890
O O16 0.036457 0.000000 0.684064
O O17 0.750000 0.226345 0.535097
O O18 0.668785 0.226352 0.441060
O O19 0.668085 0.000000 0.519691
O O20 0.458824 0.500000 0.060951
O O21 0.500000 0.739426 0.000000
O O22 0.750000 0.241418 0.345902
O O23 0.822221 0.000000 0.363695
#
# Coordination Sequence:
#
# PCOD9404328 Si02
#       8
#     8   8   8   8   8   8   8   8
#     4  11  22  35  54  81 113 145 178 221 271 319
#     4  11  23  37  52  75 111 144 179 226 274 324
#     4   9  18  32  53  82 110 135 172 225 273 313
#     4   9  18  33  52  76 107 143 182 218 259 317
#     4  11  22  36  56  78 106 145 188 226 267 320
#     4   9  17  32  56  83 108 136 176 223 267 313
#     4  10  20  35  54  78 106 142 182 219 265 323
#     4   8  15  29  50  76 104 136 175 217 258 304
#
# _framework density 17.284585
#
# number of rings (size 3 to 8) (size 9 to 14) (size 15 to 20)
#    0.000    2.250    2.500    2.625    0.000    3.000 
#    0.000    2.500    0.000    1.875    0.000    3.500 
#    0.000    0.000    0.000    0.000    0.000    0.000 
#
# Total GULP energy -357103.184745 kJ/mol
# GULP energy per Si atom -5579.737262 kJ/mol
# Density = 1.724524 g / cm^3
# Si number density = 17.284585 Si / 1000 Ang^3
#
#
#
# Elastic Constant Matrix: (Units=GPa)
#
#
# Indices 1 2 3 4 5 6 
#
# 1 109.7999 24.0087 64.4318 0.0000 0.0000 0.0000
# 2 24.0087 24.1506 32.4234 0.0000 0.0000 0.0000
# 3 64.4318 32.4234 118.0031 0.0000 0.0000 0.0000
# 4 0.0000 0.0000 0.0000 22.7194 0.0000 0.0000
# 5 0.0000 0.0000 0.0000 0.0000 21.3465 0.0000
# 6 0.0000 0.0000 0.0000 0.0000 0.0000 30.7295
#
#
#
# Elastic Compliance Matrix: (Units=1/GPa)
#
#
# Indices 1 2 3 4 5 6 
#
# 1 0.013887 -0.005745 -0.006004 0.000000 0.000000 0.000000
# 2 -0.005745 0.067986 -0.015544 0.000000 0.000000 0.000000
# 3 -0.006004 -0.015544 0.016024 0.000000 0.000000 0.000000
# 4 0.000000 0.000000 0.000000 0.044015 0.000000 0.000000
# 5 0.000000 0.000000 0.000000 0.000000 0.046846 0.000000
# 6 0.000000 0.000000 0.000000 0.000000 0.000000 0.032542
#
#
# Mechanical properties :
#
#
# Convention : Reuss Voigt Hill
#
# Bulk Modulus (GPa) = 23.08842 54.85351 38.97097
# Shear Modulus (GPa) = 17.22229 23.69839 20.46034
#
# Velocity S-wave (km/s) = 3.16000 3.70681 3.44428
# Velocity P-wave (km/s) = 5.16729 7.07990 6.19782
#
# Compressibility (1/GPa) = 0.04331175
#
# Stress axis : x y z
#
# Youngs Moduli (GPa) = 72.01091 14.70893 62.40807
#
# Poissons Ratio (x) = 0.08450 0.37470
# Poissons Ratio (y) = 0.41367 0.97005
# Poissons Ratio (z) = 0.43236 0.22863
#
# Static dielectric constant tensor:
#      x y z
#    x 1.589430 0.000000 0.000000 
#    y 0.000000 1.581650 0.000000 
#    z 0.000000 0.000000 1.577730 
# 
# From -- ./inp_files/34116.got.cif
#   From: 2010.05.17/outbox.cif.g08.bks.cpg/sg51_18_cif.got.tgz:34116.got - 2010.06.03 11:52:47.
