data_PCOD9404406
_publ_section_title
;
Structure prediction by ZEFSAII (Michael W. Deem and Ramdas Pophale) SiO2 
 PCOD9404406
Probable space group: P M M A
;
_chemical_formula_sum "Si O2"
_cell_formula_units_Z 48
_cell_length_a 20.965557
_cell_length_b 7.433226
_cell_length_c 13.774693
_cell_angle_alpha 90.000000
_cell_angle_beta 90.000000
_cell_angle_gamma 90.000000
_cell_volume 2146.671896
_symmetry_space_group_name_H-M "P M M A"
_symmetry_group_IT_number 51
_symmetry_cell_setting 'orthorhombic'
loop_
_space_group_symop_operation_xyz
x,y,z
1/2-x,-y,z
1/2+x,-y,-z
-x,y,-z
-x,-y,-z
1/2+x,y,-z
1/2-x,y,z
x,-y,z
loop_
_atom_site_type_symbol
_atom_site_label
_atom_site_fract_x
_atom_site_fract_y
_atom_site_fract_z
Si Si1 0.678436 0.282131 0.899823
Si Si2 0.250000 0.281091 0.461472
Si Si3 0.250000 0.280049 0.686766
Si Si4 0.564818 0.791684 0.046909
Si Si5 0.360572 0.719387 0.316334
Si Si6 0.887095 0.707424 0.257175
Si Si7 0.001566 0.279750 0.387796
O O1 0.750000 0.224374 0.927598
O O2 0.677874 0.500000 0.901079
O O3 0.663430 0.224368 0.789660
O O4 0.622853 0.221778 0.971473
O O5 0.250000 0.500000 0.461766
O O6 0.250000 0.227620 0.573439
O O7 0.187911 0.223709 0.400851
O O8 0.250000 0.500000 0.693170
O O9 0.315890 0.216180 0.734909
O O10 0.586191 0.709364 0.148539
O O11 0.551791 0.000000 0.068823
O O12 0.500000 0.714966 0.000000
O O13 0.359774 0.500000 0.316177
O O14 0.432426 0.777187 0.338153
O O15 0.880958 0.500000 0.288614
O O16 0.940099 0.786053 0.329023
O O17 0.001616 0.500000 0.385417
O O18 0.000000 0.226694 0.500000
#
# Coordination Sequence:
#
# PCOD9404406 Si02
#       7
#     8   4   4   8   8   8   8
#     4  10  20  35  57  86 114 143 183 230 279 333
#     4   9  14  24  43  73 114 148 171 209 268 323
#     4   9  18  30  48  77 112 144 175 215 264 321
#     4  11  25  42  58  78 107 145 189 234 283 337
#     4   9  15  25  44  73 109 143 174 213 266 321
#     4  10  20  35  55  81 111 144 183 227 274 325
#     4   9  16  26  45  76 111 144 179 219 265 318
#
# _framework density 22.360194
#
# number of rings (size 3 to 8) (size 9 to 14) (size 15 to 20)
#    0.000    2.333    0.833    2.500    1.167    7.000 
#    0.000    0.000    0.000    0.500    0.000    4.667 
#    0.000    0.000    0.000    0.000    0.000    0.000 
#
# Total GULP energy -268286.056616 kJ/mol
# GULP energy per Si atom -5589.292846 kJ/mol
# Density = 2.230930 g / cm^3
# Si number density = 22.360194 Si / 1000 Ang^3
#
#
#
# Elastic Constant Matrix: (Units=GPa)
#
#
# Indices 1 2 3 4 5 6 
#
# 1 236.5763 1.5825 92.9075 0.0000 0.0000 0.0000
# 2 1.5825 67.0746 -11.6312 0.0000 0.0000 0.0000
# 3 92.9075 -11.6312 120.8697 0.0000 0.0000 0.0000
# 4 0.0000 0.0000 0.0000 787.4228 0.0000 0.0000
# 5 0.0000 0.0000 0.0000 0.0000 45.2741 0.0000
# 6 0.0000 0.0000 0.0000 0.0000 0.0000 -0.0857
#
#
#
# Elastic Compliance Matrix: (Units=1/GPa)
#
#
# Indices 1 2 3 4 5 6 
#
# 1 0.006117 -0.000976 -0.004796 0.000000 0.000000 0.000000
# 2 -0.000976 0.015317 0.002224 0.000000 0.000000 0.000000
# 3 -0.004796 0.002224 0.012174 0.000000 0.000000 0.000000
# 4 0.000000 0.000000 0.000000 0.001270 0.000000 0.000000
# 5 0.000000 0.000000 0.000000 0.000000 0.022088 0.000000
# 6 0.000000 0.000000 0.000000 0.000000 0.000000-11.673551
#
#
# Mechanical properties :
#
#
# Convention : Reuss Voigt Hill
#
# Bulk Modulus (GPa) = 37.71726 65.58201 51.64964
# Shear Modulus (GPa) = -0.43101 189.29970 94.43434
#
# Velocity S-wave (km/s) = -0.43952 9.21103 6.50576
# Velocity P-wave (km/s) = 4.08008 11.93807 8.92089
#
# Compressibility (1/GPa) = 0.02651306
#
# Stress axis : x y z
#
# Youngs Moduli (GPa) = 163.48333 65.28489 82.14476
#
# Poissons Ratio (x) = 0.06371 0.39394
# Poissons Ratio (y) = 0.15955 -0.18270
# Poissons Ratio (z) = 0.78401 -0.14520
#
# Static dielectric constant tensor:
#      x y z
#    x 1.602160 0.000000 0.000000 
#    y 0.000000 1.878930 0.000000 
#    z 0.000000 0.000000 1.749960 
# 
# From -- ./inp_files/24904.got.cif
#   From: 2010.05.17/outbox.cif.g08.bks.cpg/sg51_13_cif.got.tgz:24904.got - 2010.06.03 11:52:47.
