data_PCOD9404978
_publ_section_title
;
Structure prediction by ZEFSAII (Michael W. Deem and Ramdas Pophale) SiO2 
 PCOD9404978
Probable space group: P M M A
;
_chemical_formula_sum "Si O2"
_cell_formula_units_Z 56
_cell_length_a 14.939283
_cell_length_b 15.871875
_cell_length_c 11.572423
_cell_angle_alpha 90.000000
_cell_angle_beta 90.000000
_cell_angle_gamma 90.000000
_cell_volume 2743.988511
_symmetry_space_group_name_H-M "P M M A"
_symmetry_group_IT_number 51
_symmetry_cell_setting 'orthorhombic'
loop_
_space_group_symop_operation_xyz
x,y,z
1/2-x,-y,z
1/2+x,-y,-z
-x,y,-z
-x,-y,-z
1/2+x,y,-z
1/2-x,y,z
x,-y,z
loop_
_atom_site_type_symbol
_atom_site_label
_atom_site_fract_x
_atom_site_fract_y
_atom_site_fract_z
Si Si1 0.140613 0.095581 0.435543
Si Si2 0.857810 0.095032 0.830717
Si Si3 0.149176 0.647806 0.299212
Si Si4 0.042024 0.408950 0.663663
Si Si5 0.903268 0.733765 0.941576
Si Si6 0.648077 0.739069 0.460738
Si Si7 0.652765 0.592456 0.108926
O O1 0.250000 0.099498 0.435273
O O2 0.111669 0.111397 0.302222
O O3 0.112135 0.165815 0.528334
O O4 0.115189 0.000000 0.465556
O O5 0.750000 0.095311 0.825882
O O6 0.883626 0.167954 0.919981
O O7 0.886680 0.000000 0.862222
O O8 0.250000 0.612323 0.282588
O O9 0.116413 0.694060 0.183757
O O10 0.155863 0.711973 0.405688
O O11 0.065043 0.591359 0.335090
O O12 0.074241 0.500000 0.617460
O O13 0.084148 0.328580 0.599849
O O14 0.077053 0.402576 0.794778
O O15 0.848751 0.672067 0.025891
O O16 0.000000 0.727490 0.000000
O O17 0.750000 0.736430 0.411750
O O18 0.750000 0.591257 0.168307
O O19 0.642814 0.500000 0.049068
#
# Coordination Sequence:
#
# PCOD9404978 Si02
#       7
#     8   8   8   8   8   8   8
#     4   8  14  28  55  90 124 159 200 246 300 363
#     4   9  17  32  58  91 125 161 203 252 306 367
#     4  11  23  40  61  89 121 158 208 262 311 363
#     4  11  24  42  61  87 124 164 209 257 308 369
#     4  12  22  37  62  90 126 162 203 260 313 362
#     4  10  20  36  63  92 123 161 204 254 307 365
#     4  10  22  40  61  84 117 165 211 248 300 372
#
# _framework density 20.408249000000001
#
# number of rings (size 3 to 8) (size 9 to 14) (size 15 to 20)
#    0.000    1.857    2.857    3.000    0.000    3.429 
#    0.000    1.429    0.000    3.429    0.000    2.000 
#    0.000    0.000    0.000    0.000    0.000    0.000 
#
# Total GULP energy -312013.822452 kJ/mol
# GULP energy per Si atom -5571.675401 kJ/mol
# Density = 2.036180 g / cm^3
# Si number density = 20.408249 Si / 1000 Ang^3
#
#
#
# Elastic Constant Matrix: (Units=GPa)
#
#
# Indices 1 2 3 4 5 6 
#
# 1 95.4472 58.9868 15.6775 0.0000 0.0000 0.0000
# 2 58.9868 173.5058 56.2326 0.0000 0.0000 0.0000
# 3 15.6775 56.2326 56.7431 0.0000 0.0000 0.0000
# 4 0.0000 0.0000 0.0000 34.0700 0.0000 0.0000
# 5 0.0000 0.0000 0.0000 0.0000 24.3808 0.0000
# 6 0.0000 0.0000 0.0000 0.0000 0.0000 12.1387
#
#
#
# Elastic Compliance Matrix: (Units=1/GPa)
#
#
# Indices 1 2 3 4 5 6 
#
# 1 0.013318 -0.004913 0.001189 0.000000 0.000000 0.000000
# 2 -0.004913 0.010303 -0.008853 0.000000 0.000000 0.000000
# 3 0.001189 -0.008853 0.026068 0.000000 0.000000 0.000000
# 4 0.000000 0.000000 0.000000 0.029351 0.000000 0.000000
# 5 0.000000 0.000000 0.000000 0.000000 0.041016 0.000000
# 6 0.000000 0.000000 0.000000 0.000000 0.000000 0.082381
#
#
# Mechanical properties :
#
#
# Convention : Reuss Voigt Hill
#
# Bulk Modulus (GPa) = 40.75722 65.27668 53.01695
# Shear Modulus (GPa) = 21.20718 27.10451 24.15585
#
# Velocity S-wave (km/s) = 3.22708 3.64829 3.44413
# Velocity P-wave (km/s) = 5.82234 7.05702 6.46920
#
# Compressibility (1/GPa) = 0.02453553
#
# Stress axis : x y z
#
# Youngs Moduli (GPa) = 75.08625 97.05895 38.36139
#
# Poissons Ratio (x) = 0.47687 -0.04563
# Poissons Ratio (y) = 0.36891 0.33961
# Poissons Ratio (z) = -0.08931 0.85925
#
# Static dielectric constant tensor:
#      x y z
#    x 1.771430 0.000000 0.000000 
#    y 0.000000 1.797920 0.000000 
#    z 0.000000 0.000000 1.707120 
# 
# From -- ./inp_files/16619.got.cif
#   From: 2010.05.17/outbox.cif.g08.bks.cpg/sg51_9_cif.got.tgz:16619.got - 2010.06.03 11:52:47.
