data_PCOD9404117
_publ_section_title
;
Structure prediction by ZEFSAII (Michael W. Deem and Ramdas Pophale) SiO2 
 PCOD9404117
Probable space group: P M M A
;
_chemical_formula_sum "Si O2"
_cell_formula_units_Z 40
_cell_length_a 9.056544
_cell_length_b 7.626886
_cell_length_c 30.331114
_cell_angle_alpha 90.000000
_cell_angle_beta 90.000000
_cell_angle_gamma 90.000000
_cell_volume 2095.067972
_symmetry_space_group_name_H-M "P M M A"
_symmetry_group_IT_number 51
_symmetry_cell_setting 'orthorhombic'
loop_
_space_group_symop_operation_xyz
x,y,z
1/2-x,-y,z
1/2+x,-y,-z
-x,y,-z
-x,-y,-z
1/2+x,y,-z
1/2-x,y,z
x,-y,z
loop_
_atom_site_type_symbol
_atom_site_label
_atom_site_fract_x
_atom_site_fract_y
_atom_site_fract_z
Si Si1 0.070399 0.500000 0.701562
Si Si2 0.071569 0.500000 0.803484
Si Si3 0.919683 0.287528 0.544579
Si Si4 0.573824 0.208666 0.863589
Si Si5 0.925132 0.801580 0.364138
Si Si6 0.580260 0.786464 0.044500
O O1 0.250000 0.500000 0.702306
O O2 0.024847 0.500000 0.752239
O O3 0.022166 0.667283 0.673029
O O4 0.250000 0.500000 0.806265
O O5 0.006490 0.670440 0.827904
O O6 0.750000 0.232062 0.543884
O O7 0.924493 0.500000 0.544951
O O8 0.000000 0.228031 0.500000
O O9 0.997162 0.225953 0.589119
O O10 0.750000 0.235970 0.862640
O O11 0.509224 0.259142 0.911525
O O12 0.545920 0.000000 0.856970
O O13 0.750000 0.771468 0.370952
O O14 0.946477 0.000000 0.349163
O O15 0.750000 0.727275 0.046780
O O16 0.582525 0.000000 0.042850
O O17 0.500000 0.725881 0.000000
#
# Coordination Sequence:
#
# PCOD9404117 Si02
#       6
#     4   4   8   8   8   8
#     4   9  20  39  60  83 112 143 182 234 287 341
#     4  11  23  39  62  89 114 147 191 244 300 351
#     4  10  20  34  55  83 115 153 190 227 273 325
#     4  10  21  38  59  84 117 156 196 239 288 345
#     4  10  20  36  60  86 112 146 186 229 279 333
#     4   9  16  28  50  81 116 154 194 235 282 339
#
# _framework density 19.092459999999999
#
# number of rings (size 3 to 8) (size 9 to 14) (size 15 to 20)
#    0.000    2.200    1.000    2.100    0.000    6.000 
#    0.000    4.500    0.000    0.000    0.000    0.000 
#    0.000    0.000    0.000    0.000    0.000    0.000 
#
# Total GULP energy -223419.315939 kJ/mol
# GULP energy per Si atom -5585.482898 kJ/mol
# Density = 1.904900 g / cm^3
# Si number density = 19.092460 Si / 1000 Ang^3
#
#
#
# Elastic Constant Matrix: (Units=GPa)
#
#
# Indices 1 2 3 4 5 6 
#
# 1 102.5641 64.6313 81.0720 0.0000 0.0000 0.0000
# 2 64.6313 80.5083 80.3098 0.0000 0.0000 0.0000
# 3 81.0720 80.3098 205.3903 0.0000 0.0000 0.0000
# 4 0.0000 0.0000 0.0000 -24.1397 0.0000 0.0000
# 5 0.0000 0.0000 0.0000 0.0000 30.3565 0.0000
# 6 0.0000 0.0000 0.0000 0.0000 0.0000 16.8526
#
#
#
# Elastic Compliance Matrix: (Units=1/GPa)
#
#
# Indices 1 2 3 4 5 6 
#
# 1 0.020627 -0.013833 -0.002733 0.000000 0.000000 0.000000
# 2 -0.013833 0.029641 -0.006130 0.000000 0.000000 0.000000
# 3 -0.002733 -0.006130 0.008344 0.000000 0.000000 0.000000
# 4 0.000000 0.000000 0.000000 -0.041426 0.000000 0.000000
# 5 0.000000 0.000000 0.000000 0.000000 0.032942 0.000000
# 6 0.000000 0.000000 0.000000 0.000000 0.000000 0.059338
#
#
# Mechanical properties :
#
#
# Convention : Reuss Voigt Hill
#
# Bulk Modulus (GPa) = 75.63897 93.38766 84.51331
# Shear Modulus (GPa) = 31.39413 15.44385 23.41899
#
# Velocity S-wave (km/s) = 4.05942 2.84720 3.50610
# Velocity P-wave (km/s) = 7.85335 7.73487 7.79434
#
# Compressibility (1/GPa) = 0.01322070
#
# Stress axis : x y z
#
# Youngs Moduli (GPa) = 48.47907 33.73756 119.84116
#
# Poissons Ratio (x) = 0.46669 0.32755
# Poissons Ratio (y) = 0.67061 0.73458
# Poissons Ratio (z) = 0.13251 0.20680
#
# Static dielectric constant tensor:
#      x y z
#    x 1.643720 0.000000 0.000000 
#    y 0.000000 1.695070 0.000000 
#    z 0.000000 0.000000 1.616280 
# 
# From -- ./inp_files/36064.got.cif
#   From: 2010.05.17/outbox.cif.g08.bks.cpg/sg51_19_cif.got.tgz:36064.got - 2010.06.03 11:52:47.
