data_PCOD9404157
_publ_section_title
;
Structure prediction by ZEFSAII (Michael W. Deem and Ramdas Pophale) SiO2 
 PCOD9404157
Probable space group: P M M A
;
_chemical_formula_sum "Si O2"
_cell_formula_units_Z 40
_cell_length_a 24.443442
_cell_length_b 7.601119
_cell_length_c 10.042988
_cell_angle_alpha 90.000000
_cell_angle_beta 90.000000
_cell_angle_gamma 90.000000
_cell_volume 1865.962178
_symmetry_space_group_name_H-M "P M M A"
_symmetry_group_IT_number 51
_symmetry_cell_setting 'orthorhombic'
loop_
_space_group_symop_operation_xyz
x,y,z
1/2-x,-y,z
1/2+x,-y,-z
-x,y,-z
-x,-y,-z
1/2+x,y,-z
1/2-x,y,z
x,-y,z
loop_
_atom_site_type_symbol
_atom_site_label
_atom_site_fract_x
_atom_site_fract_y
_atom_site_fract_z
Si Si1 0.349751 0.211258 0.210111
Si Si2 0.660812 0.798409 0.490715
Si Si3 0.750000 0.784174 0.284058
Si Si4 0.250000 0.215493 0.023200
Si Si5 0.975570 0.287827 0.860662
Si Si6 0.454893 0.705301 0.614467
O O1 0.338689 0.280689 0.360373
O O2 0.412072 0.247309 0.166352
O O3 0.344977 0.000000 0.216305
O O4 0.304069 0.272330 0.104859
O O5 0.698670 0.724640 0.373600
O O6 0.599339 0.796019 0.437068
O O7 0.679396 0.000000 0.507398
O O8 0.750000 0.725333 0.130634
O O9 0.750000 0.000000 0.275782
O O10 0.250000 0.000000 0.022200
O O11 0.979091 0.500000 0.858071
O O12 0.015417 0.221469 0.744455
O O13 0.000000 0.225040 0.000000
O O14 0.500000 0.711931 0.500000
O O15 0.440520 0.500000 0.636878
#
# Coordination Sequence:
#
# PCOD9404157 Si02
#       6
#     8   8   4   4   8   8
#     4  10  20  35  56  81 108 140 178 219 262 314
#     4  10  20  34  56  82 108 138 177 221 263 311
#     4   9  19  35  54  79 108 140 175 218 270 314
#     4   9  19  35  54  77 108 142 175 216 268 316
#     4  10  22  38  55  77 109 145 177 215 268 320
#     4  10  20  36  56  78 107 142 176 214 263 317
#
# _framework density 21.436661000000001
#
# number of rings (size 3 to 8) (size 9 to 14) (size 15 to 20)
#    0.000    2.200    2.000    0.600    2.800    4.000 
#    0.000    1.000    0.000    3.600    0.000    0.000 
#    0.000    0.000    0.000    0.000    0.000    0.000 
#
# Total GULP energy -223293.185225 kJ/mol
# GULP energy per Si atom -5582.329631 kJ/mol
# Density = 2.138787 g / cm^3
# Si number density = 21.436661 Si / 1000 Ang^3
#
#
#
# Elastic Constant Matrix: (Units=GPa)
#
#
# Indices 1 2 3 4 5 6 
#
# 1 134.7647 3.3919 94.2275 0.0000 0.0000 0.0000
# 2 3.3919 45.3053 15.5189 0.0000 0.0000 0.0000
# 3 94.2275 15.5189 231.2832 0.0000 0.0000 0.0000
# 4 0.0000 0.0000 0.0000 -24.3544 0.0000 0.0000
# 5 0.0000 0.0000 0.0000 0.0000 38.1727 0.0000
# 6 0.0000 0.0000 0.0000 0.0000 0.0000 42.0021
#
#
#
# Elastic Compliance Matrix: (Units=1/GPa)
#
#
# Indices 1 2 3 4 5 6 
#
# 1 0.010397 0.000688 -0.004282 0.000000 0.000000 0.000000
# 2 0.000688 0.022637 -0.001799 0.000000 0.000000 0.000000
# 3 -0.004282 -0.001799 0.006189 0.000000 0.000000 0.000000
# 4 0.000000 0.000000 0.000000 -0.041060 0.000000 0.000000
# 5 0.000000 0.000000 0.000000 0.000000 0.026197 0.000000
# 6 0.000000 0.000000 0.000000 0.000000 0.000000 0.023808
#
#
# Mechanical properties :
#
#
# Convention : Reuss Voigt Hill
#
# Bulk Modulus (GPa) = 35.16522 70.84774 53.00648
# Shear Modulus (GPa) = 73.06393 31.04509 52.05451
#
# Velocity S-wave (km/s) = 5.84445 3.80968 4.93312
# Velocity P-wave (km/s) = 7.87295 7.24383 7.56494
#
# Compressibility (1/GPa) = 0.02843719
#
# Stress axis : x y z
#
# Youngs Moduli (GPa) = 96.18134 44.17485 161.57694
#
# Poissons Ratio (x) = -0.03041 0.69188
# Poissons Ratio (y) = -0.06621 0.29074
# Poissons Ratio (z) = 0.41185 0.07949
#
# Static dielectric constant tensor:
#      x y z
#    x 1.714370 0.000000 0.000000 
#    y 0.000000 1.831190 0.000000 
#    z 0.000000 0.000000 1.896300 
# 
# From -- ./inp_files/10700.got.cif
#   From: 2010.05.17/outbox.cif.g08.bks.cpg/sg51_6_cif.got.tgz:10700.got - 2010.06.03 11:52:47.
