data_PCOD9404808
_publ_section_title
;
Structure prediction by ZEFSAII (Michael W. Deem and Ramdas Pophale) SiO2 
 PCOD9404808
Probable space group: P M M A
;
_chemical_formula_sum "Si O2"
_cell_formula_units_Z 56
_cell_length_a 8.706949
_cell_length_b 24.391117
_cell_length_c 14.706620
_cell_angle_alpha 90.000000
_cell_angle_beta 90.000000
_cell_angle_gamma 90.000000
_cell_volume 3123.277417
_symmetry_space_group_name_H-M "P M M A"
_symmetry_group_IT_number 51
_symmetry_cell_setting 'orthorhombic'
loop_
_space_group_symop_operation_xyz
x,y,z
1/2-x,-y,z
1/2+x,-y,-z
-x,y,-z
-x,-y,-z
1/2+x,y,-z
1/2-x,y,z
x,-y,z
loop_
_atom_site_type_symbol
_atom_site_label
_atom_site_fract_x
_atom_site_fract_y
_atom_site_fract_z
Si Si1 0.565749 0.650724 0.601520
Si Si2 0.064961 0.938478 0.399835
Si Si3 0.933846 0.645497 0.101401
Si Si4 0.064686 0.436747 0.246277
Si Si5 0.065930 0.061521 0.898654
Si Si6 0.065902 0.733495 0.746258
Si Si7 0.565607 0.144900 0.755138
O O1 0.500000 0.648199 0.500000
O O2 0.750000 0.653275 0.597202
O O3 0.521546 0.598214 0.663980
O O4 0.503582 0.702496 0.658775
O O5 0.250000 0.937914 0.403073
O O6 0.015182 0.890940 0.331974
O O7 0.000000 0.929753 0.500000
O O8 0.017361 0.000000 0.370039
O O9 0.750000 0.643172 0.096467
O O10 0.977366 0.697778 0.164387
O O11 0.994996 0.593590 0.158701
O O12 0.000000 0.648192 0.000000
O O13 0.250000 0.434634 0.239086
O O14 0.017358 0.500000 0.252497
O O15 0.250000 0.067002 0.899657
O O16 0.990845 0.108980 0.839686
O O17 0.028204 0.000000 0.863419
O O18 0.000000 0.064496 0.000000
O O19 0.250000 0.733125 0.739229
O O20 0.004835 0.794865 0.753907
O O21 0.750000 0.148751 0.755558
#
# Coordination Sequence:
#
# PCOD9404808 Si02
#       7
#     8   8   8   8   8   8   8
#     4  10  20  36  58  82 110 146 185 224 272 324
#     4   9  19  35  54  77 105 137 173 214 262 317
#     4  10  21  37  58  81 107 143 182 223 271 320
#     4   9  19  36  57  83 115 147 181 222 265 315
#     4  10  21  37  57  81 109 142 180 223 273 329
#     4  10  22  39  56  78 108 141 184 232 273 320
#     4  11  22  36  56  81 110 143 179 223 276 330
#
# _framework density 17.929884000000001
#
# number of rings (size 3 to 8) (size 9 to 14) (size 15 to 20)
#    0.000    2.143    0.000    2.571    0.000    6.857 
#    0.000    4.286    0.000    0.000    0.000    0.000 
#    0.000    0.000    0.000    0.000    0.000    0.000 
#
# Total GULP energy -312627.185956 kJ/mol
# GULP energy per Si atom -5582.628321 kJ/mol
# Density = 1.788908 g / cm^3
# Si number density = 17.929884 Si / 1000 Ang^3
#
#
#
# Elastic Constant Matrix: (Units=GPa)
#
#
# Indices 1 2 3 4 5 6 
#
# 1 43.3179 47.9699 43.7419 0.0000 0.0000 0.0000
# 2 47.9699 183.0216 95.5624 0.0000 0.0000 0.0000
# 3 43.7419 95.5624 159.1759 0.0000 0.0000 0.0000
# 4 0.0000 0.0000 0.0000 15.7860 0.0000 0.0000
# 5 0.0000 0.0000 0.0000 0.0000 29.0882 0.0000
# 6 0.0000 0.0000 0.0000 0.0000 0.0000 33.0979
#
#
#
# Elastic Compliance Matrix: (Units=1/GPa)
#
#
# Indices 1 2 3 4 5 6 
#
# 1 0.036302 -0.006272 -0.006210 0.000000 0.000000 0.000000
# 2 -0.006272 0.009042 -0.003705 0.000000 0.000000 0.000000
# 3 -0.006210 -0.003705 0.010213 0.000000 0.000000 0.000000
# 4 0.000000 0.000000 0.000000 0.063347 0.000000 0.000000
# 5 0.000000 0.000000 0.000000 0.000000 0.034378 0.000000
# 6 0.000000 0.000000 0.000000 0.000000 0.000000 0.030213
#
#
# Mechanical properties :
#
#
# Convention : Reuss Voigt Hill
#
# Bulk Modulus (GPa) = 43.13572 84.45153 63.79362
# Shear Modulus (GPa) = 22.36146 28.81050 25.58598
#
# Velocity S-wave (km/s) = 3.53535 4.01289 3.78167
# Velocity P-wave (km/s) = 6.38554 8.28700 7.39762
#
# Compressibility (1/GPa) = 0.02318264
#
# Stress axis : x y z
#
# Youngs Moduli (GPa) = 27.54671 110.59167 97.91141
#
# Poissons Ratio (x) = 0.69364 0.60807
# Poissons Ratio (y) = 0.17278 0.36276
# Poissons Ratio (z) = 0.17108 0.40974
#
# Static dielectric constant tensor:
#      x y z
#    x 1.601030 0.000000 0.000000 
#    y 0.000000 1.599210 0.000000 
#    z 0.000000 0.000000 1.755150 
# 
# From -- ./inp_files/21859.got.cif
#   From: 2010.05.17/outbox.cif.g08.bks.cpg/sg51_11_cif.got.tgz:21859.got - 2010.06.03 11:52:47.
