data_PCOD9404080
_publ_section_title
;
Structure prediction by ZEFSAII (Michael W. Deem and Ramdas Pophale) SiO2 
 PCOD9404080
Probable space group: P M M A
;
_chemical_formula_sum "Si O2"
_cell_formula_units_Z 56
_cell_length_a 23.209824
_cell_length_b 13.486301
_cell_length_c 9.303271
_cell_angle_alpha 90.000000
_cell_angle_beta 90.000000
_cell_angle_gamma 90.000000
_cell_volume 2912.060326
_symmetry_space_group_name_H-M "P M M A"
_symmetry_group_IT_number 51
_symmetry_cell_setting 'orthorhombic'
loop_
_space_group_symop_operation_xyz
x,y,z
1/2-x,-y,z
1/2+x,-y,-z
-x,y,-z
-x,-y,-z
1/2+x,y,-z
1/2-x,y,z
x,-y,z
loop_
_atom_site_type_symbol
_atom_site_label
_atom_site_fract_x
_atom_site_fract_y
_atom_site_fract_z
Si Si1 0.593293 0.387649 0.394215
Si Si2 0.183662 0.218840 0.107073
Si Si3 0.479232 0.805766 0.654020
Si Si4 0.814908 0.290302 0.214958
Si Si5 0.593688 0.885833 0.714799
Si Si6 0.361973 0.113120 0.610684
Si Si7 0.315684 0.615965 0.350347
O O1 0.571909 0.500000 0.399281
O O2 0.544272 0.305182 0.372187
O O3 0.638485 0.369892 0.265512
O O4 0.633330 0.368214 0.534490
O O5 0.250000 0.185592 0.116280
O O6 0.140645 0.136507 0.165098
O O7 0.176923 0.311922 0.215493
O O8 0.172559 0.251968 0.944785
O O9 0.500000 0.846735 0.500000
O O10 0.537484 0.817984 0.742302
O O11 0.422896 0.868635 0.693121
O O12 0.750000 0.329334 0.219035
O O13 0.821113 0.196640 0.323401
O O14 0.623561 0.867833 0.558089
O O15 0.575027 0.000000 0.714687
O O16 0.342380 0.000000 0.626246
O O17 0.250000 0.633347 0.408634
O O18 0.318023 0.500000 0.309206
#
# Coordination Sequence:
#
# PCOD9404080 Si02
#       7
#     8   8   8   8   8   8   8
#     4  10  20  34  55  82 108 136 174 218 262 311
#     4  10  21  36  53  76 108 142 177 218 262 312
#     4   9  17  32  54  79 107 135 169 215 264 314
#     4  10  21  35  52  76 109 147 179 213 262 314
#     4  10  20  35  57  80 103 137 177 218 264 312
#     4   9  18  33  53  77 104 136 178 223 263 308
#     4   9  17  31  53  79 105 136 176 220 264 311
#
# _framework density 19.230371000000002
#
# number of rings (size 3 to 8) (size 9 to 14) (size 15 to 20)
#    0.000    2.429    0.000    3.429    0.000    6.286 
#    0.000    7.857    0.000    5.143    0.000    0.000 
#    0.000    0.000    0.000    0.000    0.000    0.000 
#
# Total GULP energy -312204.416730 kJ/mol
# GULP energy per Si atom -5575.078870 kJ/mol
# Density = 1.918660 g / cm^3
# Si number density = 19.230371 Si / 1000 Ang^3
#
#
#
# Elastic Constant Matrix: (Units=GPa)
#
#
# Indices 1 2 3 4 5 6 
#
# 1 61.9001 12.4920 28.9218 0.0000 0.0000 0.0000
# 2 12.4920 85.1098 3.8076 0.0000 0.0000 0.0000
# 3 28.9218 3.8076 44.9357 0.0000 0.0000 0.0000
# 4 0.0000 0.0000 0.0000 13.7265 0.0000 0.0000
# 5 0.0000 0.0000 0.0000 0.0000 7.0898 0.0000
# 6 0.0000 0.0000 0.0000 0.0000 0.0000 17.9101
#
#
#
# Elastic Compliance Matrix: (Units=1/GPa)
#
#
# Indices 1 2 3 4 5 6 
#
# 1 0.023755 -0.002813 -0.015051 0.000000 0.000000 0.000000
# 2 -0.002813 0.012127 0.000783 0.000000 0.000000 0.000000
# 3 -0.015051 0.000783 0.031875 0.000000 0.000000 0.000000
# 4 0.000000 0.000000 0.000000 0.072852 0.000000 0.000000
# 5 0.000000 0.000000 0.000000 0.000000 0.141048 0.000000
# 6 0.000000 0.000000 0.000000 0.000000 0.000000 0.055835
#
#
# Mechanical properties :
#
#
# Convention : Reuss Voigt Hill
#
# Bulk Modulus (GPa) = 29.76634 31.37647 30.57140
# Shear Modulus (GPa) = 13.05985 17.52688 15.29337
#
# Velocity S-wave (km/s) = 2.60883 3.02224 2.82312
# Velocity P-wave (km/s) = 4.95854 5.34136 5.15350
#
# Compressibility (1/GPa) = 0.03359500
#
# Stress axis : x y z
#
# Youngs Moduli (GPa) = 42.09603 82.45773 31.37260
#
# Poissons Ratio (x) = 0.23198 0.47219
# Poissons Ratio (y) = 0.11843 -0.02457
# Poissons Ratio (z) = 0.63359 -0.06458
#
# Static dielectric constant tensor:
#      x y z
#    x 1.705170 0.000000 0.000000 
#    y 0.000000 1.677970 0.000000 
#    z 0.000000 0.000000 1.665080 
# 
# From -- ./inp_files/11025.got.cif
#   From: 2010.05.17/outbox.cif.g08.bks.cpg/sg51_6_cif.got.tgz:11025.got - 2010.06.03 11:52:47.
