data_PCOD9404702
_publ_section_title
;
Structure prediction by ZEFSAII (Michael W. Deem and Ramdas Pophale) SiO2 
 PCOD9404702
Probable space group: P M M A
;
_chemical_formula_sum "Si O2"
_cell_formula_units_Z 64
_cell_length_a 20.462655
_cell_length_b 8.532109
_cell_length_c 20.815606
_cell_angle_alpha 90.000000
_cell_angle_beta 90.000000
_cell_angle_gamma 90.000000
_cell_volume 3634.188385
_symmetry_space_group_name_H-M "P M M A"
_symmetry_group_IT_number 51
_symmetry_cell_setting 'orthorhombic'
loop_
_space_group_symop_operation_xyz
x,y,z
1/2-x,-y,z
1/2+x,-y,-z
-x,y,-z
-x,-y,-z
1/2+x,y,-z
1/2-x,y,z
x,-y,z
loop_
_atom_site_type_symbol
_atom_site_label
_atom_site_fract_x
_atom_site_fract_y
_atom_site_fract_z
Si Si1 0.426509 0.809280 0.822585
Si Si2 0.174779 0.189593 0.930395
Si Si3 0.824569 0.191109 0.428795
Si Si4 0.825299 0.312388 0.928461
Si Si5 0.923823 0.812132 0.821840
Si Si6 0.428794 0.189878 0.676428
Si Si7 0.325907 0.810947 0.424437
Si Si8 0.926215 0.313986 0.680036
O O1 0.374781 0.754768 0.875388
O O2 0.501307 0.761481 0.836365
O O3 0.410939 0.761829 0.749330
O O4 0.425304 0.000000 0.823614
O O5 0.250000 0.237516 0.917709
O O6 0.173227 0.000000 0.931511
O O7 0.156303 0.250079 0.000943
O O8 0.750000 0.240438 0.414762
O O9 0.876636 0.244497 0.376197
O O10 0.841007 0.236913 0.501975
O O11 0.824580 0.000000 0.427839
O O12 0.750000 0.261970 0.916401
O O13 0.826881 0.500000 0.929073
O O14 0.873559 0.250481 0.874133
O O15 0.908282 0.753905 0.750086
O O16 0.922537 0.000000 0.821928
O O17 0.501819 0.249018 0.663341
O O18 0.430243 0.000000 0.675308
O O19 0.250000 0.770373 0.411923
O O20 0.374331 0.737718 0.373168
O O21 0.331181 0.000000 0.421180
O O22 0.928977 0.500000 0.684341
#
# Coordination Sequence:
#
# PCOD9404702 Si02
#       8
#     8   8   8   8   8   8   8   8
#     4   8  16  30  49  75 102 128 162 205 246 285
#     4   9  17  31  51  74 101 133 167 201 240 289
#     4   8  15  29  52  80 104 129 168 216 257 295
#     4  10  21  36  52  73 102 132 164 204 247 293
#     4  10  20  36  56  75  98 129 166 207 252 300
#     4   9  17  32  53  76 104 136 170 209 254 300
#     4   9  18  34  54  75 100 131 169 211 255 304
#     4  11  22  35  51  73 103 135 169 208 250 300
#
# _framework density 17.610534999999999
#
# number of rings (size 3 to 8) (size 9 to 14) (size 15 to 20)
#    0.000    2.750    0.000    3.375    0.000    3.000 
#    0.000   11.250    0.000    1.125    0.000    0.000 
#    0.000    0.000    0.000    0.000    0.000    0.000 
#
# Total GULP energy -356903.538431 kJ/mol
# GULP energy per Si atom -5576.617788 kJ/mol
# Density = 1.757045 g / cm^3
# Si number density = 17.610535 Si / 1000 Ang^3
#
#
#
# Elastic Constant Matrix: (Units=GPa)
#
#
# Indices 1 2 3 4 5 6 
#
# 1 125.7050 28.4342 133.2589 0.0000 0.0000 0.0000
# 2 28.4342 24.4595 31.3645 0.0000 0.0000 0.0000
# 3 133.2589 31.3645 167.6852 0.0000 0.0000 0.0000
# 4 0.0000 0.0000 0.0000 -10.7703 0.0000 0.0000
# 5 0.0000 0.0000 0.0000 0.0000 44.1747 0.0000
# 6 0.0000 0.0000 0.0000 0.0000 0.0000 6.4804
#
#
#
# Elastic Compliance Matrix: (Units=1/GPa)
#
#
# Indices 1 2 3 4 5 6 
#
# 1 0.052240 -0.009859 -0.039671 0.000000 0.000000 0.000000
# 2 -0.009859 0.055644 -0.002573 0.000000 0.000000 0.000000
# 3 -0.039671 -0.002573 0.037971 0.000000 0.000000 0.000000
# 4 0.000000 0.000000 0.000000 -0.092848 0.000000 0.000000
# 5 0.000000 0.000000 0.000000 0.000000 0.022637 0.000000
# 6 0.000000 0.000000 0.000000 0.000000 0.000000 0.154312
#
#
# Mechanical properties :
#
#
# Convention : Reuss Voigt Hill
#
# Bulk Modulus (GPa) = 24.00976 78.21832 51.11404
# Shear Modulus (GPa) = 14.36588 16.29642 15.33115
#
# Velocity S-wave (km/s) = 2.85924 3.04530 2.95374
# Velocity P-wave (km/s) = 4.95618 7.54170 6.38126
#
# Compressibility (1/GPa) = 0.04164974
#
# Stress axis : x y z
#
# Youngs Moduli (GPa) = 19.14242 17.97125 26.33580
#
# Poissons Ratio (x) = 0.17718 1.04476
# Poissons Ratio (y) = 0.18872 0.06776
# Poissons Ratio (z) = 0.75940 0.04624
#
# Static dielectric constant tensor:
#      x y z
#    x 1.588770 0.000000 0.000000 
#    y 0.000000 1.591900 0.000000 
#    z 0.000000 0.000000 1.579780 
# 
# From -- ./inp_files/30611.got.cif
#   From: 2010.05.17/outbox.cif.g08.bks.cpg/sg51_16_cif.got.tgz:30611.got - 2010.06.03 11:52:47.
