data_PCOD9404906
_publ_section_title
;
Structure prediction by ZEFSAII (Michael W. Deem and Ramdas Pophale) SiO2 
 PCOD9404906
Probable space group: P M M A
;
_chemical_formula_sum "Si O2"
_cell_formula_units_Z 64
_cell_length_a 8.653363
_cell_length_b 15.740085
_cell_length_c 25.096036
_cell_angle_alpha 90.000000
_cell_angle_beta 90.000000
_cell_angle_gamma 90.000000
_cell_volume 3418.197281
_symmetry_space_group_name_H-M "P M M A"
_symmetry_group_IT_number 51
_symmetry_cell_setting 'orthorhombic'
loop_
_space_group_symop_operation_xyz
x,y,z
1/2-x,-y,z
1/2+x,-y,-z
-x,y,-z
-x,-y,-z
1/2+x,y,-z
1/2-x,y,z
x,-y,z
loop_
_atom_site_type_symbol
_atom_site_label
_atom_site_fract_x
_atom_site_fract_y
_atom_site_fract_z
Si Si1 0.936746 0.591331 0.560442
Si Si2 0.565495 0.224033 0.857993
Si Si3 0.064920 0.098160 0.648085
Si Si4 0.934378 0.772852 0.732437
Si Si5 0.065473 0.591356 0.152209
Si Si6 0.934028 0.097359 0.056565
Si Si7 0.564067 0.221983 0.559965
Si Si8 0.566465 0.407054 0.270713
O O1 0.750000 0.591012 0.559620
O O2 0.987811 0.500000 0.584110
O O3 0.984090 0.683948 0.581758
O O4 0.000000 0.591208 0.500000
O O5 0.750000 0.212490 0.861780
O O6 0.524452 0.219223 0.795188
O O7 0.527397 0.320544 0.876218
O O8 0.485610 0.155475 0.894772
O O9 0.250000 0.099448 0.645959
O O10 0.008947 0.151925 0.698829
O O11 0.999253 0.148051 0.597174
O O12 0.013509 0.000000 0.649923
O O13 0.750000 0.777050 0.727883
O O14 0.987443 0.680209 0.711273
O O15 0.250000 0.596091 0.165285
O O16 0.038600 0.500000 0.125298
O O17 0.973517 0.590860 0.207668
O O18 0.750000 0.096652 0.053239
O O19 0.989107 0.000000 0.064086
O O20 0.000000 0.128150 0.000000
O O21 0.500000 0.214251 0.500000
O O22 0.750000 0.218925 0.558877
O O23 0.750000 0.401342 0.278733
O O24 0.512210 0.500000 0.291230
#
# Coordination Sequence:
#
# PCOD9404906 Si02
#       8
#     8   8   8   8   8   8   8   8
#     4   8  14  26  47  77 110 140 169 202 245 300
#     4   9  18  32  53  81 109 139 175 214 259 313
#     4  11  25  43  60  78 104 139 179 228 282 329
#     4  10  21  37  57  81 110 145 182 220 266 322
#     4   8  14  26  45  71 104 141 179 216 257 308
#     4  10  21  36  54  76 103 136 174 219 270 319
#     4  10  20  36  60  86 111 141 178 220 265 318
#     4   9  16  27  47  76 109 143 178 218 262 309
#
# _framework density 18.723320000000001
#
# number of rings (size 3 to 8) (size 9 to 14) (size 15 to 20)
#    0.000    2.625    0.000    2.625    0.000    6.250 
#    0.000    3.125    0.000    2.625    0.000    0.000 
#    0.000    0.000    0.000    0.000    0.000    0.000 
#
# Total GULP energy -356668.481617 kJ/mol
# GULP energy per Si atom -5572.945025 kJ/mol
# Density = 1.868071 g / cm^3
# Si number density = 18.723320 Si / 1000 Ang^3
#
#
#
# Elastic Constant Matrix: (Units=GPa)
#
#
# Indices 1 2 3 4 5 6 
#
# 1 33.3240 47.0361 29.4614 0.0000 0.0000 0.0000
# 2 47.0361 184.9025 64.4011 0.0000 0.0000 0.0000
# 3 29.4614 64.4011 77.5374 0.0000 0.0000 0.0000
# 4 0.0000 0.0000 0.0000 69.4612 0.0000 0.0000
# 5 0.0000 0.0000 0.0000 0.0000 24.3870 0.0000
# 6 0.0000 0.0000 0.0000 0.0000 0.0000 22.9199
#
#
#
# Elastic Compliance Matrix: (Units=1/GPa)
#
#
# Indices 1 2 3 4 5 6 
#
# 1 0.054780 -0.009407 -0.013001 0.000000 0.000000 0.000000
# 2 -0.009407 0.009225 -0.004088 0.000000 0.000000 0.000000
# 3 -0.013001 -0.004088 0.021232 0.000000 0.000000 0.000000
# 4 0.000000 0.000000 0.000000 0.014397 0.000000 0.000000
# 5 0.000000 0.000000 0.000000 0.000000 0.041006 0.000000
# 6 0.000000 0.000000 0.000000 0.000000 0.000000 0.043630
#
#
# Mechanical properties :
#
#
# Convention : Reuss Voigt Hill
#
# Bulk Modulus (GPa) = 31.01208 64.17345 47.59277
# Shear Modulus (GPa) = 20.16043 33.67795 26.91919
#
# Velocity S-wave (km/s) = 3.28495 4.24573 3.79586
# Velocity P-wave (km/s) = 5.56662 7.64094 6.68473
#
# Compressibility (1/GPa) = 0.03224550
#
# Stress axis : x y z
#
# Youngs Moduli (GPa) = 18.25474 108.40127 47.09795
#
# Poissons Ratio (x) = 1.01971 0.61234
# Poissons Ratio (y) = 0.17172 0.19253
# Poissons Ratio (z) = 0.23734 0.44313
#
# Static dielectric constant tensor:
#      x y z
#    x 1.630790 0.000000 0.000000 
#    y 0.000000 1.695430 0.000000 
#    z 0.000000 0.000000 1.681190 
# 
# From -- ./inp_files/34968.got.cif
#   From: 2010.05.17/outbox.cif.g08.bks.cpg/sg51_18_cif.got.tgz:34968.got - 2010.06.03 11:52:47.
