data_PCOD9404043
_publ_section_title
;
Structure prediction by ZEFSAII (Michael W. Deem and Ramdas Pophale) SiO2 
 PCOD9404043
Probable space group: P M M A
;
_chemical_formula_sum "Si O2"
_cell_formula_units_Z 64
_cell_length_a 22.707484
_cell_length_b 8.997719
_cell_length_c 17.811534
_cell_angle_alpha 90.000000
_cell_angle_beta 90.000000
_cell_angle_gamma 90.000000
_cell_volume 3639.173548
_symmetry_space_group_name_H-M "P M M A"
_symmetry_group_IT_number 51
_symmetry_cell_setting 'orthorhombic'
loop_
_space_group_symop_operation_xyz
x,y,z
1/2-x,-y,z
1/2+x,-y,-z
-x,y,-z
-x,-y,-z
1/2+x,y,-z
1/2-x,y,z
x,-y,z
loop_
_atom_site_type_symbol
_atom_site_label
_atom_site_fract_x
_atom_site_fract_y
_atom_site_fract_z
Si Si1 0.817855 0.822452 0.573804
Si Si2 0.914626 0.821927 0.145481
Si Si3 0.588623 0.325137 0.683957
Si Si4 0.148796 0.823887 0.596192
Si Si5 0.929056 0.670534 0.989880
Si Si6 0.947430 0.822462 0.835630
Si Si7 0.973737 0.327388 0.416985
Si Si8 0.183743 0.322728 0.748983
O O1 0.750000 0.793351 0.592858
O O2 0.861803 0.738206 0.628738
O O3 0.828704 0.781266 0.486701
O O4 0.828553 0.000000 0.579344
O O5 0.867352 0.752998 0.202111
O O6 0.982461 0.783101 0.167281
O O7 0.910085 0.000000 0.145364
O O8 0.904779 0.757467 0.061936
O O9 0.597778 0.500000 0.696741
O O10 0.584132 0.239390 0.762096
O O11 0.526258 0.306765 0.641560
O O12 0.079990 0.781618 0.598012
O O13 0.178578 0.736986 0.664162
O O14 0.157886 0.000000 0.605908
O O15 0.908590 0.500000 0.988865
O O16 0.920191 0.751190 0.910680
O O17 0.000000 0.669052 0.000000
O O18 0.943727 0.000000 0.839746
O O19 0.953343 0.500000 0.412949
O O20 0.000000 0.303569 0.500000
O O21 0.250000 0.289093 0.776995
O O22 0.175553 0.500000 0.749975
#
# Coordination Sequence:
#
# PCOD9404043 Si02
#       8
#     8   8   8   8   8   8   8   8
#     4  10  22  39  56  74 100 137 180 226 274 323
#     4  10  20  35  57  84 113 146 181 221 271 324
#     4  11  22  35  54  79 108 142 181 224 271 322
#     4  11  22  36  57  81 107 140 182 230 277 328
#     4   9  17  31  54  83 114 145 175 210 257 315
#     4  10  20  34  54  83 116 145 179 222 272 327
#     4  10  20  35  53  77 110 143 177 221 274 329
#     4  11  24  39  55  77 108 148 191 233 276 326
#
# _framework density 17.586410000000001
#
# number of rings (size 3 to 8) (size 9 to 14) (size 15 to 20)
#    0.000    1.750    1.250    3.375    0.000    8.500 
#    0.000    0.000    0.000    0.750    0.000    0.000 
#    0.000    0.000    0.000    0.000    0.000    0.000 
#
# Total GULP energy -357468.399953 kJ/mol
# GULP energy per Si atom -5585.443749 kJ/mol
# Density = 1.754638 g / cm^3
# Si number density = 17.586410 Si / 1000 Ang^3
#
#
#
# Elastic Constant Matrix: (Units=GPa)
#
#
# Indices 1 2 3 4 5 6 
#
# 1 60.8142 36.3821 31.8121 0.0000 0.0000 0.0000
# 2 36.3821 65.8794 48.5598 0.0000 0.0000 0.0000
# 3 31.8121 48.5598 122.8041 0.0000 0.0000 0.0000
# 4 0.0000 0.0000 0.0000 32.7070 0.0000 0.0000
# 5 0.0000 0.0000 0.0000 0.0000 6.9877 0.0000
# 6 0.0000 0.0000 0.0000 0.0000 0.0000 21.0816
#
#
#
# Elastic Compliance Matrix: (Units=1/GPa)
#
#
# Indices 1 2 3 4 5 6 
#
# 1 0.024731 -0.012611 -0.001420 0.000000 0.000000 0.000000
# 2 -0.012611 0.027855 -0.007747 0.000000 0.000000 0.000000
# 3 -0.001420 -0.007747 0.011574 0.000000 0.000000 0.000000
# 4 0.000000 0.000000 0.000000 0.030574 0.000000 0.000000
# 5 0.000000 0.000000 0.000000 0.000000 0.143109 0.000000
# 6 0.000000 0.000000 0.000000 0.000000 0.000000 0.047435
#
#
# Mechanical properties :
#
#
# Convention : Reuss Voigt Hill
#
# Bulk Modulus (GPa) = 48.53669 53.66730 51.10199
# Shear Modulus (GPa) = 14.89415 21.00484 17.94949
#
# Velocity S-wave (km/s) = 2.91333 3.45973 3.19822
# Velocity P-wave (km/s) = 6.24304 6.82219 6.53903
#
# Compressibility (1/GPa) = 0.02060297
#
# Stress axis : x y z
#
# Youngs Moduli (GPa) = 40.43532 35.90084 86.39806
#
# Poissons Ratio (x) = 0.45275 0.12266
# Poissons Ratio (y) = 0.50994 0.66936
# Poissons Ratio (z) = 0.05740 0.27814
#
# Static dielectric constant tensor:
#      x y z
#    x 1.578480 0.000000 0.000000 
#    y 0.000000 1.588830 0.000000 
#    z 0.000000 0.000000 1.583550 
# 
# From -- ./inp_files/30584.got.cif
#   From: 2010.05.17/outbox.cif.g08.bks.cpg/sg51_16_cif.got.tgz:30584.got - 2010.06.03 11:52:47.
