data_PCOD9404941
_publ_section_title
;
Structure prediction by ZEFSAII (Michael W. Deem and Ramdas Pophale) SiO2 
 PCOD9404941
Probable space group: P M M A
;
_chemical_formula_sum "Si O2"
_cell_formula_units_Z 40
_cell_length_a 16.230061
_cell_length_b 8.983531
_cell_length_c 14.182532
_cell_angle_alpha 90.000000
_cell_angle_beta 90.000000
_cell_angle_gamma 90.000000
_cell_volume 2067.859346
_symmetry_space_group_name_H-M "P M M A"
_symmetry_group_IT_number 51
_symmetry_cell_setting 'orthorhombic'
loop_
_space_group_symop_operation_xyz
x,y,z
1/2-x,-y,z
1/2+x,-y,-z
-x,y,-z
-x,-y,-z
1/2+x,y,-z
1/2-x,y,z
x,-y,z
loop_
_atom_site_type_symbol
_atom_site_label
_atom_site_fract_x
_atom_site_fract_y
_atom_site_fract_z
Si Si1 0.250000 0.677175 0.253982
Si Si2 0.346848 0.673611 0.550798
Si Si3 0.101966 0.825590 0.366757
Si Si4 0.581068 0.818822 0.057162
Si Si5 0.250000 0.819691 0.047793
Si Si6 0.077568 0.824094 0.725214
O O1 0.250000 0.500000 0.249694
O O2 0.170178 0.734699 0.309682
O O3 0.250000 0.747934 0.150438
O O4 0.250000 0.689884 0.528714
O O5 0.368566 0.500000 0.544218
O O6 0.396984 0.766532 0.473454
O O7 0.364311 0.734405 0.654825
O O8 0.014238 0.808302 0.316517
O O9 0.123629 0.000000 0.366102
O O10 0.579766 0.773081 0.166473
O O11 0.578217 0.000000 0.057084
O O12 0.500000 0.767775 0.000000
O O13 0.666608 0.776377 0.007267
O O14 0.250000 0.000000 0.056799
O O15 0.099073 0.000000 0.722569
#
# Coordination Sequence:
#
# PCOD9404941 Si02
#       6
#     4   8   8   8   4   8
#     4  12  24  38  59  88 121 158 199 248 304 360
#     4  11  24  40  58  86 125 166 201 242 298 361
#     4  11  22  39  63  90 118 155 201 252 302 356
#     4   9  18  35  59  89 120 150 197 257 304 352
#     4  10  20  36  61  86 113 158 201 244 308 360
#     4  10  22  38  62  92 120 154 202 254 303 355
#
# _framework density 19.343675999999999
#
# number of rings (size 3 to 8) (size 9 to 14) (size 15 to 20)
#    0.000    1.600    1.000    3.900    1.400    8.400 
#    0.000    1.000    0.000    2.400    0.000    0.000 
#    0.000    0.000    0.000    0.000    0.000    0.000 
#
# Total GULP energy -223592.700072 kJ/mol
# GULP energy per Si atom -5589.817502 kJ/mol
# Density = 1.929965 g / cm^3
# Si number density = 19.343676 Si / 1000 Ang^3
#
#
#
# Elastic Constant Matrix: (Units=GPa)
#
#
# Indices 1 2 3 4 5 6 
#
# 1 78.8772 36.8568 48.1900 0.0000 0.0000 0.0000
# 2 36.8568 57.8558 32.6694 0.0000 0.0000 0.0000
# 3 48.1900 32.6694 163.4455 0.0000 0.0000 0.0000
# 4 0.0000 0.0000 0.0000 -15.2199 0.0000 0.0000
# 5 0.0000 0.0000 0.0000 0.0000 27.9930 0.0000
# 6 0.0000 0.0000 0.0000 0.0000 0.0000 -15.0813
#
#
#
# Elastic Compliance Matrix: (Units=1/GPa)
#
#
# Indices 1 2 3 4 5 6 
#
# 1 0.019909 -0.010560 -0.003759 0.000000 0.000000 0.000000
# 2 -0.010560 0.025085 -0.001900 0.000000 0.000000 0.000000
# 3 -0.003759 -0.001900 0.007606 0.000000 0.000000 0.000000
# 4 0.000000 0.000000 0.000000 -0.065704 0.000000 0.000000
# 5 0.000000 0.000000 0.000000 0.000000 0.035723 0.000000
# 6 0.000000 0.000000 0.000000 0.000000 0.000000 -0.066307
#
#
# Mechanical properties :
#
#
# Convention : Reuss Voigt Hill
#
# Bulk Modulus (GPa) = 49.60151 59.51232 54.55691
# Shear Modulus (GPa) = -1104.42732 11.70251 -546.36241
#
# Velocity S-wave (km/s) = -23.92048 2.46230 -16.82449
# Velocity P-wave (km/s) = 27.15182 6.23831 18.68562
#
# Compressibility (1/GPa) = 0.02016068
#
# Stress axis : x y z
#
# Youngs Moduli (GPa) = 50.22828 39.86471 131.46763
#
# Poissons Ratio (x) = 0.42098 0.49421
# Poissons Ratio (y) = 0.53043 0.24984
# Poissons Ratio (z) = 0.18882 0.07576
#
# Static dielectric constant tensor:
#      x y z
#    x 1.666760 0.000000 0.000000 
#    y 0.000000 1.643120 0.000000 
#    z 0.000000 0.000000 1.655640 
# 
# From -- ./inp_files/23758.got.cif
#   From: 2010.05.17/outbox.cif.g08.bks.cpg/sg51_12_cif.got.tgz:23758.got - 2010.06.03 11:52:47.
