data_PCOD9404445
_publ_section_title
;
Structure prediction by ZEFSAII (Michael W. Deem and Ramdas Pophale) SiO2 
 PCOD9404445
Probable space group: P M M A
;
_chemical_formula_sum "Si O2"
_cell_formula_units_Z 56
_cell_length_a 14.544674
_cell_length_b 9.083542
_cell_length_c 23.097221
_cell_angle_alpha 90.000000
_cell_angle_beta 90.000000
_cell_angle_gamma 90.000000
_cell_volume 3051.539177
_symmetry_space_group_name_H-M "P M M A"
_symmetry_group_IT_number 51
_symmetry_cell_setting 'orthorhombic'
loop_
_space_group_symop_operation_xyz
x,y,z
1/2-x,-y,z
1/2+x,-y,-z
-x,y,-z
-x,-y,-z
1/2+x,y,-z
1/2-x,y,z
x,-y,z
loop_
_atom_site_type_symbol
_atom_site_label
_atom_site_fract_x
_atom_site_fract_y
_atom_site_fract_z
Si Si1 0.642396 0.177333 0.744960
Si Si2 0.355778 0.324373 0.902843
Si Si3 0.029788 0.823193 0.139939
Si Si4 0.141629 0.172564 0.025357
Si Si5 0.856567 0.824706 0.402435
Si Si6 0.468473 0.324007 0.359053
Si Si7 0.858010 0.671712 0.524539
O O1 0.750000 0.217103 0.747012
O O2 0.591310 0.215935 0.804781
O O3 0.591068 0.255168 0.692216
O O4 0.636755 0.000000 0.738070
O O5 0.250000 0.282755 0.889472
O O6 0.362821 0.500000 0.901845
O O7 0.430759 0.252422 0.861201
O O8 0.375634 0.264855 0.967618
O O9 0.082705 0.781974 0.080751
O O10 0.019146 0.000000 0.139402
O O11 0.250000 0.184263 0.039553
O O12 0.122318 0.000000 0.012832
O O13 0.750000 0.787999 0.389262
O O14 0.874277 0.769292 0.468032
O O15 0.930073 0.744445 0.362108
O O16 0.867623 0.000000 0.399101
O O17 0.472178 0.500000 0.353779
O O18 0.418770 0.288841 0.420227
O O19 0.750000 0.683920 0.539982
O O20 0.876066 0.500000 0.509457
#
# Coordination Sequence:
#
# PCOD9404445 Si02
#       7
#     8   8   8   8   8   8   8
#     4  10  22  40  60  82 109 140 176 221 269 316
#     4  10  21  35  51  76 110 143 176 217 265 316
#     4  10  20  35  56  80 105 138 180 221 264 315
#     4   9  17  31  53  80 109 140 174 214 262 317
#     4  10  21  36  55  81 111 142 180 226 273 321
#     4  11  22  36  56  81 110 146 185 222 265 320
#     4   9  18  33  53  79 112 146 178 216 266 323
#
# _framework density 18.351396000000001
#
# number of rings (size 3 to 8) (size 9 to 14) (size 15 to 20)
#    0.000    2.143    0.000    3.000    0.000   10.000 
#    0.000    2.143    0.000    3.429    0.000    0.000 
#    0.000    0.000    0.000    0.000    0.000    0.000 
#
# Total GULP energy -312785.327905 kJ/mol
# GULP energy per Si atom -5585.452284 kJ/mol
# Density = 1.830963 g / cm^3
# Si number density = 18.351396 Si / 1000 Ang^3
#
#
#
# Elastic Constant Matrix: (Units=GPa)
#
#
# Indices 1 2 3 4 5 6 
#
# 1 162.3659 64.6052 91.8072 0.0000 0.0000 0.0000
# 2 64.6052 37.2270 41.0252 0.0000 0.0000 0.0000
# 3 91.8072 41.0252 71.0629 0.0000 0.0000 0.0000
# 4 0.0000 0.0000 0.0000 58.1228 0.0000 0.0000
# 5 0.0000 0.0000 0.0000 0.0000 35.3740 0.0000
# 6 0.0000 0.0000 0.0000 0.0000 0.0000 24.5011
#
#
#
# Elastic Compliance Matrix: (Units=1/GPa)
#
#
# Indices 1 2 3 4 5 6 
#
# 1 0.029572 -0.025338 -0.023576 0.000000 0.000000 0.000000
# 2 -0.025338 0.095551 -0.022427 0.000000 0.000000 0.000000
# 3 -0.023576 -0.022427 0.057478 0.000000 0.000000 0.000000
# 4 0.000000 0.000000 0.000000 0.017205 0.000000 0.000000
# 5 0.000000 0.000000 0.000000 0.000000 0.028269 0.000000
# 6 0.000000 0.000000 0.000000 0.000000 0.000000 0.040814
#
#
# Mechanical properties :
#
#
# Convention : Reuss Voigt Hill
#
# Bulk Modulus (GPa) = 25.05204 73.94790 49.49997
# Shear Modulus (GPa) = 11.76809 28.48081 20.12445
#
# Velocity S-wave (km/s) = 2.53507 3.94378 3.31511
# Velocity P-wave (km/s) = 4.71696 7.81798 6.45641
#
# Compressibility (1/GPa) = 0.03991691
#
# Stress axis : x y z
#
# Youngs Moduli (GPa) = 33.81594 10.46566 17.39805
#
# Poissons Ratio (x) = 0.26518 0.41018
# Poissons Ratio (y) = 0.85684 0.39019
# Poissons Ratio (z) = 0.79725 0.23471
#
# Static dielectric constant tensor:
#      x y z
#    x 1.647910 0.000000 0.000000 
#    y 0.000000 1.610490 0.000000 
#    z 0.000000 0.000000 1.600280 
# 
# From -- ./inp_files/33417.got.cif
#   From: 2010.05.17/outbox.cif.g08.bks.cpg/sg51_17_cif.got.tgz:33417.got - 2010.06.03 11:52:47.
