data_PCOD9404693
_publ_section_title
;
Structure prediction by ZEFSAII (Michael W. Deem and Ramdas Pophale) SiO2 
 PCOD9404693
Probable space group: P M M A
;
_chemical_formula_sum "Si O2"
_cell_formula_units_Z 52
_cell_length_a 11.540822
_cell_length_b 14.331584
_cell_length_c 16.588720
_cell_angle_alpha 90.000000
_cell_angle_beta 90.000000
_cell_angle_gamma 90.000000
_cell_volume 2743.745422
_symmetry_space_group_name_H-M "P M M A"
_symmetry_group_IT_number 51
_symmetry_cell_setting 'orthorhombic'
loop_
_space_group_symop_operation_xyz
x,y,z
1/2-x,-y,z
1/2+x,-y,-z
-x,y,-z
-x,-y,-z
1/2+x,y,-z
1/2-x,y,z
x,-y,z
loop_
_atom_site_type_symbol
_atom_site_label
_atom_site_fract_x
_atom_site_fract_y
_atom_site_fract_z
Si Si1 0.500000 0.258338 0.000000
Si Si2 0.388380 0.605831 0.875710
Si Si3 0.124339 0.889168 0.467934
Si Si4 0.883619 0.103349 0.890436
Si Si5 0.042690 0.894195 0.291196
Si Si6 0.617750 0.612003 0.451222
Si Si7 0.884629 0.716016 0.281122
O O1 0.417224 0.327170 0.950139
O O2 0.556237 0.188436 0.935211
O O3 0.250000 0.599101 0.868474
O O4 0.433931 0.500000 0.884994
O O5 0.432009 0.654754 0.793450
O O6 0.250000 0.852029 0.497404
O O7 0.118232 0.880170 0.371328
O O8 0.000000 0.852616 0.500000
O O9 0.124759 0.000000 0.487222
O O10 0.750000 0.103540 0.914656
O O11 0.891916 0.112390 0.793777
O O12 0.933263 0.000000 0.909883
O O13 0.947676 0.814125 0.289699
O O14 0.994919 0.000000 0.297353
O O15 0.500000 0.637214 0.500000
O O16 0.750000 0.633993 0.483127
O O17 0.615321 0.500000 0.442602
O O18 0.607530 0.659319 0.364030
O O19 0.750000 0.734011 0.264309
#
# Coordination Sequence:
#
# PCOD9404693 Si02
#       7
#     4   8   8   8   8   8   8
#     4  12  20  36  60  88 112 140 186 236 292 340
#     4  10  21  37  58  84 114 148 186 231 287 352
#     4   9  18  33  54  78 107 146 192 237 280 330
#     4  10  21  37  57  81 113 152 191 232 281 341
#     4  10  20  36  55  78 111 154 196 233 279 338
#     4   9  18  35  61  88 115 149 191 239 290 346
#     4  10  20  36  56  82 113 150 192 232 283 344
#
# _framework density 18.952195
#
# number of rings (size 3 to 8) (size 9 to 14) (size 15 to 20)
#    0.000    2.154    1.538    1.846    0.000    5.231 
#    0.000    4.615    0.000    0.000    0.000    0.000 
#    0.000    0.000    0.000    0.000    0.000    0.000 
#
# Total GULP energy -289799.376773 kJ/mol
# GULP energy per Si atom -5573.064938 kJ/mol
# Density = 1.890906 g / cm^3
# Si number density = 18.952195 Si / 1000 Ang^3
#
#
#
# Elastic Constant Matrix: (Units=GPa)
#
#
# Indices 1 2 3 4 5 6 
#
# 1 94.0782 45.4771 35.3407 0.0000 0.0000 0.0000
# 2 45.4771 126.9513 29.6486 0.0000 0.0000 0.0000
# 3 35.3407 29.6486 69.2661 0.0000 0.0000 0.0000
# 4 0.0000 0.0000 0.0000 21.3901 0.0000 0.0000
# 5 0.0000 0.0000 0.0000 0.0000 21.7446 0.0000
# 6 0.0000 0.0000 0.0000 0.0000 0.0000 9.0175
#
#
#
# Elastic Compliance Matrix: (Units=1/GPa)
#
#
# Indices 1 2 3 4 5 6 
#
# 1 0.014709 -0.003907 -0.005832 0.000000 0.000000 0.000000
# 2 -0.003907 0.009790 -0.002197 0.000000 0.000000 0.000000
# 3 -0.005832 -0.002197 0.018353 0.000000 0.000000 0.000000
# 4 0.000000 0.000000 0.000000 0.046751 0.000000 0.000000
# 5 0.000000 0.000000 0.000000 0.000000 0.045988 0.000000
# 6 0.000000 0.000000 0.000000 0.000000 0.000000 0.110896
#
#
# Mechanical properties :
#
#
# Convention : Reuss Voigt Hill
#
# Bulk Modulus (GPa) = 52.68925 56.80315 54.74620
# Shear Modulus (GPa) = 18.07100 22.41903 20.24501
#
# Velocity S-wave (km/s) = 3.09124 3.44310 3.27190
# Velocity P-wave (km/s) = 6.37201 6.77078 6.57442
#
# Compressibility (1/GPa) = 0.01897921
#
# Stress axis : x y z
#
# Youngs Moduli (GPa) = 67.98529 102.14806 54.48617
#
# Poissons Ratio (x) = 0.39909 0.31779
# Poissons Ratio (y) = 0.26562 0.11970
# Poissons Ratio (z) = 0.39652 0.22441
#
# Static dielectric constant tensor:
#      x y z
#    x 1.659470 0.000000 0.000000 
#    y 0.000000 1.658220 0.000000 
#    z 0.000000 0.000000 1.661120 
# 
# From -- ./inp_files/23303.got.cif
#   From: 2010.05.17/outbox.cif.g08.bks.cpg/sg51_12_cif.got.tgz:23303.got - 2010.06.03 11:52:47.
