data_PCOD9404993
_publ_section_title
;
Structure prediction by ZEFSAII (Michael W. Deem and Ramdas Pophale) SiO2 
 PCOD9404993
Probable space group: P M M A
;
_chemical_formula_sum "Si O2"
_cell_formula_units_Z 64
_cell_length_a 18.989669
_cell_length_b 9.237927
_cell_length_c 20.782492
_cell_angle_alpha 90.000000
_cell_angle_beta 90.000000
_cell_angle_gamma 90.000000
_cell_volume 3645.772316
_symmetry_space_group_name_H-M "P M M A"
_symmetry_group_IT_number 51
_symmetry_cell_setting 'orthorhombic'
loop_
_space_group_symop_operation_xyz
x,y,z
1/2-x,-y,z
1/2+x,-y,-z
-x,y,-z
-x,-y,-z
1/2+x,y,-z
1/2-x,y,z
x,-y,z
loop_
_atom_site_type_symbol
_atom_site_label
_atom_site_fract_x
_atom_site_fract_y
_atom_site_fract_z
Si Si1 0.833403 0.672902 0.168540
Si Si2 0.168291 0.826199 0.585104
Si Si3 0.664194 0.166734 0.037738
Si Si4 0.925503 0.827862 0.535624
Si Si5 0.835800 0.333312 0.909522
Si Si6 0.574674 0.327533 0.672140
Si Si7 0.834712 0.169971 0.778945
Si Si8 0.087765 0.327330 0.701056
O O1 0.750000 0.700879 0.179725
O O2 0.841092 0.500000 0.158691
O O3 0.855956 0.756021 0.104196
O O4 0.877475 0.716283 0.231240
O O5 0.250000 0.785436 0.588049
O O6 0.134208 0.789687 0.516288
O O7 0.125533 0.751929 0.642196
O O8 0.162533 0.000000 0.592038
O O9 0.750000 0.167754 0.036554
O O10 0.641540 0.000000 0.035431
O O11 0.640635 0.254437 0.974765
O O12 0.920237 0.737872 0.600719
O O13 0.000000 0.802712 0.500000
O O14 0.921155 0.000000 0.550183
O O15 0.750000 0.333815 0.910670
O O16 0.858997 0.500000 0.906941
O O17 0.856611 0.246228 0.845730
O O18 0.586217 0.500000 0.671291
O O19 0.628646 0.249665 0.719762
O O20 0.495392 0.299640 0.697441
O O21 0.750000 0.182497 0.773827
O O22 0.852308 0.000000 0.779941
O O23 0.098662 0.500000 0.694179
#
# Coordination Sequence:
#
# PCOD9404993 Si02
#       8
#     8   8   8   8   8   8   8   8
#     4   9  17  30  48  71 102 140 180 220 263 312
#     4  10  21  36  56  82 108 137 179 228 273 320
#     4   9  16  26  43  71 105 139 177 220 266 315
#     4  10  20  37  58  78 105 143 182 220 269 326
#     4   9  16  28  49  76 106 139 175 218 268 321
#     4  11  23  37  57  83 110 141 180 223 269 325
#     4  10  21  37  57  81 109 141 178 222 272 325
#     4  10  21  36  54  77 108 145 181 219 267 325
#
# _framework density 17.554579
#
# number of rings (size 3 to 8) (size 9 to 14) (size 15 to 20)
#    0.000    2.250    1.250    1.875    0.000    6.750 
#    0.000    2.500    0.000    0.750    0.000    5.250 
#    0.000    0.000    0.000    0.000    0.000    0.000 
#
# Total GULP energy -357173.957419 kJ/mol
# GULP energy per Si atom -5580.843085 kJ/mol
# Density = 1.751462 g / cm^3
# Si number density = 17.554579 Si / 1000 Ang^3
#
#
#
# Elastic Constant Matrix: (Units=GPa)
#
#
# Indices 1 2 3 4 5 6 
#
# 1 37.7514 43.3603 44.4265 0.0000 0.0000 0.0000
# 2 43.3603 102.5701 95.5398 0.0000 0.0000 0.0000
# 3 44.4265 95.5398 177.5697 0.0000 0.0000 0.0000
# 4 0.0000 0.0000 0.0000 40.1257 0.0000 0.0000
# 5 0.0000 0.0000 0.0000 0.0000 3.1801 0.0000
# 6 0.0000 0.0000 0.0000 0.0000 0.0000 18.7244
#
#
#
# Elastic Compliance Matrix: (Units=1/GPa)
#
#
# Indices 1 2 3 4 5 6 
#
# 1 0.051982 -0.019768 -0.002370 0.000000 0.000000 0.000000
# 2 -0.019768 0.027061 -0.009614 0.000000 0.000000 0.000000
# 3 -0.002370 -0.009614 0.011397 0.000000 0.000000 0.000000
# 4 0.000000 0.000000 0.000000 0.024922 0.000000 0.000000
# 5 0.000000 0.000000 0.000000 0.000000 0.314459 0.000000
# 6 0.000000 0.000000 0.000000 0.000000 0.000000 0.053406
#
#
# Mechanical properties :
#
#
# Convention : Reuss Voigt Hill
#
# Bulk Modulus (GPa) = 37.12280 76.06050 56.59165
# Shear Modulus (GPa) = 8.99747 21.37701 15.18724
#
# Velocity S-wave (km/s) = 2.26640 3.49341 2.94452
# Velocity P-wave (km/s) = 5.29544 7.72618 6.62328
#
# Compressibility (1/GPa) = 0.02693763
#
# Stress axis : x y z
#
# Youngs Moduli (GPa) = 19.23727 36.95305 87.73868
#
# Poissons Ratio (x) = 0.73047 0.20793
# Poissons Ratio (y) = 0.38027 0.84356
# Poissons Ratio (z) = 0.04559 0.35528
#
# Static dielectric constant tensor:
#      x y z
#    x 1.589540 0.000000 0.000000 
#    y 0.000000 1.587480 0.000000 
#    z 0.000000 0.000000 1.566950 
# 
# From -- ./inp_files/33759.got.cif
#   From: 2010.05.17/outbox.cif.g08.bks.cpg/sg51_17_cif.got.tgz:33759.got - 2010.06.03 11:52:47.
