data_PCOD9404022
_publ_section_title
;
Structure prediction by ZEFSAII (Michael W. Deem and Ramdas Pophale) SiO2 
 PCOD9404022
Probable space group: P M M A
;
_chemical_formula_sum "Si O2"
_cell_formula_units_Z 48
_cell_length_a 16.368232
_cell_length_b 9.532018
_cell_length_c 16.685777
_cell_angle_alpha 90.000000
_cell_angle_beta 90.000000
_cell_angle_gamma 90.000000
_cell_volume 2603.353005
_symmetry_space_group_name_H-M "P M M A"
_symmetry_group_IT_number 51
_symmetry_cell_setting 'orthorhombic'
loop_
_space_group_symop_operation_xyz
x,y,z
1/2-x,-y,z
1/2+x,-y,-z
-x,y,-z
-x,-y,-z
1/2+x,y,-z
1/2-x,y,z
x,-y,z
loop_
_atom_site_type_symbol
_atom_site_label
_atom_site_fract_x
_atom_site_fract_y
_atom_site_fract_z
Si Si1 0.577772 0.168525 0.943742
Si Si2 0.250000 0.168124 0.970369
Si Si3 0.847273 0.659326 0.619774
Si Si4 0.101898 0.663284 0.686293
Si Si5 0.849246 0.835427 0.466951
Si Si6 0.931345 0.335519 0.778800
Si Si7 0.750000 0.333393 0.195003
O O1 0.665646 0.203679 0.983476
O O2 0.571302 0.245013 0.858677
O O3 0.575030 0.000000 0.933184
O O4 0.500000 0.206957 0.000000
O O5 0.250000 0.000000 0.958582
O O6 0.250000 0.246109 0.885835
O O7 0.750000 0.652165 0.612031
O O8 0.880559 0.500000 0.610680
O O9 0.876597 0.759629 0.548884
O O10 0.867997 0.707437 0.709430
O O11 0.112779 0.500000 0.662029
O O12 0.110685 0.759646 0.608863
O O13 0.172182 0.698222 0.749981
O O14 0.017501 0.677137 0.733302
O O15 0.750000 0.820057 0.459724
O O16 0.867546 0.000000 0.468950
O O17 0.918000 0.500000 0.798675
O O18 0.750000 0.500000 0.176900
#
# Coordination Sequence:
#
# PCOD9404022 Si02
#       7
#     8   4   8   8   8   8   4
#     4  10  22  40  59  82 115 151 186 230 287 344
#     4  10  22  38  58  83 110 147 188 227 282 345
#     4   9  19  36  56  77 108 148 186 227 278 329
#     4  10  20  35  55  81 114 146 180 226 280 332
#     4  10  20  34  54  82 111 145 190 230 270 324
#     4  10  22  37  57  85 111 142 187 234 277 328
#     4  10  20  34  56  83 108 141 182 223 276 335
#
# _framework density 18.437760999999998
#
# number of rings (size 3 to 8) (size 9 to 14) (size 15 to 20)
#    0.000    2.167    0.833    1.500    1.167    4.333 
#    0.000    3.333    0.000    0.000    0.000    0.000 
#    0.000    0.000    0.000    0.000    0.000    0.000 
#
# Total GULP energy -267925.646400 kJ/mol
# GULP energy per Si atom -5581.784300 kJ/mol
# Density = 1.839580 g / cm^3
# Si number density = 18.437761 Si / 1000 Ang^3
#
#
#
# Elastic Constant Matrix: (Units=GPa)
#
#
# Indices 1 2 3 4 5 6 
#
# 1 62.5489 36.5785 47.4558 0.0000 0.0000 0.0000
# 2 36.5785 73.9627 98.7661 0.0000 0.0000 0.0000
# 3 47.4558 98.7661 184.4469 0.0000 0.0000 0.0000
# 4 0.0000 0.0000 0.0000 153.8832 0.0000 0.0000
# 5 0.0000 0.0000 0.0000 0.0000 13.6172 0.0000
# 6 0.0000 0.0000 0.0000 0.0000 0.0000 4.1619
#
#
#
# Elastic Compliance Matrix: (Units=1/GPa)
#
#
# Indices 1 2 3 4 5 6 
#
# 1 0.022511 -0.011928 0.000595 0.000000 0.000000 0.000000
# 2 -0.011928 0.053767 -0.025722 0.000000 0.000000 0.000000
# 3 0.000595 -0.025722 0.019042 0.000000 0.000000 0.000000
# 4 0.000000 0.000000 0.000000 0.006498 0.000000 0.000000
# 5 0.000000 0.000000 0.000000 0.000000 0.073437 0.000000
# 6 0.000000 0.000000 0.000000 0.000000 0.000000 0.240274
#
#
# Mechanical properties :
#
#
# Convention : Reuss Voigt Hill
#
# Bulk Modulus (GPa) = 47.14498 76.28436 61.71467
# Shear Modulus (GPa) = 10.06628 43.54300 26.80464
#
# Velocity S-wave (km/s) = 2.33911 4.86492 3.81700
# Velocity P-wave (km/s) = 5.73765 8.54520 7.27808
#
# Compressibility (1/GPa) = 0.02121117
#
# Stress axis : x y z
#
# Youngs Moduli (GPa) = 44.42214 18.59885 52.51601
#
# Poissons Ratio (x) = 0.22184 -0.03125
# Poissons Ratio (y) = 0.52985 1.35081
# Poissons Ratio (z) = -0.02643 0.47840
#
# Static dielectric constant tensor:
#      x y z
#    x 1.579240 0.000000 0.000000 
#    y 0.000000 1.621320 0.000000 
#    z 0.000000 0.000000 1.586650 
# 
# From -- ./inp_files/24876.got.cif
#   From: 2010.05.17/outbox.cif.g08.bks.cpg/sg51_13_cif.got.tgz:24876.got - 2010.06.03 11:52:47.
