data_PCOD9404086
_publ_section_title
;
Structure prediction by ZEFSAII (Michael W. Deem and Ramdas Pophale) SiO2 
 PCOD9404086
Probable space group: P M M A
;
_chemical_formula_sum "Si O2"
_cell_formula_units_Z 64
_cell_length_a 8.088956
_cell_length_b 15.188771
_cell_length_c 25.726422
_cell_angle_alpha 90.000000
_cell_angle_beta 90.000000
_cell_angle_gamma 90.000000
_cell_volume 3160.781659
_symmetry_space_group_name_H-M "P M M A"
_symmetry_group_IT_number 51
_symmetry_cell_setting 'orthorhombic'
loop_
_space_group_symop_operation_xyz
x,y,z
1/2-x,-y,z
1/2+x,-y,-z
-x,y,-z
-x,-y,-z
1/2+x,y,-z
1/2-x,y,z
x,-y,z
loop_
_atom_site_type_symbol
_atom_site_label
_atom_site_fract_x
_atom_site_fract_y
_atom_site_fract_z
Si Si1 0.550159 0.209417 0.444583
Si Si2 0.054090 0.763489 0.745961
Si Si3 0.439957 0.595832 0.314101
Si Si4 0.949226 0.900253 0.942518
Si Si5 0.441262 0.596200 0.572403
Si Si6 0.447844 0.601318 0.941900
Si Si7 0.951853 0.898526 0.342029
Si Si8 0.447680 0.247362 0.135775
O O1 0.500000 0.169203 0.500000
O O2 0.750000 0.213862 0.441755
O O3 0.483352 0.310321 0.444039
O O4 0.495045 0.155391 0.393660
O O5 0.250000 0.756332 0.738104
O O6 0.997486 0.845373 0.709923
O O7 0.972852 0.675733 0.723414
O O8 0.017787 0.765415 0.806813
O O9 0.250000 0.599155 0.332400
O O10 0.466815 0.500000 0.289116
O O11 0.551975 0.601351 0.365063
O O12 0.750000 0.901555 0.940320
O O13 0.010644 0.832407 0.900051
O O14 0.009767 0.000000 0.934550
O O15 0.000000 0.871731 0.000000
O O16 0.250000 0.594773 0.555372
O O17 0.516019 0.500000 0.558677
O O18 0.250000 0.601257 0.940355
O O19 0.507107 0.500000 0.936044
O O20 0.509804 0.663951 0.895828
O O21 0.500000 0.631538 0.000000
O O22 0.750000 0.899924 0.342851
O O23 0.007592 0.000000 0.342590
O O24 0.250000 0.242619 0.139805
#
# Coordination Sequence:
#
# PCOD9404086 Si02
#       8
#     8   8   8   8   8   8   8   8
#     4  10  20  35  55  83 114 148 185 230 282 335
#     4  11  22  38  59  82 109 147 190 231 281 339
#     4  10  20  34  55  82 110 141 178 222 271 323
#     4   9  19  36  57  81 111 146 182 223 275 331
#     4   9  17  32  54  79 109 146 185 221 265 325
#     4  10  21  38  60  86 118 158 201 243 288 338
#     4   9  19  38  61  82 108 144 187 235 288 345
#     4  11  23  37  56  84 117 151 188 237 287 334
#
# _framework density 20.248156000000002
#
# number of rings (size 3 to 8) (size 9 to 14) (size 15 to 20)
#    0.000    2.125    1.250    1.875    0.000    5.500 
#    0.000    0.000    0.000    2.625    0.000    0.000 
#    0.000    0.000    0.000    0.000    0.000    0.000 
#
# Total GULP energy -357144.250215 kJ/mol
# GULP energy per Si atom -5580.378910 kJ/mol
# Density = 2.020207 g / cm^3
# Si number density = 20.248156 Si / 1000 Ang^3
#
#
#
# Elastic Constant Matrix: (Units=GPa)
#
#
# Indices 1 2 3 4 5 6 
#
# 1 26.9687 8.6410 -0.3973 0.0000 0.0000 0.0000
# 2 8.6410 137.0223 81.9044 0.0000 0.0000 0.0000
# 3 -0.3973 81.9044 139.9756 0.0000 0.0000 0.0000
# 4 0.0000 0.0000 0.0000 11.2340 0.0000 0.0000
# 5 0.0000 0.0000 0.0000 0.0000 26.5538 0.0000
# 6 0.0000 0.0000 0.0000 0.0000 0.0000 -103.4415
#
#
#
# Elastic Compliance Matrix: (Units=1/GPa)
#
#
# Indices 1 2 3 4 5 6 
#
# 1 0.038338 -0.003818 0.002343 0.000000 0.000000 0.000000
# 2 -0.003818 0.011604 -0.006801 0.000000 0.000000 0.000000
# 3 0.002343 -0.006801 0.011130 0.000000 0.000000 0.000000
# 4 0.000000 0.000000 0.000000 0.089016 0.000000 0.000000
# 5 0.000000 0.000000 0.000000 0.000000 0.037659 0.000000
# 6 0.000000 0.000000 0.000000 0.000000 0.000000 -0.009667
#
#
# Mechanical properties :
#
#
# Convention : Reuss Voigt Hill
#
# Bulk Modulus (GPa) = 22.46178 53.80697 38.13437
# Shear Modulus (GPa) = 23.86961 1.12382 12.49672
#
# Velocity S-wave (km/s) = 3.43717 0.74581 2.48700
# Velocity P-wave (km/s) = 5.18358 5.23193 5.20781
#
# Compressibility (1/GPa) = 0.04452008
#
# Stress axis : x y z
#
# Youngs Moduli (GPa) = 26.08385 86.17753 89.84674
#
# Poissons Ratio (x) = 0.32904 -0.21051
# Poissons Ratio (y) = 0.09959 0.61102
# Poissons Ratio (z) = -0.06111 0.58607
#
# Static dielectric constant tensor:
#      x y z
#    x 1.726900 0.000000 0.000000 
#    y 0.000000 1.740060 0.000000 
#    z 0.000000 0.000000 1.703320 
# 
# From -- ./inp_files/34940.got.cif
#   From: 2010.05.17/outbox.cif.g08.bks.cpg/sg51_18_cif.got.tgz:34940.got - 2010.06.03 11:52:47.
