data_PCOD9404066
_publ_section_title
;
Structure prediction by ZEFSAII (Michael W. Deem and Ramdas Pophale) SiO2 
 PCOD9404066
Probable space group: P M M A
;
_chemical_formula_sum "Si O2"
_cell_formula_units_Z 52
_cell_length_a 7.559171
_cell_length_b 16.324459
_cell_length_c 19.697248
_cell_angle_alpha 90.000000
_cell_angle_beta 90.000000
_cell_angle_gamma 90.000000
_cell_volume 2430.628133
_symmetry_space_group_name_H-M "P M M A"
_symmetry_group_IT_number 51
_symmetry_cell_setting 'orthorhombic'
loop_
_space_group_symop_operation_xyz
x,y,z
1/2-x,-y,z
1/2+x,-y,-z
-x,y,-z
-x,-y,-z
1/2+x,y,-z
1/2-x,y,z
x,-y,z
loop_
_atom_site_type_symbol
_atom_site_label
_atom_site_fract_x
_atom_site_fract_y
_atom_site_fract_z
Si Si1 0.462855 0.500000 0.080832
Si Si2 0.037550 0.587925 0.658698
Si Si3 0.461489 0.907647 0.072364
Si Si4 0.958701 0.092853 0.346505
Si Si5 0.961406 0.632129 0.810827
Si Si6 0.535013 0.182487 0.793925
Si Si7 0.962388 0.252340 0.421131
O O1 0.250000 0.500000 0.086112
O O2 0.526935 0.421013 0.124865
O O3 0.500000 0.500000 0.000000
O O4 0.250000 0.588996 0.651219
O O5 0.973162 0.500000 0.631035
O O6 0.969101 0.670237 0.622451
O O7 0.996464 0.590374 0.738589
O O8 0.250000 0.912307 0.078468
O O9 0.526978 0.861675 0.137972
O O10 0.533819 0.000000 0.070800
O O11 0.500000 0.867383 0.000000
O O12 0.750000 0.086015 0.361227
O O13 0.032516 0.164311 0.395324
O O14 0.977429 0.131553 0.271582
O O15 0.032082 0.000000 0.350546
O O16 0.750000 0.638417 0.819798
O O17 0.029376 0.724301 0.799667
O O18 0.750000 0.183601 0.791941
O O19 0.750000 0.250389 0.411358
O O20 0.000000 0.264402 0.500000
#
# Coordination Sequence:
#
# PCOD9404066 Si02
#       7
#     4   8   8   8   8   8   8
#     4  10  22  38  54  80 117 152 191 236 281 336
#     4  10  20  36  60  86 112 144 184 226 274 333
#     4   9  18  32  48  69 100 135 172 217 267 318
#     4  10  21  37  57  82 113 149 188 232 281 334
#     4  10  20  35  56  81 110 145 185 229 276 328
#     4  10  20  34  55  81 108 140 184 233 279 330
#     4  10  22  39  57  83 117 148 184 229 275 331
#
# _framework density 21.393646
#
# number of rings (size 3 to 8) (size 9 to 14) (size 15 to 20)
#    0.000    2.154    2.308    0.462    0.000    4.615 
#    0.000    1.538    0.000    0.000    0.000    0.000 
#    0.000    0.000    0.000    0.000    0.000    0.000 
#
# Total GULP energy -290138.635717 kJ/mol
# GULP energy per Si atom -5579.589148 kJ/mol
# Density = 2.134495 g / cm^3
# Si number density = 21.393646 Si / 1000 Ang^3
#
#
#
# Elastic Constant Matrix: (Units=GPa)
#
#
# Indices 1 2 3 4 5 6 
#
# 1 49.4956 4.7512 -15.0570 0.0000 0.0000 0.0000
# 2 4.7512 179.0516 73.3148 0.0000 0.0000 0.0000
# 3 -15.0570 73.3148 136.0671 0.0000 0.0000 0.0000
# 4 0.0000 0.0000 0.0000 46.0931 0.0000 0.0000
# 5 0.0000 0.0000 0.0000 0.0000 25.9468 0.0000
# 6 0.0000 0.0000 0.0000 0.0000 0.0000 6.4325
#
#
#
# Elastic Compliance Matrix: (Units=1/GPa)
#
#
# Indices 1 2 3 4 5 6 
#
# 1 0.021439 -0.001976 0.003437 0.000000 0.000000 0.000000
# 2 -0.001976 0.007348 -0.004178 0.000000 0.000000 0.000000
# 3 0.003437 -0.004178 0.009981 0.000000 0.000000 0.000000
# 4 0.000000 0.000000 0.000000 0.021695 0.000000 0.000000
# 5 0.000000 0.000000 0.000000 0.000000 0.038540 0.000000
# 6 0.000000 0.000000 0.000000 0.000000 0.000000 0.155460
#
#
# Mechanical properties :
#
#
# Convention : Reuss Voigt Hill
#
# Bulk Modulus (GPa) = 29.99929 54.51471 42.25700
# Shear Modulus (GPa) = 18.44957 35.80150 27.12554
#
# Velocity S-wave (km/s) = 2.93983 4.09524 3.56466
# Velocity P-wave (km/s) = 5.05731 6.92086 6.06114
#
# Compressibility (1/GPa) = 0.03333412
#
# Stress axis : x y z
#
# Youngs Moduli (GPa) = 46.64361 136.08868 100.19200
#
# Poissons Ratio (x) = 0.26896 -0.34439
# Poissons Ratio (y) = 0.09218 0.41860
# Poissons Ratio (z) = -0.16033 0.56858
#
# Static dielectric constant tensor:
#      x y z
#    x 1.814950 0.000000 0.000000 
#    y 0.000000 1.825500 0.000000 
#    z 0.000000 0.000000 1.730180 
# 
# From -- ./inp_files/31747.got.cif
#   From: 2010.05.17/outbox.cif.g08.bks.cpg/sg51_16_cif.got.tgz:31747.got - 2010.06.03 11:52:47.
