data_PCOD9404999
_publ_section_title
;
Structure prediction by ZEFSAII (Michael W. Deem and Ramdas Pophale) SiO2 
 PCOD9404999
Probable space group: P M M A
;
_chemical_formula_sum "Si O2"
_cell_formula_units_Z 44
_cell_length_a 8.404932
_cell_length_b 28.556759
_cell_length_c 10.125623
_cell_angle_alpha 90.000000
_cell_angle_beta 90.000000
_cell_angle_gamma 90.000000
_cell_volume 2430.327909
_symmetry_space_group_name_H-M "P M M A"
_symmetry_group_IT_number 51
_symmetry_cell_setting 'orthorhombic'
loop_
_space_group_symop_operation_xyz
x,y,z
1/2-x,-y,z
1/2+x,-y,-z
-x,y,-z
-x,-y,-z
1/2+x,y,-z
1/2-x,y,z
x,-y,z
loop_
_atom_site_type_symbol
_atom_site_label
_atom_site_fract_x
_atom_site_fract_y
_atom_site_fract_z
Si Si1 0.057711 0.553086 0.851985
Si Si2 0.059027 0.077424 0.853133
Si Si3 0.057705 0.631762 0.648432
Si Si4 0.442024 0.814878 0.854848
Si Si5 0.057777 0.737594 0.648135
Si Si6 0.060888 0.000000 0.349047
O O1 0.250000 0.553657 0.851736
O O2 0.006490 0.500000 0.817243
O O3 0.000821 0.592210 0.749535
O O4 0.000000 0.562971 0.000000
O O5 0.250000 0.075436 0.854170
O O6 0.006913 0.131371 0.830969
O O7 0.997114 0.044378 0.736995
O O8 0.000000 0.063324 0.000000
O O9 0.250000 0.631122 0.648458
O O10 0.006733 0.684704 0.685290
O O11 0.000000 0.622594 0.500000
O O12 0.250000 0.814801 0.853608
O O13 0.499397 0.777658 0.747312
O O14 0.500000 0.801359 0.000000
O O15 0.250000 0.738170 0.648844
O O16 0.000000 0.746543 0.500000
O O17 0.000000 0.000000 0.500000
O O18 0.250000 0.000000 0.352949
#
# Coordination Sequence:
#
# PCOD9404999 Si02
#       6
#     8   8   8   8   8   4
#     4   9  18  32  48  68  95 126 160 200 246 294
#     4  10  20  37  58  80 106 138 173 209 251 300
#     4   9  18  32  49  69  96 128 163 203 245 292
#     4   9  19  34  53  77 104 132 166 206 246 292
#     4   9  18  33  50  71  99 131 165 202 246 294
#     4  12  25  40  57  80 108 138 172 212 255 300
#
# _framework density 18.104552999999999
#
# number of rings (size 3 to 8) (size 9 to 14) (size 15 to 20)
#    0.000    2.545    0.000    1.636    0.000    4.000 
#    0.000    1.818    0.000    0.000    0.000    0.000 
#    0.000    0.000    0.000    0.000    0.000    0.000 
#
# Total GULP energy -245436.631151 kJ/mol
# GULP energy per Si atom -5578.105253 kJ/mol
# Density = 1.806335 g / cm^3
# Si number density = 18.104553 Si / 1000 Ang^3
#
#
#
# Elastic Constant Matrix: (Units=GPa)
#
#
# Indices 1 2 3 4 5 6 
#
# 1 23.7672 26.2460 26.9842 0.0000 0.0000 0.0000
# 2 26.2460 153.2120 133.5030 0.0000 0.0000 0.0000
# 3 26.9842 133.5030 157.8305 0.0000 0.0000 0.0000
# 4 0.0000 0.0000 0.0000 55.7654 0.0000 0.0000
# 5 0.0000 0.0000 0.0000 0.0000 33.6850 0.0000
# 6 0.0000 0.0000 0.0000 0.0000 0.0000 -224.1526
#
#
#
# Elastic Compliance Matrix: (Units=1/GPa)
#
#
# Indices 1 2 3 4 5 6 
#
# 1 0.053013 -0.004502 -0.005256 0.000000 0.000000 0.000000
# 2 -0.004502 0.025204 -0.020550 0.000000 0.000000 0.000000
# 3 -0.005256 -0.020550 0.024617 0.000000 0.000000 0.000000
# 4 0.000000 0.000000 0.000000 0.017932 0.000000 0.000000
# 5 0.000000 0.000000 0.000000 0.000000 0.029687 0.000000
# 6 0.000000 0.000000 0.000000 0.000000 0.000000 -0.004461
#
#
# Mechanical properties :
#
#
# Convention : Reuss Voigt Hill
#
# Bulk Modulus (GPa) = 23.68557 78.69732 51.19145
# Shear Modulus (GPa) = 22.65723 -17.06868 2.79428
#
# Velocity S-wave (km/s) = 3.54144 -3.07381 1.24369
# Velocity P-wave (km/s) = 5.46201 5.56461 5.51355
#
# Compressibility (1/GPa) = 0.04221980
#
# Stress axis : x y z
#
# Youngs Moduli (GPa) = 18.86319 39.67569 40.62275
#
# Poissons Ratio (x) = 0.17861 0.21350
# Poissons Ratio (y) = 0.08492 0.83479
# Poissons Ratio (z) = 0.09914 0.81533
#
# Static dielectric constant tensor:
#      x y z
#    x 1.616130 0.000000 0.000000 
#    y 0.000000 1.644850 0.000000 
#    z 0.000000 0.000000 1.576960 
# 
# From -- ./inp_files/5834.got.cif
#   From: 2010.05.17/outbox.cif.g08.bks.cpg/sg51_3_cif.got.tgz:5834.got - 2010.06.03 11:52:47.
