data_PCOD9404026
_publ_section_title
;
Structure prediction by ZEFSAII (Michael W. Deem and Ramdas Pophale) SiO2 
 PCOD9404026
Probable space group: P M M A
;
_chemical_formula_sum "Si O2"
_cell_formula_units_Z 56
_cell_length_a 8.985688
_cell_length_b 14.571385
_cell_length_c 24.251621
_cell_angle_alpha 90.000000
_cell_angle_beta 90.000000
_cell_angle_gamma 90.000000
_cell_volume 3175.359788
_symmetry_space_group_name_H-M "P M M A"
_symmetry_group_IT_number 51
_symmetry_cell_setting 'orthorhombic'
loop_
_space_group_symop_operation_xyz
x,y,z
1/2-x,-y,z
1/2+x,-y,-z
-x,y,-z
-x,-y,-z
1/2+x,y,-z
1/2-x,y,z
x,-y,z
loop_
_atom_site_type_symbol
_atom_site_label
_atom_site_fract_x
_atom_site_fract_y
_atom_site_fract_z
Si Si1 0.071606 0.761323 0.355825
Si Si2 0.422619 0.889763 0.557554
Si Si3 0.427728 0.750491 0.059719
Si Si4 0.071497 0.394121 0.442113
Si Si5 0.428715 0.893178 0.858847
Si Si6 0.571325 0.606844 0.845384
Si Si7 0.072183 0.250702 0.763910
O O1 0.250000 0.766079 0.352193
O O2 0.030052 0.671432 0.391756
O O3 0.008134 0.845026 0.391630
O O4 0.001686 0.758295 0.295520
O O5 0.500000 0.863120 0.500000
O O6 0.250000 0.861101 0.557320
O O7 0.428030 0.000000 0.561310
O O8 0.250000 0.757407 0.055032
O O9 0.491387 0.838879 0.091928
O O10 0.463229 0.663020 0.098724
O O11 0.500000 0.741883 0.000000
O O12 0.250000 0.390499 0.447892
O O13 0.027920 0.500000 0.432137
O O14 0.000000 0.364731 0.500000
O O15 0.250000 0.887744 0.866892
O O16 0.463383 0.836850 0.802990
O O17 0.470474 0.000000 0.855705
O O18 0.750000 0.612643 0.837058
O O19 0.530184 0.500000 0.848566
O O20 0.490560 0.660959 0.796311
O O21 0.250000 0.256609 0.758827
#
# Coordination Sequence:
#
# PCOD9404026 Si02
#       7
#     8   8   8   8   8   8   8
#     4  11  22  35  54  79 107 141 178 217 265 320
#     4  10  21  37  56  78 106 139 175 219 271 325
#     4  10  20  34  54  82 113 142 175 216 260 309
#     4   9  19  35  53  74 101 133 169 210 258 311
#     4   9  19  37  58  77 102 139 178 217 264 313
#     4   9  19  37  58  78 105 143 182 220 265 314
#     4  10  21  36  54  79 108 137 176 224 269 316
#
# _framework density 17.635797
#
# number of rings (size 3 to 8) (size 9 to 14) (size 15 to 20)
#    0.000    2.286    0.000    2.143    0.000    6.571 
#    0.000    2.857    0.000    0.000    0.000    0.000 
#    0.000    0.000    0.000    0.000    0.000    0.000 
#
# Total GULP energy -312619.221261 kJ/mol
# GULP energy per Si atom -5582.486094 kJ/mol
# Density = 1.759566 g / cm^3
# Si number density = 17.635797 Si / 1000 Ang^3
#
#
#
# Elastic Constant Matrix: (Units=GPa)
#
#
# Indices 1 2 3 4 5 6 
#
# 1 59.3636 52.9219 73.8770 0.0000 0.0000 0.0000
# 2 52.9219 125.4448 74.1578 0.0000 0.0000 0.0000
# 3 73.8770 74.1578 180.1104 0.0000 0.0000 0.0000
# 4 0.0000 0.0000 0.0000 13.7846 0.0000 0.0000
# 5 0.0000 0.0000 0.0000 0.0000 35.4448 0.0000
# 6 0.0000 0.0000 0.0000 0.0000 0.0000 19.8479
#
#
#
# Elastic Compliance Matrix: (Units=1/GPa)
#
#
# Indices 1 2 3 4 5 6 
#
# 1 0.042149 -0.009994 -0.013174 0.000000 0.000000 0.000000
# 2 -0.009994 0.012906 -0.001214 0.000000 0.000000 0.000000
# 3 -0.013174 -0.001214 0.011456 0.000000 0.000000 0.000000
# 4 0.000000 0.000000 0.000000 0.072545 0.000000 0.000000
# 5 0.000000 0.000000 0.000000 0.000000 0.028213 0.000000
# 6 0.000000 0.000000 0.000000 0.000000 0.000000 0.050383
#
#
# Mechanical properties :
#
#
# Convention : Reuss Voigt Hill
#
# Bulk Modulus (GPa) = 56.34919 85.20359 70.77639
# Shear Modulus (GPa) = 18.35995 24.74625 21.55310
#
# Velocity S-wave (km/s) = 3.23005 3.74997 3.49968
# Velocity P-wave (km/s) = 6.77731 8.19558 7.51995
#
# Compressibility (1/GPa) = 0.01774648
#
# Stress axis : x y z
#
# Youngs Moduli (GPa) = 23.72512 77.48474 87.29208
#
# Poissons Ratio (x) = 0.77438 1.14997
# Poissons Ratio (y) = 0.23711 0.10602
# Poissons Ratio (z) = 0.31255 0.09410
#
# Static dielectric constant tensor:
#      x y z
#    x 1.590830 0.000000 0.000000 
#    y 0.000000 1.602090 0.000000 
#    z 0.000000 0.000000 1.561390 
# 
# From -- ./inp_files/31876.got.cif
#   From: 2010.05.17/outbox.cif.g08.bks.cpg/sg51_16_cif.got.tgz:31876.got - 2010.06.03 11:52:47.
