data_PCOD9404740
_publ_section_title
;
Structure prediction by ZEFSAII (Michael W. Deem and Ramdas Pophale) SiO2 
 PCOD9404740
Probable space group: P M M A
;
_chemical_formula_sum "Si O2"
_cell_formula_units_Z 48
_cell_length_a 18.997357
_cell_length_b 14.482313
_cell_length_c 9.955420
_cell_angle_alpha 90.000000
_cell_angle_beta 90.000000
_cell_angle_gamma 90.000000
_cell_volume 2738.991600
_symmetry_space_group_name_H-M "P M M A"
_symmetry_group_IT_number 51
_symmetry_cell_setting 'orthorhombic'
loop_
_space_group_symop_operation_xyz
x,y,z
1/2-x,-y,z
1/2+x,-y,-z
-x,y,-z
-x,-y,-z
1/2+x,y,-z
1/2-x,y,z
x,-y,z
loop_
_atom_site_type_symbol
_atom_site_label
_atom_site_fract_x
_atom_site_fract_y
_atom_site_fract_z
Si Si1 0.930188 0.395117 0.909505
Si Si2 0.084814 0.800312 0.490731
Si Si3 0.828814 0.108143 0.736375
Si Si4 0.665408 0.109407 0.260780
Si Si5 0.929408 0.397627 0.589916
Si Si6 0.169190 0.769029 0.998356
O O1 0.902531 0.500000 0.922945
O O2 0.944092 0.381523 0.749218
O O3 0.877835 0.318702 0.966555
O O4 0.000000 0.389231 0.000000
O O5 0.111960 0.857413 0.363784
O O6 0.121507 0.846567 0.618277
O O7 0.108340 0.693736 0.466136
O O8 0.000000 0.802058 0.500000
O O9 0.750000 0.123807 0.677483
O O10 0.835495 0.000000 0.762825
O O11 0.832961 0.164284 0.873288
O O12 0.750000 0.116708 0.283832
O O13 0.647735 0.169522 0.129202
O O14 0.650100 0.000000 0.244821
O O15 0.895558 0.500000 0.578750
O O16 0.000000 0.402333 0.500000
O O17 0.250000 0.739709 0.977150
#
# Coordination Sequence:
#
# PCOD9404740 Si02
#       6
#     8   8   8   8   8   8
#     4  10  21  37  60  87 114 148 187 226 278 339
#     4  11  22  35  56  86 112 144 183 234 281 326
#     4  10  20  36  57  79 108 147 189 228 273 334
#     4  10  22  40  59  79 110 152 191 228 277 337
#     4   9  19  36  56  82 113 147 184 223 273 331
#     4  10  21  37  58  83 111 145 188 234 279 325
#
# _framework density 17.524698000000001
#
# number of rings (size 3 to 8) (size 9 to 14) (size 15 to 20)
#    0.000    2.000    1.667    1.500    4.667    5.000 
#    0.000    0.000    0.000    6.000    0.000    0.000 
#    0.000    0.000    0.000    0.000    0.000    0.000 
#
# Total GULP energy -267551.872787 kJ/mol
# GULP energy per Si atom -5573.997350 kJ/mol
# Density = 1.748481 g / cm^3
# Si number density = 17.524698 Si / 1000 Ang^3
#
#
#
# Elastic Constant Matrix: (Units=GPa)
#
#
# Indices 1 2 3 4 5 6 
#
# 1 36.4407 55.2769 38.0703 0.0000 0.0000 0.0000
# 2 55.2769 162.5079 61.3291 0.0000 0.0000 0.0000
# 3 38.0703 61.3291 111.1242 0.0000 0.0000 0.0000
# 4 0.0000 0.0000 0.0000 33.2924 0.0000 0.0000
# 5 0.0000 0.0000 0.0000 0.0000 -3.0025 0.0000
# 6 0.0000 0.0000 0.0000 0.0000 0.0000 43.3433
#
#
#
# Elastic Compliance Matrix: (Units=1/GPa)
#
#
# Indices 1 2 3 4 5 6 
#
# 1 0.070067 -0.018661 -0.013706 0.000000 0.000000 0.000000
# 2 -0.018661 0.012742 -0.000639 0.000000 0.000000 0.000000
# 3 -0.013706 -0.000639 0.014047 0.000000 0.000000 0.000000
# 4 0.000000 0.000000 0.000000 0.030037 0.000000 0.000000
# 5 0.000000 0.000000 0.000000 0.000000 -0.333055 0.000000
# 6 0.000000 0.000000 0.000000 0.000000 0.000000 0.023072
#
#
# Mechanical properties :
#
#
# Convention : Reuss Voigt Hill
#
# Bulk Modulus (GPa) = 32.42022 68.82504 50.62263
# Shear Modulus (GPa) = -46.81803 25.08640 -10.86582
#
# Velocity S-wave (km/s) = -5.17431 3.78761 -2.49274
# Velocity P-wave (km/s) = 4.14223 7.64764 4.54578
#
# Compressibility (1/GPa) = 0.03084495
#
# Stress axis : x y z
#
# Youngs Moduli (GPa) = 14.27205 78.47865 71.18837
#
# Poissons Ratio (x) = 1.46448 0.97568
# Poissons Ratio (y) = 0.26633 0.04552
# Poissons Ratio (z) = 0.19561 0.05018
#
# Static dielectric constant tensor:
#      x y z
#    x 1.072140 0.000000 0.000000 
#    y 0.000000 1.608550 0.000000 
#    z 0.000000 0.000000 1.643450 
# 
# From -- ./inp_files/9573.got.cif
#   From: 2010.05.17/outbox.cif.g08.bks.cpg/sg51_5_cif.got.tgz:9573.got - 2010.06.03 11:52:47.
