data_PCOD9404446
_publ_section_title
;
Structure prediction by ZEFSAII (Michael W. Deem and Ramdas Pophale) SiO2 
 PCOD9404446
Probable space group: P M M A
;
_chemical_formula_sum "Si O2"
_cell_formula_units_Z 48
_cell_length_a 18.439352
_cell_length_b 7.869810
_cell_length_c 15.958497
_cell_angle_alpha 90.000000
_cell_angle_beta 90.000000
_cell_angle_gamma 90.000000
_cell_volume 2315.804474
_symmetry_space_group_name_H-M "P M M A"
_symmetry_group_IT_number 51
_symmetry_cell_setting 'orthorhombic'
loop_
_space_group_symop_operation_xyz
x,y,z
1/2-x,-y,z
1/2+x,-y,-z
-x,y,-z
-x,-y,-z
1/2+x,y,-z
1/2-x,y,z
x,-y,z
loop_
_atom_site_type_symbol
_atom_site_label
_atom_site_fract_x
_atom_site_fract_y
_atom_site_fract_z
Si Si1 0.333421 0.205329 0.341912
Si Si2 0.935999 0.206498 0.139524
Si Si3 0.170257 0.198520 0.002332
Si Si4 0.661683 0.196680 0.476650
Si Si5 0.333563 0.792134 0.706422
Si Si6 0.399379 0.695508 0.168009
O O1 0.250000 0.262240 0.328497
O O2 0.359666 0.270668 0.433101
O O3 0.381037 0.252611 0.262564
O O4 0.331774 0.000000 0.347781
O O5 0.886944 0.255841 0.219215
O O6 0.016596 0.275037 0.148006
O O7 0.942220 0.000000 0.137795
O O8 0.893442 0.267350 0.056746
O O9 0.250000 0.274563 0.988261
O O10 0.148109 0.207985 0.099014
O O11 0.175148 0.000000 0.979041
O O12 0.750000 0.194810 0.477735
O O13 0.642327 0.270432 0.385901
O O14 0.637032 0.000000 0.475737
O O15 0.250000 0.740180 0.721815
O O16 0.332798 0.000000 0.703242
O O17 0.380626 0.500000 0.157522
#
# Coordination Sequence:
#
# PCOD9404446 Si02
#       6
#     8   8   8   8   8   8
#     4   9  17  32  55  79 102 132 172 216 259 302
#     4  10  20  35  56  80 106 136 167 203 252 307
#     4  10  21  38  60  83 103 126 163 211 259 307
#     4   7  11  22  45  78 108 129 157 206 261 303
#     4   8  13  25  50  83 110 129 160 210 260 304
#     4  12  25  37  50  72 105 143 177 210 251 298
#
# _framework density 20.727136999999999
#
# number of rings (size 3 to 8) (size 9 to 14) (size 15 to 20)
#    0.000    2.667    0.000    5.000    0.000    7.333 
#    0.000    0.833    0.000    7.500    0.000    2.333 
#    0.000    0.000    0.000    0.000    0.000    0.000 
#
# Total GULP energy -267713.173576 kJ/mol
# GULP energy per Si atom -5577.357783 kJ/mol
# Density = 2.067996 g / cm^3
# Si number density = 20.727137 Si / 1000 Ang^3
#
#
#
# Elastic Constant Matrix: (Units=GPa)
#
#
# Indices 1 2 3 4 5 6 
#
# 1 40.7874 -4.0121 -3.8768 0.0000 0.0000 0.0000
# 2 -4.0121 23.4476 -8.1409 0.0000 0.0000 0.0000
# 3 -3.8768 -8.1409 72.5476 0.0000 0.0000 0.0000
# 4 0.0000 0.0000 0.0000 -23.4947 0.0000 0.0000
# 5 0.0000 0.0000 0.0000 0.0000 -42.2231 0.0000
# 6 0.0000 0.0000 0.0000 0.0000 0.0000 311.1693
#
#
#
# Elastic Compliance Matrix: (Units=1/GPa)
#
#
# Indices 1 2 3 4 5 6 
#
# 1 0.025187 0.004971 0.001904 0.000000 0.000000 0.000000
# 2 0.004971 0.045358 0.005355 0.000000 0.000000 0.000000
# 3 0.001904 0.005355 0.014487 0.000000 0.000000 0.000000
# 4 0.000000 0.000000 0.000000 -0.042563 0.000000 0.000000
# 5 0.000000 0.000000 0.000000 0.000000 -0.023684 0.000000
# 6 0.000000 0.000000 0.000000 0.000000 0.000000 0.003214
#
#
# Mechanical properties :
#
#
# Convention : Reuss Voigt Hill
#
# Bulk Modulus (GPa) = 9.13306 11.63588 10.38447
# Shear Modulus (GPa) = 146.90002 59.27781 103.08891
#
# Velocity S-wave (km/s) = 8.42776 5.35362 7.06004
# Velocity P-wave (km/s) = 9.95584 6.62125 8.45458
#
# Compressibility (1/GPa) = 0.10949233
#
# Stress axis : x y z
#
# Youngs Moduli (GPa) = 39.70260 22.04670 69.02861
#
# Poissons Ratio (x) = -0.10959 -0.13141
# Poissons Ratio (y) = -0.19735 -0.36968
# Poissons Ratio (z) = -0.07558 -0.11807
#
# Static dielectric constant tensor:
#      x y z
#    x 1.706770 0.000000 0.000000 
#    y 0.000000 1.755400 0.000000 
#    z 0.000000 0.000000 1.777740 
# 
# From -- ./inp_files/24746.got.cif
#   From: 2010.05.17/outbox.cif.g08.bks.cpg/sg51_13_cif.got.tgz:24746.got - 2010.06.03 11:52:47.
