data_PCOD9404784
_publ_section_title
;
Structure prediction by ZEFSAII (Michael W. Deem and Ramdas Pophale) SiO2 
 PCOD9404784
Probable space group: P M M A
;
_chemical_formula_sum "Si O2"
_cell_formula_units_Z 56
_cell_length_a 19.637031
_cell_length_b 14.626140
_cell_length_c 10.288926
_cell_angle_alpha 90.000000
_cell_angle_beta 90.000000
_cell_angle_gamma 90.000000
_cell_volume 2955.123228
_symmetry_space_group_name_H-M "P M M A"
_symmetry_group_IT_number 51
_symmetry_cell_setting 'orthorhombic'
loop_
_space_group_symop_operation_xyz
x,y,z
1/2-x,-y,z
1/2+x,-y,-z
-x,y,-z
-x,-y,-z
1/2+x,y,-z
1/2-x,y,z
x,-y,z
loop_
_atom_site_type_symbol
_atom_site_label
_atom_site_fract_x
_atom_site_fract_y
_atom_site_fract_z
Si Si1 0.828343 0.891028 0.142759
Si Si2 0.672903 0.394864 0.573417
Si Si3 0.124371 0.398815 0.713396
Si Si4 0.330783 0.208378 0.124693
Si Si5 0.409527 0.216403 0.371588
Si Si6 0.432274 0.206770 0.665386
Si Si7 0.169405 0.399328 0.008869
O O1 0.750000 0.860710 0.174113
O O2 0.884780 0.846422 0.234639
O O3 0.830472 0.000000 0.152203
O O4 0.842898 0.857906 0.996620
O O5 0.750000 0.369847 0.615811
O O6 0.659945 0.500000 0.613531
O O7 0.671015 0.393951 0.415468
O O8 0.616644 0.322614 0.620897
O O9 0.092483 0.500000 0.711484
O O10 0.074823 0.314415 0.695288
O O11 0.160128 0.388524 0.853072
O O12 0.250000 0.215013 0.141270
O O13 0.363380 0.175793 0.258387
O O14 0.357554 0.309487 0.081651
O O15 0.403657 0.185980 0.521142
O O16 0.487004 0.193539 0.334157
O O17 0.250000 0.401838 0.034322
O O18 0.141096 0.500000 0.044534
#
# Coordination Sequence:
#
# PCOD9404784 Si02
#       7
#     8   8   8   8   8   8   8
#     4  10  22  42  67  90 110 138 184 240 297 357
#     4   9  17  29  49  78 113 157 206 247 282 328
#     4   9  16  28  49  78 111 150 195 239 279 325
#     4  10  20  36  57  84 116 148 183 235 291 340
#     4  10  22  36  54  82 120 158 193 235 285 341
#     4  10  21  39  58  83 117 157 198 236 282 339
#     4   9  16  27  47  77 111 145 182 228 282 333
#
# _framework density 18.950140000000001
#
# number of rings (size 3 to 8) (size 9 to 14) (size 15 to 20)
#    0.000    2.429    1.429    0.857    0.000    6.286 
#    0.000    7.857    0.000    3.429    0.000    0.000 
#    0.000    0.000    0.000    0.000    0.000    0.000 
#
# Total GULP energy -311925.881162 kJ/mol
# GULP energy per Si atom -5570.105021 kJ/mol
# Density = 1.890701 g / cm^3
# Si number density = 18.950140 Si / 1000 Ang^3
#
#
#
# Elastic Constant Matrix: (Units=GPa)
#
#
# Indices 1 2 3 4 5 6 
#
# 1 58.4572 31.4936 60.4571 0.0000 0.0000 0.0000
# 2 31.4936 37.6394 32.1471 0.0000 0.0000 0.0000
# 3 60.4571 32.1471 118.3637 0.0000 0.0000 0.0000
# 4 0.0000 0.0000 0.0000 -9.8783 0.0000 0.0000
# 5 0.0000 0.0000 0.0000 0.0000 23.4282 0.0000
# 6 0.0000 0.0000 0.0000 0.0000 0.0000 9.1423
#
#
#
# Elastic Compliance Matrix: (Units=1/GPa)
#
#
# Indices 1 2 3 4 5 6 
#
# 1 0.050717 -0.026445 -0.018722 0.000000 0.000000 0.000000
# 2 -0.026445 0.048381 0.000367 0.000000 0.000000 0.000000
# 3 -0.018722 0.000367 0.017912 0.000000 0.000000 0.000000
# 4 0.000000 0.000000 0.000000 -0.101232 0.000000 0.000000
# 5 0.000000 0.000000 0.000000 0.000000 0.042684 0.000000
# 6 0.000000 0.000000 0.000000 0.000000 0.000000 0.109382
#
#
# Mechanical properties :
#
#
# Convention : Reuss Voigt Hill
#
# Bulk Modulus (GPa) = 36.48398 51.40618 43.94508
# Shear Modulus (GPa) = 18.75614 10.56261 14.65938
#
# Velocity S-wave (km/s) = 3.14946 2.36347 2.78434
# Velocity P-wave (km/s) = 5.70262 5.88506 5.79456
#
# Compressibility (1/GPa) = 0.02740929
#
# Stress axis : x y z
#
# Youngs Moduli (GPa) = 19.71744 20.66916 55.82960
#
# Poissons Ratio (x) = 0.54660 1.04526
# Poissons Ratio (y) = 0.52143 -0.02051
# Poissons Ratio (z) = 0.36916 -0.00759
#
# Static dielectric constant tensor:
#      x y z
#    x 1.631870 0.000000 0.000000 
#    y 0.000000 1.682860 0.000000 
#    z 0.000000 0.000000 1.679730 
# 
# From -- ./inp_files/10994.got.cif
#   From: 2010.05.17/outbox.cif.g08.bks.cpg/sg51_6_cif.got.tgz:10994.got - 2010.06.03 11:52:47.
