data_PCOD9404002
_publ_section_title
;
Structure prediction by ZEFSAII (Michael W. Deem and Ramdas Pophale) SiO2 
 PCOD9404002
Probable space group: P M M A
;
_chemical_formula_sum "Si O2"
_cell_formula_units_Z 48
_cell_length_a 9.252751
_cell_length_b 8.708796
_cell_length_c 31.804518
_cell_angle_alpha 90.000000
_cell_angle_beta 90.000000
_cell_angle_gamma 90.000000
_cell_volume 2562.818266
_symmetry_space_group_name_H-M "P M M A"
_symmetry_group_IT_number 51
_symmetry_cell_setting 'orthorhombic'
loop_
_space_group_symop_operation_xyz
x,y,z
1/2-x,-y,z
1/2+x,-y,-z
-x,y,-z
-x,-y,-z
1/2+x,y,-z
1/2-x,y,z
x,-y,z
loop_
_atom_site_type_symbol
_atom_site_label
_atom_site_fract_x
_atom_site_fract_y
_atom_site_fract_z
Si Si1 0.919956 0.316955 0.131822
Si Si2 0.418356 0.814191 0.373191
Si Si3 0.082047 0.684131 0.707712
Si Si4 0.921863 0.182487 0.042328
Si Si5 0.916811 0.812605 0.457970
Si Si6 0.418062 0.183831 0.211685
O O1 0.750000 0.273997 0.136504
O O2 0.930616 0.500000 0.135771
O O3 0.966734 0.265258 0.085249
O O4 0.012277 0.238229 0.168072
O O5 0.250000 0.769373 0.374012
O O6 0.498328 0.747835 0.332704
O O7 0.499267 0.765429 0.415879
O O8 0.424074 0.000000 0.371168
O O9 0.250000 0.732340 0.706514
O O10 0.076863 0.500000 0.707547
O O11 0.006443 0.744952 0.749772
O O12 0.750000 0.203874 0.037416
O O13 0.949850 0.000000 0.047017
O O14 0.000000 0.236347 0.000000
O O15 0.750000 0.762807 0.457682
O O16 0.000000 0.762568 0.500000
O O17 0.916608 0.000000 0.458366
O O18 0.250000 0.230269 0.214120
O O19 0.425327 0.000000 0.214484
#
# Coordination Sequence:
#
# PCOD9404002 Si02
#       6
#     8   8   8   8   8   8
#     4  10  21  37  57  82 112 146 184 224 269 324
#     4  10  20  34  54  81 111 143 182 226 271 322
#     4  11  24  40  58  81 109 142 180 221 268 324
#     4   9  18  33  53  77 107 144 185 228 272 318
#     4   9  16  27  46  74 108 144 182 226 274 321
#     4  11  24  40  59  84 111 140 178 223 270 322
#
# _framework density 18.729381
#
# number of rings (size 3 to 8) (size 9 to 14) (size 15 to 20)
#    0.000    2.000    0.000    3.500    0.000   11.667 
#    0.000    1.667    0.000    0.500    0.000    0.000 
#    0.000    0.000    0.000    0.000    0.000    0.000 
#
# Total GULP energy -268169.859588 kJ/mol
# GULP energy per Si atom -5586.872075 kJ/mol
# Density = 1.868675 g / cm^3
# Si number density = 18.729381 Si / 1000 Ang^3
#
#
#
# Elastic Constant Matrix: (Units=GPa)
#
#
# Indices 1 2 3 4 5 6 
#
# 1 162.6828 41.0193 107.8261 0.0000 0.0000 0.0000
# 2 41.0193 20.1030 34.4623 0.0000 0.0000 0.0000
# 3 107.8261 34.4623 181.3002 0.0000 0.0000 0.0000
# 4 0.0000 0.0000 0.0000 -63.1897 0.0000 0.0000
# 5 0.0000 0.0000 0.0000 0.0000 43.4624 0.0000
# 6 0.0000 0.0000 0.0000 0.0000 0.0000 15.9861
#
#
#
# Elastic Compliance Matrix: (Units=1/GPa)
#
#
# Indices 1 2 3 4 5 6 
#
# 1 0.014820 -0.022444 -0.004548 0.000000 0.000000 0.000000
# 2 -0.022444 0.107776 -0.007139 0.000000 0.000000 0.000000
# 3 -0.004548 -0.007139 0.009578 0.000000 0.000000 0.000000
# 4 0.000000 0.000000 0.000000 -0.015825 0.000000 0.000000
# 5 0.000000 0.000000 0.000000 0.000000 0.023008 0.000000
# 6 0.000000 0.000000 0.000000 0.000000 0.000000 0.062554
#
#
# Mechanical properties :
#
#
# Convention : Reuss Voigt Hill
#
# Bulk Modulus (GPa) = 15.64606 81.18907 48.41756
# Shear Modulus (GPa) = 17.15401 11.30363 14.22882
#
# Velocity S-wave (km/s) = 3.02965 2.45934 2.75927
# Velocity P-wave (km/s) = 4.53985 7.17684 6.00489
#
# Compressibility (1/GPa) = 0.06391387
#
# Stress axis : x y z
#
# Youngs Moduli (GPa) = 67.47455 9.27847 104.41093
#
# Poissons Ratio (x) = 0.20824 0.47487
# Poissons Ratio (y) = 1.51438 0.74534
# Poissons Ratio (z) = 0.30688 0.06623
#
# Static dielectric constant tensor:
#      x y z
#    x 1.633440 0.000000 0.000000 
#    y 0.000000 1.631990 0.000000 
#    z 0.000000 0.000000 1.610220 
# 
# From -- ./inp_files/37021.got.cif
#   From: 2010.05.17/outbox.cif.g08.bks.cpg/sg51_19_cif.got.tgz:37021.got - 2010.06.03 11:52:47.
