data_PCOD9404699
_publ_section_title
;
Structure prediction by ZEFSAII (Michael W. Deem and Ramdas Pophale) SiO2 
 PCOD9404699
Probable space group: P M M A
;
_chemical_formula_sum "Si O2"
_cell_formula_units_Z 48
_cell_length_a 7.672723
_cell_length_b 17.555489
_cell_length_c 16.182096
_cell_angle_alpha 90.000000
_cell_angle_beta 90.000000
_cell_angle_gamma 90.000000
_cell_volume 2179.702508
_symmetry_space_group_name_H-M "P M M A"
_symmetry_group_IT_number 51
_symmetry_cell_setting 'orthorhombic'
loop_
_space_group_symop_operation_xyz
x,y,z
1/2-x,-y,z
1/2+x,-y,-z
-x,y,-z
-x,-y,-z
1/2+x,y,-z
1/2-x,y,z
x,-y,z
loop_
_atom_site_type_symbol
_atom_site_label
_atom_site_fract_x
_atom_site_fract_y
_atom_site_fract_z
Si Si1 0.459375 0.500000 0.403422
Si Si2 0.959528 0.176602 0.090962
Si Si3 0.450687 0.336206 0.854600
Si Si4 0.542732 0.189583 0.408064
Si Si5 0.459140 0.500000 0.903379
Si Si6 0.046092 0.657760 0.327609
Si Si7 0.536682 0.087611 0.254095
O O1 0.250000 0.500000 0.395660
O O2 0.500000 0.500000 0.500000
O O3 0.524214 0.422536 0.361074
O O4 0.750000 0.180634 0.098715
O O5 0.030139 0.263146 0.100064
O O6 0.021233 0.126966 0.168640
O O7 0.000000 0.146185 0.000000
O O8 0.250000 0.341683 0.883003
O O9 0.529140 0.420159 0.867664
O O10 0.454683 0.318846 0.757289
O O11 0.500000 0.162136 0.500000
O O12 0.750000 0.194128 0.400652
O O13 0.472521 0.274659 0.393132
O O14 0.478207 0.135675 0.333920
O O15 0.250000 0.500000 0.888373
O O16 0.500000 0.500000 0.000000
O O17 0.250000 0.648627 0.308412
O O18 0.750000 0.088271 0.254381
O O19 0.481564 0.000000 0.258509
#
# Coordination Sequence:
#
# PCOD9404699 Si02
#       7
#     4   8   8   8   4   8   8
#     4  10  23  38  52  78 112 148 191 237 281 335
#     4  10  20  36  58  85 116 152 195 236 286 344
#     4  10  20  36  55  80 112 153 195 238 290 348
#     4  11  22  39  62  89 120 154 195 240 289 349
#     4  10  21  34  52  78 114 152 197 243 294 349
#     4  11  22  37  58  84 114 151 196 242 290 341
#     4   9  19  38  62  85 116 157 193 233 291 355
#
# _framework density 22.021353999999999
#
# number of rings (size 3 to 8) (size 9 to 14) (size 15 to 20)
#    0.000    1.833    1.667    2.500    0.000    4.667 
#    0.000    0.000    0.000    3.500    0.000    0.000 
#    0.000    0.000    0.000    0.000    0.000    0.000 
#
# Total GULP energy -268224.891304 kJ/mol
# GULP energy per Si atom -5588.018569 kJ/mol
# Density = 2.197123 g / cm^3
# Si number density = 22.021354 Si / 1000 Ang^3
#
#
#
# Elastic Constant Matrix: (Units=GPa)
#
#
# Indices 1 2 3 4 5 6 
#
# 1 45.9709 9.9067 -9.6664 0.0000 0.0000 0.0000
# 2 9.9067 149.2647 65.2574 0.0000 0.0000 0.0000
# 3 -9.6664 65.2574 153.4995 0.0000 0.0000 0.0000
# 4 0.0000 0.0000 0.0000 12.6046 0.0000 0.0000
# 5 0.0000 0.0000 0.0000 0.0000 28.1394 0.0000
# 6 0.0000 0.0000 0.0000 0.0000 0.0000 -2.1428
#
#
#
# Elastic Compliance Matrix: (Units=1/GPa)
#
#
# Indices 1 2 3 4 5 6 
#
# 1 0.022859 -0.002637 0.002560 0.000000 0.000000 0.000000
# 2 -0.002637 0.008533 -0.003794 0.000000 0.000000 0.000000
# 3 0.002560 -0.003794 0.008289 0.000000 0.000000 0.000000
# 4 0.000000 0.000000 0.000000 0.079336 0.000000 0.000000
# 5 0.000000 0.000000 0.000000 0.000000 0.035537 0.000000
# 6 0.000000 0.000000 0.000000 0.000000 0.000000 -0.466676
#
#
# Mechanical properties :
#
#
# Convention : Reuss Voigt Hill
#
# Bulk Modulus (GPa) = 31.30715 53.30336 42.30526
# Shear Modulus (GPa) = -17.02216 26.60273 4.79028
#
# Velocity S-wave (km/s) = -2.78328 3.47946 1.47649
# Velocity P-wave (km/s) = 1.97958 6.35610 4.70738
#
# Compressibility (1/GPa) = 0.03194159
#
# Stress axis : x y z
#
# Youngs Moduli (GPa) = 43.74553 117.19094 120.64550
#
# Poissons Ratio (x) = 0.30898 -0.30891
# Poissons Ratio (y) = 0.11534 0.45769
# Poissons Ratio (z) = -0.11201 0.44459
#
# Static dielectric constant tensor:
#      x y z
#    x 1.878720 0.000000 0.000000 
#    y 0.000000 1.818520 0.000000 
#    z 0.000000 0.000000 1.771880 
# 
# From -- ./inp_files/21135.got.cif
#   From: 2010.05.17/outbox.cif.g08.bks.cpg/sg51_11_cif.got.tgz:21135.got - 2010.06.03 11:52:47.
