data_PCOD9404000
_publ_section_title
;
Structure prediction by ZEFSAII (Michael W. Deem and Ramdas Pophale) SiO2 
 PCOD9404000
Probable space group: P M M A
;
_chemical_formula_sum "Si O2"
_cell_formula_units_Z 48
_cell_length_a 9.268685
_cell_length_b 7.772726
_cell_length_c 31.823167
_cell_angle_alpha 90.000000
_cell_angle_beta 90.000000
_cell_angle_gamma 90.000000
_cell_volume 2292.634794
_symmetry_space_group_name_H-M "P M M A"
_symmetry_group_IT_number 51
_symmetry_cell_setting 'orthorhombic'
loop_
_space_group_symop_operation_xyz
x,y,z
1/2-x,-y,z
1/2+x,-y,-z
-x,y,-z
-x,-y,-z
1/2+x,y,-z
1/2-x,y,z
x,-y,z
loop_
_atom_site_type_symbol
_atom_site_label
_atom_site_fract_x
_atom_site_fract_y
_atom_site_fract_z
Si Si1 0.914404 0.207147 0.040934
Si Si2 0.085923 0.293478 0.291217
Si Si3 0.585423 0.292782 0.874560
Si Si4 0.086081 0.794719 0.624563
Si Si5 0.916521 0.710815 0.208518
Si Si6 0.413725 0.706310 0.459480
O O1 0.750000 0.272238 0.042319
O O2 0.999963 0.248767 0.083257
O O3 0.907699 0.000000 0.037650
O O4 0.000000 0.271762 0.000000
O O5 0.250000 0.226962 0.292918
O O6 0.094442 0.500000 0.287213
O O7 0.999723 0.256652 0.333701
O O8 0.999425 0.230750 0.250356
O O9 0.750000 0.228235 0.875779
O O10 0.591581 0.500000 0.871765
O O11 0.500006 0.232101 0.833305
O O12 0.250000 0.725564 0.624800
O O13 0.000425 0.739814 0.583089
O O14 0.093878 0.000000 0.624009
O O15 0.750000 0.765465 0.208403
O O16 0.916622 0.500000 0.208598
O O17 0.500000 0.773936 0.500000
O O18 0.250000 0.773656 0.457386
O O19 0.404238 0.500000 0.464139
#
# Coordination Sequence:
#
# PCOD9404000 Si02
#       6
#     8   8   8   8   8   8
#     4  10  21  37  56  77 103 138 179 221 266 318
#     4  10  20  35  57  83 109 140 180 223 267 318
#     4  10  20  34  54  81 111 141 175 218 267 318
#     4  11  24  39  55  79 112 148 184 223 269 319
#     4   9  17  31  53  80 109 141 176 217 266 317
#     4  10  21  38  61  87 112 141 180 224 269 319
#
# _framework density 20.936610999999999
#
# number of rings (size 3 to 8) (size 9 to 14) (size 15 to 20)
#    0.000    2.000    0.000    3.500    0.000   10.000 
#    0.000    0.833    0.000    5.000    0.000    0.000 
#    0.000    0.000    0.000    0.000    0.000    0.000 
#
# Total GULP energy -268310.997461 kJ/mol
# GULP energy per Si atom -5589.812447 kJ/mol
# Density = 2.088896 g / cm^3
# Si number density = 20.936611 Si / 1000 Ang^3
#
#
#
# Elastic Constant Matrix: (Units=GPa)
#
#
# Indices 1 2 3 4 5 6 
#
# 1 271.0794 9.8512 159.7425 0.0000 0.0000 0.0000
# 2 9.8512 28.5704 -1.7397 0.0000 0.0000 0.0000
# 3 159.7425 -1.7397 248.1391 0.0000 0.0000 0.0000
# 4 0.0000 0.0000 0.0000 72.7988 0.0000 0.0000
# 5 0.0000 0.0000 0.0000 0.0000 48.3830 0.0000
# 6 0.0000 0.0000 0.0000 0.0000 0.0000 16.7266
#
#
#
# Elastic Compliance Matrix: (Units=1/GPa)
#
#
# Indices 1 2 3 4 5 6 
#
# 1 0.006097 -0.002342 -0.003941 0.000000 0.000000 0.000000
# 2 -0.002342 0.035916 0.001760 0.000000 0.000000 0.000000
# 3 -0.003941 0.001760 0.006579 0.000000 0.000000 0.000000
# 4 0.000000 0.000000 0.000000 0.013736 0.000000 0.000000
# 5 0.000000 0.000000 0.000000 0.000000 0.020668 0.000000
# 6 0.000000 0.000000 0.000000 0.000000 0.000000 0.059785
#
#
# Mechanical properties :
#
#
# Convention : Reuss Voigt Hill
#
# Bulk Modulus (GPa) = 25.28787 98.16632 61.72710
# Shear Modulus (GPa) = 30.30108 52.91068 41.60588
#
# Velocity S-wave (km/s) = 3.80844 5.03256 4.46267
# Velocity P-wave (km/s) = 5.60745 8.98655 7.49005
#
# Compressibility (1/GPa) = 0.03954464
#
# Stress axis : x y z
#
# Youngs Moduli (GPa) = 164.02847 27.84277 151.98786
#
# Poissons Ratio (x) = 0.06521 0.59900
# Poissons Ratio (y) = 0.38417 -0.26743
# Poissons Ratio (z) = 0.64646 -0.04899
#
# Static dielectric constant tensor:
#      x y z
#    x 1.743200 0.000000 0.000000 
#    y 0.000000 1.776220 0.000000 
#    z 0.000000 0.000000 1.693280 
# 
# From -- ./inp_files/36892.got.cif
#   From: 2010.05.17/outbox.cif.g08.bks.cpg/sg51_19_cif.got.tgz:36892.got - 2010.06.03 11:52:47.
