data_PCOD9404149
_publ_section_title
;
Structure prediction by ZEFSAII (Michael W. Deem and Ramdas Pophale) SiO2 
 PCOD9404149
Probable space group: P M M A
;
_chemical_formula_sum "Si O2"
_cell_formula_units_Z 40
_cell_length_a 18.089700
_cell_length_b 7.848882
_cell_length_c 15.715844
_cell_angle_alpha 90.000000
_cell_angle_beta 90.000000
_cell_angle_gamma 90.000000
_cell_volume 2231.397148
_symmetry_space_group_name_H-M "P M M A"
_symmetry_group_IT_number 51
_symmetry_cell_setting 'orthorhombic'
loop_
_space_group_symop_operation_xyz
x,y,z
1/2-x,-y,z
1/2+x,-y,-z
-x,y,-z
-x,-y,-z
1/2+x,y,-z
1/2-x,y,z
x,-y,z
loop_
_atom_site_type_symbol
_atom_site_label
_atom_site_fract_x
_atom_site_fract_y
_atom_site_fract_z
Si Si1 0.337957 0.500000 0.829758
Si Si2 0.526463 0.794618 0.591767
Si Si3 0.586093 0.809094 0.862377
Si Si4 0.435207 0.798755 0.759715
Si Si5 0.411668 0.500000 0.014232
Si Si6 0.166468 0.701396 0.305939
O O1 0.250000 0.500000 0.827664
O O2 0.371686 0.668323 0.785145
O O3 0.368581 0.500000 0.926019
O O4 0.500000 0.731915 0.500000
O O5 0.470449 0.750439 0.668303
O O6 0.607421 0.734460 0.619984
O O7 0.528869 0.000000 0.589536
O O8 0.502858 0.779816 0.826982
O O9 0.606109 0.666611 0.930161
O O10 0.636992 0.793343 0.778695
O O11 0.590606 0.000000 0.897336
O O12 0.414920 0.000000 0.758345
O O13 0.500000 0.500000 0.000000
O O14 0.250000 0.753040 0.326991
O O15 0.165652 0.500000 0.287331
#
# Coordination Sequence:
#
# PCOD9404149 Si02
#       6
#     4   8   8   8   4   8
#     4  12  26  40  57  82 114 156 197 237 288 334
#     4   9  19  36  60  88 114 150 198 239 282 340
#     4  10  20  36  62  88 110 148 193 231 289 356
#     4   9  19  38  61  84 112 148 192 234 280 344
#     4  12  22  38  60  84 115 148 186 243 288 337
#     4  10  20  34  55  86 124 154 184 236 296 347
#
# _framework density 17.925989000000001
#
# number of rings (size 3 to 8) (size 9 to 14) (size 15 to 20)
#    0.000    2.000    3.000    1.800    4.200    4.400 
#    0.000    1.000    0.000    3.600    0.000    0.000 
#    0.000    0.000    0.000    0.000    0.000    0.000 
#
# Total GULP energy -223301.893710 kJ/mol
# GULP energy per Si atom -5582.547343 kJ/mol
# Density = 1.788519 g / cm^3
# Si number density = 17.925989 Si / 1000 Ang^3
#
#
#
# Elastic Constant Matrix: (Units=GPa)
#
#
# Indices 1 2 3 4 5 6 
#
# 1 150.3851 58.9054 61.7335 0.0000 0.0000 0.0000
# 2 58.9054 94.1445 52.9564 0.0000 0.0000 0.0000
# 3 61.7335 52.9564 88.3383 0.0000 0.0000 0.0000
# 4 0.0000 0.0000 0.0000 26.3887 0.0000 0.0000
# 5 0.0000 0.0000 0.0000 0.0000 15.3595 0.0000
# 6 0.0000 0.0000 0.0000 0.0000 0.0000 -9.6465
#
#
#
# Elastic Compliance Matrix: (Units=1/GPa)
#
#
# Indices 1 2 3 4 5 6 
#
# 1 0.010044 -0.003525 -0.004906 0.000000 0.000000 0.000000
# 2 -0.003525 0.017263 -0.007885 0.000000 0.000000 0.000000
# 3 -0.004906 -0.007885 0.019476 0.000000 0.000000 0.000000
# 4 0.000000 0.000000 0.000000 0.037895 0.000000 0.000000
# 5 0.000000 0.000000 0.000000 0.000000 0.065106 0.000000
# 6 0.000000 0.000000 0.000000 0.000000 0.000000 -0.103664
#
#
# Mechanical properties :
#
#
# Convention : Reuss Voigt Hill
#
# Bulk Modulus (GPa) = 70.67065 75.56205 73.11635
# Shear Modulus (GPa) = 59.90176 17.03850 38.47013
#
# Velocity S-wave (km/s) = 5.78694 3.08635 4.63758
# Velocity P-wave (km/s) = 9.17392 7.41245 8.33982
#
# Compressibility (1/GPa) = 0.01415015
#
# Stress axis : x y z
#
# Youngs Moduli (GPa) = 99.55913 57.92738 51.34586
#
# Poissons Ratio (x) = 0.20419 0.25191
# Poissons Ratio (y) = 0.35093 0.40488
# Poissons Ratio (z) = 0.48846 0.45678
#
# Static dielectric constant tensor:
#      x y z
#    x 1.591760 0.000000 0.000000 
#    y 0.000000 1.628340 0.000000 
#    z 0.000000 0.000000 1.601860 
# 
# From -- ./inp_files/23799.got.cif
#   From: 2010.05.17/outbox.cif.g08.bks.cpg/sg51_12_cif.got.tgz:23799.got - 2010.06.03 11:52:47.
