data_PCOD9404501
_publ_section_title
;
Structure prediction by ZEFSAII (Michael W. Deem and Ramdas Pophale) SiO2 
 PCOD9404501
Probable space group: P M M A
;
_chemical_formula_sum "Si O2"
_cell_formula_units_Z 64
_cell_length_a 28.965191
_cell_length_b 8.293424
_cell_length_c 12.665909
_cell_angle_alpha 90.000000
_cell_angle_beta 90.000000
_cell_angle_gamma 90.000000
_cell_volume 3042.612389
_symmetry_space_group_name_H-M "P M M A"
_symmetry_group_IT_number 51
_symmetry_cell_setting 'orthorhombic'
loop_
_space_group_symop_operation_xyz
x,y,z
1/2-x,-y,z
1/2+x,-y,-z
-x,y,-z
-x,-y,-z
1/2+x,y,-z
1/2-x,y,z
x,-y,z
loop_
_atom_site_type_symbol
_atom_site_label
_atom_site_fract_x
_atom_site_fract_y
_atom_site_fract_z
Si Si1 0.422767 0.189905 0.031274
Si Si2 0.198946 0.191270 0.545350
Si Si3 0.942770 0.305180 0.190140
Si Si4 0.837631 0.305227 0.232446
Si Si5 0.178374 0.312676 0.997901
Si Si6 0.626791 0.313053 0.624857
Si Si7 0.199184 0.812245 0.218913
Si Si8 0.039565 0.695349 0.255844
O O1 0.451160 0.227976 0.925103
O O2 0.376540 0.294187 0.014798
O O3 0.411389 0.000000 0.034095
O O4 0.444901 0.239989 0.141587
O O5 0.250000 0.257443 0.516496
O O6 0.186956 0.242312 0.664058
O O7 0.157450 0.241427 0.468536
O O8 0.201571 0.000000 0.539621
O O9 0.942326 0.500000 0.178150
O O10 0.891775 0.255202 0.228654
O O11 0.985537 0.262821 0.265938
O O12 0.836981 0.500000 0.233432
O O13 0.814021 0.255422 0.121852
O O14 0.191906 0.500000 0.007312
O O15 0.199156 0.213306 0.093669
O O16 0.620838 0.500000 0.599911
O O17 0.658859 0.289862 0.728297
O O18 0.576465 0.245951 0.657101
O O19 0.250000 0.767443 0.259619
O O20 0.191018 0.000000 0.243730
O O21 0.042986 0.500000 0.253322
#
# Coordination Sequence:
#
# PCOD9404501 Si02
#       8
#     8   8   8   8   8   8   8   8
#     4  11  20  30  50  82 120 159 198 240 285 338
#     4  11  25  44  65  87 113 149 193 245 306 363
#     4   9  19  36  57  83 119 159 197 239 288 346
#     4   9  20  39  63  88 115 149 195 246 292 344
#     4  10  20  36  57  83 116 155 196 238 289 350
#     4  11  23  39  62  88 115 152 200 246 290 346
#     4  11  23  37  55  83 120 156 189 236 301 363
#     4  10  20  35  56  83 117 158 199 239 287 346
#
# _framework density 21.034557
#
# number of rings (size 3 to 8) (size 9 to 14) (size 15 to 20)
#    0.000    1.750    1.250    4.125    0.000    9.000 
#    0.000    3.125    0.000    3.750    0.000    0.000 
#    0.000    0.000    0.000    0.000    0.000    0.000 
#
# Total GULP energy -357372.388528 kJ/mol
# GULP energy per Si atom -5583.943571 kJ/mol
# Density = 2.098668 g / cm^3
# Si number density = 21.034557 Si / 1000 Ang^3
#
#
#
# Elastic Constant Matrix: (Units=GPa)
#
#
# Indices 1 2 3 4 5 6 
#
# 1 45.6970 2.0280 2.6505 0.0000 0.0000 0.0000
# 2 2.0280 19.6594 2.5949 0.0000 0.0000 0.0000
# 3 2.6505 2.5949 77.0459 0.0000 0.0000 0.0000
# 4 0.0000 0.0000 0.0000 69.9631 0.0000 0.0000
# 5 0.0000 0.0000 0.0000 0.0000 39.1046 0.0000
# 6 0.0000 0.0000 0.0000 0.0000 0.0000 20.8412
#
#
#
# Elastic Compliance Matrix: (Units=1/GPa)
#
#
# Indices 1 2 3 4 5 6 
#
# 1 0.022020 -0.002181 -0.000684 0.000000 0.000000 0.000000
# 2 -0.002181 0.051309 -0.001653 0.000000 0.000000 0.000000
# 3 -0.000684 -0.001653 0.013058 0.000000 0.000000 0.000000
# 4 0.000000 0.000000 0.000000 0.014293 0.000000 0.000000
# 5 0.000000 0.000000 0.000000 0.000000 0.025572 0.000000
# 6 0.000000 0.000000 0.000000 0.000000 0.000000 0.047982
#
#
# Mechanical properties :
#
#
# Convention : Reuss Voigt Hill
#
# Bulk Modulus (GPa) = 12.92806 17.43878 15.18342
# Shear Modulus (GPa) = 23.91709 34.99038 29.45374
#
# Velocity S-wave (km/s) = 3.37566 4.08299 3.74606
# Velocity P-wave (km/s) = 4.62092 5.52597 5.09358
#
# Compressibility (1/GPa) = 0.07735112
#
# Stress axis : x y z
#
# Youngs Moduli (GPa) = 45.41378 19.48959 76.57860
#
# Poissons Ratio (x) = 0.04251 0.05238
# Poissons Ratio (y) = 0.09905 0.12659
# Poissons Ratio (z) = 0.03106 0.03222
#
# Static dielectric constant tensor:
#      x y z
#    x 1.814360 0.000000 0.000000 
#    y 0.000000 1.715840 0.000000 
#    z 0.000000 0.000000 1.750130 
# 
# From -- ./inp_files/19621.got.cif
#   From: 2010.05.17/outbox.cif.g08.bks.cpg/sg51_10_cif.got.tgz:19621.got - 2010.06.03 11:52:47.
