data_PCOD9404359
_publ_section_title
;
Structure prediction by ZEFSAII (Michael W. Deem and Ramdas Pophale) SiO2 
 PCOD9404359
Probable space group: P M M A
;
_chemical_formula_sum "Si O2"
_cell_formula_units_Z 44
_cell_length_a 8.150000
_cell_length_b 18.581305
_cell_length_c 14.881114
_cell_angle_alpha 90.000000
_cell_angle_beta 90.000000
_cell_angle_gamma 90.000000
_cell_volume 2253.560721
_symmetry_space_group_name_H-M "P M M A"
_symmetry_group_IT_number 51
_symmetry_cell_setting 'orthorhombic'
loop_
_space_group_symop_operation_xyz
x,y,z
1/2-x,-y,z
1/2+x,-y,-z
-x,y,-z
-x,-y,-z
1/2+x,y,-z
1/2-x,y,z
x,-y,z
loop_
_atom_site_type_symbol
_atom_site_label
_atom_site_fract_x
_atom_site_fract_y
_atom_site_fract_z
Si Si1 0.943996 0.500000 0.603398
Si Si2 0.551967 0.641025 0.289620
Si Si3 0.947643 0.313070 0.097671
Si Si4 0.447405 0.853687 0.902529
Si Si5 0.549236 0.919673 0.284691
Si Si6 0.551862 0.217648 0.397182
O O1 0.750000 0.500000 0.603320
O O2 0.000000 0.500000 0.500000
O O3 0.003143 0.429283 0.655830
O O4 0.750000 0.643542 0.287973
O O5 0.495048 0.644498 0.185963
O O6 0.494259 0.713089 0.340766
O O7 0.750000 0.311908 0.099121
O O8 0.004288 0.229587 0.105506
O O9 0.000000 0.340698 0.000000
O O10 0.250000 0.852367 0.900174
O O11 0.502750 0.898659 0.816416
O O12 0.500000 0.881439 0.000000
O O13 0.750000 0.919493 0.285413
O O14 0.494563 0.856403 0.351165
O O15 0.495044 0.000000 0.308769
O O16 0.500000 0.222935 0.500000
O O17 0.750000 0.217763 0.392997
#
# Coordination Sequence:
#
# PCOD9404359 Si02
#       6
#     4   8   8   8   8   8
#     4  12  26  42  61  88 117 144 179 224 276 328
#     4  10  20  38  61  83 112 147 183 224 271 324
#     4   9  17  31  54  82 111 144 182 223 267 318
#     4   9  16  29  49  75 105 140 179 220 265 315
#     4   9  17  31  51  74 104 143 183 221 266 323
#     4  10  20  35  55  78 103 137 183 227 270 323
#
# _framework density 19.524656
#
# number of rings (size 3 to 8) (size 9 to 14) (size 15 to 20)
#    0.000    2.364    1.818    1.364    0.000    3.636 
#    0.000    1.364    0.000    1.091    0.000    0.000 
#    0.000    0.000    0.000    0.000    0.000    0.000 
#
# Total GULP energy -245541.595996 kJ/mol
# GULP energy per Si atom -5580.490818 kJ/mol
# Density = 1.948022 g / cm^3
# Si number density = 19.524656 Si / 1000 Ang^3
#
#
#
# Elastic Constant Matrix: (Units=GPa)
#
#
# Indices 1 2 3 4 5 6 
#
# 1 10.7693 15.2141 18.7250 0.0000 0.0000 0.0000
# 2 15.2141 141.5645 102.8615 0.0000 0.0000 0.0000
# 3 18.7250 102.8615 192.5461 0.0000 0.0000 0.0000
# 4 0.0000 0.0000 0.0000 14.0073 0.0000 0.0000
# 5 0.0000 0.0000 0.0000 0.0000 30.8421 0.0000
# 6 0.0000 0.0000 0.0000 0.0000 0.0000 -4.7713
#
#
#
# Elastic Compliance Matrix: (Units=1/GPa)
#
#
# Indices 1 2 3 4 5 6 
#
# 1 0.115810 -0.006967 -0.007540 0.000000 0.000000 0.000000
# 2 -0.006967 0.011965 -0.005714 0.000000 0.000000 0.000000
# 3 -0.007540 -0.005714 0.008979 0.000000 0.000000 0.000000
# 4 0.000000 0.000000 0.000000 0.071391 0.000000 0.000000
# 5 0.000000 0.000000 0.000000 0.000000 0.032423 0.000000
# 6 0.000000 0.000000 0.000000 0.000000 0.000000 -0.209585
#
#
# Mechanical properties :
#
#
# Convention : Reuss Voigt Hill
#
# Bulk Modulus (GPa) = 10.38306 68.72011 39.55159
# Shear Modulus (GPa) = 48.29453 21.88756 35.09105
#
# Velocity S-wave (km/s) = 4.97884 3.35180 4.24402
# Velocity P-wave (km/s) = 6.19526 7.08889 6.65709
#
# Compressibility (1/GPa) = 0.09631071
#
# Stress axis : x y z
#
# Youngs Moduli (GPa) = 8.63480 83.57960 111.36522
#
# Poissons Ratio (x) = 0.58233 0.83974
# Poissons Ratio (y) = 0.06016 0.63636
# Poissons Ratio (z) = 0.06511 0.47759
#
# Static dielectric constant tensor:
#      x y z
#    x 1.690540 0.000000 0.000000 
#    y 0.000000 1.688110 0.000000 
#    z 0.000000 0.000000 1.653860 
# 
# From -- ./inp_files/20935.got.cif
#   From: 2010.05.17/outbox.cif.g08.bks.cpg/sg51_11_cif.got.tgz:20935.got - 2010.06.03 11:52:47.
