data_PCOD9404471
_publ_section_title
;
Structure prediction by ZEFSAII (Michael W. Deem and Ramdas Pophale) SiO2 
 PCOD9404471
Probable space group: P M M A
;
_chemical_formula_sum "Si O2"
_cell_formula_units_Z 48
_cell_length_a 18.216454
_cell_length_b 7.730750
_cell_length_c 16.057910
_cell_angle_alpha 90.000000
_cell_angle_beta 90.000000
_cell_angle_gamma 90.000000
_cell_volume 2261.384911
_symmetry_space_group_name_H-M "P M M A"
_symmetry_group_IT_number 51
_symmetry_cell_setting 'orthorhombic'
loop_
_space_group_symop_operation_xyz
x,y,z
1/2-x,-y,z
1/2+x,-y,-z
-x,y,-z
-x,-y,-z
1/2+x,y,-z
1/2-x,y,z
x,-y,z
loop_
_atom_site_type_symbol
_atom_site_label
_atom_site_fract_x
_atom_site_fract_y
_atom_site_fract_z
Si Si1 0.906281 0.299945 0.837197
Si Si2 0.571443 0.199621 0.169481
Si Si3 0.333873 0.291314 0.668626
Si Si4 0.334990 0.290027 0.992512
Si Si5 0.164990 0.711752 0.332566
Si Si6 0.415276 0.711753 0.500867
O O1 0.881860 0.500000 0.837340
O O2 0.874840 0.225568 0.751249
O O3 0.994114 0.296434 0.836525
O O4 0.873453 0.225928 0.922625
O O5 0.618084 0.246387 0.250998
O O6 0.620555 0.231552 0.088234
O O7 0.551373 0.000000 0.174031
O O8 0.250000 0.228019 0.675570
O O9 0.330899 0.500000 0.664456
O O10 0.372943 0.230709 0.583880
O O11 0.250000 0.236336 0.989468
O O12 0.336746 0.500000 0.991540
O O13 0.250000 0.761401 0.332254
O O14 0.161997 0.500000 0.333515
O O15 0.124923 0.768691 0.416725
O O16 0.500000 0.765720 0.500000
O O17 0.414583 0.500000 0.501726
#
# Coordination Sequence:
#
# PCOD9404471 Si02
#       6
#     8   8   8   8   8   8
#     4  10  20  36  59  84 110 141 177 219 269 323
#     4  12  25  38  54  78 109 146 186 226 270 318
#     4  10  20  35  56  81 109 143 183 225 269 318
#     4  10  21  38  60  85 111 140 177 221 269 322
#     4   9  16  28  51  84 115 139 171 220 272 321
#     4   9  16  27  48  81 116 144 172 214 269 323
#
# _framework density 21.225930000000002
#
# number of rings (size 3 to 8) (size 9 to 14) (size 15 to 20)
#    0.000    2.000    0.000    4.500    0.000   12.000 
#    0.000    0.000    0.000    6.000    0.000    0.000 
#    0.000    0.000    0.000    0.000    0.000    0.000 
#
# Total GULP energy -268292.184262 kJ/mol
# GULP energy per Si atom -5589.420505 kJ/mol
# Density = 2.117762 g / cm^3
# Si number density = 21.225930 Si / 1000 Ang^3
#
#
#
# Elastic Constant Matrix: (Units=GPa)
#
#
# Indices 1 2 3 4 5 6 
#
# 1 137.1164 -14.7914 97.0302 0.0000 0.0000 0.0000
# 2 -14.7914 34.5321 -3.2613 0.0000 0.0000 0.0000
# 3 97.0302 -3.2613 226.9129 0.0000 0.0000 0.0000
# 4 0.0000 0.0000 0.0000 -45.4891 0.0000 0.0000
# 5 0.0000 0.0000 0.0000 0.0000 48.2411 0.0000
# 6 0.0000 0.0000 0.0000 0.0000 0.0000 -23.4220
#
#
#
# Elastic Compliance Matrix: (Units=1/GPa)
#
#
# Indices 1 2 3 4 5 6 
#
# 1 0.011059 0.004296 -0.004667 0.000000 0.000000 0.000000
# 2 0.004296 0.030667 -0.001396 0.000000 0.000000 0.000000
# 3 -0.004667 -0.001396 0.006383 0.000000 0.000000 0.000000
# 4 0.000000 0.000000 0.000000 -0.021983 0.000000 0.000000
# 5 0.000000 0.000000 0.000000 0.000000 0.020729 0.000000
# 6 0.000000 0.000000 0.000000 0.000000 0.000000 -0.042695
#
#
# Mechanical properties :
#
#
# Convention : Reuss Voigt Hill
#
# Bulk Modulus (GPa) = 22.43445 61.83514 42.13479
# Shear Modulus (GPa) = 221.70020 17.17160 119.43590
#
# Velocity S-wave (km/s) = 10.23106 2.84736 7.50940
# Velocity P-wave (km/s) = 12.25391 6.32496 9.75099
#
# Compressibility (1/GPa) = 0.04457431
#
# Stress axis : x y z
#
# Youngs Moduli (GPa) = 90.42086 32.60835 156.67313
#
# Poissons Ratio (x) = -0.14010 0.73125
# Poissons Ratio (y) = -0.38848 0.21878
# Poissons Ratio (z) = 0.42203 0.04553
#
# Static dielectric constant tensor:
#      x y z
#    x 1.724900 0.000000 0.000000 
#    y 0.000000 1.774780 0.000000 
#    z 0.000000 0.000000 1.731880 
# 
# From -- ./inp_files/24675.got.cif
#   From: 2010.05.17/outbox.cif.g08.bks.cpg/sg51_13_cif.got.tgz:24675.got - 2010.06.03 11:52:47.
