data_PCOD9404226
_publ_section_title
;
Structure prediction by ZEFSAII (Michael W. Deem and Ramdas Pophale) SiO2 
 PCOD9404226
Probable space group: P M M A
;
_chemical_formula_sum "Si O2"
_cell_formula_units_Z 48
_cell_length_a 18.400059
_cell_length_b 8.670110
_cell_length_c 16.216619
_cell_angle_alpha 90.000000
_cell_angle_beta 90.000000
_cell_angle_gamma 90.000000
_cell_volume 2587.045914
_symmetry_space_group_name_H-M "P M M A"
_symmetry_group_IT_number 51
_symmetry_cell_setting 'orthorhombic'
loop_
_space_group_symop_operation_xyz
x,y,z
1/2-x,-y,z
1/2+x,-y,-z
-x,y,-z
-x,-y,-z
1/2+x,y,-z
1/2-x,y,z
x,-y,z
loop_
_atom_site_type_symbol
_atom_site_label
_atom_site_fract_x
_atom_site_fract_y
_atom_site_fract_z
Si Si1 0.603491 0.184323 0.484074
Si Si2 0.109286 0.313509 0.895086
Si Si3 0.750000 0.685055 0.208293
Si Si4 0.834936 0.313819 0.921354
Si Si5 0.975686 0.683715 0.629967
Si Si6 0.250000 0.816104 0.609947
Si Si7 0.536071 0.183885 0.813703
O O1 0.590935 0.265248 0.571690
O O2 0.543437 0.243304 0.419296
O O3 0.679884 0.221568 0.443519
O O4 0.596247 0.000000 0.494185
O O5 0.102809 0.500000 0.889529
O O6 0.176107 0.261859 0.836641
O O7 0.033122 0.242466 0.866699
O O8 0.133163 0.275442 0.988174
O O9 0.750000 0.500000 0.200954
O O10 0.750000 0.732967 0.302747
O O11 0.750000 0.267368 0.915172
O O12 0.837202 0.500000 0.913551
O O13 0.889178 0.240852 0.855175
O O14 0.982694 0.500000 0.631525
O O15 0.970852 0.747873 0.721861
O O16 0.250000 0.000000 0.625802
O O17 0.534695 0.000000 0.810140
#
# Coordination Sequence:
#
# PCOD9404226 Si02
#       7
#     8   8   4   8   8   4   8
#     4  10  20  38  61  86 120 155 187 236 298 356
#     4  10  20  38  62  89 119 154 197 246 297 350
#     4  10  20  34  58  89 120 153 194 245 294 343
#     4  10  21  41  65  87 117 156 199 247 300 352
#     4  11  22  39  61  86 113 152 201 245 289 343
#     4  10  22  36  54  85 120 153 186 225 286 353
#     4  12  25  39  58  88 121 158 201 244 294 354
#
# _framework density 18.553981
#
# number of rings (size 3 to 8) (size 9 to 14) (size 15 to 20)
#    0.000    1.500    0.833    6.000    0.000    7.667 
#    1.500    0.000    0.000    0.000    0.000    0.000 
#    0.000    0.000    0.000    0.000    0.000    0.000 
#
# Total GULP energy -268221.309131 kJ/mol
# GULP energy per Si atom -5587.943940 kJ/mol
# Density = 1.851175 g / cm^3
# Si number density = 18.553981 Si / 1000 Ang^3
#
#
#
# Elastic Constant Matrix: (Units=GPa)
#
#
# Indices 1 2 3 4 5 6 
#
# 1 114.9978 36.0520 72.2965 0.0000 0.0000 0.0000
# 2 36.0520 39.2392 27.9834 0.0000 0.0000 0.0000
# 3 72.2965 27.9834 86.0435 0.0000 0.0000 0.0000
# 4 0.0000 0.0000 0.0000 66.1009 0.0000 0.0000
# 5 0.0000 0.0000 0.0000 0.0000 20.1708 0.0000
# 6 0.0000 0.0000 0.0000 0.0000 0.0000 5.7221
#
#
#
# Elastic Compliance Matrix: (Units=1/GPa)
#
#
# Indices 1 2 3 4 5 6 
#
# 1 0.020394 -0.008485 -0.014376 0.000000 0.000000 0.000000
# 2 -0.008485 0.036711 -0.004810 0.000000 0.000000 0.000000
# 3 -0.014376 -0.004810 0.025265 0.000000 0.000000 0.000000
# 4 0.000000 0.000000 0.000000 0.015128 0.000000 0.000000
# 5 0.000000 0.000000 0.000000 0.000000 0.049577 0.000000
# 6 0.000000 0.000000 0.000000 0.000000 0.000000 0.174760
#
#
# Mechanical properties :
#
#
# Convention : Reuss Voigt Hill
#
# Bulk Modulus (GPa) = 36.99825 56.99378 46.99602
# Shear Modulus (GPa) = 12.94714 25.32866 19.13790
#
# Velocity S-wave (km/s) = 2.64447 3.69878 3.21514
# Velocity P-wave (km/s) = 5.41373 7.00184 6.25837
#
# Compressibility (1/GPa) = 0.02702831
#
# Stress axis : x y z
#
# Youngs Moduli (GPa) = 49.03480 27.24002 39.57990
#
# Poissons Ratio (x) = 0.23113 0.56900
# Poissons Ratio (y) = 0.41606 0.19037
# Poissons Ratio (z) = 0.70492 0.13102
#
# Static dielectric constant tensor:
#      x y z
#    x 1.678400 0.000000 0.000000 
#    y 0.000000 1.626330 0.000000 
#    z 0.000000 0.000000 1.610800 
# 
# From -- ./inp_files/24861.got.cif
#   From: 2010.05.17/outbox.cif.g08.bks.cpg/sg51_13_cif.got.tgz:24861.got - 2010.06.03 11:52:47.
