data_PCOD9404386
_publ_section_title
;
Structure prediction by ZEFSAII (Michael W. Deem and Ramdas Pophale) SiO2 
 PCOD9404386
Probable space group: P M M A
;
_chemical_formula_sum "Si O2"
_cell_formula_units_Z 44
_cell_length_a 8.662760
_cell_length_b 30.040713
_cell_length_c 9.495415
_cell_angle_alpha 90.000000
_cell_angle_beta 90.000000
_cell_angle_gamma 90.000000
_cell_volume 2471.043946
_symmetry_space_group_name_H-M "P M M A"
_symmetry_group_IT_number 51
_symmetry_cell_setting 'orthorhombic'
loop_
_space_group_symop_operation_xyz
x,y,z
1/2-x,-y,z
1/2+x,-y,-z
-x,y,-z
-x,-y,-z
1/2+x,y,-z
1/2-x,y,z
x,-y,z
loop_
_atom_site_type_symbol
_atom_site_label
_atom_site_fract_x
_atom_site_fract_y
_atom_site_fract_z
Si Si1 0.065355 0.230073 0.340255
Si Si2 0.565879 0.679800 0.340959
Si Si3 0.563561 0.049455 0.842628
Si Si4 0.935589 0.419233 0.340606
Si Si5 0.434361 0.500000 0.157690
Si Si6 0.436398 0.132490 0.342143
O O1 0.250000 0.233289 0.345789
O O2 0.021669 0.181417 0.281044
O O3 0.000000 0.229180 0.500000
O O4 0.000729 0.275312 0.272243
O O5 0.500000 0.679024 0.500000
O O6 0.750000 0.683724 0.347045
O O7 0.526706 0.630663 0.284649
O O8 0.750000 0.050925 0.847327
O O9 0.509011 0.090579 0.748402
O O10 0.518962 0.000000 0.789379
O O11 0.500000 0.053788 0.000000
O O12 0.750000 0.423466 0.346005
O O13 0.000000 0.423521 0.500000
O O14 0.005944 0.456963 0.242484
O O15 0.250000 0.500000 0.153975
O O16 0.500000 0.500000 0.000000
O O17 0.500000 0.129343 0.500000
O O18 0.250000 0.131199 0.348650
#
# Coordination Sequence:
#
# PCOD9404386 Si02
#       6
#     8   8   8   8   4   8
#     4   9  15  24  40  63  94 126 155 190 235 285
#     4   9  16  26  44  70  99 128 160 198 238 281
#     4   9  18  33  50  67  90 121 158 199 241 287
#     4  10  20  35  55  80 107 134 168 209 249 290
#     4  12  25  40  57  76 102 136 170 206 251 302
#     4   9  18  30  45  69  98 126 157 195 239 285
#
# _framework density 17.806239000000001
#
# number of rings (size 3 to 8) (size 9 to 14) (size 15 to 20)
#    0.000    2.545    0.000    3.818    0.000    4.000 
#    0.000    0.000    0.000    1.091    0.000    5.091 
#    0.000    0.000    0.000    0.000    0.000    0.000 
#
# Total GULP energy -245095.609802 kJ/mol
# GULP energy per Si atom -5570.354768 kJ/mol
# Density = 1.776571 g / cm^3
# Si number density = 17.806239 Si / 1000 Ang^3
#
#
#
# Elastic Constant Matrix: (Units=GPa)
#
#
# Indices 1 2 3 4 5 6 
#
# 1 55.1613 61.4703 19.8166 0.0000 0.0000 0.0000
# 2 61.4703 235.6076 70.1007 0.0000 0.0000 0.0000
# 3 19.8166 70.1007 47.8838 0.0000 0.0000 0.0000
# 4 0.0000 0.0000 0.0000 -7.6050 0.0000 0.0000
# 5 0.0000 0.0000 0.0000 0.0000 20.3240 0.0000
# 6 0.0000 0.0000 0.0000 0.0000 0.0000 22.1599
#
#
#
# Elastic Compliance Matrix: (Units=1/GPa)
#
#
# Indices 1 2 3 4 5 6 
#
# 1 0.025616 -0.006253 -0.001448 0.000000 0.000000 0.000000
# 2 -0.006253 0.009046 -0.010655 0.000000 0.000000 0.000000
# 3 -0.001448 -0.010655 0.037082 0.000000 0.000000 0.000000
# 4 0.000000 0.000000 0.000000 -0.131492 0.000000 0.000000
# 5 0.000000 0.000000 0.000000 0.000000 0.049203 0.000000
# 6 0.000000 0.000000 0.000000 0.000000 0.000000 0.045126
#
#
# Mechanical properties :
#
#
# Convention : Reuss Voigt Hill
#
# Bulk Modulus (GPa) = 28.54424 71.26980 49.90702
# Shear Modulus (GPa) = 60.26177 19.46012 39.86094
#
# Velocity S-wave (km/s) = 5.82379 3.30946 4.73651
# Velocity P-wave (km/s) = 7.82862 7.39699 7.61586
#
# Compressibility (1/GPa) = 0.03503333
#
# Stress axis : x y z
#
# Youngs Moduli (GPa) = 39.03735 110.54586 26.96703
#
# Poissons Ratio (x) = 0.69121 0.03904
# Poissons Ratio (y) = 0.24409 0.28735
# Poissons Ratio (z) = 0.05651 1.17792
#
# Static dielectric constant tensor:
#      x y z
#    x 1.605530 0.000000 0.000000 
#    y 0.000000 1.691260 0.000000 
#    z 0.000000 0.000000 1.554330 
# 
# From -- ./inp_files/5711.got.cif
#   From: 2010.05.17/outbox.cif.g08.bks.cpg/sg51_3_cif.got.tgz:5711.got - 2010.06.03 11:52:47.
