data_PCOD9404894
_publ_section_title
;
Structure prediction by ZEFSAII (Michael W. Deem and Ramdas Pophale) SiO2 
 PCOD9404894
Probable space group: P M M A
;
_chemical_formula_sum "Si O2"
_cell_formula_units_Z 58
_cell_length_a 25.209257
_cell_length_b 13.125309
_cell_length_c 9.171193
_cell_angle_alpha 90.000000
_cell_angle_beta 90.000000
_cell_angle_gamma 90.000000
_cell_volume 3034.557808
_symmetry_space_group_name_H-M "P M M A"
_symmetry_group_IT_number 51
_symmetry_cell_setting 'orthorhombic'
loop_
_space_group_symop_operation_xyz
x,y,z
1/2-x,-y,z
1/2+x,-y,-z
-x,y,-z
-x,-y,-z
1/2+x,y,-z
1/2-x,y,z
x,-y,z
loop_
_atom_site_type_symbol
_atom_site_label
_atom_site_fract_x
_atom_site_fract_y
_atom_site_fract_z
Si Si1 0.690506 0.112934 0.702706
Si Si2 0.189426 0.689897 0.501642
Si Si3 0.955327 0.802407 0.399354
Si Si4 0.654273 0.837055 0.278366
Si Si5 0.917618 0.613803 0.598026
Si Si6 0.108046 0.882105 0.033640
Si Si7 0.750000 0.000000 0.311289
Si Si8 0.525660 0.282667 0.859199
O O1 0.750000 0.118440 0.766222
O O2 0.685927 0.203894 0.589236
O O3 0.686451 0.000000 0.632980
O O4 0.647817 0.120574 0.829047
O O5 0.250000 0.653955 0.498079
O O6 0.171741 0.725668 0.662795
O O7 0.145571 0.619522 0.427336
O O8 0.900871 0.860625 0.364676
O O9 0.939960 0.701074 0.490949
O O10 0.000000 0.855873 0.500000
O O11 0.981956 0.764963 0.249718
O O12 0.638237 0.842780 0.109453
O O13 0.703131 0.911808 0.304899
O O14 0.936435 0.500000 0.565181
O O15 0.936934 0.647442 0.758259
O O16 0.092557 0.000000 0.008938
O O17 0.059651 0.810324 0.075837
O O18 0.500000 0.335801 0.000000
#
# Coordination Sequence:
#
# PCOD9404894 Si02
#       8
#     8   8   8   8   8   8   2   8
#     4   9  19  31  53  82 118 154 196 240 287 342
#     4  10  20  36  59  88 119 155 197 249 304 354
#     4   9  21  41  63  84 122 156 200 251 309 356
#     4  11  22  36  57  87 121 164 203 247 285 347
#     4  10  22  41  65  91 117 150 197 253 317 374
#     4  11  22  36  56  85 123 164 199 235 290 353
#     4  12  24  36  58  88 126 160 216 244 276 356
#     4  11  21  39  62  87 122 154 199 249 294 364
#
# _framework density 19.113164000000001
#
# number of rings (size 3 to 8) (size 9 to 14) (size 15 to 20)
#    0.000    1.793    4.138    0.000    1.931    3.310 
#    1.241    0.345    0.000    0.000    0.000    0.000 
#    0.000    0.000    0.000    0.000    0.000    0.000 
#
# Total GULP energy -323033.178839 kJ/mol
# GULP energy per Si atom -5569.537566 kJ/mol
# Density = 1.906966 g / cm^3
# Si number density = 19.113164 Si / 1000 Ang^3
#
#
#
# Elastic Constant Matrix: (Units=GPa)
#
#
# Indices 1 2 3 4 5 6 
#
# 1 131.5819 23.5820 34.7029 0.0000 0.0000 0.0000
# 2 23.5820 60.6930 22.0389 0.0000 0.0000 0.0000
# 3 34.7029 22.0389 95.3950 0.0000 0.0000 0.0000
# 4 0.0000 0.0000 0.0000 0.0608 0.0000 0.0000
# 5 0.0000 0.0000 0.0000 0.0000 10.3954 0.0000
# 6 0.0000 0.0000 0.0000 0.0000 0.0000 6.5240
#
#
#
# Elastic Compliance Matrix: (Units=1/GPa)
#
#
# Indices 1 2 3 4 5 6 
#
# 1 0.008726 -0.002443 -0.002610 0.000000 0.000000 0.000000
# 2 -0.002443 0.018669 -0.003424 0.000000 0.000000 0.000000
# 3 -0.002610 -0.003424 0.012223 0.000000 0.000000 0.000000
# 4 0.000000 0.000000 0.000000 16.451260 0.000000 0.000000
# 5 0.000000 0.000000 0.000000 0.000000 0.096196 0.000000
# 6 0.000000 0.000000 0.000000 0.000000 0.000000 0.153279
#
#
# Mechanical properties :
#
#
# Convention : Reuss Voigt Hill
#
# Bulk Modulus (GPa) = 44.12291 49.81307 46.96799
# Shear Modulus (GPa) = 0.29824 17.21912 8.75868
#
# Velocity S-wave (km/s) = 0.39545 3.00476 2.14301
# Velocity P-wave (km/s) = 4.83153 6.17713 5.54530
#
# Compressibility (1/GPa) = 0.02266396
#
# Stress axis : x y z
#
# Youngs Moduli (GPa) = 114.60061 53.56487 81.81061
#
# Poissons Ratio (x) = 0.13084 0.21353
# Poissons Ratio (y) = 0.27993 0.28016
# Poissons Ratio (z) = 0.29911 0.18343
#
# Static dielectric constant tensor:
#      x y z
#    x 1.708830 0.000000 0.000000 
#    y 0.000000 1.633750 0.000000 
#    z 0.000000 0.000000 1.686040 
# 
# From -- ./inp_files/12425.got.cif
#   From: 2010.05.17/outbox.cif.g08.bks.cpg/sg51_7_cif.got.tgz:12425.got - 2010.06.03 11:52:47.
