data_PCOD9404981
_publ_section_title
;
Structure prediction by ZEFSAII (Michael W. Deem and Ramdas Pophale) SiO2 
 PCOD9404981
Probable space group: P M M A
;
_chemical_formula_sum "Si O2"
_cell_formula_units_Z 64
_cell_length_a 21.251204
_cell_length_b 15.315142
_cell_length_c 8.738553
_cell_angle_alpha 90.000000
_cell_angle_beta 90.000000
_cell_angle_gamma 90.000000
_cell_volume 2844.094960
_symmetry_space_group_name_H-M "P M M A"
_symmetry_group_IT_number 51
_symmetry_cell_setting 'orthorhombic'
loop_
_space_group_symop_operation_xyz
x,y,z
1/2-x,-y,z
1/2+x,-y,-z
-x,y,-z
-x,-y,-z
1/2+x,y,-z
1/2-x,y,z
x,-y,z
loop_
_atom_site_type_symbol
_atom_site_label
_atom_site_fract_x
_atom_site_fract_y
_atom_site_fract_z
Si Si1 0.824831 0.732908 0.388912
Si Si2 0.677744 0.410254 0.604693
Si Si3 0.501891 0.749687 0.687794
Si Si4 0.174418 0.903566 0.454774
Si Si5 0.319378 0.634131 0.050144
Si Si6 0.130006 0.812219 0.148842
Si Si7 0.088492 0.602443 0.796922
Si Si8 0.058880 0.901318 0.882569
O O1 0.750000 0.735516 0.362721
O O2 0.844109 0.682318 0.544935
O O3 0.845138 0.831693 0.419932
O O4 0.857273 0.665782 0.274584
O O5 0.750000 0.413253 0.549179
O O6 0.645907 0.500000 0.551072
O O7 0.679594 0.408992 0.784466
O O8 0.500000 0.749542 0.500000
O O9 0.568159 0.767953 0.772728
O O10 0.472993 0.658323 0.751748
O O11 0.459811 0.829326 0.756298
O O12 0.250000 0.906233 0.461902
O O13 0.157082 0.871289 0.284897
O O14 0.148557 0.000000 0.481743
O O15 0.250000 0.614156 0.979512
O O16 0.324678 0.736476 0.088188
O O17 0.383259 0.604707 0.967225
O O18 0.112624 0.866536 0.996680
O O19 0.084092 0.500000 0.754153
O O20 0.070027 0.000000 0.825483
O O21 0.000000 0.905454 0.000000
#
# Coordination Sequence:
#
# PCOD9404981 Si02
#       8
#     8   8   8   8   8   8   8   8
#     4  10  20  37  61  90 126 171 215 267 330 393
#     4   9  17  31  54  86 119 153 203 258 310 377
#     4  11  25  43  64  93 129 173 225 274 323 383
#     4  10  20  36  65 103 135 167 212 266 328 396
#     4  11  22  38  65  97 127 167 216 268 331 395
#     4  11  20  40  66  91 137 175 213 265 327 390
#     4  12  26  44  64  91 129 173 219 275 340 394
#     4   9  19  38  66  93 123 165 214 267 320 377
#
# _framework density 22.502765
#
# number of rings (size 3 to 8) (size 9 to 14) (size 15 to 20)
#    0.000    1.625    2.500    2.625    0.000    3.000 
#    0.000    3.750    0.000    0.000    0.000    0.000 
#    0.000    0.000    0.000    0.000    0.000    0.000 
#
# Total GULP energy -356674.695964 kJ/mol
# GULP energy per Si atom -5573.042124 kJ/mol
# Density = 2.245155 g / cm^3
# Si number density = 22.502765 Si / 1000 Ang^3
#
#
#
# Elastic Constant Matrix: (Units=GPa)
#
#
# Indices 1 2 3 4 5 6 
#
# 1 47.8693 33.8656 23.6637 0.0000 0.0000 0.0000
# 2 33.8656 197.3493 16.3564 0.0000 0.0000 0.0000
# 3 23.6637 16.3564 52.1071 0.0000 0.0000 0.0000
# 4 0.0000 0.0000 0.0000 38.8786 0.0000 0.0000
# 5 0.0000 0.0000 0.0000 0.0000 32.5681 0.0000
# 6 0.0000 0.0000 0.0000 0.0000 0.0000 50.0633
#
#
#
# Elastic Compliance Matrix: (Units=1/GPa)
#
#
# Indices 1 2 3 4 5 6 
#
# 1 0.029863 -0.004107 -0.012272 0.000000 0.000000 0.000000
# 2 -0.004107 0.005767 0.000055 0.000000 0.000000 0.000000
# 3 -0.012272 0.000055 0.024747 0.000000 0.000000 0.000000
# 4 0.000000 0.000000 0.000000 0.025721 0.000000 0.000000
# 5 0.000000 0.000000 0.000000 0.000000 0.030705 0.000000
# 6 0.000000 0.000000 0.000000 0.000000 0.000000 0.019975
#
#
# Mechanical properties :
#
#
# Convention : Reuss Voigt Hill
#
# Bulk Modulus (GPa) = 36.06494 49.45523 42.76009
# Shear Modulus (GPa) = 27.98442 39.19800 33.59121
#
# Velocity S-wave (km/s) = 3.53030 4.17816 3.86782
# Velocity P-wave (km/s) = 5.71656 6.73061 6.24420
#
# Compressibility (1/GPa) = 0.02772776
#
# Stress axis : x y z
#
# Youngs Moduli (GPa) = 33.48645 173.38704 40.40831
#
# Poissons Ratio (x) = 0.71217 0.49591
# Poissons Ratio (y) = 0.13754 -0.00222
# Poissons Ratio (z) = 0.41096 -0.00952
#
# Static dielectric constant tensor:
#      x y z
#    x 1.867670 0.000000 0.000000 
#    y 0.000000 1.889800 0.000000 
#    z 0.000000 0.000000 1.953450 
# 
# From -- ./inp_files/11907.got.cif
#   From: 2010.05.17/outbox.cif.g08.bks.cpg/sg51_6_cif.got.tgz:11907.got - 2010.06.03 11:52:47.
