data_PCOD9404655
_publ_section_title
;
Structure prediction by ZEFSAII (Michael W. Deem and Ramdas Pophale) SiO2 
 PCOD9404655
Probable space group: P M M A
;
_chemical_formula_sum "Si O2"
_cell_formula_units_Z 48
_cell_length_a 9.849730
_cell_length_b 14.191208
_cell_length_c 18.625595
_cell_angle_alpha 90.000000
_cell_angle_beta 90.000000
_cell_angle_gamma 90.000000
_cell_volume 2603.477607
_symmetry_space_group_name_H-M "P M M A"
_symmetry_group_IT_number 51
_symmetry_cell_setting 'orthorhombic'
loop_
_space_group_symop_operation_xyz
x,y,z
1/2-x,-y,z
1/2+x,-y,-z
-x,y,-z
-x,-y,-z
1/2+x,y,-z
1/2-x,y,z
x,-y,z
loop_
_atom_site_type_symbol
_atom_site_label
_atom_site_fract_x
_atom_site_fract_y
_atom_site_fract_z
Si Si1 0.098447 0.887626 0.689285
Si Si2 0.750000 0.111200 0.056073
Si Si3 0.531083 0.799892 0.157439
Si Si4 0.092626 0.606461 0.361235
Si Si5 0.910625 0.802704 0.568617
Si Si6 0.588807 0.392146 0.219894
Si Si7 0.750000 0.111342 0.884254
O O1 0.250000 0.864935 0.660105
O O2 0.086089 0.840617 0.767226
O O3 0.980276 0.851100 0.637442
O O4 0.088770 0.000000 0.697029
O O5 0.878922 0.159695 0.092946
O O6 0.750000 0.000000 0.073747
O O7 0.750000 0.120319 0.970594
O O8 0.541811 0.687540 0.164666
O O9 0.381203 0.838398 0.147145
O O10 0.250000 0.611803 0.336254
O O11 0.070166 0.500000 0.388990
O O12 0.075445 0.690359 0.417505
O O13 0.993053 0.621515 0.294035
O O14 0.750000 0.824535 0.561809
O O15 0.000000 0.830343 0.500000
O O16 0.750000 0.380737 0.232279
O O17 0.564797 0.500000 0.196369
O O18 0.750000 0.000000 0.867040
#
# Coordination Sequence:
#
# PCOD9404655 Si02
#       7
#     8   4   8   8   8   8   4
#     4  11  23  39  61  87 116 154 203 251 299 359
#     4  11  22  42  65  91 126 168 206 249 311 371
#     4  12  22  39  64  93 126 164 205 256 307 361
#     4   9  19  36  58  86 119 154 196 247 303 359
#     4  11  24  40  60  85 120 159 198 249 304 360
#     4  10  20  35  59  91 122 158 205 255 304 359
#     4  11  26  40  61  95 132 164 204 251 307 375
#
# _framework density 18.436879999999999
#
# number of rings (size 3 to 8) (size 9 to 14) (size 15 to 20)
#    0.000    1.333    3.333    2.500    2.333    3.000 
#    0.000    0.000    0.000    3.000    0.000    0.000 
#    0.000    0.000    0.000    0.000    0.000    0.000 
#
# Total GULP energy -268090.910906 kJ/mol
# GULP energy per Si atom -5585.227311 kJ/mol
# Density = 1.839492 g / cm^3
# Si number density = 18.436880 Si / 1000 Ang^3
#
#
#
# Elastic Constant Matrix: (Units=GPa)
#
#
# Indices 1 2 3 4 5 6 
#
# 1 129.7318 48.7957 27.3336 0.0000 0.0000 0.0000
# 2 48.7957 85.9700 28.8024 0.0000 0.0000 0.0000
# 3 27.3336 28.8024 46.0131 0.0000 0.0000 0.0000
# 4 0.0000 0.0000 0.0000 -23.9663 0.0000 0.0000
# 5 0.0000 0.0000 0.0000 0.0000 27.5436 0.0000
# 6 0.0000 0.0000 0.0000 0.0000 0.0000 29.7678
#
#
#
# Elastic Compliance Matrix: (Units=1/GPa)
#
#
# Indices 1 2 3 4 5 6 
#
# 1 0.010130 -0.004724 -0.003060 0.000000 0.000000 0.000000
# 2 -0.004724 0.016922 -0.007786 0.000000 0.000000 0.000000
# 3 -0.003060 -0.007786 0.028425 0.000000 0.000000 0.000000
# 4 0.000000 0.000000 0.000000 -0.041725 0.000000 0.000000
# 5 0.000000 0.000000 0.000000 0.000000 0.036306 0.000000
# 6 0.000000 0.000000 0.000000 0.000000 0.000000 0.033593
#
#
# Mechanical properties :
#
#
# Convention : Reuss Voigt Hill
#
# Bulk Modulus (GPa) = 41.09286 52.39758 46.74522
# Shear Modulus (GPa) = 40.68212 17.12123 28.90167
#
# Velocity S-wave (km/s) = 4.70250 3.05067 3.96359
# Velocity P-wave (km/s) = 7.19871 6.39456 6.80852
#
# Compressibility (1/GPa) = 0.02433513
#
# Stress axis : x y z
#
# Youngs Moduli (GPa) = 98.71699 59.09454 35.18072
#
# Poissons Ratio (x) = 0.27918 0.10766
# Poissons Ratio (y) = 0.46638 0.27392
# Poissons Ratio (z) = 0.30211 0.46011
#
# Static dielectric constant tensor:
#      x y z
#    x 5.294690 0.000000 0.000000 
#    y 0.000000 1.649240 0.000000 
#    z 0.000000 0.000000 1.597280 
# 
# From -- ./inp_files/27647.got.cif
#   From: 2010.05.17/outbox.cif.g08.bks.cpg/sg51_14_cif.got.tgz:27647.got - 2010.06.03 11:52:47.
