data_PCOD9404939
_publ_section_title
;
Structure prediction by ZEFSAII (Michael W. Deem and Ramdas Pophale) SiO2 
 PCOD9404939
Probable space group: P M M A
;
_chemical_formula_sum "Si O2"
_cell_formula_units_Z 56
_cell_length_a 9.391619
_cell_length_b 18.529952
_cell_length_c 15.535715
_cell_angle_alpha 90.000000
_cell_angle_beta 90.000000
_cell_angle_gamma 90.000000
_cell_volume 2703.622211
_symmetry_space_group_name_H-M "P M M A"
_symmetry_group_IT_number 51
_symmetry_cell_setting 'orthorhombic'
loop_
_space_group_symop_operation_xyz
x,y,z
1/2-x,-y,z
1/2+x,-y,-z
-x,y,-z
-x,-y,-z
1/2+x,y,-z
1/2-x,y,z
x,-y,z
loop_
_atom_site_type_symbol
_atom_site_label
_atom_site_fract_x
_atom_site_fract_y
_atom_site_fract_z
Si Si1 0.913844 0.721920 0.083931
Si Si2 0.417997 0.917978 0.261361
Si Si3 0.921897 0.196778 0.589227
Si Si4 0.468005 0.366981 0.381268
Si Si5 0.420791 0.500000 0.909006
Si Si6 0.250000 0.400481 0.533403
Si Si7 0.586495 0.105191 0.084431
Si Si8 0.912484 0.375518 0.813300
O O1 0.750000 0.695699 0.087125
O O2 0.908488 0.807944 0.079206
O O3 0.011862 0.699991 0.164196
O O4 0.000000 0.694712 0.000000
O O5 0.250000 0.907253 0.241261
O O6 0.457016 0.858442 0.333432
O O7 0.507372 0.912681 0.173538
O O8 0.434386 0.000000 0.295520
O O9 0.750000 0.196829 0.577272
O O10 0.966380 0.279346 0.609474
O O11 0.000000 0.176690 0.500000
O O12 0.370013 0.396638 0.456893
O O13 0.624995 0.396561 0.394292
O O14 0.411160 0.386580 0.288047
O O15 0.250000 0.500000 0.916187
O O16 0.482987 0.568298 0.858230
O O17 0.500000 0.500000 0.000000
O O18 0.750000 0.080180 0.084024
O O19 0.500000 0.080649 0.000000
O O20 0.750000 0.379080 0.846075
#
# Coordination Sequence:
#
# PCOD9404939 Si02
#       8
#     8   8   8   8   4   4   8   8
#     4  10  21  37  58  90 123 153 191 245 305 360
#     4  10  23  40  56  78 113 156 204 252 301 364
#     4  11  20  36  59  88 120 159 200 246 307 362
#     4  11  20  37  62  95 125 157 198 251 303 363
#     4  12  28  50  70  93 128 171 213 253 296 351
#     4  10  20  36  60  93 127 158 194 248 308 360
#     4  10  21  38  61  87 116 149 191 245 307 369
#     4  12  24  40  66  94 126 166 208 248 296 356
#
# _framework density 20.712954
#
# number of rings (size 3 to 8) (size 9 to 14) (size 15 to 20)
#    0.000    1.286    2.857    3.214    2.000    4.286 
#    0.000    0.000    0.000    2.571    0.000    0.000 
#    0.000    0.000    0.000    0.000    0.000    0.000 
#
# Total GULP energy -311814.802943 kJ/mol
# GULP energy per Si atom -5568.121481 kJ/mol
# Density = 2.066581 g / cm^3
# Si number density = 20.712954 Si / 1000 Ang^3
#
#
#
# Elastic Constant Matrix: (Units=GPa)
#
#
# Indices 1 2 3 4 5 6 
#
# 1 179.6216 24.8045 43.7628 0.0000 0.0000 0.0000
# 2 24.8045 48.7990 16.6948 0.0000 0.0000 0.0000
# 3 43.7628 16.6948 109.2659 0.0000 0.0000 0.0000
# 4 0.0000 0.0000 0.0000 -102.2583 0.0000 0.0000
# 5 0.0000 0.0000 0.0000 0.0000 40.4998 0.0000
# 6 0.0000 0.0000 0.0000 0.0000 0.0000 14.7699
#
#
#
# Elastic Compliance Matrix: (Units=1/GPa)
#
#
# Indices 1 2 3 4 5 6 
#
# 1 0.006452 -0.002528 -0.002198 0.000000 0.000000 0.000000
# 2 -0.002528 0.022613 -0.002443 0.000000 0.000000 0.000000
# 3 -0.002198 -0.002443 0.010405 0.000000 0.000000 0.000000
# 4 0.000000 0.000000 0.000000 -0.009779 0.000000 0.000000
# 5 0.000000 0.000000 0.000000 0.000000 0.024692 0.000000
# 6 0.000000 0.000000 0.000000 0.000000 0.000000 0.067705
#
#
# Mechanical properties :
#
#
# Convention : Reuss Voigt Hill
#
# Bulk Modulus (GPa) = 39.78710 56.46785 48.12748
# Shear Modulus (GPa) = 34.53002 7.43056 20.98029
#
# Velocity S-wave (km/s) = 4.08741 1.89610 3.18607
# Velocity P-wave (km/s) = 6.44410 5.66700 6.06800
#
# Compressibility (1/GPa) = 0.02513377
#
# Stress axis : x y z
#
# Youngs Moduli (GPa) = 154.99614 44.22302 96.10313
#
# Poissons Ratio (x) = 0.11177 0.21122
# Poissons Ratio (y) = 0.39175 0.23475
# Poissons Ratio (z) = 0.34066 0.10802
#
# Static dielectric constant tensor:
#      x y z
#    x 1.714940 0.000000 0.000000 
#    y 0.000000 1.859200 0.000000 
#    z 0.000000 0.000000 1.722010 
# 
# From -- ./inp_files/21917.got.cif
#   From: 2010.05.17/outbox.cif.g08.bks.cpg/sg51_11_cif.got.tgz:21917.got - 2010.06.03 11:52:47.
