data_PCOD9404136
_publ_section_title
;
Structure prediction by ZEFSAII (Michael W. Deem and Ramdas Pophale) SiO2 
 PCOD9404136
Probable space group: P M M A
;
_chemical_formula_sum "Si O2"
_cell_formula_units_Z 48
_cell_length_a 13.944195
_cell_length_b 17.795329
_cell_length_c 9.430098
_cell_angle_alpha 90.000000
_cell_angle_beta 90.000000
_cell_angle_gamma 90.000000
_cell_volume 2339.999018
_symmetry_space_group_name_H-M "P M M A"
_symmetry_group_IT_number 51
_symmetry_cell_setting 'orthorhombic'
loop_
_space_group_symop_operation_xyz
x,y,z
1/2-x,-y,z
1/2+x,-y,-z
-x,y,-z
-x,-y,-z
1/2+x,y,-z
1/2-x,y,z
x,-y,z
loop_
_atom_site_type_symbol
_atom_site_label
_atom_site_fract_x
_atom_site_fract_y
_atom_site_fract_z
Si Si1 0.976267 0.139523 0.149075
Si Si2 0.361935 0.416591 0.097293
Si Si3 0.858458 0.204780 0.655350
Si Si4 0.104937 0.082178 0.569122
Si Si5 0.982852 0.355113 0.651039
Si Si6 0.136402 0.706933 0.854779
O O1 0.911874 0.096827 0.264909
O O2 0.917455 0.215356 0.113456
O O3 0.075088 0.161910 0.229624
O O4 0.000000 0.100948 0.000000
O O5 0.250000 0.411614 0.139304
O O6 0.377575 0.500000 0.036012
O O7 0.428859 0.403805 0.231833
O O8 0.379128 0.351474 0.983104
O O9 0.750000 0.218933 0.706408
O O10 0.852569 0.152966 0.514736
O O11 0.915730 0.281540 0.626354
O O12 0.000000 0.078744 0.500000
O O13 0.148605 0.000000 0.545159
O O14 0.000000 0.392387 0.500000
O O15 0.082486 0.326845 0.718515
O O16 0.250000 0.716997 0.834256
#
# Coordination Sequence:
#
# PCOD9404136 Si02
#       6
#     8   8   8   8   8   8
#     4  10  20  34  55  85 116 147 187 236 290 340
#     4  10  22  41  63  85 112 150 192 231 277 337
#     4  10  20  36  57  81 113 153 194 233 277 337
#     4   9  19  36  56  79 110 149 190 229 274 333
#     4  11  22  35  56  86 117 148 186 234 287 337
#     4  10  21  37  57  82 114 153 194 234 278 336
#
# _framework density 20.512830000000001
#
# number of rings (size 3 to 8) (size 9 to 14) (size 15 to 20)
#    0.000    2.000    0.000    5.500    0.000    7.667 
#    0.000    0.000    0.000    2.000    0.000    2.333 
#    0.000    0.000    0.000    0.000    0.000    0.000 
#
# Total GULP energy -268026.188832 kJ/mol
# GULP energy per Si atom -5583.878934 kJ/mol
# Density = 2.046614 g / cm^3
# Si number density = 20.512830 Si / 1000 Ang^3
#
#
#
# Elastic Constant Matrix: (Units=GPa)
#
#
# Indices 1 2 3 4 5 6 
#
# 1 135.3139 19.9077 31.4339 0.0000 0.0000 0.0000
# 2 19.9077 78.3272 19.7865 0.0000 0.0000 0.0000
# 3 31.4339 19.7865 106.7842 0.0000 0.0000 0.0000
# 4 0.0000 0.0000 0.0000 0.3969 0.0000 0.0000
# 5 0.0000 0.0000 0.0000 0.0000 11.3814 0.0000
# 6 0.0000 0.0000 0.0000 0.0000 0.0000 5.1699
#
#
#
# Elastic Compliance Matrix: (Units=1/GPa)
#
#
# Indices 1 2 3 4 5 6 
#
# 1 0.008103 -0.001529 -0.002102 0.000000 0.000000 0.000000
# 2 -0.001529 0.013682 -0.002085 0.000000 0.000000 0.000000
# 3 -0.002102 -0.002085 0.010370 0.000000 0.000000 0.000000
# 4 0.000000 0.000000 0.000000 2.519455 0.000000 0.000000
# 5 0.000000 0.000000 0.000000 0.000000 0.087863 0.000000
# 6 0.000000 0.000000 0.000000 0.000000 0.000000 0.193427
#
#
# Mechanical properties :
#
#
# Convention : Reuss Voigt Hill
#
# Bulk Modulus (GPa) = 48.25423 51.40904 49.83164
# Shear Modulus (GPa) = 1.75362 20.00946 10.88154
#
# Velocity S-wave (km/s) = 0.92561 3.12663 2.30570
# Velocity P-wave (km/s) = 4.97165 6.17662 5.60660
#
# Compressibility (1/GPa) = 0.02072357
#
# Stress axis : x y z
#
# Youngs Moduli (GPa) = 123.40433 73.08756 96.43314
#
# Poissons Ratio (x) = 0.11172 0.20272
# Poissons Ratio (y) = 0.18863 0.20109
# Poissons Ratio (z) = 0.25942 0.15241
#
# Static dielectric constant tensor:
#      x y z
#    x 1.736120 0.000000 0.000000 
#    y 0.000000 1.730680 0.000000 
#    z 0.000000 0.000000 1.740380 
# 
# From -- ./inp_files/8215.got.cif
#   From: 2010.05.17/outbox.cif.g08.bks.cpg/sg51_5_cif.got.tgz:8215.got - 2010.06.03 11:52:47.
