data_PCOD9404210
_publ_section_title
;
Structure prediction by ZEFSAII (Michael W. Deem and Ramdas Pophale) SiO2 
 PCOD9404210
Probable space group: P M M A
;
_chemical_formula_sum "Si O2"
_cell_formula_units_Z 64
_cell_length_a 8.858181
_cell_length_b 14.848811
_cell_length_c 25.025040
_cell_angle_alpha 90.000000
_cell_angle_beta 90.000000
_cell_angle_gamma 90.000000
_cell_volume 3291.629985
_symmetry_space_group_name_H-M "P M M A"
_symmetry_group_IT_number 51
_symmetry_cell_setting 'orthorhombic'
loop_
_space_group_symop_operation_xyz
x,y,z
1/2-x,-y,z
1/2+x,-y,-z
-x,y,-z
-x,-y,-z
1/2+x,y,-z
1/2-x,y,z
x,-y,z
loop_
_atom_site_type_symbol
_atom_site_label
_atom_site_fract_x
_atom_site_fract_y
_atom_site_fract_z
Si Si1 0.432891 0.102011 0.940782
Si Si2 0.426447 0.162093 0.549750
Si Si3 0.427179 0.241208 0.852091
Si Si4 0.915090 0.893690 0.651056
Si Si5 0.581320 0.393390 0.330724
Si Si6 0.571275 0.357608 0.555191
Si Si7 0.930298 0.393327 0.781266
Si Si8 0.576385 0.894509 0.245913
O O1 0.250000 0.104873 0.942292
O O2 0.483133 0.186000 0.904029
O O3 0.472837 0.000000 0.920816
O O4 0.500000 0.109960 0.000000
O O5 0.500000 0.109850 0.500000
O O6 0.250000 0.178502 0.541359
O O7 0.459924 0.118552 0.606205
O O8 0.522945 0.253493 0.552763
O O9 0.250000 0.263881 0.859705
O O10 0.510159 0.328983 0.828651
O O11 0.436603 0.165699 0.806008
O O12 0.750000 0.857550 0.635049
O O13 0.969546 0.857601 0.707610
O O14 0.901550 0.000000 0.658550
O O15 0.750000 0.352948 0.335928
O O16 0.595985 0.500000 0.323185
O O17 0.494184 0.384818 0.387005
O O18 0.501475 0.362884 0.275916
O O19 0.500000 0.396888 0.500000
O O20 0.750000 0.371312 0.553804
O O21 0.750000 0.386459 0.777285
O O22 0.967362 0.500000 0.789749
O O23 0.750000 0.890394 0.264923
O O24 0.544060 0.000000 0.234611
#
# Coordination Sequence:
#
# PCOD9404210 Si02
#       8
#     8   8   8   8   8   8   8   8
#     4   9  18  34  57  88 127 167 203 241 284 334
#     4  11  22  37  55  73  96 127 168 216 267 326
#     4  10  20  34  57  86 115 153 197 238 284 339
#     4  10  21  36  52  72 100 133 170 215 267 323
#     4  10  21  38  59  81 106 138 178 224 277 341
#     4  11  22  37  56  78 105 135 171 219 275 339
#     4  10  22  39  57  81 114 151 193 244 298 348
#     4   9  18  33  52  77 110 145 181 223 272 332
#
# _framework density 19.443254
#
# number of rings (size 3 to 8) (size 9 to 14) (size 15 to 20)
#    0.000    2.000    0.000    4.500    1.750    5.250 
#    0.000    0.000    0.000    4.125    0.000    0.000 
#    0.000    0.000    0.000    0.000    0.000    0.000 
#
# Total GULP energy -356850.346128 kJ/mol
# GULP energy per Si atom -5575.786658 kJ/mol
# Density = 1.939900 g / cm^3
# Si number density = 19.443254 Si / 1000 Ang^3
#
#
#
# Elastic Constant Matrix: (Units=GPa)
#
#
# Indices 1 2 3 4 5 6 
#
# 1 98.9361 35.7368 46.2375 0.0000 0.0000 0.0000
# 2 35.7368 81.6672 43.4775 0.0000 0.0000 0.0000
# 3 46.2375 43.4775 103.6672 0.0000 0.0000 0.0000
# 4 0.0000 0.0000 0.0000 28.1243 0.0000 0.0000
# 5 0.0000 0.0000 0.0000 0.0000 28.7589 0.0000
# 6 0.0000 0.0000 0.0000 0.0000 0.0000 21.8009
#
#
#
# Elastic Compliance Matrix: (Units=1/GPa)
#
#
# Indices 1 2 3 4 5 6 
#
# 1 0.013495 -0.003477 -0.004561 0.000000 0.000000 0.000000
# 2 -0.003477 0.016661 -0.005436 0.000000 0.000000 0.000000
# 3 -0.004561 -0.005436 0.013960 0.000000 0.000000 0.000000
# 4 0.000000 0.000000 0.000000 0.035556 0.000000 0.000000
# 5 0.000000 0.000000 0.000000 0.000000 0.034772 0.000000
# 6 0.000000 0.000000 0.000000 0.000000 0.000000 0.045870
#
#
# Mechanical properties :
#
#
# Convention : Reuss Voigt Hill
#
# Bulk Modulus (GPa) = 58.25047 59.46378 58.85713
# Shear Modulus (GPa) = 25.90871 26.32473 26.11672
#
# Velocity S-wave (km/s) = 3.65434 3.68357 3.66898
# Velocity P-wave (km/s) = 6.91592 6.98149 6.94878
#
# Compressibility (1/GPa) = 0.01716724
#
# Stress axis : x y z
#
# Youngs Moduli (GPa) = 74.10160 60.02156 71.63110
#
# Poissons Ratio (x) = 0.20871 0.32668
# Poissons Ratio (y) = 0.25767 0.38942
# Poissons Ratio (z) = 0.33795 0.32630
#
# Static dielectric constant tensor:
#      x y z
#    x 1.678150 0.000000 0.000000 
#    y 0.000000 1.729900 0.000000 
#    z 0.000000 0.000000 1.709200 
# 
# From -- ./inp_files/34865.got.cif
#   From: 2010.05.17/outbox.cif.g08.bks.cpg/sg51_18_cif.got.tgz:34865.got - 2010.06.03 11:52:47.
