data_PCOD9404947
_publ_section_title
;
Structure prediction by ZEFSAII (Michael W. Deem and Ramdas Pophale) SiO2 
 PCOD9404947
Probable space group: P M M A
;
_chemical_formula_sum "Si O2"
_cell_formula_units_Z 48
_cell_length_a 19.547207
_cell_length_b 8.013584
_cell_length_c 16.673319
_cell_angle_alpha 90.000000
_cell_angle_beta 90.000000
_cell_angle_gamma 90.000000
_cell_volume 2611.761797
_symmetry_space_group_name_H-M "P M M A"
_symmetry_group_IT_number 51
_symmetry_cell_setting 'orthorhombic'
loop_
_space_group_symop_operation_xyz
x,y,z
1/2-x,-y,z
1/2+x,-y,-z
-x,y,-z
-x,-y,-z
1/2+x,y,-z
1/2-x,y,z
x,-y,z
loop_
_atom_site_type_symbol
_atom_site_label
_atom_site_fract_x
_atom_site_fract_y
_atom_site_fract_z
Si Si1 0.571715 0.500000 0.047786
Si Si2 0.170518 0.500000 0.101744
Si Si3 0.551403 0.812054 0.161008
Si Si4 0.073620 0.300501 0.661606
Si Si5 0.418365 0.302323 0.367609
Si Si6 0.328780 0.800098 0.519423
Si Si7 0.610910 0.813878 0.806001
O O1 0.574990 0.664840 0.102831
O O2 0.500000 0.500000 0.000000
O O3 0.629303 0.500000 0.980725
O O4 0.250000 0.500000 0.086034
O O5 0.150146 0.335864 0.151957
O O6 0.578683 0.782537 0.251133
O O7 0.468891 0.799272 0.168675
O O8 0.568282 0.000000 0.133763
O O9 0.073953 0.500000 0.672638
O O10 0.133200 0.250877 0.601076
O O11 0.998690 0.254758 0.625286
O O12 0.416768 0.500000 0.350580
O O13 0.374336 0.266899 0.446080
O O14 0.388565 0.210075 0.289906
O O15 0.250000 0.740815 0.516035
O O16 0.328220 0.000000 0.514240
O O17 0.635057 0.000000 0.826973
#
# Coordination Sequence:
#
# PCOD9404947 Si02
#       7
#     4   4   8   8   8   8   8
#     4  12  22  40  68  91 123 154 197 250 295 365
#     4  12  26  42  60  89 127 163 195 242 302 364
#     4  10  20  37  66  98 121 151 199 254 306 354
#     4  10  20  37  62  89 118 153 202 257 302 354
#     4  10  20  36  61  88 119 154 203 255 303 351
#     4  11  24  38  52  80 122 166 210 252 299 355
#     4  10  20  38  63  91 121 159 200 246 303 361
#
# _framework density 18.378398000000001
#
# number of rings (size 3 to 8) (size 9 to 14) (size 15 to 20)
#    0.000    1.500    3.333    2.000    0.000    7.333 
#    0.000    0.833    0.000    1.000    0.000    0.000 
#    0.000    0.000    0.000    0.000    0.000    0.000 
#
# Total GULP energy -268178.185078 kJ/mol
# GULP energy per Si atom -5587.045522 kJ/mol
# Density = 1.833657 g / cm^3
# Si number density = 18.378398 Si / 1000 Ang^3
#
#
#
# Elastic Constant Matrix: (Units=GPa)
#
#
# Indices 1 2 3 4 5 6 
#
# 1 62.0084 22.8385 38.9007 0.0000 0.0000 0.0000
# 2 22.8385 107.6354 33.9536 0.0000 0.0000 0.0000
# 3 38.9007 33.9536 77.2739 0.0000 0.0000 0.0000
# 4 0.0000 0.0000 0.0000 -9.5423 0.0000 0.0000
# 5 0.0000 0.0000 0.0000 0.0000 13.8373 0.0000
# 6 0.0000 0.0000 0.0000 0.0000 0.0000 17.8544
#
#
#
# Elastic Compliance Matrix: (Units=1/GPa)
#
#
# Indices 1 2 3 4 5 6 
#
# 1 0.023770 -0.001473 -0.011319 0.000000 0.000000 0.000000
# 2 -0.001473 0.010877 -0.004038 0.000000 0.000000 0.000000
# 3 -0.011319 -0.004038 0.020413 0.000000 0.000000 0.000000
# 4 0.000000 0.000000 0.000000 -0.104797 0.000000 0.000000
# 5 0.000000 0.000000 0.000000 0.000000 0.072268 0.000000
# 6 0.000000 0.000000 0.000000 0.000000 0.000000 0.056009
#
#
# Mechanical properties :
#
#
# Convention : Reuss Voigt Hill
#
# Bulk Modulus (GPa) = 46.72696 48.70035 47.71365
# Shear Modulus (GPa) = 41.89936 14.51156 28.20546
#
# Velocity S-wave (km/s) = 4.77992 2.81303 3.92178
# Velocity P-wave (km/s) = 7.47955 6.09156 6.82095
#
# Compressibility (1/GPa) = 0.02140092
#
# Stress axis : x y z
#
# Youngs Moduli (GPa) = 42.06918 91.93831 48.98777
#
# Poissons Ratio (x) = 0.13543 0.55450
# Poissons Ratio (y) = 0.06197 0.19780
# Poissons Ratio (z) = 0.47618 0.37121
#
# Static dielectric constant tensor:
#      x y z
#    x 1.608820 0.000000 0.000000 
#    y 0.000000 1.646580 0.000000 
#    z 0.000000 0.000000 1.606490 
# 
# From -- ./inp_files/24916.got.cif
#   From: 2010.05.17/outbox.cif.g08.bks.cpg/sg51_13_cif.got.tgz:24916.got - 2010.06.03 11:52:47.
