data_PCOD9404647
_publ_section_title
;
Structure prediction by ZEFSAII (Michael W. Deem and Ramdas Pophale) SiO2 
 PCOD9404647
Probable space group: P M M A
;
_chemical_formula_sum "Si O2"
_cell_formula_units_Z 64
_cell_length_a 15.095543
_cell_length_b 23.356362
_cell_length_c 9.360014
_cell_angle_alpha 90.000000
_cell_angle_beta 90.000000
_cell_angle_gamma 90.000000
_cell_volume 3300.125346
_symmetry_space_group_name_H-M "P M M A"
_symmetry_group_IT_number 51
_symmetry_cell_setting 'orthorhombic'
loop_
_space_group_symop_operation_xyz
x,y,z
1/2-x,-y,z
1/2+x,-y,-z
-x,y,-z
-x,-y,-z
1/2+x,y,-z
1/2-x,y,z
x,-y,z
loop_
_atom_site_type_symbol
_atom_site_label
_atom_site_fract_x
_atom_site_fract_y
_atom_site_fract_z
Si Si1 0.915430 0.337488 0.596170
Si Si2 0.032043 0.376296 0.852607
Si Si3 0.648193 0.144556 0.155169
Si Si4 0.478172 0.118622 0.339139
Si Si5 0.853269 0.064076 0.883568
Si Si6 0.353725 0.564546 0.613802
Si Si7 0.648399 0.774597 0.718067
Si Si8 0.352847 0.269614 0.962738
O O1 0.872232 0.390029 0.511645
O O2 0.857177 0.281419 0.618942
O O3 0.000000 0.320661 0.500000
O O4 0.951420 0.358261 0.749461
O O5 0.093066 0.415253 0.752857
O O6 0.085864 0.319626 0.902218
O O7 0.000000 0.404095 0.000000
O O8 0.750000 0.131355 0.197602
O O9 0.572072 0.126288 0.261851
O O10 0.641151 0.212565 0.131973
O O11 0.631935 0.111744 0.005164
O O12 0.500000 0.101916 0.500000
O O13 0.418047 0.075472 0.247721
O O14 0.420881 0.177602 0.331864
O O15 0.750000 0.068261 0.840519
O O16 0.867456 0.000000 0.942186
O O17 0.250000 0.565191 0.645580
O O18 0.380036 0.500000 0.572236
O O19 0.750000 0.796256 0.722412
O O20 0.625022 0.752519 0.877699
O O21 0.250000 0.288813 0.965464
#
# Coordination Sequence:
#
# PCOD9404647 Si02
#       8
#     8   8   8   8   8   8   8   8
#     4  10  21  36  59  87 117 158 201 245 296 363
#     4  11  21  35  60  91 118 148 192 250 308 361
#     4  10  22  40  63  90 121 165 213 259 305 360
#     4  12  25  38  59  92 131 168 201 253 314 376
#     4  10  22  43  69  93 119 161 217 263 303 360
#     4  10  23  44  63  81 115 161 204 247 301 367
#     4  11  21  36  59  89 126 164 206 252 305 370
#     4  10  20  35  59  88 122 157 197 247 307 364
#
# _framework density 19.393201999999999
#
# number of rings (size 3 to 8) (size 9 to 14) (size 15 to 20)
#    0.000    1.500    2.500    2.625    0.000    5.750 
#    0.000    2.500    0.000    3.000    0.000    0.000 
#    0.000    0.000    0.000    0.000    0.000    0.000 
#
# Total GULP energy -357519.061045 kJ/mol
# GULP energy per Si atom -5586.235329 kJ/mol
# Density = 1.934906 g / cm^3
# Si number density = 19.393202 Si / 1000 Ang^3
#
#
#
# Elastic Constant Matrix: (Units=GPa)
#
#
# Indices 1 2 3 4 5 6 
#
# 1 73.5850 15.9360 28.5847 0.0000 0.0000 0.0000
# 2 15.9360 75.9408 0.8636 0.0000 0.0000 0.0000
# 3 28.5847 0.8636 66.8365 0.0000 0.0000 0.0000
# 4 0.0000 0.0000 0.0000 20.9251 0.0000 0.0000
# 5 0.0000 0.0000 0.0000 0.0000 8.3307 0.0000
# 6 0.0000 0.0000 0.0000 0.0000 0.0000 1.4159
#
#
#
# Elastic Compliance Matrix: (Units=1/GPa)
#
#
# Indices 1 2 3 4 5 6 
#
# 1 0.017191 -0.003524 -0.007307 0.000000 0.000000 0.000000
# 2 -0.003524 0.013893 0.001328 0.000000 0.000000 0.000000
# 3 -0.007307 0.001328 0.018070 0.000000 0.000000 0.000000
# 4 0.000000 0.000000 0.000000 0.047790 0.000000 0.000000
# 5 0.000000 0.000000 0.000000 0.000000 0.120038 0.000000
# 6 0.000000 0.000000 0.000000 0.000000 0.000000 0.706264
#
#
# Mechanical properties :
#
#
# Convention : Reuss Voigt Hill
#
# Bulk Modulus (GPa) = 33.17108 34.12565 33.64836
# Shear Modulus (GPa) = 5.25044 17.53286 11.39165
#
# Velocity S-wave (km/s) = 1.64719 3.01004 2.42627
# Velocity P-wave (km/s) = 4.55623 5.45118 5.02368
#
# Compressibility (1/GPa) = 0.03014675
#
# Stress axis : x y z
#
# Youngs Moduli (GPa) = 58.16847 71.98048 55.34109
#
# Poissons Ratio (x) = 0.25369 0.40437
# Poissons Ratio (y) = 0.20501 -0.07348
# Poissons Ratio (z) = 0.42503 -0.09558
#
# Static dielectric constant tensor:
#      x y z
#    x 1.682910 0.000000 0.000000 
#    y 0.000000 1.670250 0.000000 
#    z 0.000000 0.000000 1.672560 
# 
# From -- ./inp_files/8718.got.cif
#   From: 2010.05.17/outbox.cif.g08.bks.cpg/sg51_5_cif.got.tgz:8718.got - 2010.06.03 11:52:47.
