data_PCOD9404182
_publ_section_title
;
Structure prediction by ZEFSAII (Michael W. Deem and Ramdas Pophale) SiO2 
 PCOD9404182
Probable space group: P M M A
;
_chemical_formula_sum "Si O2"
_cell_formula_units_Z 32
_cell_length_a 14.262720
_cell_length_b 10.704137
_cell_length_c 10.019720
_cell_angle_alpha 90.000000
_cell_angle_beta 90.000000
_cell_angle_gamma 90.000000
_cell_volume 1529.711743
_symmetry_space_group_name_H-M "P M M A"
_symmetry_group_IT_number 51
_symmetry_cell_setting 'orthorhombic'
loop_
_space_group_symop_operation_xyz
x,y,z
1/2-x,-y,z
1/2+x,-y,-z
-x,y,-z
-x,-y,-z
1/2+x,y,-z
1/2-x,y,z
x,-y,z
loop_
_atom_site_type_symbol
_atom_site_label
_atom_site_fract_x
_atom_site_fract_y
_atom_site_fract_z
Si Si1 0.611001 0.858739 0.977075
Si Si2 0.353168 0.783511 0.745803
Si Si3 0.938441 0.858904 0.682382
Si Si4 0.640446 0.637865 0.507104
O O1 0.618227 0.831919 0.820237
O O2 0.646113 0.000000 0.002015
O O3 0.500000 0.862123 0.000000
O O4 0.647593 0.770093 0.093985
O O5 0.250000 0.838324 0.709661
O O6 0.449632 0.856299 0.713141
O O7 0.362885 0.662571 0.652003
O O8 0.911335 0.751057 0.580141
O O9 0.914905 0.000000 0.637883
O O10 0.750000 0.643885 0.544868
O O11 0.604883 0.500000 0.541408
#
# Coordination Sequence:
#
# PCOD9404182 Si02
#       4
#     8   8   8   8
#     4   8  16  32  52  78 114 149 182 227 283 339
#     4  10  20  34  56  85 118 156 194 234 285 343
#     4  10  21  37  59  89 121 152 191 239 289 344
#     4  10  23  42  60  81 114 156 200 245 293 345
#
# _framework density 20.918975
#
# number of rings (size 3 to 8) (size 9 to 14) (size 15 to 20)
#    0.000    2.500    0.000    3.000    0.000    8.500 
#    0.000    8.750    0.000    7.500    0.000    0.000 
#    0.000    0.000    0.000    0.000    0.000    0.000 
#
# Total GULP energy -178161.689598 kJ/mol
# GULP energy per Si atom -5567.552800 kJ/mol
# Density = 2.087136 g / cm^3
# Si number density = 20.918975 Si / 1000 Ang^3
#
#
#
# Elastic Constant Matrix: (Units=GPa)
#
#
# Indices 1 2 3 4 5 6 
#
# 1 110.8753 37.5841 24.9606 0.0000 0.0000 0.0000
# 2 37.5841 131.1984 76.3582 0.0000 0.0000 0.0000
# 3 24.9606 76.3582 130.9270 0.0000 0.0000 0.0000
# 4 0.0000 0.0000 0.0000 38.8536 0.0000 0.0000
# 5 0.0000 0.0000 0.0000 0.0000 21.1244 0.0000
# 6 0.0000 0.0000 0.0000 0.0000 0.0000 1.7677
#
#
#
# Elastic Compliance Matrix: (Units=1/GPa)
#
#
# Indices 1 2 3 4 5 6 
#
# 1 0.010000 -0.002657 -0.000357 0.000000 0.000000 0.000000
# 2 -0.002657 0.012245 -0.006635 0.000000 0.000000 0.000000
# 3 -0.000357 -0.006635 0.011575 0.000000 0.000000 0.000000
# 4 0.000000 0.000000 0.000000 0.025738 0.000000 0.000000
# 5 0.000000 0.000000 0.000000 0.000000 0.047339 0.000000
# 6 0.000000 0.000000 0.000000 0.000000 0.000000 0.565702
#
#
# Mechanical properties :
#
#
# Convention : Reuss Voigt Hill
#
# Bulk Modulus (GPa) = 68.85654 72.31183 70.58418
# Shear Modulus (GPa) = 7.17632 27.95567 17.56599
#
# Velocity S-wave (km/s) = 1.85418 3.65962 2.90093
# Velocity P-wave (km/s) = 6.12954 7.24567 6.71085
#
# Compressibility (1/GPa) = 0.01452295
#
# Stress axis : x y z
#
# Youngs Moduli (GPa) = 99.99860 81.66880 86.39097
#
# Poissons Ratio (x) = 0.21699 0.03083
# Poissons Ratio (y) = 0.26570 0.57317
# Poissons Ratio (z) = 0.03569 0.54184
#
# Static dielectric constant tensor:
#      x y z
#    x 1.827440 0.000000 0.000000 
#    y 0.000000 1.704440 0.000000 
#    z 0.000000 0.000000 1.811980 
# 
# From -- ./inp_files/15820.got.cif
#   From: 2010.05.17/outbox.cif.g08.bks.cpg/sg51_8_cif.got.tgz:15820.got - 2010.06.03 11:52:47.
