data_PCOD9404924
_publ_section_title
;
Structure prediction by ZEFSAII (Michael W. Deem and Ramdas Pophale) SiO2 
 PCOD9404924
Probable space group: P M M A
;
_chemical_formula_sum "Si O2"
_cell_formula_units_Z 48
_cell_length_a 8.783271
_cell_length_b 15.410446
_cell_length_c 19.417523
_cell_angle_alpha 90.000000
_cell_angle_beta 90.000000
_cell_angle_gamma 90.000000
_cell_volume 2628.241805
_symmetry_space_group_name_H-M "P M M A"
_symmetry_group_IT_number 51
_symmetry_cell_setting 'orthorhombic'
loop_
_space_group_symop_operation_xyz
x,y,z
1/2-x,-y,z
1/2+x,-y,-z
-x,y,-z
-x,-y,-z
1/2+x,y,-z
1/2-x,y,z
x,-y,z
loop_
_atom_site_type_symbol
_atom_site_label
_atom_site_fract_x
_atom_site_fract_y
_atom_site_fract_z
Si Si1 0.931528 0.500000 0.923800
Si Si2 0.431528 0.000000 0.076200
Si Si3 0.068154 0.850609 0.829290
Si Si4 0.931846 0.350609 0.170710
Si Si5 0.066775 0.750000 0.424000
Si Si6 0.566787 0.899743 0.681193
Si Si7 0.433213 0.600257 0.318806
O O1 0.750000 0.500000 0.926662
O O2 0.989114 0.416158 0.881854
O O3 0.000000 0.500000 0.000000
O O4 0.489114 0.916158 0.118146
O O5 0.250000 0.000000 0.073338
O O6 0.500000 0.000000 0.000000
O O7 0.250000 0.862252 0.832778
O O8 0.032509 0.750000 0.844096
O O9 0.011292 0.872788 0.752504
O O10 0.750000 0.362252 0.167222
O O11 0.988707 0.372788 0.247496
O O12 0.250000 0.750000 0.428781
O O13 0.021164 0.834334 0.379465
O O14 0.021164 0.665665 0.379465
O O15 0.000000 0.750000 0.500000
O O16 0.750000 0.892265 0.690296
O O17 0.531621 0.000000 0.665632
O O18 0.250000 0.607736 0.309703
O O19 0.468376 0.500000 0.334367
#
# Coordination Sequence:
#
# PCOD9404924 Si02
#       7
#     4   4   8   8   8   8   8
#     4  12  26  44  66  92 127 166 205 254 308 362
#     4  12  26  44  66  92 127 166 205 254 308 362
#     4  11  23  39  63  95 127 160 204 254 306 366
#     4  11  23  39  63  95 127 160 204 254 306 366
#     4  10  22  38  56  84 123 160 205 254 308 366
#     4  10  20  36  60  88 117 157 205 252 304 363
#     4  10  20  36  60  88 117 157 205 252 304 363
#
# _framework density 18.263159999999999
#
# number of rings (size 3 to 8) (size 9 to 14) (size 15 to 20)
#    0.000    1.333    3.333    2.500    0.000    4.667 
#    0.000    0.000    0.000    0.000    0.000    0.000 
#    0.000    0.000    0.000    0.000    0.000    0.000 
#
# Total GULP energy -268322.507899 kJ/mol
# GULP energy per Si atom -5590.052248 kJ/mol
# Density = 1.822159 g / cm^3
# Si number density = 18.263160 Si / 1000 Ang^3
#
#
#
# Elastic Constant Matrix: (Units=GPa)
#
#
# Indices 1 2 3 4 5 6 
#
# 1 70.4398 88.5457 71.5451 0.0000 0.0000 0.0000
# 2 88.5457 199.7298 116.9298 0.0000 0.0000 0.0000
# 3 71.5451 116.9298 197.0062 0.0000 0.0000 0.0000
# 4 0.0000 0.0000 0.0000 32.2156 0.0000 0.0000
# 5 0.0000 0.0000 0.0000 0.0000 39.7758 0.0000
# 6 0.0000 0.0000 0.0000 0.0000 0.0000 26.1295
#
#
#
# Elastic Compliance Matrix: (Units=1/GPa)
#
#
# Indices 1 2 3 4 5 6 
#
# 1 0.035506 -0.012554 -0.005443 0.000000 0.000000 0.000000
# 2 -0.012554 0.012112 -0.002630 0.000000 0.000000 0.000000
# 3 -0.005443 -0.002630 0.008613 0.000000 0.000000 0.000000
# 4 0.000000 0.000000 0.000000 0.031041 0.000000 0.000000
# 5 0.000000 0.000000 0.000000 0.000000 0.025141 0.000000
# 6 0.000000 0.000000 0.000000 0.000000 0.000000 0.038271
#
#
# Mechanical properties :
#
#
# Convention : Reuss Voigt Hill
#
# Bulk Modulus (GPa) = 66.76606 113.46857 90.11732
# Shear Modulus (GPa) = 25.38960 32.30119 28.84539
#
# Velocity S-wave (km/s) = 3.73259 4.21010 3.97852
# Velocity P-wave (km/s) = 7.43058 9.26811 8.39974
#
# Compressibility (1/GPa) = 0.01497767
#
# Stress axis : x y z
#
# Youngs Moduli (GPa) = 28.16395 82.56351 116.09726
#
# Poissons Ratio (x) = 1.03653 0.63194
# Poissons Ratio (y) = 0.35358 0.30529
# Poissons Ratio (z) = 0.15330 0.21711
#
# Static dielectric constant tensor:
#      x y z
#    x 1.616110 0.000000 0.000000 
#    y 0.000000 1.630860 0.000000 
#    z 0.000000 0.000000 1.575060 
# 
# From -- ./inp_files/27655.got.cif
#   From: 2010.05.17/outbox.cif.g08.bks.cpg/sg51_14_cif.got.tgz:27655.got - 2010.06.03 11:52:47.
