data_PCOD9404099
_publ_section_title
;
Structure prediction by ZEFSAII (Michael W. Deem and Ramdas Pophale) SiO2 
 PCOD9404099
Probable space group: P M M A
;
_chemical_formula_sum "Si O2"
_cell_formula_units_Z 64
_cell_length_a 21.795134
_cell_length_b 9.529685
_cell_length_c 15.133155
_cell_angle_alpha 90.000000
_cell_angle_beta 90.000000
_cell_angle_gamma 90.000000
_cell_volume 3143.167818
_symmetry_space_group_name_H-M "P M M A"
_symmetry_group_IT_number 51
_symmetry_cell_setting 'orthorhombic'
loop_
_space_group_symop_operation_xyz
x,y,z
1/2-x,-y,z
1/2+x,-y,-z
-x,y,-z
-x,-y,-z
1/2+x,y,-z
1/2-x,y,z
x,-y,z
loop_
_atom_site_type_symbol
_atom_site_label
_atom_site_fract_x
_atom_site_fract_y
_atom_site_fract_z
Si Si1 0.322282 0.840186 0.291874
Si Si2 0.007655 0.159519 0.602139
Si Si3 0.654107 0.842524 0.377516
Si Si4 0.677380 0.655141 0.547194
Si Si5 0.594105 0.164132 0.881605
Si Si6 0.999992 0.663761 0.226343
Si Si7 0.320219 0.666239 0.989458
Si Si8 0.147839 0.339830 0.786561
O O1 0.250000 0.813594 0.274452
O O2 0.346243 0.737042 0.367408
O O3 0.360100 0.828729 0.202402
O O4 0.327081 0.000000 0.325324
O O5 0.080281 0.149798 0.619211
O O6 0.000000 0.205451 0.500000
O O7 0.985410 0.262010 0.679613
O O8 0.981693 0.000000 0.610291
O O9 0.670720 0.746628 0.460023
O O10 0.671639 0.767539 0.286487
O O11 0.678131 0.000000 0.385345
O O12 0.750000 0.642021 0.562172
O O13 0.650303 0.500000 0.536844
O O14 0.534532 0.249683 0.849893
O O15 0.630093 0.240129 0.960400
O O16 0.581027 0.000000 0.899567
O O17 0.018245 0.500000 0.226398
O O18 0.926489 0.669557 0.212026
O O19 0.250000 0.700524 0.015738
O O20 0.330344 0.500000 0.007753
O O21 0.327257 0.685589 0.884369
O O22 0.163567 0.500000 0.760619
#
# Coordination Sequence:
#
# PCOD9404099 Si02
#       8
#     8   8   8   8   8   8   8   8
#     4   9  19  36  55  75 105 146 187 230 284 345
#     4   9  19  35  54  78 112 152 192 235 285 340
#     4  10  20  34  55  82 112 148 188 234 284 337
#     4  10  21  35  52  77 110 148 189 233 282 338
#     4  11  23  38  59  86 119 153 190 239 294 353
#     4  10  21  37  57  84 117 155 199 241 287 344
#     4  10  22  41  65  90 114 146 191 241 296 356
#     4   9  20  40  61  83 117 155 192 239 294 350
#
# _framework density 20.361623999999999
#
# number of rings (size 3 to 8) (size 9 to 14) (size 15 to 20)
#    0.000    2.250    0.000    1.875    1.750    5.250 
#    0.000    5.000    0.000    0.000    0.000    0.000 
#    0.000    0.000    0.000    0.000    0.000    0.000 
#
# Total GULP energy -357476.024588 kJ/mol
# GULP energy per Si atom -5585.562884 kJ/mol
# Density = 2.031528 g / cm^3
# Si number density = 20.361624 Si / 1000 Ang^3
#
#
#
# Elastic Constant Matrix: (Units=GPa)
#
#
# Indices 1 2 3 4 5 6 
#
# 1 45.2352 10.8818 -1.7295 0.0000 0.0000 0.0000
# 2 10.8818 110.3810 41.9886 0.0000 0.0000 0.0000
# 3 -1.7295 41.9886 58.2156 0.0000 0.0000 0.0000
# 4 0.0000 0.0000 0.0000 38.3264 0.0000 0.0000
# 5 0.0000 0.0000 0.0000 0.0000 30.1226 0.0000
# 6 0.0000 0.0000 0.0000 0.0000 0.0000 17.3220
#
#
#
# Elastic Compliance Matrix: (Units=1/GPa)
#
#
# Indices 1 2 3 4 5 6 
#
# 1 0.023070 -0.003494 0.003205 0.000000 0.000000 0.000000
# 2 -0.003494 0.013014 -0.009490 0.000000 0.000000 0.000000
# 3 0.003205 -0.009490 0.024118 0.000000 0.000000 0.000000
# 4 0.000000 0.000000 0.000000 0.026092 0.000000 0.000000
# 5 0.000000 0.000000 0.000000 0.000000 0.033198 0.000000
# 6 0.000000 0.000000 0.000000 0.000000 0.000000 0.057730
#
#
# Mechanical properties :
#
#
# Convention : Reuss Voigt Hill
#
# Bulk Modulus (GPa) = 24.60389 35.12372 29.86380
# Shear Modulus (GPa) = 23.77263 28.00028 25.88646
#
# Velocity S-wave (km/s) = 3.42061 3.71232 3.56945
# Velocity P-wave (km/s) = 5.26407 5.97181 5.62908
#
# Compressibility (1/GPa) = 0.04064399
#
# Stress axis : x y z
#
# Youngs Moduli (GPa) = 43.34703 76.84035 41.46338
#
# Poissons Ratio (x) = 0.26844 -0.13289
# Poissons Ratio (y) = 0.15143 0.39350
# Poissons Ratio (z) = -0.13893 0.72923
#
# Static dielectric constant tensor:
#      x y z
#    x 1.755440 0.000000 0.000000 
#    y 0.000000 1.732500 0.000000 
#    z 0.000000 0.000000 1.681270 
# 
# From -- ./inp_files/26192.got.cif
#   From: 2010.05.17/outbox.cif.g08.bks.cpg/sg51_14_cif.got.tgz:26192.got - 2010.06.03 11:52:47.
