data_PCOD9404217
_publ_section_title
;
Structure prediction by ZEFSAII (Michael W. Deem and Ramdas Pophale) SiO2 
 PCOD9404217
Probable space group: P M M A
;
_chemical_formula_sum "Si O2"
_cell_formula_units_Z 64
_cell_length_a 15.154988
_cell_length_b 8.022931
_cell_length_c 25.076149
_cell_angle_alpha 90.000000
_cell_angle_beta 90.000000
_cell_angle_gamma 90.000000
_cell_volume 3048.944336
_symmetry_space_group_name_H-M "P M M A"
_symmetry_group_IT_number 51
_symmetry_cell_setting 'orthorhombic'
loop_
_space_group_symop_operation_xyz
x,y,z
1/2-x,-y,z
1/2+x,-y,-z
-x,y,-z
-x,-y,-z
1/2+x,y,-z
1/2-x,y,z
x,-y,z
loop_
_atom_site_type_symbol
_atom_site_label
_atom_site_fract_x
_atom_site_fract_y
_atom_site_fract_z
Si Si1 0.656975 0.303268 0.884173
Si Si2 0.150510 0.299667 0.533939
Si Si3 0.530794 0.197911 0.367968
Si Si4 0.349645 0.298872 0.412886
Si Si5 0.017146 0.298214 0.939293
Si Si6 0.044533 0.804076 0.745510
Si Si7 0.346912 0.304514 0.243797
Si Si8 0.648685 0.799053 0.150197
O O1 0.750000 0.230020 0.903511
O O2 0.657217 0.500000 0.898586
O O3 0.567433 0.231864 0.906798
O O4 0.656712 0.297217 0.820492
O O5 0.250000 0.241675 0.546789
O O6 0.152010 0.500000 0.531227
O O7 0.082678 0.253059 0.579564
O O8 0.129654 0.242126 0.473687
O O9 0.428259 0.243986 0.375110
O O10 0.570699 0.267499 0.312508
O O11 0.536715 0.000000 0.365205
O O12 0.250000 0.243157 0.399675
O O13 0.348698 0.500000 0.412703
O O14 0.018228 0.500000 0.939243
O O15 0.102589 0.246192 0.905723
O O16 0.000000 0.244614 0.000000
O O17 0.090097 0.734872 0.799222
O O18 0.938484 0.785246 0.744539
O O19 0.066054 0.000000 0.745818
O O20 0.250000 0.244269 0.263215
O O21 0.354317 0.500000 0.259477
O O22 0.750000 0.740459 0.153699
O O23 0.649602 0.000000 0.152848
#
# Coordination Sequence:
#
# PCOD9404217 Si02
#       8
#     8   8   8   8   8   8   8   8
#     4   8  14  27  48  74 105 136 164 202 257 316
#     4   9  19  37  59  81 107 142 186 233 279 330
#     4  11  23  35  52  82 115 146 183 231 284 334
#     4   9  19  37  59  81 109 148 188 226 275 336
#     4  10  20  34  57  88 116 141 173 220 274 325
#     4  10  22  38  54  76 109 148 187 228 274 323
#     4   9  17  31  54  79 101 132 175 220 267 322
#     4  10  22  41  61  78 105 150 195 230 268 317
#
# _framework density 20.990872
#
# number of rings (size 3 to 8) (size 9 to 14) (size 15 to 20)
#    0.000    2.500    1.250    2.250    0.000    5.750 
#    0.000    6.250    0.000    0.375    0.000    0.000 
#    0.000    0.000    0.000    0.000    0.000    0.000 
#
# Total GULP energy -356791.715293 kJ/mol
# GULP energy per Si atom -5574.870551 kJ/mol
# Density = 2.094310 g / cm^3
# Si number density = 20.990872 Si / 1000 Ang^3
#
#
#
# Elastic Constant Matrix: (Units=GPa)
#
#
# Indices 1 2 3 4 5 6 
#
# 1 112.9928 2.8747 67.1217 0.0000 0.0000 0.0000
# 2 2.8747 13.8634 13.3816 0.0000 0.0000 0.0000
# 3 67.1217 13.3816 122.8064 0.0000 0.0000 0.0000
# 4 0.0000 0.0000 0.0000 19.8868 0.0000 0.0000
# 5 0.0000 0.0000 0.0000 0.0000 -4.6283 0.0000
# 6 0.0000 0.0000 0.0000 0.0000 0.0000 48.4421
#
#
#
# Elastic Compliance Matrix: (Units=1/GPa)
#
#
# Indices 1 2 3 4 5 6 
#
# 1 0.013384 0.004789 -0.007837 0.000000 0.000000 0.000000
# 2 0.004789 0.082325 -0.011588 0.000000 0.000000 0.000000
# 3 -0.007837 -0.011588 0.013689 0.000000 0.000000 0.000000
# 4 0.000000 0.000000 0.000000 0.050285 0.000000 0.000000
# 5 0.000000 0.000000 0.000000 0.000000 -0.216063 0.000000
# 6 0.000000 0.000000 0.000000 0.000000 0.000000 0.020643
#
#
# Mechanical properties :
#
#
# Convention : Reuss Voigt Hill
#
# Bulk Modulus (GPa) = 12.48037 46.26872 29.37455
# Shear Modulus (GPa) = 247.01104 23.82576 135.41840
#
# Velocity S-wave (km/s) = 10.85960 3.37271 8.04071
# Velocity P-wave (km/s) = 12.77497 6.10386 10.01141
#
# Compressibility (1/GPa) = 0.08012584
#
# Stress axis : x y z
#
# Youngs Moduli (GPa) = 74.71773 12.14703 73.05128
#
# Poissons Ratio (x) = -0.05818 0.57250
# Poissons Ratio (y) = -0.35785 0.84653
# Poissons Ratio (z) = 0.58556 0.14076
#
# Static dielectric constant tensor:
#      x y z
#    x 1.787780 0.000000 0.000000 
#    y 0.000000 1.757440 0.000000 
#    z 0.000000 0.000000 1.789280 
# 
# From -- ./inp_files/35665.got.cif
#   From: 2010.05.17/outbox.cif.g08.bks.cpg/sg51_18_cif.got.tgz:35665.got - 2010.06.03 11:52:47.
