data_PCOD9404806
_publ_section_title
;
Structure prediction by ZEFSAII (Michael W. Deem and Ramdas Pophale) SiO2 
 PCOD9404806
Probable space group: P M M A
;
_chemical_formula_sum "Si O2"
_cell_formula_units_Z 64
_cell_length_a 7.597779
_cell_length_b 25.736346
_cell_length_c 13.969721
_cell_angle_alpha 90.000000
_cell_angle_beta 90.000000
_cell_angle_gamma 90.000000
_cell_volume 2731.626241
_symmetry_space_group_name_H-M "P M M A"
_symmetry_group_IT_number 51
_symmetry_cell_setting 'orthorhombic'
loop_
_space_group_symop_operation_xyz
x,y,z
1/2-x,-y,z
1/2+x,-y,-z
-x,y,-z
-x,-y,-z
1/2+x,y,-z
1/2-x,y,z
x,-y,z
loop_
_atom_site_type_symbol
_atom_site_label
_atom_site_fract_x
_atom_site_fract_y
_atom_site_fract_z
Si Si1 0.542220 0.335892 0.612456
Si Si2 0.540083 0.889202 0.611845
Si Si3 0.038824 0.775299 0.385712
Si Si4 0.960943 0.727227 0.114223
Si Si5 0.044929 0.056395 0.794259
Si Si6 0.038286 0.838861 0.886888
Si Si7 0.461424 0.613863 0.888851
Si Si8 0.540056 0.444117 0.288214
O O1 0.500000 0.336740 0.500000
O O2 0.750000 0.332689 0.624473
O O3 0.468436 0.280380 0.651778
O O4 0.488392 0.391270 0.653765
O O5 0.500000 0.895997 0.500000
O O6 0.750000 0.889483 0.622557
O O7 0.470530 0.831998 0.644737
O O8 0.464664 0.932724 0.681102
O O9 0.250000 0.776121 0.373743
O O10 0.000000 0.774487 0.500000
O O11 0.750000 0.727151 0.126328
O O12 0.030018 0.782794 0.151166
O O13 0.029944 0.670704 0.144976
O O14 0.000000 0.727681 0.000000
O O15 0.250000 0.054920 0.822816
O O16 0.966048 0.108311 0.841257
O O17 0.967373 0.000000 0.817915
O O18 0.250000 0.838139 0.874080
O O19 0.000000 0.840459 0.000000
O O20 0.250000 0.615882 0.880438
O O21 0.527019 0.569438 0.818233
O O22 0.500000 0.606039 0.000000
O O23 0.750000 0.448968 0.283986
O O24 0.470538 0.500000 0.323379
#
# Coordination Sequence:
#
# PCOD9404806 Si02
#       8
#     8   8   8   8   8   8   8   8
#     4  10  20  36  58  82 108 138 172 213 263 316
#     4  10  20  36  58  82 108 138 172 213 263 316
#     4   8  16  31  52  80 109 133 163 207 259 315
#     4   8  14  27  48  74 101 129 165 207 257 315
#     4  10  22  38  53  74 106 142 182 224 262 305
#     4   9  18  33  53  76 103 135 170 213 263 312
#     4   9  18  33  53  76 103 135 170 213 263 312
#     4  10  22  38  53  74 106 142 182 224 262 305
#
# _framework density 23.429266999999999
#
# number of rings (size 3 to 8) (size 9 to 14) (size 15 to 20)
#    0.000    2.750    0.000    0.750    0.000    4.500 
#    0.000    1.250    0.000    4.500    0.000    0.000 
#    0.000    0.000    0.000    0.000    0.000    0.000 
#
# Total GULP energy -357089.544564 kJ/mol
# GULP energy per Si atom -5579.524134 kJ/mol
# Density = 2.337594 g / cm^3
# Si number density = 23.429267 Si / 1000 Ang^3
#
#
#
# Elastic Constant Matrix: (Units=GPa)
#
#
# Indices 1 2 3 4 5 6 
#
# 1 70.0744 14.9877 -7.7753 0.0000 0.0000 0.0000
# 2 14.9877 153.4669 8.5608 0.0000 0.0000 0.0000
# 3 -7.7753 8.5608 33.1410 0.0000 0.0000 0.0000
# 4 0.0000 0.0000 0.0000 -68.4345 0.0000 0.0000
# 5 0.0000 0.0000 0.0000 0.0000 20.8880 0.0000
# 6 0.0000 0.0000 0.0000 0.0000 0.0000 -0.7514
#
#
#
# Elastic Compliance Matrix: (Units=1/GPa)
#
#
# Indices 1 2 3 4 5 6 
#
# 1 0.015074 -0.001694 0.003974 0.000000 0.000000 0.000000
# 2 -0.001694 0.006802 -0.002154 0.000000 0.000000 0.000000
# 3 0.003974 -0.002154 0.031663 0.000000 0.000000 0.000000
# 4 0.000000 0.000000 0.000000 -0.014613 0.000000 0.000000
# 5 0.000000 0.000000 0.000000 0.000000 0.047874 0.000000
# 6 0.000000 0.000000 0.000000 0.000000 0.000000 -1.330909
#
#
# Mechanical properties :
#
#
# Convention : Reuss Voigt Hill
#
# Bulk Modulus (GPa) = 18.59079 32.02542 25.30810
# Shear Modulus (GPa) = -4.07687 6.40103 1.16208
#
# Velocity S-wave (km/s) = -1.32055 1.65469 0.70503
# Velocity P-wave (km/s) = 2.37212 4.16525 3.38941
#
# Compressibility (1/GPa) = 0.05379008
#
# Stress axis : x y z
#
# Youngs Moduli (GPa) = 66.34044 147.02299 31.58269
#
# Poissons Ratio (x) = 0.24903 -0.12551
# Poissons Ratio (y) = 0.11237 0.06804
# Poissons Ratio (z) = -0.26364 0.31674
#
# Static dielectric constant tensor:
#      x y z
#    x 1.336930 0.000000 0.000000 
#    y 0.000000 1.988530 0.000000 
#    z 0.000000 0.000000 1.852990 
# 
# From -- ./inp_files/22217.got.cif
#   From: 2010.05.17/outbox.cif.g08.bks.cpg/sg51_12_cif.got.tgz:22217.got - 2010.06.03 11:52:47.
