data_PCOD9404505
_publ_section_title
;
Structure prediction by ZEFSAII (Michael W. Deem and Ramdas Pophale) SiO2 
 PCOD9404505
Probable space group: P M M A
;
_chemical_formula_sum "Si O2"
_cell_formula_units_Z 40
_cell_length_a 13.269601
_cell_length_b 9.523579
_cell_length_c 16.300460
_cell_angle_alpha 90.000000
_cell_angle_beta 90.000000
_cell_angle_gamma 90.000000
_cell_volume 2059.955855
_symmetry_space_group_name_H-M "P M M A"
_symmetry_group_IT_number 51
_symmetry_cell_setting 'orthorhombic'
loop_
_space_group_symop_operation_xyz
x,y,z
1/2-x,-y,z
1/2+x,-y,-z
-x,y,-z
-x,-y,-z
1/2+x,y,-z
1/2-x,y,z
x,-y,z
loop_
_atom_site_type_symbol
_atom_site_label
_atom_site_fract_x
_atom_site_fract_y
_atom_site_fract_z
Si Si1 0.472862 0.165158 0.595813
Si Si2 0.250000 0.665000 0.833058
Si Si3 0.382863 0.341237 0.986832
Si Si4 0.750000 0.831249 0.337017
Si Si5 0.628588 0.666580 0.707887
Si Si6 0.635314 0.153983 0.860045
O O1 0.500000 0.177819 0.500000
O O2 0.356087 0.204732 0.616942
O O3 0.555372 0.256721 0.643966
O O4 0.484351 0.000000 0.618658
O O5 0.250000 0.500000 0.810574
O O6 0.156288 0.689536 0.895486
O O7 0.250000 0.757556 0.751978
O O8 0.348333 0.500000 0.007602
O O9 0.500000 0.346443 0.000000
O O10 0.355562 0.220483 0.050487
O O11 0.750000 0.000000 0.327823
O O12 0.750000 0.688027 0.692839
O O13 0.612661 0.500000 0.708254
O O14 0.595661 0.732766 0.795525
O O15 0.750000 0.135407 0.831892
O O16 0.585535 0.000000 0.859547
#
# Coordination Sequence:
#
# PCOD9404505 Si02
#       6
#     8   4   8   4   8   8
#     4  10  23  43  69  96 126 165 210 262 325 394
#     4  10  22  40  60  87 126 171 210 257 318 377
#     4  10  21  36  56  82 115 159 209 252 299 361
#     4  10  24  44  64  95 132 167 210 265 324 387
#     4  10  22  39  62  92 126 163 207 262 321 378
#     4  10  20  35  56  84 116 152 199 251 307 360
#
# _framework density 19.417891000000001
#
# number of rings (size 3 to 8) (size 9 to 14) (size 15 to 20)
#    0.000    2.000    1.000    1.200    4.200    4.400 
#    0.000    0.000    0.000    0.000    0.000    0.000 
#    0.000    0.000    0.000    0.000    0.000    0.000 
#
# Total GULP energy -222683.851024 kJ/mol
# GULP energy per Si atom -5567.096276 kJ/mol
# Density = 1.937370 g / cm^3
# Si number density = 19.417891 Si / 1000 Ang^3
#
#
#
# Elastic Constant Matrix: (Units=GPa)
#
#
# Indices 1 2 3 4 5 6 
#
# 1 142.9378 59.3799 58.0667 0.0000 0.0000 0.0000
# 2 59.3799 116.2272 71.2512 0.0000 0.0000 0.0000
# 3 58.0667 71.2512 113.3885 0.0000 0.0000 0.0000
# 4 0.0000 0.0000 0.0000 36.3318 0.0000 0.0000
# 5 0.0000 0.0000 0.0000 0.0000 40.1075 0.0000
# 6 0.0000 0.0000 0.0000 0.0000 0.0000 -38.5250
#
#
#
# Elastic Compliance Matrix: (Units=1/GPa)
#
#
# Indices 1 2 3 4 5 6 
#
# 1 0.009446 -0.003026 -0.002936 0.000000 0.000000 0.000000
# 2 -0.003026 0.014964 -0.007854 0.000000 0.000000 0.000000
# 3 -0.002936 -0.007854 0.015258 0.000000 0.000000 0.000000
# 4 0.000000 0.000000 0.000000 0.027524 0.000000 0.000000
# 5 0.000000 0.000000 0.000000 0.000000 0.024933 0.000000
# 6 0.000000 0.000000 0.000000 0.000000 0.000000 -0.025957
#
#
# Mechanical properties :
#
#
# Convention : Reuss Voigt Hill
#
# Bulk Modulus (GPa) = 83.07734 83.32768 83.20251
# Shear Modulus (GPa) = 51.11898 19.83992 35.47945
#
# Velocity S-wave (km/s) = 5.13643 3.19993 4.27916
# Velocity P-wave (km/s) = 8.83481 7.52720 8.20709
#
# Compressibility (1/GPa) = 0.01203698
#
# Stress axis : x y z
#
# Youngs Moduli (GPa) = 105.86773 66.82500 65.54068
#
# Poissons Ratio (x) = 0.20222 0.19240
# Poissons Ratio (y) = 0.32037 0.51474
# Poissons Ratio (z) = 0.31079 0.52482
#
# Static dielectric constant tensor:
#      x y z
#    x 1.719420 0.000000 0.000000 
#    y 0.000000 1.694800 0.000000 
#    z 0.000000 0.000000 1.657060 
# 
# From -- ./inp_files/23752.got.cif
#   From: 2010.05.17/outbox.cif.g08.bks.cpg/sg51_12_cif.got.tgz:23752.got - 2010.06.03 11:52:47.
