data_PCOD9404060
_publ_section_title
;
Structure prediction by ZEFSAII (Michael W. Deem and Ramdas Pophale) SiO2 
 PCOD9404060
Probable space group: P M M A
;
_chemical_formula_sum "Si O2"
_cell_formula_units_Z 64
_cell_length_a 19.318154
_cell_length_b 9.125694
_cell_length_c 21.027231
_cell_angle_alpha 90.000000
_cell_angle_beta 90.000000
_cell_angle_gamma 90.000000
_cell_volume 3706.923399
_symmetry_space_group_name_H-M "P M M A"
_symmetry_group_IT_number 51
_symmetry_cell_setting 'orthorhombic'
loop_
_space_group_symop_operation_xyz
x,y,z
1/2-x,-y,z
1/2+x,-y,-z
-x,y,-z
-x,-y,-z
1/2+x,y,-z
1/2-x,y,z
x,-y,z
loop_
_atom_site_type_symbol
_atom_site_label
_atom_site_fract_x
_atom_site_fract_y
_atom_site_fract_z
Si Si1 0.665664 0.668579 0.084736
Si Si2 0.169453 0.824356 0.785128
Si Si3 0.085415 0.323918 0.300396
Si Si4 0.830976 0.675407 0.826840
Si Si5 0.165658 0.168637 0.043038
Si Si6 0.438490 0.822663 0.675561
Si Si7 0.331525 0.824062 0.414959
Si Si8 0.572992 0.177705 0.469814
O O1 0.750000 0.671814 0.083764
O O2 0.643826 0.500000 0.084741
O O3 0.645178 0.748455 0.149795
O O4 0.642019 0.749423 0.020722
O O5 0.250000 0.784645 0.773986
O O6 0.121650 0.785791 0.725481
O O7 0.166776 0.000000 0.793771
O O8 0.081621 0.500000 0.305001
O O9 0.123519 0.285903 0.234268
O O10 0.130030 0.259145 0.358375
O O11 0.009849 0.252828 0.304479
O O12 0.750000 0.713925 0.815371
O O13 0.833895 0.500000 0.835773
O O14 0.854761 0.752799 0.891586
O O15 0.250000 0.172115 0.042112
O O16 0.144005 0.000000 0.042389
O O17 0.420704 0.776401 0.603322
O O18 0.447248 0.000000 0.675786
O O19 0.250000 0.795213 0.414287
O O20 0.366206 0.780259 0.481988
O O21 0.342077 0.000000 0.407095
O O22 0.500000 0.226890 0.500000
O O23 0.571593 0.000000 0.468950
#
# Coordination Sequence:
#
# PCOD9404060 Si02
#       8
#     8   8   8   8   8   8   8   8
#     4   9  16  27  46  71 101 137 171 206 253 310
#     4   9  18  32  51  77 105 132 168 217 267 311
#     4  11  22  35  52  74 105 142 178 215 259 313
#     4   9  18  32  48  68  98 135 172 211 257 307
#     4   9  16  26  44  72 102 131 167 212 257 302
#     4  10  20  35  56  77 103 139 176 215 261 314
#     4  10  20  34  55  81 105 134 176 222 266 314
#     4   9  16  31  54  76 101 132 168 212 260 310
#
# _framework density 17.264990999999998
#
# number of rings (size 3 to 8) (size 9 to 14) (size 15 to 20)
#    0.000    2.500    1.250    1.500    0.000    5.750 
#    0.000    5.000    0.000    0.750    0.000    7.000 
#    0.000    0.000    0.000    0.000    0.000    0.000 
#
# Total GULP energy -356881.468081 kJ/mol
# GULP energy per Si atom -5576.272939 kJ/mol
# Density = 1.722570 g / cm^3
# Si number density = 17.264991 Si / 1000 Ang^3
#
#
#
# Elastic Constant Matrix: (Units=GPa)
#
#
# Indices 1 2 3 4 5 6 
#
# 1 81.8466 41.6103 82.5653 0.0000 0.0000 0.0000
# 2 41.6103 44.6674 71.6489 0.0000 0.0000 0.0000
# 3 82.5653 71.6489 212.6856 0.0000 0.0000 0.0000
# 4 0.0000 0.0000 0.0000 -53.6958 0.0000 0.0000
# 5 0.0000 0.0000 0.0000 0.0000 6.2422 0.0000
# 6 0.0000 0.0000 0.0000 0.0000 0.0000 14.8337
#
#
#
# Elastic Compliance Matrix: (Units=1/GPa)
#
#
# Indices 1 2 3 4 5 6 
#
# 1 0.024677 -0.016582 -0.003993 0.000000 0.000000 0.000000
# 2 -0.016582 0.059851 -0.013725 0.000000 0.000000 0.000000
# 3 -0.003993 -0.013725 0.010876 0.000000 0.000000 0.000000
# 4 0.000000 0.000000 0.000000 -0.018623 0.000000 0.000000
# 5 0.000000 0.000000 0.000000 0.000000 0.160199 0.000000
# 6 0.000000 0.000000 0.000000 0.000000 0.000000 0.067414
#
#
# Mechanical properties :
#
#
# Convention : Reuss Voigt Hill
#
# Bulk Modulus (GPa) = 37.31096 81.20539 59.25817
# Shear Modulus (GPa) = 13.09148 3.03437 8.06293
#
# Velocity S-wave (km/s) = 2.75665 1.32716 2.16339
# Velocity P-wave (km/s) = 5.63825 7.03458 6.37476
#
# Compressibility (1/GPa) = 0.02680178
#
# Stress axis : x y z
#
# Youngs Moduli (GPa) = 40.52401 16.70829 91.94807
#
# Poissons Ratio (x) = 0.27706 0.36719
# Poissons Ratio (y) = 0.67197 1.26199
# Poissons Ratio (z) = 0.16183 0.22932
#
# Static dielectric constant tensor:
#      x y z
#    x 1.568950 0.000000 0.000000 
#    y 0.000000 1.578550 0.000000 
#    z 0.000000 0.000000 1.572710 
# 
# From -- ./inp_files/33754.got.cif
#   From: 2010.05.17/outbox.cif.g08.bks.cpg/sg51_17_cif.got.tgz:33754.got - 2010.06.03 11:52:47.
