data_PCOD9404125
_publ_section_title
;
Structure prediction by ZEFSAII (Michael W. Deem and Ramdas Pophale) SiO2 
 PCOD9404125
Probable space group: P M M A
;
_chemical_formula_sum "Si O2"
_cell_formula_units_Z 64
_cell_length_a 9.553134
_cell_length_b 23.691306
_cell_length_c 14.753549
_cell_angle_alpha 90.000000
_cell_angle_beta 90.000000
_cell_angle_gamma 90.000000
_cell_volume 3339.114989
_symmetry_space_group_name_H-M "P M M A"
_symmetry_group_IT_number 51
_symmetry_cell_setting 'orthorhombic'
loop_
_space_group_symop_operation_xyz
x,y,z
1/2-x,-y,z
1/2+x,-y,-z
-x,y,-z
-x,-y,-z
1/2+x,y,-z
1/2-x,y,z
x,-y,z
loop_
_atom_site_type_symbol
_atom_site_label
_atom_site_fract_x
_atom_site_fract_y
_atom_site_fract_z
Si Si1 0.419077 0.140166 0.226767
Si Si2 0.097363 0.433525 0.924485
Si Si3 0.085336 0.248292 0.093645
Si Si4 0.595800 0.725830 0.420957
Si Si5 0.908069 0.561271 0.750506
Si Si6 0.587065 0.067937 0.088714
Si Si7 0.910691 0.858735 0.415621
Si Si8 0.089924 0.686293 0.265627
O O1 0.250000 0.133616 0.235777
O O2 0.442690 0.195647 0.162743
O O3 0.497118 0.090662 0.172178
O O4 0.496186 0.140840 0.324099
O O5 0.250000 0.407324 0.920349
O O6 0.113728 0.500000 0.949132
O O7 0.020779 0.434871 0.829223
O O8 0.000000 0.406512 0.000000
O O9 0.250000 0.246601 0.071069
O O10 0.060826 0.302645 0.159310
O O11 0.000000 0.246672 0.000000
O O12 0.500000 0.700973 0.500000
O O13 0.750000 0.700528 0.420228
O O14 0.607846 0.792464 0.437672
O O15 0.519211 0.719015 0.325994
O O16 0.750000 0.561317 0.790488
O O17 0.924148 0.500000 0.703745
O O18 0.918303 0.621261 0.702552
O O19 0.750000 0.087641 0.088079
O O20 0.590466 0.000000 0.089121
O O21 0.500000 0.086513 0.000000
O O22 0.750000 0.881246 0.404887
O O23 0.000000 0.883707 0.500000
O O24 0.250000 0.706343 0.280866
#
# Coordination Sequence:
#
# PCOD9404125 Si02
#       8
#     8   8   8   8   8   8   8   8
#     4  11  21  35  57  83 114 152 192 236 284 336
#     4   9  16  26  41  60  83 112 150 199 247 292
#     4  10  22  36  51  74 107 146 182 220 270 325
#     4  10  20  34  56  83 109 139 174 218 270 327
#     4   9  18  32  50  70  93 127 170 214 263 317
#     4  10  21  37  57  83 116 155 202 251 293 334
#     4  10  20  34  55  84 116 148 184 229 278 335
#     4  10  20  36  54  75 107 140 174 220 271 326
#
# _framework density 19.166755999999999
#
# number of rings (size 3 to 8) (size 9 to 14) (size 15 to 20)
#    0.000    2.125    1.250    2.250    0.000    6.750 
#    0.000    1.250    0.000    0.750    0.000    0.000 
#    0.000    0.000    0.000    0.000    0.000    0.000 
#
# Total GULP energy -356378.243263 kJ/mol
# GULP energy per Si atom -5568.410051 kJ/mol
# Density = 1.912313 g / cm^3
# Si number density = 19.166756 Si / 1000 Ang^3
#
#
#
# Elastic Constant Matrix: (Units=GPa)
#
#
# Indices 1 2 3 4 5 6 
#
# 1 141.2159 16.8659 69.5870 0.0000 0.0000 0.0000
# 2 16.8659 18.1292 10.2470 0.0000 0.0000 0.0000
# 3 69.5870 10.2470 109.9726 0.0000 0.0000 0.0000
# 4 0.0000 0.0000 0.0000 10.0771 0.0000 0.0000
# 5 0.0000 0.0000 0.0000 0.0000 20.6648 0.0000
# 6 0.0000 0.0000 0.0000 0.0000 0.0000 36.5558
#
#
#
# Elastic Compliance Matrix: (Units=1/GPa)
#
#
# Indices 1 2 3 4 5 6 
#
# 1 0.011000 -0.006650 -0.006341 0.000000 0.000000 0.000000
# 2 -0.006650 0.062246 -0.001592 0.000000 0.000000 0.000000
# 3 -0.006341 -0.001592 0.013254 0.000000 0.000000 0.000000
# 4 0.000000 0.000000 0.000000 0.099235 0.000000 0.000000
# 5 0.000000 0.000000 0.000000 0.000000 0.048391 0.000000
# 6 0.000000 0.000000 0.000000 0.000000 0.000000 0.027355
#
#
# Mechanical properties :
#
#
# Convention : Reuss Voigt Hill
#
# Bulk Modulus (GPa) = 17.44161 51.41304 34.42733
# Shear Modulus (GPa) = 16.14163 24.96742 20.55453
#
# Velocity S-wave (km/s) = 2.90516 3.61313 3.27831
# Velocity P-wave (km/s) = 4.51364 6.65497 5.68602
#
# Compressibility (1/GPa) = 0.05733414
#
# Stress axis : x y z
#
# Youngs Moduli (GPa) = 90.90775 16.06537 75.44967
#
# Poissons Ratio (x) = 0.10683 0.47842
# Poissons Ratio (y) = 0.60450 0.12014
# Poissons Ratio (z) = 0.57644 0.02558
#
# Static dielectric constant tensor:
#      x y z
#    x 1.696250 0.000000 0.000000 
#    y 0.000000 1.739360 0.000000 
#    z 0.000000 0.000000 1.661800 
# 
# From -- ./inp_files/22350.got.cif
#   From: 2010.05.17/outbox.cif.g08.bks.cpg/sg51_12_cif.got.tgz:22350.got - 2010.06.03 11:52:47.
