data_PCOD9404121
_publ_section_title
;
Structure prediction by ZEFSAII (Michael W. Deem and Ramdas Pophale) SiO2 
 PCOD9404121
Probable space group: P M M A
;
_chemical_formula_sum "Si O2"
_cell_formula_units_Z 64
_cell_length_a 8.734149
_cell_length_b 20.019906
_cell_length_c 21.138968
_cell_angle_alpha 90.000000
_cell_angle_beta 90.000000
_cell_angle_gamma 90.000000
_cell_volume 3696.293187
_symmetry_space_group_name_H-M "P M M A"
_symmetry_group_IT_number 51
_symmetry_cell_setting 'orthorhombic'
loop_
_space_group_symop_operation_xyz
x,y,z
1/2-x,-y,z
1/2+x,-y,-z
-x,y,-z
-x,-y,-z
1/2+x,y,-z
1/2-x,y,z
x,-y,z
loop_
_atom_site_type_symbol
_atom_site_label
_atom_site_fract_x
_atom_site_fract_y
_atom_site_fract_z
Si Si1 0.066198 0.714826 0.433243
Si Si2 0.933403 0.793947 0.314236
Si Si3 0.566662 0.924246 0.116971
Si Si4 0.567638 0.076524 0.741853
Si Si5 0.565702 0.574576 0.240475
Si Si6 0.434156 0.713555 0.814542
Si Si7 0.434618 0.426183 0.381630
Si Si8 0.931584 0.790491 0.934125
O O1 0.250000 0.716802 0.434315
O O2 0.014672 0.637929 0.421225
O O3 0.000000 0.738134 0.500000
O O4 0.005502 0.757938 0.374626
O O5 0.750000 0.794525 0.319893
O O6 0.972625 0.752943 0.250177
O O7 0.997366 0.868167 0.303812
O O8 0.750000 0.917230 0.115343
O O9 0.509650 0.915872 0.189214
O O10 0.490946 0.865944 0.076840
O O11 0.526412 0.000000 0.097175
O O12 0.750000 0.086500 0.748388
O O13 0.540911 0.000000 0.721222
O O14 0.750000 0.577960 0.247861
O O15 0.526249 0.500000 0.217220
O O16 0.520728 0.636474 0.196605
O O17 0.493146 0.582464 0.309876
O O18 0.250000 0.717511 0.822394
O O19 0.511463 0.747727 0.874412
O O20 0.250000 0.426047 0.380847
O O21 0.486233 0.500000 0.403716
O O22 0.750000 0.790371 0.936864
O O23 0.000000 0.764985 0.000000
#
# Coordination Sequence:
#
# PCOD9404121 Si02
#       8
#     8   8   8   8   8   8   8   8
#     4  11  23  37  54  77 111 149 190 233 278 330
#     4  11  21  35  58  84 112 146 184 228 277 326
#     4  10  20  35  55  80 112 148 185 224 268 321
#     4  10  20  34  55  84 114 144 182 227 273 321
#     4   9  17  31  54  82 110 141 178 223 273 324
#     4  10  20  35  56  83 113 143 182 228 274 326
#     4   9  18  32  50  75 108 145 184 226 270 321
#     4  12  25  39  57  79 110 148 187 229 277 329
#
# _framework density 17.314644999999999
#
# number of rings (size 3 to 8) (size 9 to 14) (size 15 to 20)
#    0.000    1.750    2.500    2.625    0.000    3.500 
#    0.000    0.000    0.000    0.750    0.000    0.000 
#    0.000    0.000    0.000    0.000    0.000    0.000 
#
# Total GULP energy -357366.288943 kJ/mol
# GULP energy per Si atom -5583.848265 kJ/mol
# Density = 1.727524 g / cm^3
# Si number density = 17.314645 Si / 1000 Ang^3
#
#
#
# Elastic Constant Matrix: (Units=GPa)
#
#
# Indices 1 2 3 4 5 6 
#
# 1 55.7048 40.3431 44.4515 0.0000 0.0000 0.0000
# 2 40.3431 102.7013 58.8440 0.0000 0.0000 0.0000
# 3 44.4515 58.8440 112.9944 0.0000 0.0000 0.0000
# 4 0.0000 0.0000 0.0000 16.9212 0.0000 0.0000
# 5 0.0000 0.0000 0.0000 0.0000 26.9630 0.0000
# 6 0.0000 0.0000 0.0000 0.0000 0.0000 22.9507
#
#
#
# Elastic Compliance Matrix: (Units=1/GPa)
#
#
# Indices 1 2 3 4 5 6 
#
# 1 0.029313 -0.006995 -0.007889 0.000000 0.000000 0.000000
# 2 -0.006995 0.015547 -0.005345 0.000000 0.000000 0.000000
# 3 -0.007889 -0.005345 0.014737 0.000000 0.000000 0.000000
# 4 0.000000 0.000000 0.000000 0.059097 0.000000 0.000000
# 5 0.000000 0.000000 0.000000 0.000000 0.037088 0.000000
# 6 0.000000 0.000000 0.000000 0.000000 0.000000 0.043572
#
#
# Mechanical properties :
#
#
# Convention : Reuss Voigt Hill
#
# Bulk Modulus (GPa) = 52.24655 62.07530 57.16093
# Shear Modulus (GPa) = 20.30953 21.88444 21.09699
#
# Velocity S-wave (km/s) = 3.42858 3.55903 3.49441
# Velocity P-wave (km/s) = 6.77597 7.26761 7.02609
#
# Compressibility (1/GPa) = 0.01914002
#
# Stress axis : x y z
#
# Youngs Moduli (GPa) = 34.11492 64.32159 67.85714
#
# Poissons Ratio (x) = 0.44990 0.53532
# Poissons Ratio (y) = 0.23862 0.36268
# Poissons Ratio (z) = 0.26913 0.34378
#
# Static dielectric constant tensor:
#      x y z
#    x 1.575960 0.000000 0.000000 
#    y 0.000000 1.613440 0.000000 
#    z 0.000000 0.000000 1.556340 
# 
# From -- ./inp_files/28460.got.cif
#   From: 2010.05.17/outbox.cif.g08.bks.cpg/sg51_15_cif.got.tgz:28460.got - 2010.06.03 11:52:47.
