data_PCOD9404679
_publ_section_title
;
Structure prediction by ZEFSAII (Michael W. Deem and Ramdas Pophale) SiO2 
 PCOD9404679
Probable space group: P M M A
;
_chemical_formula_sum "Si O2"
_cell_formula_units_Z 64
_cell_length_a 15.737283
_cell_length_b 7.626521
_cell_length_c 24.260809
_cell_angle_alpha 90.000000
_cell_angle_beta 90.000000
_cell_angle_gamma 90.000000
_cell_volume 2911.799747
_symmetry_space_group_name_H-M "P M M A"
_symmetry_group_IT_number 51
_symmetry_cell_setting 'orthorhombic'
loop_
_space_group_symop_operation_xyz
x,y,z
1/2-x,-y,z
1/2+x,-y,-z
-x,y,-z
-x,-y,-z
1/2+x,y,-z
1/2-x,y,z
x,-y,z
loop_
_atom_site_type_symbol
_atom_site_label
_atom_site_fract_x
_atom_site_fract_y
_atom_site_fract_z
Si Si1 0.344691 0.287691 0.206532
Si Si2 0.158952 0.714694 0.756653
Si Si3 0.157771 0.793839 0.000785
Si Si4 0.058992 0.202963 0.101716
Si Si5 0.983966 0.208551 0.579064
Si Si6 0.015951 0.710784 0.294141
Si Si7 0.149654 0.786049 0.513705
Si Si8 0.378071 0.302416 0.877148
O O1 0.250000 0.237219 0.223157
O O2 0.348619 0.500000 0.203645
O O3 0.366275 0.217557 0.145860
O O4 0.413763 0.225342 0.250851
O O5 0.250000 0.764632 0.732496
O O6 0.155516 0.500000 0.758630
O O7 0.154421 0.776061 0.820205
O O8 0.076847 0.776154 0.724081
O O9 0.250000 0.715798 0.012799
O O10 0.141853 0.780828 0.935945
O O11 0.160734 0.000000 0.014315
O O12 0.087157 0.723958 0.042451
O O13 0.979585 0.302690 0.126975
O O14 0.032159 0.000000 0.095978
O O15 0.967498 0.245830 0.642663
O O16 0.904483 0.269224 0.540992
O O17 0.079131 0.269845 0.560163
O O18 0.986428 0.000000 0.570721
O O19 0.015202 0.500000 0.289592
O O20 0.250000 0.728056 0.517018
O O21 0.154019 0.000000 0.514530
O O22 0.345895 0.500000 0.880780
#
# Coordination Sequence:
#
# PCOD9404679 Si02
#       8
#     8   8   8   8   8   8   8   8
#     4  10  21  38  58  79 106 143 186 230 276 329
#     4   9  18  34  55  76 102 139 181 222 269 326
#     4  10  22  38  53  75 108 140 173 221 283 344
#     4  11  22  37  57  79 107 142 180 223 281 341
#     4   9  18  32  53  81 107 139 185 224 258 310
#     4  10  20  36  54  77 112 147 178 220 278 326
#     4   8  15  31  54  78 109 146 179 218 266 309
#     4  11  21  36  57  80 105 137 183 229 276 333
#
# _framework density 21.979534999999998
#
# number of rings (size 3 to 8) (size 9 to 14) (size 15 to 20)
#    0.000    2.250    1.250    2.625    0.000    5.500 
#    0.000    1.250    0.000    2.250    0.000    0.000 
#    0.000    0.000    0.000    0.000    0.000    0.000 
#
# Total GULP energy -357099.610990 kJ/mol
# GULP energy per Si atom -5579.681422 kJ/mol
# Density = 2.192951 g / cm^3
# Si number density = 21.979535 Si / 1000 Ang^3
#
#
#
# Elastic Constant Matrix: (Units=GPa)
#
#
# Indices 1 2 3 4 5 6 
#
# 1 125.8698 6.6964 6.6147 0.0000 0.0000 0.0000
# 2 6.6964 45.3616 -5.7698 0.0000 0.0000 0.0000
# 3 6.6147 -5.7698 72.6521 0.0000 0.0000 0.0000
# 4 0.0000 0.0000 0.0000 22.5402 0.0000 0.0000
# 5 0.0000 0.0000 0.0000 0.0000 36.1212 0.0000
# 6 0.0000 0.0000 0.0000 0.0000 0.0000 17.5000
#
#
#
# Elastic Compliance Matrix: (Units=1/GPa)
#
#
# Indices 1 2 3 4 5 6 
#
# 1 0.008058 -0.001296 -0.000837 0.000000 0.000000 0.000000
# 2 -0.001296 0.022478 0.001903 0.000000 0.000000 0.000000
# 3 -0.000837 0.001903 0.013992 0.000000 0.000000 0.000000
# 4 0.000000 0.000000 0.000000 0.044365 0.000000 0.000000
# 5 0.000000 0.000000 0.000000 0.000000 0.027685 0.000000
# 6 0.000000 0.000000 0.000000 0.000000 0.000000 0.057143
#
#
# Mechanical properties :
#
#
# Convention : Reuss Voigt Hill
#
# Bulk Modulus (GPa) = 22.69165 28.77401 25.73283
# Shear Modulus (GPa) = 26.47344 30.98841 28.73093
#
# Velocity S-wave (km/s) = 3.47430 3.75890 3.61940
# Velocity P-wave (km/s) = 5.14205 5.65322 5.40368
#
# Compressibility (1/GPa) = 0.04406907
#
# Stress axis : x y z
#
# Youngs Moduli (GPa) = 124.10611 44.48702 71.47185
#
# Poissons Ratio (x) = 0.05765 0.05979
# Poissons Ratio (y) = 0.16083 -0.13602
# Poissons Ratio (z) = 0.10382 -0.08467
#
# Static dielectric constant tensor:
#      x y z
#    x 1.845680 0.000000 0.000000 
#    y 0.000000 1.837750 0.000000 
#    z 0.000000 0.000000 1.769970 
# 
# From -- ./inp_files/35706.got.cif
#   From: 2010.05.17/outbox.cif.g08.bks.cpg/sg51_18_cif.got.tgz:35706.got - 2010.06.03 11:52:47.
