data_PCOD9404802
_publ_section_title
;
Structure prediction by ZEFSAII (Michael W. Deem and Ramdas Pophale) SiO2 
 PCOD9404802
Probable space group: P M M A
;
_chemical_formula_sum "Si O2"
_cell_formula_units_Z 64
_cell_length_a 8.884487
_cell_length_b 24.088575
_cell_length_c 15.834097
_cell_angle_alpha 90.000000
_cell_angle_beta 90.000000
_cell_angle_gamma 90.000000
_cell_volume 3388.728434
_symmetry_space_group_name_H-M "P M M A"
_symmetry_group_IT_number 51
_symmetry_cell_setting 'orthorhombic'
loop_
_space_group_symop_operation_xyz
x,y,z
1/2-x,-y,z
1/2+x,-y,-z
-x,y,-z
-x,-y,-z
1/2+x,y,-z
1/2-x,y,z
x,-y,z
loop_
_atom_site_type_symbol
_atom_site_label
_atom_site_fract_x
_atom_site_fract_y
_atom_site_fract_z
Si Si1 0.429715 0.434379 0.590642
Si Si2 0.429751 0.372467 0.249781
Si Si3 0.568555 0.178202 0.586687
Si Si4 0.930225 0.062867 0.852111
Si Si5 0.430203 0.758358 0.242131
Si Si6 0.068022 0.060667 0.348781
Si Si7 0.928679 0.566185 0.089811
Si Si8 0.571507 0.175104 0.087326
O O1 0.500000 0.419206 0.500000
O O2 0.250000 0.427459 0.588083
O O3 0.461701 0.500000 0.604903
O O4 0.498981 0.399303 0.666658
O O5 0.250000 0.379913 0.252224
O O6 0.461972 0.306920 0.244791
O O7 0.496513 0.402220 0.167468
O O8 0.500000 0.199781 0.500000
O O9 0.750000 0.177947 0.580887
O O10 0.527375 0.213687 0.668874
O O11 0.513632 0.114977 0.602919
O O12 0.750000 0.070209 0.862787
O O13 0.961707 0.066918 0.751408
O O14 0.016631 0.111903 0.897861
O O15 0.968983 0.000000 0.878844
O O16 0.250000 0.766437 0.231418
O O17 0.512055 0.789030 0.165713
O O18 0.250000 0.059934 0.356369
O O19 0.010974 0.000000 0.376461
O O20 0.750000 0.576005 0.088676
O O21 0.953515 0.500000 0.100274
O O22 0.000000 0.582615 0.000000
O O23 0.750000 0.177108 0.082530
O O24 0.500000 0.195607 0.000000
#
# Coordination Sequence:
#
# PCOD9404802 Si02
#       8
#     8   8   8   8   8   8   8   8
#     4  10  21  38  61  90 125 162 200 245 295 350
#     4  11  23  38  61  89 118 156 200 247 298 353
#     4  10  20  36  58  81 112 148 188 236 284 343
#     4   9  17  34  61  87 114 150 189 233 290 353
#     4  10  23  44  62  81 114 155 200 247 293 342
#     4   8  14  28  54  82 108 144 183 223 280 342
#     4  10  21  38  61  90 124 159 194 235 286 345
#     4  12  25  40  62  87 115 151 193 243 297 353
#
# _framework density 18.886140000000001
#
# number of rings (size 3 to 8) (size 9 to 14) (size 15 to 20)
#    0.000    2.000    1.250    3.375    0.000    6.250 
#    0.000    1.250    0.000    0.000    0.000    0.000 
#    0.000    0.000    0.000    0.000    0.000    0.000 
#
# Total GULP energy -357535.895618 kJ/mol
# GULP energy per Si atom -5586.498369 kJ/mol
# Density = 1.884315 g / cm^3
# Si number density = 18.886140 Si / 1000 Ang^3
#
#
#
# Elastic Constant Matrix: (Units=GPa)
#
#
# Indices 1 2 3 4 5 6 
#
# 1 68.9672 72.6352 77.8141 0.0000 0.0000 0.0000
# 2 72.6352 100.9412 94.2359 0.0000 0.0000 0.0000
# 3 77.8141 94.2359 179.4082 0.0000 0.0000 0.0000
# 4 0.0000 0.0000 0.0000 -32.0592 0.0000 0.0000
# 5 0.0000 0.0000 0.0000 0.0000 35.3045 0.0000
# 6 0.0000 0.0000 0.0000 0.0000 0.0000 22.8321
#
#
#
# Elastic Compliance Matrix: (Units=1/GPa)
#
#
# Indices 1 2 3 4 5 6 
#
# 1 0.064078 -0.039564 -0.007011 0.000000 0.000000 0.000000
# 2 -0.039564 0.043867 -0.005882 0.000000 0.000000 0.000000
# 3 -0.007011 -0.005882 0.011704 0.000000 0.000000 0.000000
# 4 0.000000 0.000000 0.000000 -0.031192 0.000000 0.000000
# 5 0.000000 0.000000 0.000000 0.000000 0.028325 0.000000
# 6 0.000000 0.000000 0.000000 0.000000 0.000000 0.043798
#
#
# Mechanical properties :
#
#
# Convention : Reuss Voigt Hill
#
# Bulk Modulus (GPa) = 67.86074 93.18744 80.52409
# Shear Modulus (GPa) = 18.49069 12.19089 15.34079
#
# Velocity S-wave (km/s) = 3.13239 2.54341 2.85314
# Velocity P-wave (km/s) = 7.00657 7.62064 7.32004
#
# Compressibility (1/GPa) = 0.01473606
#
# Stress axis : x y z
#
# Youngs Moduli (GPa) = 15.60590 22.79601 85.43962
#
# Poissons Ratio (x) = 0.90190 0.59902
# Poissons Ratio (y) = 0.61743 0.50253
# Poissons Ratio (z) = 0.10941 0.13408
#
# Static dielectric constant tensor:
#      x y z
#    x 1.629030 0.000000 0.000000 
#    y 0.000000 1.652000 0.000000 
#    z 0.000000 0.000000 1.634440 
# 
# From -- ./inp_files/22357.got.cif
#   From: 2010.05.17/outbox.cif.g08.bks.cpg/sg51_12_cif.got.tgz:22357.got - 2010.06.03 11:52:47.
