data_PCOD9404840
_publ_section_title
;
Structure prediction by ZEFSAII (Michael W. Deem and Ramdas Pophale) SiO2 
 PCOD9404840
Probable space group: P M M A
;
_chemical_formula_sum "Si O2"
_cell_formula_units_Z 58
_cell_length_a 27.458973
_cell_length_b 7.611295
_cell_length_c 12.189712
_cell_angle_alpha 90.000000
_cell_angle_beta 90.000000
_cell_angle_gamma 90.000000
_cell_volume 2547.629621
_symmetry_space_group_name_H-M "P M M A"
_symmetry_group_IT_number 51
_symmetry_cell_setting 'orthorhombic'
loop_
_space_group_symop_operation_xyz
x,y,z
1/2-x,-y,z
1/2+x,-y,-z
-x,y,-z
-x,-y,-z
1/2+x,y,-z
1/2-x,y,z
x,-y,z
loop_
_atom_site_type_symbol
_atom_site_label
_atom_site_fract_x
_atom_site_fract_y
_atom_site_fract_z
Si Si1 0.843477 0.288251 0.446332
Si Si2 0.952399 0.699713 0.444631
Si Si3 0.110166 0.212845 0.953929
Si Si4 0.695792 0.208341 0.206061
Si Si5 0.675903 0.288152 0.686756
Si Si6 0.526387 0.800330 0.205344
Si Si7 0.250000 0.000000 0.235863
Si Si8 0.581380 0.299908 0.809627
O O1 0.846091 0.500000 0.441125
O O2 0.898884 0.220332 0.457036
O O3 0.819904 0.230660 0.332449
O O4 0.815318 0.245625 0.558302
O O5 0.949315 0.500000 0.489574
O O6 0.000000 0.784046 0.500000
O O7 0.962712 0.696020 0.315414
O O8 0.154179 0.275336 0.876218
O O9 0.059419 0.262978 0.895034
O O10 0.111787 0.000000 0.961793
O O11 0.110133 0.284367 0.076273
O O12 0.750000 0.281936 0.188906
O O13 0.698151 0.000000 0.185534
O O14 0.683881 0.500000 0.703695
O O15 0.708121 0.156516 0.757065
O O16 0.619351 0.252226 0.715147
O O17 0.469138 0.801263 0.182373
O O18 0.542634 0.000000 0.228034
O O19 0.566556 0.500000 0.790802
#
# Coordination Sequence:
#
# PCOD9404840 Si02
#       8
#     8   8   8   8   8   8   2   8
#     4  10  21  38  62  89 130 169 207 271 326 385
#     4  10  20  36  58  87 126 173 215 259 326 391
#     4  10  22  41  61  92 130 165 215 279 328 385
#     4  10  22  40  63  90 123 164 214 269 325 392
#     4  10  25  46  66 102 136 167 225 280 330 397
#     4  11  22  37  61  94 130 168 213 270 325 392
#     4  12  26  44  76  98 122 192 214 278 344 400
#     4  11  24  43  66  92 130 170 214 271 325 397
#
# _framework density 22.766261
#
# number of rings (size 3 to 8) (size 9 to 14) (size 15 to 20)
#    0.000    1.655    1.379    2.276    3.862    6.069 
#    1.241    0.000    0.000    0.000    0.000    0.000 
#    0.000    0.000    0.000    0.000    0.000    0.000 
#
# Total GULP energy -323595.269917 kJ/mol
# GULP energy per Si atom -5579.228792 kJ/mol
# Density = 2.271444 g / cm^3
# Si number density = 22.766261 Si / 1000 Ang^3
#
#
#
# Elastic Constant Matrix: (Units=GPa)
#
#
# Indices 1 2 3 4 5 6 
#
# 1 107.7053 20.8022 7.4798 0.0000 0.0000 0.0000
# 2 20.8022 60.8226 -3.6514 0.0000 0.0000 0.0000
# 3 7.4798 -3.6514 80.9106 0.0000 0.0000 0.0000
# 4 0.0000 0.0000 0.0000 48.9243 0.0000 0.0000
# 5 0.0000 0.0000 0.0000 0.0000 -4.4976 0.0000
# 6 0.0000 0.0000 0.0000 0.0000 0.0000 32.7525
#
#
#
# Elastic Compliance Matrix: (Units=1/GPa)
#
#
# Indices 1 2 3 4 5 6 
#
# 1 0.010035 -0.003497 -0.001086 0.000000 0.000000 0.000000
# 2 -0.003497 0.017705 0.001122 0.000000 0.000000 0.000000
# 3 -0.001086 0.001122 0.012510 0.000000 0.000000 0.000000
# 4 0.000000 0.000000 0.000000 0.020440 0.000000 0.000000
# 5 0.000000 0.000000 0.000000 0.000000 -0.222343 0.000000
# 6 0.000000 0.000000 0.000000 0.000000 0.000000 0.030532
#
#
# Mechanical properties :
#
#
# Convention : Reuss Voigt Hill
#
# Bulk Modulus (GPa) = 30.00368 33.18884 31.59626
# Shear Modulus (GPa) = -44.21283 30.42304 -6.89489
#
# Velocity S-wave (km/s) = -4.41163 3.65954 -1.74216
# Velocity P-wave (km/s) = 3.56964 5.69790 3.14036
#
# Compressibility (1/GPa) = 0.03332924
#
# Stress axis : x y z
#
# Youngs Moduli (GPa) = 99.64650 56.48181 79.93402
#
# Poissons Ratio (x) = 0.19754 0.08677
# Poissons Ratio (y) = 0.34851 -0.08971
# Poissons Ratio (z) = 0.10817 -0.06339
#
# Static dielectric constant tensor:
#      x y z
#    x 1.863090 0.000000 0.000000 
#    y 0.000000 1.866780 0.000000 
#    z 0.000000 0.000000 1.827430 
# 
# From -- ./inp_files/19152.got.cif
#   From: 2010.05.17/outbox.cif.g08.bks.cpg/sg51_10_cif.got.tgz:19152.got - 2010.06.03 11:52:47.
