data_PCOD9404805
_publ_section_title
;
Structure prediction by ZEFSAII (Michael W. Deem and Ramdas Pophale) SiO2 
 PCOD9404805
Probable space group: P M M A
;
_chemical_formula_sum "Si O2"
_cell_formula_units_Z 64
_cell_length_a 19.494921
_cell_length_b 19.386966
_cell_length_c 9.702681
_cell_angle_alpha 90.000000
_cell_angle_beta 90.000000
_cell_angle_gamma 90.000000
_cell_volume 3667.102772
_symmetry_space_group_name_H-M "P M M A"
_symmetry_group_IT_number 51
_symmetry_cell_setting 'orthorhombic'
loop_
_space_group_symop_operation_xyz
x,y,z
1/2-x,-y,z
1/2+x,-y,-z
-x,y,-z
-x,-y,-z
1/2+x,y,-z
1/2-x,y,z
x,-y,z
loop_
_atom_site_type_symbol
_atom_site_label
_atom_site_fract_x
_atom_site_fract_y
_atom_site_fract_z
Si Si1 0.070670 0.202550 0.916428
Si Si2 0.327385 0.676607 0.511614
Si Si3 0.570953 0.799594 0.418360
Si Si4 0.169371 0.581960 0.244842
Si Si5 0.672527 0.078246 0.415994
Si Si6 0.674066 0.421939 0.226851
Si Si7 0.082107 0.357670 0.997099
Si Si8 0.828576 0.077664 0.081725
O O1 0.061603 0.203186 0.749062
O O2 0.121648 0.140230 0.955492
O O3 0.098367 0.277727 0.961663
O O4 0.000000 0.192880 0.000000
O O5 0.250000 0.705981 0.497110
O O6 0.383382 0.735398 0.531174
O O7 0.339373 0.624696 0.385434
O O8 0.328537 0.630754 0.648551
O O9 0.500000 0.799570 0.500000
O O10 0.614823 0.867596 0.455022
O O11 0.250000 0.588530 0.204336
O O12 0.155724 0.500000 0.260280
O O13 0.118720 0.616349 0.134999
O O14 0.750000 0.097743 0.459464
O O15 0.673080 0.077190 0.248834
O O16 0.658957 0.000000 0.462765
O O17 0.750000 0.415494 0.160142
O O18 0.668187 0.500000 0.278267
O O19 0.614810 0.404438 0.121280
O O20 0.000000 0.363818 0.000000
O O21 0.750000 0.088840 0.035255
O O22 0.850048 0.000000 0.038334
#
# Coordination Sequence:
#
# PCOD9404805 Si02
#       8
#     8   8   8   8   8   8   8   8
#     4  10  22  37  53  80 114 150 185 225 270 323
#     4  10  21  37  58  82 107 140 181 228 282 330
#     4  11  22  35  57  82 114 148 187 229 271 326
#     4  10  22  40  60  82 109 141 180 228 282 337
#     4   8  15  31  55  83 113 144 183 229 272 318
#     4  10  20  36  58  82 106 136 180 229 276 328
#     4  11  23  37  54  79 113 148 184 224 270 326
#     4   8  15  30  55  84 110 140 183 230 271 316
#
# _framework density 17.452470000000002
#
# number of rings (size 3 to 8) (size 9 to 14) (size 15 to 20)
#    0.000    2.250    1.250    2.250    3.500    5.500 
#    0.000    0.000    0.000    2.250    0.000    1.750 
#    0.000    0.000    0.000    0.000    0.000    0.000 
#
# Total GULP energy -356785.687260 kJ/mol
# GULP energy per Si atom -5574.776363 kJ/mol
# Density = 1.741275 g / cm^3
# Si number density = 17.452470 Si / 1000 Ang^3
#
#
#
# Elastic Constant Matrix: (Units=GPa)
#
#
# Indices 1 2 3 4 5 6 
#
# 1 117.9881 87.9856 44.6413 0.0000 0.0000 0.0000
# 2 87.9856 126.5263 24.8823 0.0000 0.0000 0.0000
# 3 44.6413 24.8823 61.2945 0.0000 0.0000 0.0000
# 4 0.0000 0.0000 0.0000 20.6318 0.0000 0.0000
# 5 0.0000 0.0000 0.0000 0.0000 -9.4063 0.0000
# 6 0.0000 0.0000 0.0000 0.0000 0.0000 25.6513
#
#
#
# Elastic Compliance Matrix: (Units=1/GPa)
#
#
# Indices 1 2 3 4 5 6 
#
# 1 0.022961 -0.013778 -0.011129 0.000000 0.000000 0.000000
# 2 -0.013778 0.016857 0.003192 0.000000 0.000000 0.000000
# 3 -0.011129 0.003192 0.023125 0.000000 0.000000 0.000000
# 4 0.000000 0.000000 0.000000 0.048469 0.000000 0.000000
# 5 0.000000 0.000000 0.000000 0.000000 -0.106312 0.000000
# 6 0.000000 0.000000 0.000000 0.000000 0.000000 0.038984
#
#
# Mechanical properties :
#
#
# Convention : Reuss Voigt Hill
#
# Bulk Modulus (GPa) = 51.25353 68.98080 60.11717
# Shear Modulus (GPa) = 53.18058 17.26202 35.22130
#
# Velocity S-wave (km/s) = 5.52610 3.14839 4.49723
# Velocity P-wave (km/s) = 8.37546 7.26823 7.84141
#
# Compressibility (1/GPa) = 0.01951085
#
# Stress axis : x y z
#
# Youngs Moduli (GPa) = 43.55224 59.32213 43.24385
#
# Poissons Ratio (x) = 0.81735 0.48128
# Poissons Ratio (y) = 0.60007 -0.13802
# Poissons Ratio (z) = 0.48471 -0.18934
#
# Static dielectric constant tensor:
#      x y z
#    x 1.585070 0.000000 0.000000 
#    y 0.000000 1.590940 0.000000 
#    z 0.000000 0.000000 1.589330 
# 
# From -- ./inp_files/11220.got.cif
#   From: 2010.05.17/outbox.cif.g08.bks.cpg/sg51_6_cif.got.tgz:11220.got - 2010.06.03 11:52:47.
