data_PCOD9404222
_publ_section_title
;
Structure prediction by ZEFSAII (Michael W. Deem and Ramdas Pophale) SiO2 
 PCOD9404222
Probable space group: P M M A
;
_chemical_formula_sum "Si O2"
_cell_formula_units_Z 48
_cell_length_a 17.839691
_cell_length_b 7.794019
_cell_length_c 19.045976
_cell_angle_alpha 90.000000
_cell_angle_beta 90.000000
_cell_angle_gamma 90.000000
_cell_volume 2648.207557
_symmetry_space_group_name_H-M "P M M A"
_symmetry_group_IT_number 51
_symmetry_cell_setting 'orthorhombic'
loop_
_space_group_symop_operation_xyz
x,y,z
1/2-x,-y,z
1/2+x,-y,-z
-x,y,-z
-x,-y,-z
1/2+x,y,-z
1/2-x,y,z
x,-y,z
loop_
_atom_site_type_symbol
_atom_site_label
_atom_site_fract_x
_atom_site_fract_y
_atom_site_fract_z
Si Si1 0.838856 0.206358 0.215071
Si Si2 0.667119 0.000000 0.660603
Si Si3 0.163719 0.205625 0.937742
Si Si4 0.664081 0.294677 0.911607
Si Si5 0.612713 0.701563 0.759569
Si Si6 0.989808 0.000000 0.582842
Si Si7 0.540284 0.691392 0.322785
O O1 0.750000 0.241331 0.218316
O O2 0.866925 0.265212 0.137564
O O3 0.884269 0.286255 0.278561
O O4 0.848530 0.000000 0.219464
O O5 0.657569 0.832108 0.709944
O O6 0.750000 0.000000 0.628669
O O7 0.597614 0.000000 0.606639
O O8 0.250000 0.270532 0.941513
O O9 0.166919 0.000000 0.933081
O O10 0.129018 0.247594 0.013127
O O11 0.750000 0.226627 0.908490
O O12 0.668014 0.500000 0.910526
O O13 0.622485 0.243420 0.840431
O O14 0.635938 0.500000 0.753029
O O15 0.527470 0.713402 0.733047
O O16 0.000000 0.000000 0.500000
O O17 0.027900 0.834606 0.618727
O O18 0.535045 0.500000 0.352384
#
# Coordination Sequence:
#
# PCOD9404222 Si02
#       7
#     8   4   8   8   8   4   8
#     4   9  17  32  53  76 105 141 181 230 277 311
#     4  10  20  34  58  85 105 139 183 211 251 314
#     4   8  15  26  41  64  96 134 177 223 269 313
#     4   9  16  26  41  63  95 135 177 222 269 309
#     4   9  19  33  49  75 110 142 176 223 268 309
#     4  10  22  42  62  83 117 145 167 207 262 318
#     4  10  20  36  59  82 106 140 178 214 262 324
#
# _framework density 18.125468000000001
#
# number of rings (size 3 to 8) (size 9 to 14) (size 15 to 20)
#    0.000    2.833    0.833    1.500    1.167    2.333 
#    0.000    3.333    0.000    5.000    0.000    0.000 
#    0.000    0.000    0.000    0.000    0.000    0.000 
#
# Total GULP energy -267414.526446 kJ/mol
# GULP energy per Si atom -5571.135968 kJ/mol
# Density = 1.808421 g / cm^3
# Si number density = 18.125468 Si / 1000 Ang^3
#
#
#
# Elastic Constant Matrix: (Units=GPa)
#
#
# Indices 1 2 3 4 5 6 
#
# 1 32.5098 28.4950 37.7531 0.0000 0.0000 0.0000
# 2 28.4950 73.4339 53.4634 0.0000 0.0000 0.0000
# 3 37.7531 53.4634 148.7888 0.0000 0.0000 0.0000
# 4 0.0000 0.0000 0.0000 -43.5575 0.0000 0.0000
# 5 0.0000 0.0000 0.0000 0.0000 9.1993 0.0000
# 6 0.0000 0.0000 0.0000 0.0000 0.0000 10.7672
#
#
#
# Elastic Compliance Matrix: (Units=1/GPa)
#
#
# Indices 1 2 3 4 5 6 
#
# 1 0.053135 -0.014630 -0.008225 0.000000 0.000000 0.000000
# 2 -0.014630 0.022470 -0.004362 0.000000 0.000000 0.000000
# 3 -0.008225 -0.004362 0.010375 0.000000 0.000000 0.000000
# 4 0.000000 0.000000 0.000000 -0.022958 0.000000 0.000000
# 5 0.000000 0.000000 0.000000 0.000000 0.108704 0.000000
# 6 0.000000 0.000000 0.000000 0.000000 0.000000 0.092874
#
#
# Mechanical properties :
#
#
# Convention : Reuss Voigt Hill
#
# Bulk Modulus (GPa) = 31.69948 54.90618 43.30283
# Shear Modulus (GPa) = 15.17218 4.28321 9.72770
#
# Velocity S-wave (km/s) = 2.89635 1.53890 2.31916
# Velocity P-wave (km/s) = 5.35836 5.78927 5.57798
#
# Compressibility (1/GPa) = 0.03154626
#
# Stress axis : x y z
#
# Youngs Moduli (GPa) = 18.81999 44.50312 96.38172
#
# Poissons Ratio (x) = 0.65107 0.79278
# Poissons Ratio (y) = 0.27533 0.42042
# Poissons Ratio (z) = 0.15480 0.19412
#
# Static dielectric constant tensor:
#      x y z
#    x 1.630930 0.000000 0.000000 
#    y 0.000000 1.652090 0.000000 
#    z 0.000000 0.000000 1.610650 
# 
# From -- ./inp_files/25001.got.cif
#   From: 2010.05.17/outbox.cif.g08.bks.cpg/sg51_13_cif.got.tgz:25001.got - 2010.06.03 11:52:47.
