data_PCOD9404991
_publ_section_title
;
Structure prediction by ZEFSAII (Michael W. Deem and Ramdas Pophale) SiO2 
 PCOD9404991
Probable space group: P M M A
;
_chemical_formula_sum "Si O2"
_cell_formula_units_Z 64
_cell_length_a 22.046304
_cell_length_b 7.708091
_cell_length_c 17.095184
_cell_angle_alpha 90.000000
_cell_angle_beta 90.000000
_cell_angle_gamma 90.000000
_cell_volume 2905.068682
_symmetry_space_group_name_H-M "P M M A"
_symmetry_group_IT_number 51
_symmetry_cell_setting 'orthorhombic'
loop_
_space_group_symop_operation_xyz
x,y,z
1/2-x,-y,z
1/2+x,-y,-z
-x,y,-z
-x,-y,-z
1/2+x,y,-z
1/2-x,y,z
x,-y,z
loop_
_atom_site_type_symbol
_atom_site_label
_atom_site_fract_x
_atom_site_fract_y
_atom_site_fract_z
Si Si1 0.684451 0.797469 0.032685
Si Si2 0.069150 0.212439 0.589717
Si Si3 0.894645 0.304543 0.164395
Si Si4 0.564909 0.207800 0.591491
Si Si5 0.011809 0.287763 0.089715
Si Si6 0.816739 0.708470 0.692571
Si Si7 0.353058 0.709891 0.135850
Si Si8 0.318507 0.796885 0.692154
O O1 0.750000 0.738691 0.061768
O O2 0.632899 0.694679 0.077245
O O3 0.676644 0.000000 0.050883
O O4 0.681639 0.773927 0.940285
O O5 0.072775 0.264117 0.498715
O O6 0.128028 0.275843 0.636717
O O7 0.002109 0.268879 0.619541
O O8 0.069979 0.000000 0.593441
O O9 0.901175 0.500000 0.193869
O O10 0.846957 0.215118 0.221231
O O11 0.960483 0.224585 0.150078
O O12 0.624115 0.251512 0.641347
O O13 0.561171 0.000000 0.589715
O O14 0.008476 0.500000 0.089135
O O15 0.077513 0.237655 0.120617
O O16 0.000000 0.230713 0.000000
O O17 0.750000 0.770316 0.664666
O O18 0.813837 0.500000 0.695697
O O19 0.828184 0.771353 0.781193
O O20 0.350201 0.500000 0.135578
O O21 0.250000 0.723093 0.687724
O O22 0.313263 0.000000 0.672374
#
# Coordination Sequence:
#
# PCOD9404991 Si02
#       8
#     8   8   8   8   8   8   8   8
#     4  11  23  37  53  75 106 143 183 229 278 324
#     4   8  17  36  60  86 115 146 184 229 278 333
#     4  11  22  36  56  80 108 142 182 227 275 330
#     4   9  18  36  62  87 112 146 188 231 274 330
#     4   9  17  33  55  79 102 130 176 231 276 319
#     4  10  22  37  54  82 118 152 186 228 280 336
#     4  10  20  37  58  77 105 145 186 225 274 334
#     4  10  21  37  56  80 113 149 185 228 277 329
#
# _framework density 22.030460000000001
#
# number of rings (size 3 to 8) (size 9 to 14) (size 15 to 20)
#    0.000    2.250    1.250    2.250    1.750    4.500 
#    0.000    5.000    0.000    0.000    0.000    0.000 
#    0.000    0.000    0.000    0.000    0.000    0.000 
#
# Total GULP energy -357195.150081 kJ/mol
# GULP energy per Si atom -5581.174220 kJ/mol
# Density = 2.198032 g / cm^3
# Si number density = 22.030460 Si / 1000 Ang^3
#
#
#
# Elastic Constant Matrix: (Units=GPa)
#
#
# Indices 1 2 3 4 5 6 
#
# 1 197.2847 14.7475 61.5264 0.0000 0.0000 0.0000
# 2 14.7475 32.9510 0.5750 0.0000 0.0000 0.0000
# 3 61.5264 0.5750 81.0885 0.0000 0.0000 0.0000
# 4 0.0000 0.0000 0.0000 20.1787 0.0000 0.0000
# 5 0.0000 0.0000 0.0000 0.0000 17.2936 0.0000
# 6 0.0000 0.0000 0.0000 0.0000 0.0000 7.1542
#
#
#
# Elastic Compliance Matrix: (Units=1/GPa)
#
#
# Indices 1 2 3 4 5 6 
#
# 1 0.006926 -0.003008 -0.005234 0.000000 0.000000 0.000000
# 2 -0.003008 0.031659 0.002058 0.000000 0.000000 0.000000
# 3 -0.005234 0.002058 0.016289 0.000000 0.000000 0.000000
# 4 0.000000 0.000000 0.000000 0.049557 0.000000 0.000000
# 5 0.000000 0.000000 0.000000 0.000000 0.057825 0.000000
# 6 0.000000 0.000000 0.000000 0.000000 0.000000 0.139778
#
#
# Mechanical properties :
#
#
# Convention : Reuss Voigt Hill
#
# Bulk Modulus (GPa) = 23.52648 51.66909 37.59779
# Shear Modulus (GPa) = 15.21745 24.55698 19.88722
#
# Velocity S-wave (km/s) = 2.63106 3.34231 3.00778
# Velocity P-wave (km/s) = 4.46455 6.19670 5.40052
#
# Compressibility (1/GPa) = 0.04250529
#
# Stress axis : x y z
#
# Youngs Moduli (GPa) = 144.38483 31.58696 61.39201
#
# Poissons Ratio (x) = 0.09503 0.32131
# Poissons Ratio (y) = 0.43437 -0.12635
# Poissons Ratio (z) = 0.75568 -0.06501
#
# Static dielectric constant tensor:
#      x y z
#    x 1.836620 0.000000 0.000000 
#    y 0.000000 1.828770 0.000000 
#    z 0.000000 0.000000 1.789670 
# 
# From -- ./inp_files/30531.got.cif
#   From: 2010.05.17/outbox.cif.g08.bks.cpg/sg51_16_cif.got.tgz:30531.got - 2010.06.03 11:52:47.
