data_PCOD9404357
_publ_section_title
;
Structure prediction by ZEFSAII (Michael W. Deem and Ramdas Pophale) SiO2 
 PCOD9404357
Probable space group: P M M A
;
_chemical_formula_sum "Si O2"
_cell_formula_units_Z 64
_cell_length_a 19.482136
_cell_length_b 8.799428
_cell_length_c 22.059258
_cell_angle_alpha 90.000000
_cell_angle_beta 90.000000
_cell_angle_gamma 90.000000
_cell_volume 3781.655063
_symmetry_space_group_name_H-M "P M M A"
_symmetry_group_IT_number 51
_symmetry_cell_setting 'orthorhombic'
loop_
_space_group_symop_operation_xyz
x,y,z
1/2-x,-y,z
1/2+x,-y,-z
-x,y,-z
-x,-y,-z
1/2+x,y,-z
1/2-x,y,z
x,-y,z
loop_
_atom_site_type_symbol
_atom_site_label
_atom_site_fract_x
_atom_site_fract_y
_atom_site_fract_z
Si Si1 0.057701 0.816388 0.813661
Si Si2 0.330754 0.181659 0.034990
Si Si3 0.411143 0.318573 0.147454
Si Si4 0.478422 0.826745 0.684344
Si Si5 0.169369 0.681434 0.902656
Si Si6 0.028269 0.316823 0.435456
Si Si7 0.176295 0.683035 0.390829
Si Si8 0.635560 0.173771 0.732691
O O1 0.063262 0.768187 0.742733
O O2 0.120706 0.758155 0.853265
O O3 0.987118 0.749181 0.841060
O O4 0.053079 0.000000 0.814344
O O5 0.250000 0.212865 0.047662
O O6 0.377979 0.255447 0.086168
O O7 0.340133 0.000000 0.034099
O O8 0.346288 0.250432 0.968970
O O9 0.414611 0.500000 0.146883
O O10 0.365014 0.261473 0.204023
O O11 0.483124 0.735583 0.621967
O O12 0.556198 0.829491 0.710522
O O13 0.457818 0.000000 0.671191
O O14 0.250000 0.711131 0.890564
O O15 0.158851 0.500000 0.903344
O O16 0.028620 0.500000 0.436048
O O17 0.106857 0.264144 0.423975
O O18 0.000000 0.262795 0.500000
O O19 0.250000 0.728960 0.417883
O O20 0.173702 0.500000 0.389430
O O21 0.173113 0.743786 0.322255
O O22 0.658595 0.000000 0.740471
#
# Coordination Sequence:
#
# PCOD9404357 Si02
#       8
#     8   8   8   8   8   8   8   8
#     4  10  20  35  55  78 103 131 167 209 252 299
#     4  10  21  37  54  71  96 132 171 210 254 305
#     4  11  21  33  51  75 103 133 167 207 252 299
#     4   8  16  30  48  71  96 122 154 194 236 280
#     4  10  21  37  56  78 102 128 164 210 260 312
#     4   9  17  29  47  71  97 128 164 198 237 290
#     4   9  17  29  45  66  93 125 162 203 243 284
#     4   9  17  30  46  66  94 125 158 195 237 288
#
# _framework density 16.923805999999999
#
# number of rings (size 3 to 8) (size 9 to 14) (size 15 to 20)
#    0.000    2.500    0.000    3.375    0.000    6.500 
#    0.000    2.500    0.000    0.750    0.000    1.750 
#    0.000    0.000    0.000    0.000    0.000    0.000 
#
# Total GULP energy -356765.998724 kJ/mol
# GULP energy per Si atom -5574.468730 kJ/mol
# Density = 1.688529 g / cm^3
# Si number density = 16.923806 Si / 1000 Ang^3
#
#
#
# Elastic Constant Matrix: (Units=GPa)
#
#
# Indices 1 2 3 4 5 6 
#
# 1 73.1078 33.9096 75.3950 0.0000 0.0000 0.0000
# 2 33.9096 57.2909 49.8434 0.0000 0.0000 0.0000
# 3 75.3950 49.8434 152.1851 0.0000 0.0000 0.0000
# 4 0.0000 0.0000 0.0000 24.2561 0.0000 0.0000
# 5 0.0000 0.0000 0.0000 0.0000 13.8278 0.0000
# 6 0.0000 0.0000 0.0000 0.0000 0.0000 19.0468
#
#
#
# Elastic Compliance Matrix: (Units=1/GPa)
#
#
# Indices 1 2 3 4 5 6 
#
# 1 0.029689 -0.006679 -0.012521 0.000000 0.000000 0.000000
# 2 -0.006679 0.025913 -0.005178 0.000000 0.000000 0.000000
# 3 -0.012521 -0.005178 0.014470 0.000000 0.000000 0.000000
# 4 0.000000 0.000000 0.000000 0.041227 0.000000 0.000000
# 5 0.000000 0.000000 0.000000 0.000000 0.072318 0.000000
# 6 0.000000 0.000000 0.000000 0.000000 0.000000 0.052502
#
#
# Mechanical properties :
#
#
# Convention : Reuss Voigt Hill
#
# Bulk Modulus (GPa) = 46.91372 66.76443 56.83908
# Shear Modulus (GPa) = 17.12443 19.65518 18.38980
#
# Velocity S-wave (km/s) = 3.18442 3.41162 3.29997
# Velocity P-wave (km/s) = 6.42662 7.41987 6.94103
#
# Compressibility (1/GPa) = 0.02131573
#
# Stress axis : x y z
#
# Youngs Moduli (GPa) = 33.68252 38.59067 69.10923
#
# Poissons Ratio (x) = 0.25776 0.86530
# Poissons Ratio (y) = 0.22497 0.35785
# Poissons Ratio (z) = 0.42173 0.19982
#
# Static dielectric constant tensor:
#      x y z
#    x 1.585380 0.000000 0.000000 
#    y 0.000000 1.569460 0.000000 
#    z 0.000000 0.000000 1.558970 
# 
# From -- ./inp_files/33815.got.cif
#   From: 2010.05.17/outbox.cif.g08.bks.cpg/sg51_17_cif.got.tgz:33815.got - 2010.06.03 11:52:47.
