data_PCOD9404609
_publ_section_title
;
Structure prediction by ZEFSAII (Michael W. Deem and Ramdas Pophale) SiO2 
 PCOD9404609
Probable space group: P M M A
;
_chemical_formula_sum "Si O2"
_cell_formula_units_Z 48
_cell_length_a 28.349671
_cell_length_b 8.741271
_cell_length_c 10.278243
_cell_angle_alpha 90.000000
_cell_angle_beta 90.000000
_cell_angle_gamma 90.000000
_cell_volume 2547.073568
_symmetry_space_group_name_H-M "P M M A"
_symmetry_group_IT_number 51
_symmetry_cell_setting 'orthorhombic'
loop_
_space_group_symop_operation_xyz
x,y,z
1/2-x,-y,z
1/2+x,-y,-z
-x,y,-z
-x,-y,-z
1/2+x,y,-z
1/2-x,y,z
x,-y,z
loop_
_atom_site_type_symbol
_atom_site_label
_atom_site_fract_x
_atom_site_fract_y
_atom_site_fract_z
Si Si1 0.541988 0.317722 0.665527
Si Si2 0.696053 0.684356 0.013533
Si Si3 0.305087 0.318695 0.427290
Si Si4 0.653177 0.317470 0.291475
Si Si5 0.442808 0.181839 0.620242
Si Si6 0.630264 0.819744 0.792537
O O1 0.538425 0.500000 0.661806
O O2 0.490605 0.244252 0.685288
O O3 0.558707 0.258496 0.523147
O O4 0.580611 0.264041 0.769013
O O5 0.750000 0.731752 0.986153
O O6 0.693918 0.500000 0.997951
O O7 0.659078 0.759812 0.916245
O O8 0.681948 0.720596 0.161852
O O9 0.250000 0.291361 0.402724
O O10 0.314471 0.500000 0.403973
O O11 0.317640 0.286338 0.577095
O O12 0.337479 0.222095 0.331825
O O13 0.643709 0.500000 0.289107
O O14 0.603776 0.230425 0.302956
O O15 0.445529 0.000000 0.604710
O O16 0.622584 0.000000 0.799868
#
# Coordination Sequence:
#
# PCOD9404609 Si02
#       6
#     8   8   8   8   8   8
#     4  11  21  37  61  87 117 156 200 245 292 351
#     4  10  22  41  63  86 117 161 207 247 292 351
#     4  10  20  35  58  86 115 150 196 248 295 348
#     4  10  20  37  61  88 118 156 202 246 291 349
#     4  11  21  35  58  91 126 155 188 239 301 360
#     4  12  24  38  57  86 121 157 197 247 303 355
#
# _framework density 18.845157
#
# number of rings (size 3 to 8) (size 9 to 14) (size 15 to 20)
#    0.000    1.333    1.667    6.500    0.000    5.333 
#    0.000    0.833    0.000    8.000    0.000    0.000 
#    0.000    0.000    0.000    0.000    0.000    0.000 
#
# Total GULP energy -268370.620448 kJ/mol
# GULP energy per Si atom -5591.054593 kJ/mol
# Density = 1.880226 g / cm^3
# Si number density = 18.845157 Si / 1000 Ang^3
#
#
#
# Elastic Constant Matrix: (Units=GPa)
#
#
# Indices 1 2 3 4 5 6 
#
# 1 58.8877 15.5479 -19.0766 0.0000 0.0000 0.0000
# 2 15.5479 68.5471 6.3578 0.0000 0.0000 0.0000
# 3 -19.0766 6.3578 29.0351 0.0000 0.0000 0.0000
# 4 0.0000 0.0000 0.0000 -284.9573 0.0000 0.0000
# 5 0.0000 0.0000 0.0000 0.0000 29.6975 0.0000
# 6 0.0000 0.0000 0.0000 0.0000 0.0000 -31.1245
#
#
#
# Elastic Compliance Matrix: (Units=1/GPa)
#
#
# Indices 1 2 3 4 5 6 
#
# 1 0.024655 -0.007242 0.017784 0.000000 0.000000 0.000000
# 2 -0.007242 0.017018 -0.008484 0.000000 0.000000 0.000000
# 3 0.017784 -0.008484 0.047984 0.000000 0.000000 0.000000
# 4 0.000000 0.000000 0.000000 -0.003509 0.000000 0.000000
# 5 0.000000 0.000000 0.000000 0.000000 0.033673 0.000000
# 6 0.000000 0.000000 0.000000 0.000000 0.000000 -0.032129
#
#
# Mechanical properties :
#
#
# Convention : Reuss Voigt Hill
#
# Bulk Modulus (GPa) = 10.66407 18.01423 14.33915
# Shear Modulus (GPa) = 43.54188 -47.03415 -1.74613
#
# Velocity S-wave (km/s) = 4.81199 -5.00124 -0.96363
# Velocity P-wave (km/s) = 6.04522 4.87545 2.52732
#
# Compressibility (1/GPa) = 0.09377283
#
# Stress axis : x y z
#
# Youngs Moduli (GPa) = 40.56018 58.76121 20.84046
#
# Poissons Ratio (x) = 0.42553 -0.37063
# Poissons Ratio (y) = 0.29373 0.17682
# Poissons Ratio (z) = -0.72134 0.49855
#
# Static dielectric constant tensor:
#      x y z
#    x 1.651380 0.000000 0.000000 
#    y 0.000000 1.647290 0.000000 
#    z 0.000000 0.000000 1.639040 
# 
# From -- ./inp_files/12739.got.cif
#   From: 2010.05.17/outbox.cif.g08.bks.cpg/sg51_7_cif.got.tgz:12739.got - 2010.06.03 11:52:47.
