data_PCOD9404168
_publ_section_title
;
Structure prediction by ZEFSAII (Michael W. Deem and Ramdas Pophale) SiO2 
 PCOD9404168
Probable space group: P M M A
;
_chemical_formula_sum "Si O2"
_cell_formula_units_Z 64
_cell_length_a 9.141076
_cell_length_b 25.314219
_cell_length_c 14.752083
_cell_angle_alpha 90.000000
_cell_angle_beta 90.000000
_cell_angle_gamma 90.000000
_cell_volume 3413.620201
_symmetry_space_group_name_H-M "P M M A"
_symmetry_group_IT_number 51
_symmetry_cell_setting 'orthorhombic'
loop_
_space_group_symop_operation_xyz
x,y,z
1/2-x,-y,z
1/2+x,-y,-z
-x,y,-z
-x,-y,-z
1/2+x,y,-z
1/2-x,y,z
x,-y,z
loop_
_atom_site_type_symbol
_atom_site_label
_atom_site_fract_x
_atom_site_fract_y
_atom_site_fract_z
Si Si1 0.081977 0.935482 0.090570
Si Si2 0.423792 0.939138 0.726094
Si Si3 0.575294 0.844584 0.402988
Si Si4 0.424821 0.757263 0.278590
Si Si5 0.075867 0.345036 0.403658
Si Si6 0.574589 0.439358 0.725211
Si Si7 0.078967 0.399891 0.906700
Si Si8 0.078062 0.727918 0.906321
O O1 0.250000 0.919012 0.089118
O O2 0.004856 0.919295 0.183711
O O3 0.077588 0.000000 0.089726
O O4 0.000000 0.917379 0.000000
O O5 0.250000 0.938052 0.744465
O O6 0.452082 0.902004 0.640855
O O7 0.466563 0.000000 0.709524
O O8 0.500000 0.839401 0.500000
O O9 0.750000 0.836295 0.409809
O O10 0.503397 0.803054 0.334635
O O11 0.250000 0.765392 0.272918
O O12 0.451294 0.703296 0.334991
O O13 0.495378 0.751767 0.179780
O O14 0.250000 0.347828 0.418574
O O15 0.027711 0.398449 0.352621
O O16 0.000000 0.337180 0.500000
O O17 0.750000 0.432931 0.737253
O O18 0.545045 0.500000 0.700925
O O19 0.497127 0.424915 0.819320
O O20 0.250000 0.413591 0.910105
O O21 0.067031 0.336065 0.899258
O O22 0.000000 0.415786 0.000000
O O23 0.250000 0.741589 0.906670
O O24 0.000000 0.743478 0.000000
#
# Coordination Sequence:
#
# PCOD9404168 Si02
#       8
#     8   8   8   8   8   8   8   8
#     4   9  16  27  48  79 113 149 189 232 277 329
#     4   9  19  37  59  83 115 155 195 237 286 340
#     4  11  24  41  61  87 118 151 193 242 292 346
#     4  11  22  39  63  88 117 152 190 237 288 343
#     4  10  22  38  58  83 109 143 188 235 288 344
#     4  10  21  38  57  79 112 151 192 240 290 342
#     4  10  20  34  56  84 115 151 190 233 281 340
#     4  10  20  35  59  90 121 154 190 233 284 343
#
# _framework density 18.748425000000001
#
# number of rings (size 3 to 8) (size 9 to 14) (size 15 to 20)
#    0.000    2.000    1.250    2.250    0.000    7.000 
#    0.000    0.625    0.000    3.000    0.000    0.000 
#    0.000    0.000    0.000    0.000    0.000    0.000 
#
# Total GULP energy -357503.121396 kJ/mol
# GULP energy per Si atom -5585.986272 kJ/mol
# Density = 1.870575 g / cm^3
# Si number density = 18.748425 Si / 1000 Ang^3
#
#
#
# Elastic Constant Matrix: (Units=GPa)
#
#
# Indices 1 2 3 4 5 6 
#
# 1 85.3997 54.8815 76.8099 0.0000 0.0000 0.0000
# 2 54.8815 62.4248 58.8018 0.0000 0.0000 0.0000
# 3 76.8099 58.8018 157.7737 0.0000 0.0000 0.0000
# 4 0.0000 0.0000 0.0000 -3.0322 0.0000 0.0000
# 5 0.0000 0.0000 0.0000 0.0000 40.2932 0.0000
# 6 0.0000 0.0000 0.0000 0.0000 0.0000 20.9446
#
#
#
# Elastic Compliance Matrix: (Units=1/GPa)
#
#
# Indices 1 2 3 4 5 6 
#
# 1 0.032268 -0.020914 -0.007915 0.000000 0.000000 0.000000
# 2 -0.020914 0.038240 -0.004070 0.000000 0.000000 0.000000
# 3 -0.007915 -0.004070 0.011709 0.000000 0.000000 0.000000
# 4 0.000000 0.000000 0.000000 -0.329793 0.000000 0.000000
# 5 0.000000 0.000000 0.000000 0.000000 0.024818 0.000000
# 6 0.000000 0.000000 0.000000 0.000000 0.000000 0.047745
#
#
# Mechanical properties :
#
#
# Convention : Reuss Voigt Hill
#
# Bulk Modulus (GPa) = 60.90552 76.28718 68.59635
# Shear Modulus (GPa) = -48.19639 19.31480 -14.44080
#
# Velocity S-wave (km/s) = -5.07570 3.21317 -2.77833
# Velocity P-wave (km/s) = 1.33943 7.38540 5.13566
#
# Compressibility (1/GPa) = 0.01641887
#
# Stress axis : x y z
#
# Youngs Moduli (GPa) = 30.98999 26.15075 85.40772
#
# Poissons Ratio (x) = 0.54690 0.67601
# Poissons Ratio (y) = 0.64811 0.34764
# Poissons Ratio (z) = 0.24529 0.10644
#
# Static dielectric constant tensor:
#      x y z
#    x 1.625260 0.000000 0.000000 
#    y 0.000000 1.666400 0.000000 
#    z 0.000000 0.000000 1.605480 
# 
# From -- ./inp_files/22256.got.cif
#   From: 2010.05.17/outbox.cif.g08.bks.cpg/sg51_12_cif.got.tgz:22256.got - 2010.06.03 11:52:47.
