data_PCOD9404475
_publ_section_title
;
Structure prediction by ZEFSAII (Michael W. Deem and Ramdas Pophale) SiO2 
 PCOD9404475
Probable space group: P M M A
;
_chemical_formula_sum "Si O2"
_cell_formula_units_Z 40
_cell_length_a 18.207580
_cell_length_b 13.727026
_cell_length_c 8.325173
_cell_angle_alpha 90.000000
_cell_angle_beta 90.000000
_cell_angle_gamma 90.000000
_cell_volume 2080.759807
_symmetry_space_group_name_H-M "P M M A"
_symmetry_group_IT_number 51
_symmetry_cell_setting 'orthorhombic'
loop_
_space_group_symop_operation_xyz
x,y,z
1/2-x,-y,z
1/2+x,-y,-z
-x,y,-z
-x,-y,-z
1/2+x,y,-z
1/2-x,y,z
x,-y,z
loop_
_atom_site_type_symbol
_atom_site_label
_atom_site_fract_x
_atom_site_fract_y
_atom_site_fract_z
Si Si1 0.661788 0.605900 0.877832
Si Si2 0.833989 0.811828 0.925012
Si Si3 0.417584 0.000000 0.567629
Si Si4 0.834818 0.195016 0.535925
Si Si5 0.083125 0.000000 0.948059
Si Si6 0.912607 0.391857 0.528580
O O1 0.750000 0.614104 0.836029
O O2 0.652184 0.500000 0.956639
O O3 0.642945 0.702718 0.977182
O O4 0.612905 0.605315 0.716066
O O5 0.750000 0.828005 0.974674
O O6 0.836504 0.805334 0.730890
O O7 0.879807 0.902357 0.984969
O O8 0.500000 0.000000 0.500000
O O9 0.376810 0.097748 0.512628
O O10 0.415217 0.000000 0.758005
O O11 0.750000 0.191647 0.485685
O O12 0.872298 0.293815 0.470107
O O13 0.000000 0.000000 0.000000
O O14 0.891370 0.500000 0.463965
O O15 0.000000 0.381727 0.500000
#
# Coordination Sequence:
#
# PCOD9404475 Si02
#       6
#     8   8   4   8   4   8
#     4   8  14  27  50  79 107 137 176 221 268 320
#     4   9  18  34  57  82 109 139 174 217 262 314
#     4  12  25  40  57  77 107 141 179 226 273 326
#     4  10  20  35  56  81 110 145 182 220 267 324
#     4  12  25  38  55  77 103 137 177 224 273 320
#     4   9  16  26  45  76 111 146 183 222 263 308
#
# _framework density 19.223746999999999
#
# number of rings (size 3 to 8) (size 9 to 14) (size 15 to 20)
#    0.000    2.400    0.000    4.800    0.000    6.000 
#    0.000    0.000    0.000    1.800    0.000    2.800 
#    0.000    0.000    0.000    0.000    0.000    0.000 
#
# Total GULP energy -222871.068350 kJ/mol
# GULP energy per Si atom -5571.776709 kJ/mol
# Density = 1.917999 g / cm^3
# Si number density = 19.223747 Si / 1000 Ang^3
#
#
#
# Elastic Constant Matrix: (Units=GPa)
#
#
# Indices 1 2 3 4 5 6 
#
# 1 118.6387 111.5634 15.5411 0.0000 0.0000 0.0000
# 2 111.5634 259.9404 29.6560 0.0000 0.0000 0.0000
# 3 15.5411 29.6560 16.6764 0.0000 0.0000 0.0000
# 4 0.0000 0.0000 0.0000 -8.2751 0.0000 0.0000
# 5 0.0000 0.0000 0.0000 0.0000 20.6561 0.0000
# 6 0.0000 0.0000 0.0000 0.0000 0.0000 35.2188
#
#
#
# Elastic Compliance Matrix: (Units=1/GPa)
#
#
# Indices 1 2 3 4 5 6 
#
# 1 0.014253 -0.005773 -0.003016 0.000000 0.000000 0.000000
# 2 -0.005773 0.007165 -0.007361 0.000000 0.000000 0.000000
# 3 -0.003016 -0.007361 0.075866 0.000000 0.000000 0.000000
# 4 0.000000 0.000000 0.000000 -0.120845 0.000000 0.000000
# 5 0.000000 0.000000 0.000000 0.000000 0.048412 0.000000
# 6 0.000000 0.000000 0.000000 0.000000 0.000000 0.028394
#
#
# Mechanical properties :
#
#
# Convention : Reuss Voigt Hill
#
# Bulk Modulus (GPa) = 15.38865 78.75297 47.07081
# Shear Modulus (GPa) = 46.63954 25.41964 36.02959
#
# Velocity S-wave (km/s) = 4.93093 3.64029 4.33393
# Velocity P-wave (km/s) = 6.35934 7.66319 7.04151
#
# Compressibility (1/GPa) = 0.06498296
#
# Stress axis : x y z
#
# Youngs Moduli (GPa) = 70.16169 139.57635 13.18118
#
# Poissons Ratio (x) = 0.80578 0.03976
# Poissons Ratio (y) = 0.40505 0.09702
# Poissons Ratio (z) = 0.21162 1.02740
#
# Static dielectric constant tensor:
#      x y z
#    x 1.638930 0.000000 0.000000 
#    y 0.000000 1.746580 0.000000 
#    z 0.000000 0.000000 1.701520 
# 
# From -- ./inp_files/8001.got.cif
#   From: 2010.05.17/outbox.cif.g08.bks.cpg/sg51_5_cif.got.tgz:8001.got - 2010.06.03 11:52:47.
