data_PCOD9404813
_publ_section_title
;
Structure prediction by ZEFSAII (Michael W. Deem and Ramdas Pophale) SiO2 
 PCOD9404813
Probable space group: P M M A
;
_chemical_formula_sum "Si O2"
_cell_formula_units_Z 56
_cell_length_a 21.220124
_cell_length_b 14.852740
_cell_length_c 9.755552
_cell_angle_alpha 90.000000
_cell_angle_beta 90.000000
_cell_angle_gamma 90.000000
_cell_volume 3074.725462
_symmetry_space_group_name_H-M "P M M A"
_symmetry_group_IT_number 51
_symmetry_cell_setting 'orthorhombic'
loop_
_space_group_symop_operation_xyz
x,y,z
1/2-x,-y,z
1/2+x,-y,-z
-x,y,-z
-x,-y,-z
1/2+x,y,-z
1/2-x,y,z
x,-y,z
loop_
_atom_site_type_symbol
_atom_site_label
_atom_site_fract_x
_atom_site_fract_y
_atom_site_fract_z
Si Si1 0.947964 0.607353 0.115583
Si Si2 0.001454 0.263736 0.335867
Si Si3 0.679505 0.605717 0.956191
Si Si4 0.409583 0.103246 0.712000
Si Si5 0.359064 0.764541 0.222877
Si Si6 0.324854 0.893330 0.977976
Si Si7 0.180175 0.898773 0.453515
O O1 0.952406 0.500000 0.134246
O O2 0.964618 0.658356 0.254567
O O3 0.878198 0.628102 0.057962
O O4 0.000000 0.633067 0.000000
O O5 0.966868 0.171482 0.294330
O O6 0.000000 0.274618 0.500000
O O7 0.071961 0.258799 0.278282
O O8 0.750000 0.617545 0.014954
O O9 0.672425 0.500000 0.919336
O O10 0.672561 0.672235 0.827690
O O11 0.371526 0.111964 0.570288
O O12 0.431068 0.000000 0.725949
O O13 0.361188 0.121943 0.835518
O O14 0.356587 0.830966 0.092270
O O15 0.325568 0.821662 0.341374
O O16 0.250000 0.872481 0.969643
O O17 0.330199 0.000000 0.010524
O O18 0.250000 0.895787 0.516500
O O19 0.172860 0.000000 0.392778
#
# Coordination Sequence:
#
# PCOD9404813 Si02
#       7
#     8   8   8   8   8   8   8
#     4  10  21  41  68  92 117 155 199 243 295 356
#     4  12  25  40  57  85 122 160 202 244 290 352
#     4  10  21  38  64  96 123 149 190 246 304 358
#     4  10  22  38  57  82 117 159 197 242 295 349
#     4  12  22  36  58  87 118 154 194 246 297 349
#     4  10  21  37  58  86 116 147 193 249 300 350
#     4  10  20  36  58  82 113 158 205 244 294 358
#
# _framework density 18.213009
#
# number of rings (size 3 to 8) (size 9 to 14) (size 15 to 20)
#    0.000    1.429    2.857    3.000    0.000    4.571 
#    0.000    2.143    0.000    0.000    0.000    0.000 
#    0.000    0.000    0.000    0.000    0.000    0.000 
#
# Total GULP energy -312655.997331 kJ/mol
# GULP energy per Si atom -5583.142809 kJ/mol
# Density = 1.817156 g / cm^3
# Si number density = 18.213009 Si / 1000 Ang^3
#
#
#
# Elastic Constant Matrix: (Units=GPa)
#
#
# Indices 1 2 3 4 5 6 
#
# 1 118.2327 39.3647 36.4952 0.0000 0.0000 0.0000
# 2 39.3647 59.9542 41.8957 0.0000 0.0000 0.0000
# 3 36.4952 41.8957 93.7111 0.0000 0.0000 0.0000
# 4 0.0000 0.0000 0.0000 18.7841 0.0000 0.0000
# 5 0.0000 0.0000 0.0000 0.0000 34.0007 0.0000
# 6 0.0000 0.0000 0.0000 0.0000 0.0000 93.2320
#
#
#
# Elastic Compliance Matrix: (Units=1/GPa)
#
#
# Indices 1 2 3 4 5 6 
#
# 1 0.010973 -0.006135 -0.001531 0.000000 0.000000 0.000000
# 2 -0.006135 0.027688 -0.009989 0.000000 0.000000 0.000000
# 3 -0.001531 -0.009989 0.015733 0.000000 0.000000 0.000000
# 4 0.000000 0.000000 0.000000 0.053236 0.000000 0.000000
# 5 0.000000 0.000000 0.000000 0.000000 0.029411 0.000000
# 6 0.000000 0.000000 0.000000 0.000000 0.000000 0.010726
#
#
# Mechanical properties :
#
#
# Convention : Reuss Voigt Hill
#
# Bulk Modulus (GPa) = 52.39916 56.37878 54.38897
# Shear Modulus (GPa) = 26.39374 39.47953 32.93663
#
# Velocity S-wave (km/s) = 3.81093 4.66086 4.25716
# Velocity P-wave (km/s) = 6.94239 7.74514 7.35473
#
# Compressibility (1/GPa) = 0.01908428
#
# Stress axis : x y z
#
# Youngs Moduli (GPa) = 91.13308 36.11665 63.56038
#
# Poissons Ratio (x) = 0.22158 0.09728
# Poissons Ratio (y) = 0.55911 0.63492
# Poissons Ratio (z) = 0.13948 0.36078
#
# Static dielectric constant tensor:
#      x y z
#    x 1.640550 0.000000 0.000000 
#    y 0.000000 1.631400 0.000000 
#    z 0.000000 0.000000 1.597120 
# 
# From -- ./inp_files/11029.got.cif
#   From: 2010.05.17/outbox.cif.g08.bks.cpg/sg51_6_cif.got.tgz:11029.got - 2010.06.03 11:52:47.
