data_PCOD9404620
_publ_section_title
;
Structure prediction by ZEFSAII (Michael W. Deem and Ramdas Pophale) SiO2 
 PCOD9404620
Probable space group: P M M A
;
_chemical_formula_sum "Si O2"
_cell_formula_units_Z 64
_cell_length_a 8.667395
_cell_length_b 14.769448
_cell_length_c 25.709365
_cell_angle_alpha 90.000000
_cell_angle_beta 90.000000
_cell_angle_gamma 90.000000
_cell_volume 3291.123680
_symmetry_space_group_name_H-M "P M M A"
_symmetry_group_IT_number 51
_symmetry_cell_setting 'orthorhombic'
loop_
_space_group_symop_operation_xyz
x,y,z
1/2-x,-y,z
1/2+x,-y,-z
-x,y,-z
-x,-y,-z
1/2+x,y,-z
1/2-x,y,z
x,-y,z
loop_
_atom_site_type_symbol
_atom_site_label
_atom_site_fract_x
_atom_site_fract_y
_atom_site_fract_z
Si Si1 0.932643 0.239516 0.363306
Si Si2 0.929136 0.108422 0.555676
Si Si3 0.431952 0.398338 0.077246
Si Si4 0.563924 0.604940 0.443075
Si Si5 0.563827 0.104679 0.844961
Si Si6 0.432148 0.793402 0.946019
Si Si7 0.428223 0.601473 0.810429
Si Si8 0.934140 0.234269 0.750321
O O1 0.750000 0.247994 0.353795
O O2 0.984613 0.327898 0.396648
O O3 0.970941 0.155932 0.400539
O O4 0.017384 0.222544 0.309061
O O5 0.750000 0.136685 0.559017
O O6 0.000000 0.132997 0.500000
O O7 0.934923 0.000000 0.560577
O O8 0.250000 0.388095 0.066584
O O9 0.481147 0.500000 0.060846
O O10 0.523454 0.312921 0.055717
O O11 0.463889 0.394024 0.139026
O O12 0.500000 0.631515 0.500000
O O13 0.750000 0.608900 0.445710
O O14 0.518571 0.500000 0.433722
O O15 0.750000 0.106389 0.848291
O O16 0.500035 0.158897 0.894693
O O17 0.520978 0.155041 0.791125
O O18 0.513290 0.000000 0.845544
O O19 0.250000 0.803407 0.945961
O O20 0.500000 0.831280 0.000000
O O21 0.250000 0.616652 0.826833
O O22 0.437887 0.500000 0.788703
O O23 0.481554 0.676092 0.770503
O O24 0.750000 0.244779 0.753967
#
# Coordination Sequence:
#
# PCOD9404620 Si02
#       8
#     8   8   8   8   8   8   8   8
#     4  11  23  37  57  86 121 158 199 248 300 358
#     4  10  21  38  60  85 115 151 192 241 300 362
#     4  10  20  36  60  90 125 163 201 242 291 349
#     4   9  19  36  57  82 115 157 202 248 299 353
#     4  10  23  45  69  90 117 155 200 252 311 371
#     4  12  25  41  65  94 127 162 201 250 303 361
#     4  10  20  35  58  87 119 157 198 241 291 347
#     4  11  23  39  61  88 121 160 201 249 304 360
#
# _framework density 19.446244
#
# number of rings (size 3 to 8) (size 9 to 14) (size 15 to 20)
#    0.000    1.625    1.250    3.375    0.000    6.500 
#    0.000    2.500    0.000    0.000    0.000    0.000 
#    0.000    0.000    0.000    0.000    0.000    0.000 
#
# Total GULP energy -357533.959748 kJ/mol
# GULP energy per Si atom -5586.468121 kJ/mol
# Density = 1.940198 g / cm^3
# Si number density = 19.446244 Si / 1000 Ang^3
#
#
#
# Elastic Constant Matrix: (Units=GPa)
#
#
# Indices 1 2 3 4 5 6 
#
# 1 42.9429 29.8495 19.1439 0.0000 0.0000 0.0000
# 2 29.8495 89.1548 59.4893 0.0000 0.0000 0.0000
# 3 19.1439 59.4893 135.3508 0.0000 0.0000 0.0000
# 4 0.0000 0.0000 0.0000 4.1270 0.0000 0.0000
# 5 0.0000 0.0000 0.0000 0.0000 34.5722 0.0000
# 6 0.0000 0.0000 0.0000 0.0000 0.0000 24.3724
#
#
#
# Elastic Compliance Matrix: (Units=1/GPa)
#
#
# Indices 1 2 3 4 5 6 
#
# 1 0.030356 -0.010327 0.000245 0.000000 0.000000 0.000000
# 2 -0.010327 0.019384 -0.007059 0.000000 0.000000 0.000000
# 3 0.000245 -0.007059 0.010456 0.000000 0.000000 0.000000
# 4 0.000000 0.000000 0.000000 0.242307 0.000000 0.000000
# 5 0.000000 0.000000 0.000000 0.000000 0.028925 0.000000
# 6 0.000000 0.000000 0.000000 0.000000 0.000000 0.041030
#
#
# Mechanical properties :
#
#
# Convention : Reuss Voigt Hill
#
# Bulk Modulus (GPa) = 38.58825 53.82379 46.20602
# Shear Modulus (GPa) = 12.03726 23.21206 17.62466
#
# Velocity S-wave (km/s) = 2.49067 3.45868 3.01379
# Velocity P-wave (km/s) = 5.30640 6.60971 5.99359
#
# Compressibility (1/GPa) = 0.02591462
#
# Stress axis : x y z
#
# Youngs Moduli (GPa) = 32.94287 51.58840 95.63787
#
# Poissons Ratio (x) = 0.53275 -0.02347
# Poissons Ratio (y) = 0.34020 0.67512
# Poissons Ratio (z) = -0.00809 0.36417
#
# Static dielectric constant tensor:
#      x y z
#    x 1.656560 0.000000 0.000000 
#    y 0.000000 1.687790 0.000000 
#    z 0.000000 0.000000 1.670610 
# 
# From -- ./inp_files/34868.got.cif
#   From: 2010.05.17/outbox.cif.g08.bks.cpg/sg51_18_cif.got.tgz:34868.got - 2010.06.03 11:52:47.
