data_PCOD9404496
_publ_section_title
;
Structure prediction by ZEFSAII (Michael W. Deem and Ramdas Pophale) SiO2 
 PCOD9404496
Probable space group: P M M A
;
_chemical_formula_sum "Si O2"
_cell_formula_units_Z 48
_cell_length_a 20.734723
_cell_length_b 7.492950
_cell_length_c 14.056285
_cell_angle_alpha 90.000000
_cell_angle_beta 90.000000
_cell_angle_gamma 90.000000
_cell_volume 2183.844074
_symmetry_space_group_name_H-M "P M M A"
_symmetry_group_IT_number 51
_symmetry_cell_setting 'orthorhombic'
loop_
_space_group_symop_operation_xyz
x,y,z
1/2-x,-y,z
1/2+x,-y,-z
-x,y,-z
-x,-y,-z
1/2+x,y,-z
1/2-x,y,z
x,-y,z
loop_
_atom_site_type_symbol
_atom_site_label
_atom_site_fract_x
_atom_site_fract_y
_atom_site_fract_z
Si Si1 0.504583 0.710101 0.605993
Si Si2 0.636700 0.215589 0.320047
Si Si3 0.433461 0.289931 0.042061
Si Si4 0.750000 0.710030 0.682821
Si Si5 0.388004 0.719871 0.247787
Si Si6 0.750000 0.215662 0.459516
Si Si7 0.177397 0.784253 0.890949
O O1 0.500000 0.787889 0.500000
O O2 0.518682 0.500000 0.595218
O O3 0.435730 0.729208 0.656450
O O4 0.561560 0.781063 0.672087
O O5 0.686910 0.276199 0.401012
O O6 0.658890 0.275876 0.215563
O O7 0.638722 0.000000 0.319548
O O8 0.445326 0.500000 0.057984
O O9 0.411622 0.218824 0.144359
O O10 0.500000 0.213461 0.000000
O O11 0.376103 0.271728 0.966430
O O12 0.750000 0.500000 0.704606
O O13 0.683747 0.781839 0.726406
O O14 0.750000 0.728847 0.568833
O O15 0.387676 0.500000 0.247876
O O16 0.750000 0.000000 0.458192
O O17 0.250000 0.724351 0.914724
O O18 0.177838 0.000000 0.889603
#
# Coordination Sequence:
#
# PCOD9404496 Si02
#       7
#     8   8   8   4   8   4   8
#     4  10  20  35  56  83 113 144 183 230 275 321
#     4  10  20  36  57  79 109 147 183 223 278 335
#     4  10  21  37  58  84 114 147 185 229 279 336
#     4  10  20  36  57  78 104 144 189 222 263 326
#     4   9  19  35  55  80 112 147 179 222 277 326
#     4  10  20  36  55  78 110 144 179 224 277 324
#     4  10  21  38  58  82 112 147 188 235 284 332
#
# _framework density 21.979592
#
# number of rings (size 3 to 8) (size 9 to 14) (size 15 to 20)
#    0.000    2.167    0.833    2.000    1.167    5.000 
#    0.000    2.500    0.000    0.000    0.000    0.000 
#    0.000    0.000    0.000    0.000    0.000    0.000 
#
# Total GULP energy -268330.425072 kJ/mol
# GULP energy per Si atom -5590.217189 kJ/mol
# Density = 2.192957 g / cm^3
# Si number density = 21.979592 Si / 1000 Ang^3
#
#
#
# Elastic Constant Matrix: (Units=GPa)
#
#
# Indices 1 2 3 4 5 6 
#
# 1 227.3088 -5.4876 125.9679 0.0000 0.0000 0.0000
# 2 -5.4876 56.2338 1.9001 0.0000 0.0000 0.0000
# 3 125.9679 1.9001 191.1280 0.0000 0.0000 0.0000
# 4 0.0000 0.0000 0.0000 11.7350 0.0000 0.0000
# 5 0.0000 0.0000 0.0000 0.0000 38.5494 0.0000
# 6 0.0000 0.0000 0.0000 0.0000 0.0000 18.7598
#
#
#
# Elastic Compliance Matrix: (Units=1/GPa)
#
#
# Indices 1 2 3 4 5 6 
#
# 1 0.006970 0.000836 -0.004602 0.000000 0.000000 0.000000
# 2 0.000836 0.017889 -0.000729 0.000000 0.000000 0.000000
# 3 -0.004602 -0.000729 0.008272 0.000000 0.000000 0.000000
# 4 0.000000 0.000000 0.000000 0.085215 0.000000 0.000000
# 5 0.000000 0.000000 0.000000 0.000000 0.025941 0.000000
# 6 0.000000 0.000000 0.000000 0.000000 0.000000 0.053306
#
#
# Mechanical properties :
#
#
# Convention : Reuss Voigt Hill
#
# Bulk Modulus (GPa) = 41.42259 79.93683 60.67971
# Shear Modulus (GPa) = 23.29594 37.29484 30.29539
#
# Velocity S-wave (km/s) = 3.25913 4.12368 3.71663
# Velocity P-wave (km/s) = 5.74886 7.68900 6.78859
#
# Compressibility (1/GPa) = 0.02414142
#
# Stress axis : x y z
#
# Youngs Moduli (GPa) = 143.47828 55.90012 120.88508
#
# Poissons Ratio (x) = -0.04671 0.55630
# Poissons Ratio (y) = -0.11990 0.08808
# Poissons Ratio (z) = 0.66027 0.04073
#
# Static dielectric constant tensor:
#      x y z
#    x 1.756470 0.000000 0.000000 
#    y 0.000000 1.842570 0.000000 
#    z 0.000000 0.000000 1.761790 
# 
# From -- ./inp_files/24924.got.cif
#   From: 2010.05.17/outbox.cif.g08.bks.cpg/sg51_13_cif.got.tgz:24924.got - 2010.06.03 11:52:47.
