data_PCOD9404106
_publ_section_title
;
Structure prediction by ZEFSAII (Michael W. Deem and Ramdas Pophale) SiO2 
 PCOD9404106
Probable space group: P M M A
;
_chemical_formula_sum "Si O2"
_cell_formula_units_Z 64
_cell_length_a 28.977816
_cell_length_b 13.055933
_cell_length_c 8.363223
_cell_angle_alpha 90.000000
_cell_angle_beta 90.000000
_cell_angle_gamma 90.000000
_cell_volume 3164.078432
_symmetry_space_group_name_H-M "P M M A"
_symmetry_group_IT_number 51
_symmetry_cell_setting 'orthorhombic'
loop_
_space_group_symop_operation_xyz
x,y,z
1/2-x,-y,z
1/2+x,-y,-z
-x,y,-z
-x,-y,-z
1/2+x,y,-z
1/2-x,y,z
x,-y,z
loop_
_atom_site_type_symbol
_atom_site_label
_atom_site_fract_x
_atom_site_fract_y
_atom_site_fract_z
Si Si1 0.609641 0.614539 0.299651
Si Si2 0.305151 0.614525 0.267603
Si Si3 0.513295 0.114309 0.328601
Si Si4 0.695914 0.673883 0.096656
Si Si5 0.860472 0.779012 0.531548
Si Si6 0.804413 0.884175 0.249599
Si Si7 0.551342 0.261281 0.072725
Si Si8 0.912178 0.885657 0.818605
O O1 0.602030 0.500000 0.358237
O O2 0.661119 0.625730 0.224976
O O3 0.606200 0.700524 0.436731
O O4 0.575075 0.641923 0.154878
O O5 0.250000 0.616225 0.284405
O O6 0.321690 0.500000 0.310226
O O7 0.326222 0.702728 0.375843
O O8 0.315141 0.635988 0.080891
O O9 0.500000 0.160149 0.500000
O O10 0.545361 0.179546 0.215536
O O11 0.465559 0.105527 0.233277
O O12 0.532448 0.000000 0.357723
O O13 0.750000 0.650378 0.129467
O O14 0.689966 0.796771 0.115094
O O15 0.834349 0.847120 0.400035
O O16 0.884670 0.849687 0.662784
O O17 0.750000 0.882533 0.293132
O O18 0.816253 0.000000 0.201477
O O19 0.500000 0.280379 0.000000
O O20 0.585276 0.205449 0.947509
O O21 0.897679 0.000000 0.873349
#
# Coordination Sequence:
#
# PCOD9404106 Si02
#       8
#     8   8   8   8   8   8   8   8
#     4  11  23  38  57  81 110 147 190 232 275 322
#     4  10  20  35  55  78 106 142 184 231 280 325
#     4   9  17  32  56  83 110 140 174 217 272 330
#     4   9  19  36  58  83 111 144 184 229 277 330
#     4  11  21  35  53  80 113 144 184 230 276 329
#     4   9  18  34  54  77 111 153 190 226 272 328
#     4  10  21  38  59  82 112 145 184 230 278 331
#     4  10  20  34  55  83 112 141 173 216 273 332
#
# _framework density 20.227060000000002
#
# number of rings (size 3 to 8) (size 9 to 14) (size 15 to 20)
#    0.000    2.125    0.000    3.375    0.000    3.000 
#    0.000   10.000    0.000   10.875    0.000    0.000 
#    0.000    0.000    0.000    0.000    0.000    0.000 
#
# Total GULP energy -357233.706410 kJ/mol
# GULP energy per Si atom -5581.776663 kJ/mol
# Density = 2.018102 g / cm^3
# Si number density = 20.227060 Si / 1000 Ang^3
#
#
#
# Elastic Constant Matrix: (Units=GPa)
#
#
# Indices 1 2 3 4 5 6 
#
# 1 46.5115 19.2156 10.5009 0.0000 0.0000 0.0000
# 2 19.2156 85.8062 -3.5390 0.0000 0.0000 0.0000
# 3 10.5009 -3.5390 41.2970 0.0000 0.0000 0.0000
# 4 0.0000 0.0000 0.0000 24.5767 0.0000 0.0000
# 5 0.0000 0.0000 0.0000 0.0000 34.8270 0.0000
# 6 0.0000 0.0000 0.0000 0.0000 0.0000 9.1786
#
#
#
# Elastic Compliance Matrix: (Units=1/GPa)
#
#
# Indices 1 2 3 4 5 6 
#
# 1 0.025570 -0.006016 -0.007017 0.000000 0.000000 0.000000
# 2 -0.006016 0.013111 0.002653 0.000000 0.000000 0.000000
# 3 -0.007017 0.002653 0.026227 0.000000 0.000000 0.000000
# 4 0.000000 0.000000 0.000000 0.040689 0.000000 0.000000
# 5 0.000000 0.000000 0.000000 0.000000 0.028713 0.000000
# 6 0.000000 0.000000 0.000000 0.000000 0.000000 0.108949
#
#
# Mechanical properties :
#
#
# Convention : Reuss Voigt Hill
#
# Bulk Modulus (GPa) = 22.65131 25.10775 23.87953
# Shear Modulus (GPa) = 17.93827 23.54560 20.74193
#
# Velocity S-wave (km/s) = 2.98123 3.41554 3.20575
# Velocity P-wave (km/s) = 4.80345 5.29098 5.05310
#
# Compressibility (1/GPa) = 0.04414756
#
# Stress axis : x y z
#
# Youngs Moduli (GPa) = 39.10892 76.27344 38.12931
#
# Poissons Ratio (x) = 0.45883 0.26756
# Poissons Ratio (y) = 0.23526 -0.10116
# Poissons Ratio (z) = 0.27444 -0.20236
#
# Static dielectric constant tensor:
#      x y z
#    x 1.727240 0.000000 0.000000 
#    y 0.000000 1.726210 0.000000 
#    z 0.000000 0.000000 1.712990 
# 
# From -- ./inp_files/13160.got.cif
#   From: 2010.05.17/outbox.cif.g08.bks.cpg/sg51_7_cif.got.tgz:13160.got - 2010.06.03 11:52:47.
