data_PCOD9404123
_publ_section_title
;
Structure prediction by ZEFSAII (Michael W. Deem and Ramdas Pophale) SiO2 
 PCOD9404123
Probable space group: P M M A
;
_chemical_formula_sum "Si O2"
_cell_formula_units_Z 56
_cell_length_a 16.115443
_cell_length_b 7.935576
_cell_length_c 21.358662
_cell_angle_alpha 90.000000
_cell_angle_beta 90.000000
_cell_angle_gamma 90.000000
_cell_volume 2731.459382
_symmetry_space_group_name_H-M "P M M A"
_symmetry_group_IT_number 51
_symmetry_cell_setting 'orthorhombic'
loop_
_space_group_symop_operation_xyz
x,y,z
1/2-x,-y,z
1/2+x,-y,-z
-x,y,-z
-x,-y,-z
1/2+x,y,-z
1/2-x,y,z
x,-y,z
loop_
_atom_site_type_symbol
_atom_site_label
_atom_site_fract_x
_atom_site_fract_y
_atom_site_fract_z
Si Si1 0.937728 0.203142 0.735484
Si Si2 0.592544 0.694508 0.483646
Si Si3 0.660187 0.204468 0.854889
Si Si4 0.344013 0.203237 0.385180
Si Si5 0.099239 0.307299 0.809536
Si Si6 0.250000 0.304066 0.593148
Si Si7 0.250000 0.814955 0.730347
Si Si8 0.499347 0.203933 0.928372
O O1 0.862813 0.240352 0.783254
O O2 0.910963 0.255417 0.666633
O O3 0.018336 0.284604 0.765861
O O4 0.950140 0.000000 0.736190
O O5 0.500000 0.768383 0.500000
O O6 0.577073 0.500000 0.464410
O O7 0.639284 0.707467 0.549696
O O8 0.662036 0.766648 0.434789
O O9 0.750000 0.269752 0.872555
O O10 0.584609 0.265190 0.896891
O O11 0.661295 0.000000 0.860550
O O12 0.250000 0.235839 0.363469
O O13 0.351146 0.000000 0.393808
O O14 0.125471 0.500000 0.811014
O O15 0.171344 0.207160 0.775235
O O16 0.072754 0.254529 0.879766
O O17 0.250000 0.500000 0.572587
O O18 0.250000 0.299038 0.668438
O O19 0.250000 0.000000 0.702152
O O20 0.499336 0.000000 0.929041
O O21 0.500000 0.262287 0.000000
#
# Coordination Sequence:
#
# PCOD9404123 Si02
#       8
#     8   8   8   8   8   4   4   8
#     4   9  18  33  54  81 112 147 187 234 290 347
#     4  10  22  39  58  81 112 153 194 236 294 366
#     4   8  13  25  48  76 107 143 186 231 276 327
#     4  10  20  34  55  84 115 145 185 239 294 345
#     4  11  23  40  61  87 119 155 197 242 297 357
#     4  10  22  42  62  86 122 159 200 249 304 366
#     4  12  26  44  66  88 116 153 202 257 306 354
#     4   9  18  35  58  86 121 158 198 241 287 340
#
# _framework density 20.501860000000001
#
# number of rings (size 3 to 8) (size 9 to 14) (size 15 to 20)
#    0.000    2.286    0.714    3.214    2.000    3.429 
#    1.286    0.000    0.000   10.286    0.000    0.000 
#    0.000    0.000    0.000    0.000    0.000    0.000 
#
# Total GULP energy -312190.867046 kJ/mol
# GULP energy per Si atom -5574.836912 kJ/mol
# Density = 2.045520 g / cm^3
# Si number density = 20.501860 Si / 1000 Ang^3
#
#
#
# Elastic Constant Matrix: (Units=GPa)
#
#
# Indices 1 2 3 4 5 6 
#
# 1 105.2080 -0.6637 29.2030 0.0000 0.0000 0.0000
# 2 -0.6637 25.8168 -1.4876 0.0000 0.0000 0.0000
# 3 29.2030 -1.4876 111.7271 0.0000 0.0000 0.0000
# 4 0.0000 0.0000 0.0000 20.6414 0.0000 0.0000
# 5 0.0000 0.0000 0.0000 0.0000 17.9308 0.0000
# 6 0.0000 0.0000 0.0000 0.0000 0.0000 32.9730
#
#
#
# Elastic Compliance Matrix: (Units=1/GPa)
#
#
# Indices 1 2 3 4 5 6 
#
# 1 0.010249 0.000109 -0.002677 0.000000 0.000000 0.000000
# 2 0.000109 0.038765 0.000488 0.000000 0.000000 0.000000
# 3 -0.002677 0.000488 0.009657 0.000000 0.000000 0.000000
# 4 0.000000 0.000000 0.000000 0.048446 0.000000 0.000000
# 5 0.000000 0.000000 0.000000 0.000000 0.055770 0.000000
# 6 0.000000 0.000000 0.000000 0.000000 0.000000 0.030328
#
#
# Mechanical properties :
#
#
# Convention : Reuss Voigt Hill
#
# Bulk Modulus (GPa) = 18.34535 32.98392 25.66463
# Shear Modulus (GPa) = 23.19691 28.68907 25.94299
#
# Velocity S-wave (km/s) = 3.36736 3.74483 3.56110
# Velocity P-wave (km/s) = 4.90779 5.90098 5.42715
#
# Compressibility (1/GPa) = 0.05450972
#
# Stress axis : x y z
#
# Youngs Moduli (GPa) = 97.57204 25.79626 103.55529
#
# Poissons Ratio (x) = -0.00282 0.27726
# Poissons Ratio (y) = -0.01066 -0.05049
# Poissons Ratio (z) = 0.26124 -0.01258
#
# Static dielectric constant tensor:
#      x y z
#    x 1.754530 0.000000 0.000000 
#    y 0.000000 1.756690 0.000000 
#    z 0.000000 0.000000 1.704160 
# 
# From -- ./inp_files/33578.got.cif
#   From: 2010.05.17/outbox.cif.g08.bks.cpg/sg51_17_cif.got.tgz:33578.got - 2010.06.03 11:52:47.
