data_PCOD9404385
_publ_section_title
;
Structure prediction by ZEFSAII (Michael W. Deem and Ramdas Pophale) SiO2 
 PCOD9404385
Probable space group: P M M A
;
_chemical_formula_sum "Si O2"
_cell_formula_units_Z 44
_cell_length_a 8.489637
_cell_length_b 28.989352
_cell_length_c 9.548348
_cell_angle_alpha 90.000000
_cell_angle_beta 90.000000
_cell_angle_gamma 90.000000
_cell_volume 2349.935097
_symmetry_space_group_name_H-M "P M M A"
_symmetry_group_IT_number 51
_symmetry_cell_setting 'orthorhombic'
loop_
_space_group_symop_operation_xyz
x,y,z
1/2-x,-y,z
1/2+x,-y,-z
-x,y,-z
-x,-y,-z
1/2+x,y,-z
1/2-x,y,z
x,-y,z
loop_
_atom_site_type_symbol
_atom_site_label
_atom_site_fract_x
_atom_site_fract_y
_atom_site_fract_z
Si Si1 0.439075 0.187561 0.842546
Si Si2 0.559762 0.000000 0.657503
Si Si3 0.559569 0.637808 0.157745
Si Si4 0.440274 0.274441 0.658068
Si Si5 0.939100 0.913331 0.842811
Si Si6 0.559728 0.552447 0.344221
O O1 0.250000 0.186689 0.846773
O O2 0.491189 0.227903 0.737962
O O3 0.499780 0.137080 0.799640
O O4 0.500000 0.196611 0.000000
O O5 0.500000 0.000000 0.500000
O O6 0.508024 0.045736 0.740914
O O7 0.750000 0.000000 0.656917
O O8 0.750000 0.637911 0.155307
O O9 0.507879 0.681278 0.251630
O O10 0.506669 0.590628 0.233323
O O11 0.500000 0.641371 0.000000
O O12 0.500000 0.276493 0.500000
O O13 0.250000 0.274678 0.655504
O O14 0.750000 0.912285 0.846129
O O15 0.000000 0.922066 0.000000
O O16 0.500000 0.563846 0.500000
O O17 0.750000 0.552930 0.347011
O O18 0.508435 0.500000 0.311189
#
# Coordination Sequence:
#
# PCOD9404385 Si02
#       6
#     8   4   8   8   8   8
#     4  10  20  35  55  80 106 135 172 213 257 306
#     4  10  23  38  54  78 108 140 175 214 258 306
#     4  10  21  36  53  76 105 137 174 216 260 307
#     4  10  22  37  54  77 105 137 174 214 258 309
#     4  10  20  36  57  81 106 137 175 213 256 307
#     4   9  18  33  53  77 105 136 172 214 259 309
#
# _framework density 18.723921000000001
#
# number of rings (size 3 to 8) (size 9 to 14) (size 15 to 20)
#    0.000    2.182    0.000    3.545    0.000    5.455 
#    0.000    3.636    0.000    0.000    0.000    0.000 
#    0.000    0.000    0.000    0.000    0.000    0.000 
#
# Total GULP energy -245711.618629 kJ/mol
# GULP energy per Si atom -5584.354969 kJ/mol
# Density = 1.868130 g / cm^3
# Si number density = 18.723921 Si / 1000 Ang^3
#
#
#
# Elastic Constant Matrix: (Units=GPa)
#
#
# Indices 1 2 3 4 5 6 
#
# 1 21.2923 30.9391 23.3479 0.0000 0.0000 0.0000
# 2 30.9391 181.1824 142.5127 0.0000 0.0000 0.0000
# 3 23.3479 142.5127 165.8337 0.0000 0.0000 0.0000
# 4 0.0000 0.0000 0.0000 42.5241 0.0000 0.0000
# 5 0.0000 0.0000 0.0000 0.0000 35.1842 0.0000
# 6 0.0000 0.0000 0.0000 0.0000 0.0000 -46.1935
#
#
#
# Elastic Compliance Matrix: (Units=1/GPa)
#
#
# Indices 1 2 3 4 5 6 
#
# 1 0.062536 -0.011583 0.001150 0.000000 0.000000 0.000000
# 2 -0.011583 0.019178 -0.014850 0.000000 0.000000 0.000000
# 3 0.001150 -0.014850 0.018630 0.000000 0.000000 0.000000
# 4 0.000000 0.000000 0.000000 0.023516 0.000000 0.000000
# 5 0.000000 0.000000 0.000000 0.000000 0.028422 0.000000
# 6 0.000000 0.000000 0.000000 0.000000 0.000000 -0.021648
#
#
# Mechanical properties :
#
#
# Convention : Reuss Voigt Hill
#
# Bulk Modulus (GPa) = 20.08979 84.65642 52.37311
# Shear Modulus (GPa) = 25.27898 17.73688 21.50793
#
# Velocity S-wave (km/s) = 3.67834 3.08114 3.39291
# Velocity P-wave (km/s) = 5.36592 7.61374 6.58643
#
# Compressibility (1/GPa) = 0.04977652
#
# Stress axis : x y z
#
# Youngs Moduli (GPa) = 15.99091 52.14315 53.67649
#
# Poissons Ratio (x) = 0.60397 -0.06171
# Poissons Ratio (y) = 0.18522 0.79711
# Poissons Ratio (z) = -0.01838 0.77434
#
# Static dielectric constant tensor:
#      x y z
#    x 1.645020 0.000000 0.000000 
#    y 0.000000 1.658660 0.000000 
#    z 0.000000 0.000000 1.596430 
# 
# From -- ./inp_files/5697.got.cif
#   From: 2010.05.17/outbox.cif.g08.bks.cpg/sg51_3_cif.got.tgz:5697.got - 2010.06.03 11:52:47.
