data_PCOD9404169
_publ_section_title
;
Structure prediction by ZEFSAII (Michael W. Deem and Ramdas Pophale) SiO2 
 PCOD9404169
Probable space group: P M M A
;
_chemical_formula_sum "Si O2"
_cell_formula_units_Z 64
_cell_length_a 8.994257
_cell_length_b 24.735899
_cell_length_c 14.808067
_cell_angle_alpha 90.000000
_cell_angle_beta 90.000000
_cell_angle_gamma 90.000000
_cell_volume 3294.514039
_symmetry_space_group_name_H-M "P M M A"
_symmetry_group_IT_number 51
_symmetry_cell_setting 'orthorhombic'
loop_
_space_group_symop_operation_xyz
x,y,z
1/2-x,-y,z
1/2+x,-y,-z
-x,y,-z
-x,-y,-z
1/2+x,y,-z
1/2-x,y,z
x,-y,z
loop_
_atom_site_type_symbol
_atom_site_label
_atom_site_fract_x
_atom_site_fract_y
_atom_site_fract_z
Si Si1 0.572066 0.158990 0.097556
Si Si2 0.072066 0.263882 0.780742
Si Si3 0.921356 0.566072 0.592320
Si Si4 0.075740 0.105449 0.405923
Si Si5 0.426834 0.356122 0.097522
Si Si6 0.070810 0.061819 0.775848
Si Si7 0.075135 0.763901 0.405789
Si Si8 0.579036 0.435087 0.222789
O O1 0.750000 0.157250 0.085996
O O2 0.539082 0.208190 0.165670
O O3 0.522871 0.103864 0.146876
O O4 0.500000 0.166767 0.000000
O O5 0.250000 0.271104 0.779143
O O6 0.992846 0.310870 0.836324
O O7 0.007706 0.260453 0.680282
O O8 0.750000 0.583595 0.596529
O O9 0.921440 0.500000 0.591459
O O10 0.000000 0.583815 0.500000
O O11 0.011102 0.582948 0.681194
O O12 0.250000 0.092412 0.407818
O O13 0.060625 0.170674 0.398882
O O14 0.000000 0.088720 0.500000
O O15 0.999152 0.079012 0.319381
O O16 0.250000 0.352598 0.091519
O O17 0.479766 0.411895 0.142713
O O18 0.500000 0.349510 0.000000
O O19 0.250000 0.066006 0.767988
O O20 0.032436 0.000000 0.797326
O O21 0.250000 0.750748 0.405070
O O22 0.000000 0.747372 0.500000
O O23 0.750000 0.416959 0.213678
O O24 0.577605 0.500000 0.222056
#
# Coordination Sequence:
#
# PCOD9404169 Si02
#       8
#     8   8   8   8   8   8   8   8
#     4  10  22  38  59  85 112 148 193 242 298 355
#     4  11  22  40  65  91 121 156 196 245 298 355
#     4   9  16  28  50  82 119 159 202 246 292 344
#     4  10  20  34  56  84 116 153 195 240 290 351
#     4  12  26  44  65  91 123 158 201 250 303 358
#     4  10  21  38  57  80 114 154 197 246 299 355
#     4  10  20  35  59  91 123 158 196 240 292 355
#     4  10  21  39  63  91 124 163 206 250 300 358
#
# _framework density 19.426234000000001
#
# number of rings (size 3 to 8) (size 9 to 14) (size 15 to 20)
#    0.000    1.750    1.250    3.375    0.000    6.750 
#    0.000    0.625    0.000    0.000    0.000    0.000 
#    0.000    0.000    0.000    0.000    0.000    0.000 
#
# Total GULP energy -357753.870631 kJ/mol
# GULP energy per Si atom -5589.904229 kJ/mol
# Density = 1.938202 g / cm^3
# Si number density = 19.426234 Si / 1000 Ang^3
#
#
#
# Elastic Constant Matrix: (Units=GPa)
#
#
# Indices 1 2 3 4 5 6 
#
# 1 117.7463 39.2069 70.8247 0.0000 0.0000 0.0000
# 2 39.2069 41.1282 45.0106 0.0000 0.0000 0.0000
# 3 70.8247 45.0106 160.9875 0.0000 0.0000 0.0000
# 4 0.0000 0.0000 0.0000 3.0094 0.0000 0.0000
# 5 0.0000 0.0000 0.0000 0.0000 42.0945 0.0000
# 6 0.0000 0.0000 0.0000 0.0000 0.0000 17.0803
#
#
#
# Elastic Compliance Matrix: (Units=1/GPa)
#
#
# Indices 1 2 3 4 5 6 
#
# 1 0.013625 -0.009263 -0.003404 0.000000 0.000000 0.000000
# 2 -0.009263 0.041331 -0.007481 0.000000 0.000000 0.000000
# 3 -0.003404 -0.007481 0.009801 0.000000 0.000000 0.000000
# 4 0.000000 0.000000 0.000000 0.332288 0.000000 0.000000
# 5 0.000000 0.000000 0.000000 0.000000 0.023756 0.000000
# 6 0.000000 0.000000 0.000000 0.000000 0.000000 0.058547
#
#
# Mechanical properties :
#
#
# Convention : Reuss Voigt Hill
#
# Bulk Modulus (GPa) = 40.88088 69.99404 55.43746
# Shear Modulus (GPa) = 9.47334 23.42482 16.44908
#
# Velocity S-wave (km/s) = 2.21069 3.47628 2.91305
# Velocity P-wave (km/s) = 5.25415 7.22645 6.31774
#
# Compressibility (1/GPa) = 0.02446131
#
# Stress axis : x y z
#
# Youngs Moduli (GPa) = 73.39552 24.19484 102.03127
#
# Poissons Ratio (x) = 0.22411 0.34735
# Poissons Ratio (y) = 0.67984 0.76327
# Poissons Ratio (z) = 0.24986 0.18100
#
# Static dielectric constant tensor:
#      x y z
#    x 1.649010 0.000000 0.000000 
#    y 0.000000 1.714680 0.000000 
#    z 0.000000 0.000000 1.634130 
# 
# From -- ./inp_files/22199.got.cif
#   From: 2010.05.17/outbox.cif.g08.bks.cpg/sg51_12_cif.got.tgz:22199.got - 2010.06.03 11:52:47.
