data_PCOD9404449
_publ_section_title
;
Structure prediction by ZEFSAII (Michael W. Deem and Ramdas Pophale) SiO2 
 PCOD9404449
Probable space group: P M M A
;
_chemical_formula_sum "Si O2"
_cell_formula_units_Z 44
_cell_length_a 8.279733
_cell_length_b 19.100911
_cell_length_c 16.386817
_cell_angle_alpha 90.000000
_cell_angle_beta 90.000000
_cell_angle_gamma 90.000000
_cell_volume 2591.582370
_symmetry_space_group_name_H-M "P M M A"
_symmetry_group_IT_number 51
_symmetry_cell_setting 'orthorhombic'
loop_
_space_group_symop_operation_xyz
x,y,z
1/2-x,-y,z
1/2+x,-y,-z
-x,y,-z
-x,-y,-z
1/2+x,y,-z
1/2-x,y,z
x,-y,z
loop_
_atom_site_type_symbol
_atom_site_label
_atom_site_fract_x
_atom_site_fract_y
_atom_site_fract_z
Si Si1 0.062975 0.722024 0.641340
Si Si2 0.056558 0.578875 0.406567
Si Si3 0.434624 0.850163 0.749382
Si Si4 0.750000 0.920211 0.670538
Si Si5 0.943399 0.918188 0.907491
Si Si6 0.250000 0.919648 0.527420
Si Si7 0.500000 0.187953 0.500000
O O1 0.250000 0.726102 0.611196
O O2 0.054172 0.769108 0.721981
O O3 0.014804 0.641604 0.646722
O O4 0.951507 0.759356 0.572243
O O5 0.250000 0.581906 0.404490
O O6 0.005231 0.500000 0.383377
O O7 0.000000 0.590286 0.500000
O O8 0.250000 0.873643 0.728742
O O9 0.585812 0.886643 0.704143
O O10 0.466862 0.868547 0.843469
O O11 0.750000 0.919936 0.571849
O O12 0.750000 0.000000 0.698320
O O13 0.250000 0.909030 0.098849
O O14 0.979886 0.000000 0.887699
O O15 0.000000 0.906231 0.000000
O O16 0.394786 0.868724 0.549078
O O17 0.250000 0.000000 0.555243
#
# Coordination Sequence:
#
# PCOD9404449 Si02
#       7
#     8   8   8   4   8   4   4
#     4  11  23  35  53  75 100 137 175 218 268 317
#     4  10  21  34  52  78 105 135 171 215 266 324
#     4  11  23  37  53  79 105 137 179 223 269 325
#     4  11  22  36  52  72  97 135 177 226 276 314
#     4  10  20  35  56  80 107 139 176 222 276 328
#     4  11  24  38  50  64  91 129 181 232 272 314
#     4  12  21  36  51  70  92 130 178 224 267 314
#
# _framework density 16.978044000000001
#
# number of rings (size 3 to 8) (size 9 to 14) (size 15 to 20)
#    0.000    1.273    4.545    1.909    2.545    3.273 
#    0.000    0.000    0.000    0.000    0.000    0.000 
#    0.000    0.727    0.000    2.364    0.000    3.455 
#
# Total GULP energy -245286.711137 kJ/mol
# GULP energy per Si atom -5574.697980 kJ/mol
# Density = 1.693940 g / cm^3
# Si number density = 16.978044 Si / 1000 Ang^3
#
#
#
# Elastic Constant Matrix: (Units=GPa)
#
#
# Indices 1 2 3 4 5 6 
#
# 1 88.3230 45.6726 21.5520 0.0000 0.0000 0.0000
# 2 45.6726 143.5392 41.6213 0.0000 0.0000 0.0000
# 3 21.5520 41.6213 80.8763 0.0000 0.0000 0.0000
# 4 0.0000 0.0000 0.0000 18.5332 0.0000 0.0000
# 5 0.0000 0.0000 0.0000 0.0000 22.4310 0.0000
# 6 0.0000 0.0000 0.0000 0.0000 0.0000 29.2643
#
#
#
# Elastic Compliance Matrix: (Units=1/GPa)
#
#
# Indices 1 2 3 4 5 6 
#
# 1 0.013739 -0.003890 -0.001659 0.000000 0.000000 0.000000
# 2 -0.003890 0.009290 -0.003744 0.000000 0.000000 0.000000
# 3 -0.001659 -0.003744 0.014734 0.000000 0.000000 0.000000
# 4 0.000000 0.000000 0.000000 0.053957 0.000000 0.000000
# 5 0.000000 0.000000 0.000000 0.000000 0.044581 0.000000
# 6 0.000000 0.000000 0.000000 0.000000 0.000000 0.034171
#
#
# Mechanical properties :
#
#
# Convention : Reuss Voigt Hill
#
# Bulk Modulus (GPa) = 52.15096 58.93670 55.54383
# Shear Modulus (GPa) = 25.58180 27.63856 26.61018
#
# Velocity S-wave (km/s) = 3.88591 4.03910 3.96325
# Velocity P-wave (km/s) = 7.13562 7.51939 7.33002
#
# Compressibility (1/GPa) = 0.01917510
#
# Stress axis : x y z
#
# Youngs Moduli (GPa) = 72.78726 107.63836 67.87213
#
# Poissons Ratio (x) = 0.41876 0.11260
# Poissons Ratio (y) = 0.28318 0.25414
# Poissons Ratio (z) = 0.12075 0.40304
#
# Static dielectric constant tensor:
#      x y z
#    x 1.865150 0.000000 0.000000 
#    y 0.000000 1.576970 0.000000 
#    z 0.000000 0.000000 1.575400 
# 
# From -- ./inp_files/20983.got.cif
#   From: 2010.05.17/outbox.cif.g08.bks.cpg/sg51_11_cif.got.tgz:20983.got - 2010.06.03 11:52:47.
