data_PCOD9404218
_publ_section_title
;
Structure prediction by ZEFSAII (Michael W. Deem and Ramdas Pophale) SiO2 
 PCOD9404218
Probable space group: P M M A
;
_chemical_formula_sum "Si O2"
_cell_formula_units_Z 64
_cell_length_a 14.558296
_cell_length_b 9.055864
_cell_length_c 24.465246
_cell_angle_alpha 90.000000
_cell_angle_beta 90.000000
_cell_angle_gamma 90.000000
_cell_volume 3225.447846
_symmetry_space_group_name_H-M "P M M A"
_symmetry_group_IT_number 51
_symmetry_cell_setting 'orthorhombic'
loop_
_space_group_symop_operation_xyz
x,y,z
1/2-x,-y,z
1/2+x,-y,-z
-x,y,-z
-x,-y,-z
1/2+x,y,-z
1/2-x,y,z
x,-y,z
loop_
_atom_site_type_symbol
_atom_site_label
_atom_site_fract_x
_atom_site_fract_y
_atom_site_fract_z
Si Si1 0.853785 0.169142 0.880398
Si Si2 0.140553 0.332691 0.536632
Si Si3 0.536989 0.173599 0.369236
Si Si4 0.356473 0.325774 0.406755
Si Si5 0.016392 0.325026 0.937308
Si Si6 0.057065 0.672515 0.739047
Si Si7 0.349217 0.330799 0.231662
Si Si8 0.640757 0.823996 0.152623
O O1 0.750000 0.180993 0.901919
O O2 0.850616 0.213355 0.816993
O O3 0.921886 0.283005 0.907806
O O4 0.885162 0.000000 0.887282
O O5 0.250000 0.325217 0.545533
O O6 0.109107 0.500000 0.550102
O O7 0.088962 0.220494 0.575552
O O8 0.126154 0.310584 0.472006
O O9 0.432969 0.231549 0.376590
O O10 0.585349 0.251688 0.317493
O O11 0.537784 0.000000 0.360976
O O12 0.250000 0.285111 0.396935
O O13 0.366675 0.500000 0.392964
O O14 0.034096 0.500000 0.935869
O O15 0.093994 0.242689 0.901839
O O16 0.000000 0.278768 0.000000
O O17 0.081833 0.500000 0.740227
O O18 0.095529 0.749988 0.793589
O O19 0.945901 0.684060 0.738908
O O20 0.250000 0.315488 0.261104
O O21 0.349806 0.500000 0.209477
O O22 0.750000 0.796809 0.152735
O O23 0.625066 0.000000 0.154357
#
# Coordination Sequence:
#
# PCOD9404218 Si02
#       8
#     8   8   8   8   8   8   8   8
#     4  10  20  34  57  88 120 153 188 233 292 352
#     4   9  19  38  63  87 113 152 204 258 309 364
#     4  12  25  37  55  87 126 163 200 250 309 365
#     4   9  19  38  63  88 117 157 204 253 306 367
#     4  11  24  41  63  92 125 162 204 249 295 349
#     4  11  23  40  63  88 118 162 209 251 297 355
#     4   9  18  34  58  86 113 144 186 235 289 352
#     4  11  25  45  68  93 124 162 203 252 310 365
#
# _framework density 19.842206999999998
#
# number of rings (size 3 to 8) (size 9 to 14) (size 15 to 20)
#    0.000    1.750    1.250    3.750    0.000    7.250 
#    0.000    5.000    0.000    0.000    0.000    0.000 
#    0.000    0.000    0.000    0.000    0.000    0.000 
#
# Total GULP energy -357365.364564 kJ/mol
# GULP energy per Si atom -5583.833821 kJ/mol
# Density = 1.979704 g / cm^3
# Si number density = 19.842207 Si / 1000 Ang^3
#
#
#
# Elastic Constant Matrix: (Units=GPa)
#
#
# Indices 1 2 3 4 5 6 
#
# 1 74.4610 45.7919 36.8398 0.0000 0.0000 0.0000
# 2 45.7919 93.9582 61.2418 0.0000 0.0000 0.0000
# 3 36.8398 61.2418 88.2649 0.0000 0.0000 0.0000
# 4 0.0000 0.0000 0.0000 718.7443 0.0000 0.0000
# 5 0.0000 0.0000 0.0000 0.0000 -4.1236 0.0000
# 6 0.0000 0.0000 0.0000 0.0000 0.0000 14.9184
#
#
#
# Elastic Compliance Matrix: (Units=1/GPa)
#
#
# Indices 1 2 3 4 5 6 
#
# 1 0.019557 -0.007688 -0.002829 0.000000 0.000000 0.000000
# 2 -0.007688 0.022452 -0.012370 0.000000 0.000000 0.000000
# 3 -0.002829 -0.012370 0.021093 0.000000 0.000000 0.000000
# 4 0.000000 0.000000 0.000000 0.001391 0.000000 0.000000
# 5 0.000000 0.000000 0.000000 0.000000 -0.242506 0.000000
# 6 0.000000 0.000000 0.000000 0.000000 0.000000 0.067031
#
#
# Mechanical properties :
#
#
# Convention : Reuss Voigt Hill
#
# Bulk Modulus (GPa) = 57.70310 60.49233 59.09771
# Shear Modulus (GPa) = -84.12948 153.42852 34.64952
#
# Velocity S-wave (km/s) = -6.51854 8.80296 4.18335
# Velocity P-wave (km/s) = 5.24509 11.57047 7.29263
#
# Compressibility (1/GPa) = 0.01733009
#
# Stress axis : x y z
#
# Youngs Moduli (GPa) = 51.13221 44.53894 47.40986
#
# Poissons Ratio (x) = 0.34241 0.13410
# Poissons Ratio (y) = 0.39309 0.58644
# Poissons Ratio (z) = 0.14463 0.55093
#
# Static dielectric constant tensor:
#      x y z
#    x 1.723620 0.000000 0.000000 
#    y 0.000000 1.667290 0.000000 
#    z 0.000000 0.000000 1.705080 
# 
# From -- ./inp_files/35663.got.cif
#   From: 2010.05.17/outbox.cif.g08.bks.cpg/sg51_18_cif.got.tgz:35663.got - 2010.06.03 11:52:47.
