data_PCOD9404205
_publ_section_title
;
Structure prediction by ZEFSAII (Michael W. Deem and Ramdas Pophale) SiO2 
 PCOD9404205
Probable space group: P M M A
;
_chemical_formula_sum "Si O2"
_cell_formula_units_Z 64
_cell_length_a 29.387518
_cell_length_b 8.644301
_cell_length_c 13.078286
_cell_angle_alpha 90.000000
_cell_angle_beta 90.000000
_cell_angle_gamma 90.000000
_cell_volume 3322.336515
_symmetry_space_group_name_H-M "P M M A"
_symmetry_group_IT_number 51
_symmetry_cell_setting 'orthorhombic'
loop_
_space_group_symop_operation_xyz
x,y,z
1/2-x,-y,z
1/2+x,-y,-z
-x,y,-z
-x,-y,-z
1/2+x,y,-z
1/2-x,y,z
x,-y,z
loop_
_atom_site_type_symbol
_atom_site_label
_atom_site_fract_x
_atom_site_fract_y
_atom_site_fract_z
Si Si1 0.046252 0.686936 0.768072
Si Si2 0.103455 0.311091 0.964407
Si Si3 0.950404 0.813683 0.456940
Si Si4 0.805068 0.175029 0.322607
Si Si5 0.385796 0.815147 0.356935
Si Si6 0.801513 0.314134 0.103552
Si Si7 0.944103 0.313215 0.827909
Si Si8 0.696980 0.315546 0.539294
O O1 0.046906 0.500000 0.764940
O O2 0.080147 0.737481 0.858167
O O3 0.057732 0.747828 0.655640
O O4 0.995146 0.737551 0.799334
O O5 0.103131 0.500000 0.965097
O O6 0.156351 0.261480 0.966240
O O7 0.073934 0.260297 0.061519
O O8 0.914157 0.765482 0.542382
O O9 0.000000 0.766512 0.500000
O O10 0.949867 0.000000 0.450123
O O11 0.750000 0.167964 0.326263
O O12 0.814790 0.267006 0.219191
O O13 0.818814 0.255498 0.427822
O O14 0.822935 0.000000 0.318065
O O15 0.409823 0.743680 0.258781
O O16 0.334793 0.758459 0.375395
O O17 0.387607 0.000000 0.350627
O O18 0.750000 0.255520 0.082286
O O19 0.799532 0.500000 0.098536
O O20 0.944690 0.500000 0.829123
O O21 0.750000 0.272823 0.551724
O O22 0.693518 0.500000 0.541594
#
# Coordination Sequence:
#
# PCOD9404205 Si02
#       8
#     8   8   8   8   8   8   8   8
#     4  10  20  34  57  84 109 142 186 238 288 337
#     4   9  19  35  55  81 109 141 186 239 288 335
#     4  10  21  38  56  79 115 152 183 225 281 340
#     4   9  17  30  49  74 107 144 178 218 271 326
#     4  11  23  38  58  82 114 153 189 230 282 337
#     4   9  17  31  51  75 105 142 183 227 276 330
#     4  10  20  37  58  79 108 146 190 238 289 339
#     4  10  21  37  57  82 112 147 189 234 278 330
#
# _framework density 19.263549999999999
#
# number of rings (size 3 to 8) (size 9 to 14) (size 15 to 20)
#    0.000    2.250    1.250    1.500    1.750    5.000 
#    0.000    1.875    0.000    3.750    0.000    0.000 
#    0.000    0.000    0.000    0.000    0.000    0.000 
#
# Total GULP energy -357201.197572 kJ/mol
# GULP energy per Si atom -5581.268712 kJ/mol
# Density = 1.921971 g / cm^3
# Si number density = 19.263550 Si / 1000 Ang^3
#
#
#
# Elastic Constant Matrix: (Units=GPa)
#
#
# Indices 1 2 3 4 5 6 
#
# 1 54.1074 6.3485 27.3225 0.0000 0.0000 0.0000
# 2 6.3485 3.1380 5.7267 0.0000 0.0000 0.0000
# 3 27.3225 5.7267 103.7581 0.0000 0.0000 0.0000
# 4 0.0000 0.0000 0.0000 463.5901 0.0000 0.0000
# 5 0.0000 0.0000 0.0000 0.0000 14.6487 0.0000
# 6 0.0000 0.0000 0.0000 0.0000 0.0000 6.1293
#
#
#
# Elastic Compliance Matrix: (Units=1/GPa)
#
#
# Indices 1 2 3 4 5 6 
#
# 1 0.025900 -0.044428 -0.004368 0.000000 0.000000 0.000000
# 2 -0.044428 0.430580 -0.012066 0.000000 0.000000 0.000000
# 3 -0.004368 -0.012066 0.011454 0.000000 0.000000 0.000000
# 4 0.000000 0.000000 0.000000 0.002157 0.000000 0.000000
# 5 0.000000 0.000000 0.000000 0.000000 0.068266 0.000000
# 6 0.000000 0.000000 0.000000 0.000000 0.000000 0.163150
#
#
# Mechanical properties :
#
#
# Convention : Reuss Voigt Hill
#
# Bulk Modulus (GPa) = 2.88841 26.64433 14.76637
# Shear Modulus (GPa) = 5.32689 104.98067 55.15378
#
# Velocity S-wave (km/s) = 1.66471 7.39022 5.35661
# Velocity P-wave (km/s) = 2.27985 9.31032 6.77789
#
# Compressibility (1/GPa) = 0.34621100
#
# Stress axis : x y z
#
# Youngs Moduli (GPa) = 38.60957 2.32245 87.30557
#
# Poissons Ratio (x) = 0.10318 0.38137
# Poissons Ratio (y) = 1.71533 1.05341
# Poissons Ratio (z) = 0.16866 0.02802
#
# Static dielectric constant tensor:
#      x y z
#    x 1.704960 0.000000 0.000000 
#    y 0.000000 1.657330 0.000000 
#    z 0.000000 0.000000 1.635660 
# 
# From -- ./inp_files/19596.got.cif
#   From: 2010.05.17/outbox.cif.g08.bks.cpg/sg51_10_cif.got.tgz:19596.got - 2010.06.03 11:52:47.
