data_PCOD9404678
_publ_section_title
;
Structure prediction by ZEFSAII (Michael W. Deem and Ramdas Pophale) SiO2 
 PCOD9404678
Probable space group: P M M A
;
_chemical_formula_sum "Si O2"
_cell_formula_units_Z 64
_cell_length_a 8.478365
_cell_length_b 24.676430
_cell_length_c 15.499766
_cell_angle_alpha 90.000000
_cell_angle_beta 90.000000
_cell_angle_gamma 90.000000
_cell_volume 3242.795640
_symmetry_space_group_name_H-M "P M M A"
_symmetry_group_IT_number 51
_symmetry_cell_setting 'orthorhombic'
loop_
_space_group_symop_operation_xyz
x,y,z
1/2-x,-y,z
1/2+x,-y,-z
-x,y,-z
-x,-y,-z
1/2+x,y,-z
1/2-x,y,z
x,-y,z
loop_
_atom_site_type_symbol
_atom_site_label
_atom_site_fract_x
_atom_site_fract_y
_atom_site_fract_z
Si Si1 0.059807 0.557731 0.902249
Si Si2 0.941753 0.205529 0.406855
Si Si3 0.931149 0.323503 0.353990
Si Si4 0.568136 0.223150 0.908758
Si Si5 0.061436 0.559243 0.402001
Si Si6 0.067740 0.326656 0.847286
Si Si7 0.935166 0.147555 0.231769
Si Si8 0.938435 0.062459 0.905199
O O1 0.250000 0.557012 0.902338
O O2 0.003377 0.500000 0.866378
O O3 0.011979 0.611604 0.853776
O O4 0.000000 0.561618 0.000000
O O5 0.750000 0.207090 0.404114
O O6 0.998786 0.268316 0.395642
O O7 0.993560 0.167600 0.326118
O O8 0.000000 0.185920 0.500000
O O9 0.750000 0.329112 0.384276
O O10 0.931533 0.311364 0.252488
O O11 0.006726 0.382663 0.365704
O O12 0.750000 0.207635 0.899813
O O13 0.544062 0.287274 0.899989
O O14 0.466569 0.197491 0.832556
O O15 0.500000 0.205515 0.000000
O O16 0.250000 0.559146 0.400541
O O17 0.007837 0.500000 0.364332
O O18 0.000000 0.559260 0.500000
O O19 0.250000 0.322206 0.879011
O O20 0.750000 0.136782 0.239901
O O21 0.009354 0.098260 0.176752
O O22 0.750000 0.063751 0.909338
O O23 0.991654 0.000000 0.894330
O O24 0.000000 0.080633 0.000000
#
# Coordination Sequence:
#
# PCOD9404678 Si02
#       8
#     8   8   8   8   8   8   8   8
#     4   9  18  32  50  70  93 128 173 221 274 334
#     4  10  22  39  60  86 117 154 196 249 305 360
#     4  10  20  36  56  79 108 141 181 235 298 359
#     4  12  24  37  56  82 115 155 194 236 291 348
#     4  10  21  36  53  75 102 133 175 228 289 358
#     4  10  20  36  54  75 106 137 178 232 283 346
#     4  11  22  40  62  88 124 161 204 252 296 345
#     4  10  21  38  62  96 136 175 213 250 292 345
#
# _framework density 19.736056000000001
#
# number of rings (size 3 to 8) (size 9 to 14) (size 15 to 20)
#    0.000    1.750    1.250    3.375    0.000    6.500 
#    0.000    1.250    0.000    1.875    0.000    0.000 
#    0.000    0.000    0.000    0.000    0.000    0.000 
#
# Total GULP energy -356963.718159 kJ/mol
# GULP energy per Si atom -5577.558096 kJ/mol
# Density = 1.969114 g / cm^3
# Si number density = 19.736056 Si / 1000 Ang^3
#
#
#
# Elastic Constant Matrix: (Units=GPa)
#
#
# Indices 1 2 3 4 5 6 
#
# 1 26.0812 20.7900 9.5979 0.0000 0.0000 0.0000
# 2 20.7900 126.3438 53.3330 0.0000 0.0000 0.0000
# 3 9.5979 53.3330 116.4541 0.0000 0.0000 0.0000
# 4 0.0000 0.0000 0.0000 42.9580 0.0000 0.0000
# 5 0.0000 0.0000 0.0000 0.0000 24.4702 0.0000
# 6 0.0000 0.0000 0.0000 0.0000 0.0000 28.6542
#
#
#
# Elastic Compliance Matrix: (Units=1/GPa)
#
#
# Indices 1 2 3 4 5 6 
#
# 1 0.044144 -0.007101 -0.000386 0.000000 0.000000 0.000000
# 2 -0.007101 0.010954 -0.004431 0.000000 0.000000 0.000000
# 3 -0.000386 -0.004431 0.010648 0.000000 0.000000 0.000000
# 4 0.000000 0.000000 0.000000 0.023279 0.000000 0.000000
# 5 0.000000 0.000000 0.000000 0.000000 0.040866 0.000000
# 6 0.000000 0.000000 0.000000 0.000000 0.000000 0.034899
#
#
# Mechanical properties :
#
#
# Convention : Reuss Voigt Hill
#
# Bulk Modulus (GPa) = 23.86094 48.48009 36.17052
# Shear Modulus (GPa) = 24.67951 31.56034 28.11993
#
# Velocity S-wave (km/s) = 3.54005 4.00324 3.77875
# Velocity P-wave (km/s) = 5.36894 6.78126 6.11600
#
# Compressibility (1/GPa) = 0.04190950
#
# Stress axis : x y z
#
# Youngs Moduli (GPa) = 22.65299 91.29093 93.91107
#
# Poissons Ratio (x) = 0.64825 0.03627
# Poissons Ratio (y) = 0.16086 0.41616
# Poissons Ratio (z) = 0.00875 0.40455
#
# Static dielectric constant tensor:
#      x y z
#    x 1.703080 0.000000 0.000000 
#    y 0.000000 1.754960 0.000000 
#    z 0.000000 0.000000 1.622490 
# 
# From -- ./inp_files/22401.got.cif
#   From: 2010.05.17/outbox.cif.g08.bks.cpg/sg51_12_cif.got.tgz:22401.got - 2010.06.03 11:52:47.
