data_PCOD9404910
_publ_section_title
;
Structure prediction by ZEFSAII (Michael W. Deem and Ramdas Pophale) SiO2 
 PCOD9404910
Probable space group: P M M A
;
_chemical_formula_sum "Si O2"
_cell_formula_units_Z 48
_cell_length_a 14.043671
_cell_length_b 8.786525
_cell_length_c 21.440094
_cell_angle_alpha 90.000000
_cell_angle_beta 90.000000
_cell_angle_gamma 90.000000
_cell_volume 2645.601821
_symmetry_space_group_name_H-M "P M M A"
_symmetry_group_IT_number 51
_symmetry_cell_setting 'orthorhombic'
loop_
_space_group_symop_operation_xyz
x,y,z
1/2-x,-y,z
1/2+x,-y,-z
-x,y,-z
-x,-y,-z
1/2+x,y,-z
1/2-x,y,z
x,-y,z
loop_
_atom_site_type_symbol
_atom_site_label
_atom_site_fract_x
_atom_site_fract_y
_atom_site_fract_z
Si Si1 0.360717 0.817123 0.470052
Si Si2 0.864724 0.675722 0.038766
Si Si3 0.459267 0.317963 0.592147
Si Si4 0.141086 0.683477 0.101480
Si Si5 0.861833 0.816132 0.286192
Si Si6 0.037677 0.180845 0.842455
O O1 0.250000 0.781341 0.458355
O O2 0.434896 0.746231 0.421015
O O3 0.393937 0.750857 0.536767
O O4 0.371539 0.000000 0.471054
O O5 0.750000 0.676197 0.040903
O O6 0.896936 0.500000 0.045410
O O7 0.905280 0.769496 0.095912
O O8 0.889602 0.730127 0.968918
O O9 0.459609 0.500000 0.587739
O O10 0.417377 0.262088 0.657427
O O11 0.250000 0.733081 0.111838
O O12 0.140391 0.500000 0.101620
O O13 0.066299 0.746408 0.150426
O O14 0.750000 0.777412 0.288160
O O15 0.906912 0.771013 0.219817
O O16 0.869544 0.000000 0.292338
O O17 0.029163 0.000000 0.841150
#
# Coordination Sequence:
#
# PCOD9404910 Si02
#       6
#     8   8   8   8   8   8
#     4  10  20  36  60  86 114 150 185 216 258 314
#     4   9  18  33  53  76 103 137 175 215 263 321
#     4  11  22  35  56  86 116 144 179 226 271 309
#     4   9  19  36  55  74 100 137 178 218 265 322
#     4  10  22  40  57  74 105 147 183 215 259 320
#     4  11  22  34  52  79 107 136 174 221 270 317
#
# _framework density 18.143319999999999
#
# number of rings (size 3 to 8) (size 9 to 14) (size 15 to 20)
#    0.000    2.000    0.000    6.000    0.000    9.000 
#    0.000    2.500    0.000    1.000    0.000    0.000 
#    0.000    0.000    0.000    0.000    0.000    0.000 
#
# Total GULP energy -268086.222060 kJ/mol
# GULP energy per Si atom -5585.129626 kJ/mol
# Density = 1.810202 g / cm^3
# Si number density = 18.143320 Si / 1000 Ang^3
#
#
#
# Elastic Constant Matrix: (Units=GPa)
#
#
# Indices 1 2 3 4 5 6 
#
# 1 150.3327 55.3033 85.9026 0.0000 0.0000 0.0000
# 2 55.3033 59.0331 49.3341 0.0000 0.0000 0.0000
# 3 85.9026 49.3341 112.8381 0.0000 0.0000 0.0000
# 4 0.0000 0.0000 0.0000 35.2220 0.0000 0.0000
# 5 0.0000 0.0000 0.0000 0.0000 25.1342 0.0000
# 6 0.0000 0.0000 0.0000 0.0000 0.0000 23.7109
#
#
#
# Elastic Compliance Matrix: (Units=1/GPa)
#
#
# Indices 1 2 3 4 5 6 
#
# 1 0.013067 -0.006189 -0.007242 0.000000 0.000000 0.000000
# 2 -0.006189 0.029624 -0.008240 0.000000 0.000000 0.000000
# 3 -0.007242 -0.008240 0.017978 0.000000 0.000000 0.000000
# 4 0.000000 0.000000 0.000000 0.028391 0.000000 0.000000
# 5 0.000000 0.000000 0.000000 0.000000 0.039786 0.000000
# 6 0.000000 0.000000 0.000000 0.000000 0.000000 0.042175
#
#
# Mechanical properties :
#
#
# Convention : Reuss Voigt Hill
#
# Bulk Modulus (GPa) = 57.71417 78.14265 67.92841
# Shear Modulus (GPa) = 22.71292 25.59102 24.15197
#
# Velocity S-wave (km/s) = 3.54200 3.75973 3.65249
# Velocity P-wave (km/s) = 6.97187 7.87468 7.43698
#
# Compressibility (1/GPa) = 0.01732677
#
# Stress axis : x y z
#
# Youngs Moduli (GPa) = 76.53006 33.75603 55.62408
#
# Poissons Ratio (x) = 0.20893 0.40280
# Poissons Ratio (y) = 0.47368 0.45835
# Poissons Ratio (z) = 0.55419 0.27815
#
# Static dielectric constant tensor:
#      x y z
#    x 1.636340 0.000000 0.000000 
#    y 0.000000 1.610450 0.000000 
#    z 0.000000 0.000000 1.598000 
# 
# From -- ./inp_files/29445.got.cif
#   From: 2010.05.17/outbox.cif.g08.bks.cpg/sg51_15_cif.got.tgz:29445.got - 2010.06.03 11:52:47.
