data_PCOD9404791
_publ_section_title
;
Structure prediction by ZEFSAII (Michael W. Deem and Ramdas Pophale) SiO2 
 PCOD9404791
Probable space group: P M M A
;
_chemical_formula_sum "Si O2"
_cell_formula_units_Z 48
_cell_length_a 8.071215
_cell_length_b 14.915621
_cell_length_c 21.295212
_cell_angle_alpha 90.000000
_cell_angle_beta 90.000000
_cell_angle_gamma 90.000000
_cell_volume 2563.670604
_symmetry_space_group_name_H-M "P M M A"
_symmetry_group_IT_number 51
_symmetry_cell_setting 'orthorhombic'
loop_
_space_group_symop_operation_xyz
x,y,z
1/2-x,-y,z
1/2+x,-y,-z
-x,y,-z
-x,-y,-z
1/2+x,y,-z
1/2-x,y,z
x,-y,z
loop_
_atom_site_type_symbol
_atom_site_label
_atom_site_fract_x
_atom_site_fract_y
_atom_site_fract_z
Si Si1 0.048330 0.598833 0.740562
Si Si2 0.950117 0.599932 0.112124
Si Si3 0.550277 0.102793 0.430078
Si Si4 0.546557 0.213540 0.309972
Si Si5 0.552664 0.898858 0.189324
Si Si6 0.443148 0.209475 0.068617
O O1 0.250000 0.598370 0.739007
O O2 0.991671 0.500000 0.720059
O O3 0.004547 0.610062 0.814136
O O4 0.991920 0.684241 0.701129
O O5 0.750000 0.603275 0.108368
O O6 0.003262 0.500000 0.091551
O O7 0.019863 0.684696 0.075830
O O8 0.500000 0.131203 0.500000
O O9 0.750000 0.100933 0.427383
O O10 0.491858 0.167159 0.374353
O O11 0.491516 0.000000 0.420611
O O12 0.750000 0.213825 0.309869
O O13 0.490263 0.155329 0.249972
O O14 0.750000 0.905548 0.198170
O O15 0.525767 0.843194 0.125947
O O16 0.485205 0.000000 0.185320
O O17 0.250000 0.194477 0.074478
O O18 0.500000 0.179180 0.000000
#
# Coordination Sequence:
#
# PCOD9404791 Si02
#       6
#     8   8   8   8   8   8
#     4   8  13  23  46  78 104 125 156 203 252 298
#     4   9  17  33  57  81 105 132 166 211 260 310
#     4   9  17  29  46  71 102 136 171 207 248 295
#     4   9  15  27  51  78 103 130 167 209 252 303
#     4  10  20  36  58  80 101 128 168 219 268 313
#     4  12  25  39  55  74 103 139 174 213 259 314
#
# _framework density 18.723154999999998
#
# number of rings (size 3 to 8) (size 9 to 14) (size 15 to 20)
#    0.000    2.500    1.667    3.000    0.000    3.333 
#    0.000    0.833    0.000    2.500    0.000    0.000 
#    0.000    0.000    0.000    0.000    0.000    0.000 
#
# Total GULP energy -267780.296946 kJ/mol
# GULP energy per Si atom -5578.756186 kJ/mol
# Density = 1.868054 g / cm^3
# Si number density = 18.723155 Si / 1000 Ang^3
#
#
#
# Elastic Constant Matrix: (Units=GPa)
#
#
# Indices 1 2 3 4 5 6 
#
# 1 8.4824 1.7929 -2.5013 0.0000 0.0000 0.0000
# 2 1.7929 127.1114 76.3009 0.0000 0.0000 0.0000
# 3 -2.5013 76.3009 131.1716 0.0000 0.0000 0.0000
# 4 0.0000 0.0000 0.0000 20.7220 0.0000 0.0000
# 5 0.0000 0.0000 0.0000 0.0000 17.7397 0.0000
# 6 0.0000 0.0000 0.0000 0.0000 0.0000 5.8643
#
#
#
# Elastic Compliance Matrix: (Units=1/GPa)
#
#
# Indices 1 2 3 4 5 6 
#
# 1 0.120378 -0.004726 0.005045 0.000000 0.000000 0.000000
# 2 -0.004726 0.012273 -0.007229 0.000000 0.000000 0.000000
# 3 0.005045 -0.007229 0.011925 0.000000 0.000000 0.000000
# 4 0.000000 0.000000 0.000000 0.048258 0.000000 0.000000
# 5 0.000000 0.000000 0.000000 0.000000 0.056371 0.000000
# 6 0.000000 0.000000 0.000000 0.000000 0.000000 0.170525
#
#
# Mechanical properties :
#
#
# Convention : Reuss Voigt Hill
#
# Bulk Modulus (GPa) = 7.64791 46.43893 27.04342
# Shear Modulus (GPa) = 10.47919 21.61005 16.04462
#
# Velocity S-wave (km/s) = 2.36835 3.40102 2.93053
# Velocity P-wave (km/s) = 3.40182 6.34660 5.09174
#
# Compressibility (1/GPa) = 0.13075471
#
# Stress axis : x y z
#
# Youngs Moduli (GPa) = 8.30717 81.47741 83.85717
#
# Poissons Ratio (x) = 0.38506 -0.42302
# Poissons Ratio (y) = 0.03926 0.60623
# Poissons Ratio (z) = -0.04191 0.58903
#
# Static dielectric constant tensor:
#      x y z
#    x 1.664440 0.000000 0.000000 
#    y 0.000000 1.665140 0.000000 
#    z 0.000000 0.000000 1.586480 
# 
# From -- ./inp_files/31561.got.cif
#   From: 2010.05.17/outbox.cif.g08.bks.cpg/sg51_16_cif.got.tgz:31561.got - 2010.06.03 11:52:47.
