data_PCOD9404291
_publ_section_title
;
Structure prediction by ZEFSAII (Michael W. Deem and Ramdas Pophale) SiO2 
 PCOD9404291
Probable space group: P M M A
;
_chemical_formula_sum "Si O2"
_cell_formula_units_Z 48
_cell_length_a 14.575992
_cell_length_b 9.160339
_cell_length_c 17.823438
_cell_angle_alpha 90.000000
_cell_angle_beta 90.000000
_cell_angle_gamma 90.000000
_cell_volume 2379.803764
_symmetry_space_group_name_H-M "P M M A"
_symmetry_group_IT_number 51
_symmetry_cell_setting 'orthorhombic'
loop_
_space_group_symop_operation_xyz
x,y,z
1/2-x,-y,z
1/2+x,-y,-z
-x,y,-z
-x,-y,-z
1/2+x,y,-z
1/2-x,y,z
x,-y,z
loop_
_atom_site_type_symbol
_atom_site_label
_atom_site_fract_x
_atom_site_fract_y
_atom_site_fract_z
Si Si1 0.965349 0.671974 0.675946
Si Si2 0.143349 0.170305 0.628695
Si Si3 0.858947 0.165294 0.550555
Si Si4 0.394244 0.666205 0.027204
Si Si5 0.447990 0.174792 0.174522
Si Si6 0.847909 0.174483 0.122404
O O1 0.961346 0.500000 0.687054
O O2 0.913749 0.721279 0.600425
O O3 0.921260 0.756056 0.746355
O O4 0.069661 0.727882 0.667637
O O5 0.250000 0.204126 0.643461
O O6 0.128652 0.181916 0.538738
O O7 0.128013 0.000000 0.650046
O O8 0.750000 0.176146 0.564623
O O9 0.889333 0.000000 0.570393
O O10 0.361895 0.500000 0.036404
O O11 0.394073 0.754449 0.104840
O O12 0.500000 0.660009 0.000000
O O13 0.347842 0.750077 0.958710
O O14 0.556389 0.213380 0.162017
O O15 0.438892 0.000000 0.174331
O O16 0.750000 0.210016 0.160685
O O17 0.851369 0.000000 0.112664
#
# Coordination Sequence:
#
# PCOD9404291 Si02
#       6
#     8   8   8   8   8   8
#     4  12  24  35  52  82 118 151 181 222 281 340
#     4   9  19  37  60  83 108 143 188 232 271 321
#     4   9  19  38  62  83 104 138 187 236 277 324
#     4   9  17  31  51  74 100 129 162 203 252 304
#     4  10  20  35  54  74 102 142 182 219 259 309
#     4   9  18  33  54  79 103 131 172 217 259 309
#
# _framework density 20.169730000000001
#
# number of rings (size 3 to 8) (size 9 to 14) (size 15 to 20)
#    0.000    2.333    0.000    4.000    0.000    7.000 
#    0.000    4.167    0.000    5.000    0.000    0.000 
#    0.000    0.000    0.000    0.000    0.000    0.000 
#
# Total GULP energy -268021.268714 kJ/mol
# GULP energy per Si atom -5583.776432 kJ/mol
# Density = 2.012382 g / cm^3
# Si number density = 20.169730 Si / 1000 Ang^3
#
#
#
# Elastic Constant Matrix: (Units=GPa)
#
#
# Indices 1 2 3 4 5 6 
#
# 1 26.9067 4.3786 3.0685 0.0000 0.0000 0.0000
# 2 4.3786 55.7027 35.5586 0.0000 0.0000 0.0000
# 3 3.0685 35.5586 57.6387 0.0000 0.0000 0.0000
# 4 0.0000 0.0000 0.0000 -23.3283 0.0000 0.0000
# 5 0.0000 0.0000 0.0000 0.0000 4.9448 0.0000
# 6 0.0000 0.0000 0.0000 0.0000 0.0000 -1.3885
#
#
#
# Elastic Compliance Matrix: (Units=1/GPa)
#
#
# Indices 1 2 3 4 5 6 
#
# 1 0.037650 -0.002771 -0.000295 0.000000 0.000000 0.000000
# 2 -0.002771 0.029820 -0.018249 0.000000 0.000000 0.000000
# 3 -0.000295 -0.018249 0.028623 0.000000 0.000000 0.000000
# 4 0.000000 0.000000 0.000000 -0.042866 0.000000 0.000000
# 5 0.000000 0.000000 0.000000 0.000000 0.202233 0.000000
# 6 0.000000 0.000000 0.000000 0.000000 0.000000 -0.720222
#
#
# Mechanical properties :
#
#
# Convention : Reuss Voigt Hill
#
# Bulk Modulus (GPa) = 18.70448 25.13996 21.92222
# Shear Modulus (GPa) = -12.36669 2.52844 -4.91913
#
# Velocity S-wave (km/s) = -2.47884 1.12085 -1.56338
# Velocity P-wave (km/s) = 1.04921 3.76382 2.76289
#
# Compressibility (1/GPa) = 0.05346313
#
# Stress axis : x y z
#
# Youngs Moduli (GPa) = 26.56037 33.53481 34.93655
#
# Poissons Ratio (x) = 0.09294 0.01029
# Poissons Ratio (y) = 0.07361 0.63756
# Poissons Ratio (z) = 0.00783 0.61197
#
# Static dielectric constant tensor:
#      x y z
#    x 1.761100 0.000000 0.000000 
#    y 0.000000 1.671500 0.000000 
#    z 0.000000 0.000000 1.705340 
# 
# From -- ./inp_files/29396.got.cif
#   From: 2010.05.17/outbox.cif.g08.bks.cpg/sg51_15_cif.got.tgz:29396.got - 2010.06.03 11:52:47.
