data_PCOD9404688
_publ_section_title
;
Structure prediction by ZEFSAII (Michael W. Deem and Ramdas Pophale) SiO2 
 PCOD9404688
Probable space group: P M M A
;
_chemical_formula_sum "Si O2"
_cell_formula_units_Z 44
_cell_length_a 8.602502
_cell_length_b 28.407829
_cell_length_c 10.083737
_cell_angle_alpha 90.000000
_cell_angle_beta 90.000000
_cell_angle_gamma 90.000000
_cell_volume 2464.247572
_symmetry_space_group_name_H-M "P M M A"
_symmetry_group_IT_number 51
_symmetry_cell_setting 'orthorhombic'
loop_
_space_group_symop_operation_xyz
x,y,z
1/2-x,-y,z
1/2+x,-y,-z
-x,y,-z
-x,-y,-z
1/2+x,y,-z
1/2-x,y,z
x,-y,z
loop_
_atom_site_type_symbol
_atom_site_label
_atom_site_fract_x
_atom_site_fract_y
_atom_site_fract_z
Si Si1 0.937780 0.553382 0.852758
Si Si2 0.937010 0.080925 0.854446
Si Si3 0.437393 0.632193 0.352998
Si Si4 0.435494 0.814453 0.855395
Si Si5 0.063176 0.739563 0.351986
Si Si6 0.562482 0.000000 0.649692
O O1 0.750000 0.554673 0.856269
O O2 0.984372 0.500000 0.814673
O O3 0.992416 0.592911 0.750188
O O4 0.000000 0.562428 0.000000
O O5 0.750000 0.081712 0.861387
O O6 0.998874 0.133351 0.827247
O O7 0.984699 0.045194 0.738106
O O8 0.000000 0.066569 0.000000
O O9 0.500000 0.623051 0.500000
O O10 0.250000 0.630574 0.357335
O O11 0.481109 0.685733 0.315121
O O12 0.250000 0.816521 0.859482
O O13 0.492614 0.777200 0.747886
O O14 0.500000 0.800883 0.000000
O O15 0.250000 0.743032 0.351637
O O16 0.000000 0.747772 0.500000
O O17 0.500000 0.000000 0.500000
O O18 0.750000 0.000000 0.642692
#
# Coordination Sequence:
#
# PCOD9404688 Si02
#       6
#     8   8   8   8   8   4
#     4   9  18  33  51  73 102 134 169 211 258 308
#     4  10  20  37  58  82 109 141 179 219 262 312
#     4   9  19  34  52  75 103 135 172 213 257 308
#     4  11  22  37  57  82 109 141 179 221 266 314
#     4  10  20  36  55  77 106 140 177 218 265 317
#     4  10  23  38  56  82 112 142 177 218 260 310
#
# _framework density 17.855349
#
# number of rings (size 3 to 8) (size 9 to 14) (size 15 to 20)
#    0.000    2.182    0.000    4.091    0.000    4.727 
#    0.000    3.636    0.000    0.000    0.000    0.000 
#    0.000    0.000    0.000    0.000    0.000    0.000 
#
# Total GULP energy -245608.419550 kJ/mol
# GULP energy per Si atom -5582.009535 kJ/mol
# Density = 1.781471 g / cm^3
# Si number density = 17.855349 Si / 1000 Ang^3
#
#
#
# Elastic Constant Matrix: (Units=GPa)
#
#
# Indices 1 2 3 4 5 6 
#
# 1 61.6086 46.0167 44.8677 0.0000 0.0000 0.0000
# 2 46.0167 147.4659 134.1282 0.0000 0.0000 0.0000
# 3 44.8677 134.1282 153.9735 0.0000 0.0000 0.0000
# 4 0.0000 0.0000 0.0000 48.2063 0.0000 0.0000
# 5 0.0000 0.0000 0.0000 0.0000 35.7030 0.0000
# 6 0.0000 0.0000 0.0000 0.0000 0.0000 -40.2356
#
#
#
# Elastic Compliance Matrix: (Units=1/GPa)
#
#
# Indices 1 2 3 4 5 6 
#
# 1 0.021292 -0.004819 -0.002006 0.000000 0.000000 0.000000
# 2 -0.004819 0.033744 -0.027990 0.000000 0.000000 0.000000
# 3 -0.002006 -0.027990 0.031462 0.000000 0.000000 0.000000
# 4 0.000000 0.000000 0.000000 0.020744 0.000000 0.000000
# 5 0.000000 0.000000 0.000000 0.000000 0.028009 0.000000
# 6 0.000000 0.000000 0.000000 0.000000 0.000000 -0.024854
#
#
# Mechanical properties :
#
#
# Convention : Reuss Voigt Hill
#
# Bulk Modulus (GPa) = 59.29059 90.34145 74.81602
# Shear Modulus (GPa) = 26.93227 17.93711 22.43469
#
# Velocity S-wave (km/s) = 3.88797 3.17295 3.54852
# Velocity P-wave (km/s) = 7.30981 8.00810 7.66690
#
# Compressibility (1/GPa) = 0.01686608
#
# Stress axis : x y z
#
# Youngs Moduli (GPa) = 46.96522 29.63521 31.78458
#
# Poissons Ratio (x) = 0.14282 0.06377
# Poissons Ratio (y) = 0.22634 0.88965
# Poissons Ratio (z) = 0.09423 0.82949
#
# Static dielectric constant tensor:
#      x y z
#    x 1.601970 0.000000 0.000000 
#    y 0.000000 1.613170 0.000000 
#    z 0.000000 0.000000 1.574550 
# 
# From -- ./inp_files/5832.got.cif
#   From: 2010.05.17/outbox.cif.g08.bks.cpg/sg51_3_cif.got.tgz:5832.got - 2010.06.03 11:52:47.
