data_PCOD9404790
_publ_section_title
;
Structure prediction by ZEFSAII (Michael W. Deem and Ramdas Pophale) SiO2 
 PCOD9404790
Probable space group: P M M A
;
_chemical_formula_sum "Si O2"
_cell_formula_units_Z 64
_cell_length_a 8.779217
_cell_length_b 20.690501
_cell_length_c 20.540553
_cell_angle_alpha 90.000000
_cell_angle_beta 90.000000
_cell_angle_gamma 90.000000
_cell_volume 3731.117468
_symmetry_space_group_name_H-M "P M M A"
_symmetry_group_IT_number 51
_symmetry_cell_setting 'orthorhombic'
loop_
_space_group_symop_operation_xyz
x,y,z
1/2-x,-y,z
1/2+x,-y,-z
-x,y,-z
-x,-y,-z
1/2+x,y,-z
1/2-x,y,z
x,-y,z
loop_
_atom_site_type_symbol
_atom_site_label
_atom_site_fract_x
_atom_site_fract_y
_atom_site_fract_z
Si Si1 0.068175 0.575852 0.070647
Si Si2 0.933400 0.072072 0.146884
Si Si3 0.073245 0.742208 0.566796
Si Si4 0.932002 0.193908 0.927668
Si Si5 0.064657 0.108705 0.709222
Si Si6 0.433409 0.312547 0.844882
Si Si7 0.426798 0.899640 0.567658
Si Si8 0.935639 0.259291 0.292367
O O1 0.250000 0.584457 0.069068
O O2 0.034976 0.500000 0.081787
O O3 0.995253 0.621623 0.124584
O O4 0.000000 0.593409 0.000000
O O5 0.750000 0.083101 0.143749
O O6 0.977431 0.075371 0.223327
O O7 0.016485 0.127947 0.107519
O O8 0.964867 0.000000 0.121960
O O9 0.250000 0.725222 0.564575
O O10 0.064310 0.820883 0.568228
O O11 0.008650 0.719472 0.636256
O O12 0.000000 0.719603 0.500000
O O13 0.750000 0.198690 0.929902
O O14 0.000535 0.253453 0.886941
O O15 0.000000 0.195434 0.000000
O O16 0.250000 0.106584 0.705099
O O17 0.009658 0.082037 0.639182
O O18 0.020467 0.184107 0.716409
O O19 0.250000 0.310943 0.848132
O O20 0.481139 0.300425 0.770049
O O21 0.500000 0.921709 0.500000
O O22 0.250000 0.917933 0.565454
O O23 0.750000 0.259444 0.294658
#
# Coordination Sequence:
#
# PCOD9404790 Si02
#       8
#     8   8   8   8   8   8   8   8
#     4  10  21  37  55  77 108 143 177 211 248 295
#     4  10  20  36  58  78  95 122 164 211 258 309
#     4   8  13  22  36  58  88 125 161 195 237 287
#     4  12  25  40  57  77 102 130 162 203 253 308
#     4   8  13  26  46  67  92 122 158 198 246 299
#     4  11  20  34  57  81 107 137 172 212 250 296
#     4   8  13  21  37  59  86 119 154 193 234 285
#     4   8  14  25  45  68  95 129 163 200 247 296
#
# _framework density 17.153037000000001
#
# number of rings (size 3 to 8) (size 9 to 14) (size 15 to 20)
#    0.000    2.625    1.250    3.750    0.000    1.250 
#    0.000    1.875    0.000    0.375    0.000    0.000 
#    0.000    0.500    0.000    1.125    0.000    2.000 
#
# Total GULP energy -356743.460429 kJ/mol
# GULP energy per Si atom -5574.116569 kJ/mol
# Density = 1.711400 g / cm^3
# Si number density = 17.153037 Si / 1000 Ang^3
#
#
#
# Elastic Constant Matrix: (Units=GPa)
#
#
# Indices 1 2 3 4 5 6 
#
# 1 44.5407 28.6720 43.1163 0.0000 0.0000 0.0000
# 2 28.6720 59.2354 55.2770 0.0000 0.0000 0.0000
# 3 43.1163 55.2770 162.6219 0.0000 0.0000 0.0000
# 4 0.0000 0.0000 0.0000 80.8624 0.0000 0.0000
# 5 0.0000 0.0000 0.0000 0.0000 25.7159 0.0000
# 6 0.0000 0.0000 0.0000 0.0000 0.0000 22.9369
#
#
#
# Elastic Compliance Matrix: (Units=1/GPa)
#
#
# Indices 1 2 3 4 5 6 
#
# 1 0.035396 -0.012266 -0.005215 0.000000 0.000000 0.000000
# 2 -0.012266 0.028975 -0.006597 0.000000 0.000000 0.000000
# 3 -0.005215 -0.006597 0.009774 0.000000 0.000000 0.000000
# 4 0.000000 0.000000 0.000000 0.012367 0.000000 0.000000
# 5 0.000000 0.000000 0.000000 0.000000 0.038886 0.000000
# 6 0.000000 0.000000 0.000000 0.000000 0.000000 0.043598
#
#
# Mechanical properties :
#
#
# Convention : Reuss Voigt Hill
#
# Bulk Modulus (GPa) = 38.47797 57.83651 48.15724
# Shear Modulus (GPa) = 22.14202 35.19190 28.66696
#
# Velocity S-wave (km/s) = 3.59674 4.53442 4.09252
# Velocity P-wave (km/s) = 6.30314 7.82341 7.10406
#
# Compressibility (1/GPa) = 0.02598890
#
# Stress axis : x y z
#
# Youngs Moduli (GPa) = 28.25195 34.51256 102.30952
#
# Poissons Ratio (x) = 0.42333 0.53356
# Poissons Ratio (y) = 0.34654 0.67491
# Poissons Ratio (z) = 0.14734 0.22767
#
# Static dielectric constant tensor:
#      x y z
#    x 1.582870 0.000000 0.000000 
#    y 0.000000 1.569500 0.000000 
#    z 0.000000 0.000000 1.615410 
# 
# From -- ./inp_files/32639.got.cif
#   From: 2010.05.17/outbox.cif.g08.bks.cpg/sg51_17_cif.got.tgz:32639.got - 2010.06.03 11:52:47.
