data_PCOD9404632
_publ_section_title
;
Structure prediction by ZEFSAII (Michael W. Deem and Ramdas Pophale) SiO2 
 PCOD9404632
Probable space group: P M M A
;
_chemical_formula_sum "Si O2"
_cell_formula_units_Z 64
_cell_length_a 8.694534
_cell_length_b 14.887276
_cell_length_c 25.767195
_cell_angle_alpha 90.000000
_cell_angle_beta 90.000000
_cell_angle_gamma 90.000000
_cell_volume 3335.252314
_symmetry_space_group_name_H-M "P M M A"
_symmetry_group_IT_number 51
_symmetry_cell_setting 'orthorhombic'
loop_
_space_group_symop_operation_xyz
x,y,z
1/2-x,-y,z
1/2+x,-y,-z
-x,y,-z
-x,-y,-z
1/2+x,y,-z
1/2-x,y,z
x,-y,z
loop_
_atom_site_type_symbol
_atom_site_label
_atom_site_fract_x
_atom_site_fract_y
_atom_site_fract_z
Si Si1 0.069834 0.399231 0.425888
Si Si2 0.067415 0.221229 0.746983
Si Si3 0.431996 0.207527 0.553896
Si Si4 0.072953 0.401426 0.683830
Si Si5 0.434733 0.102350 0.945528
Si Si6 0.936179 0.251874 0.135533
Si Si7 0.433807 0.394425 0.056371
Si Si8 0.434199 0.894974 0.345588
O O1 0.250000 0.388981 0.438450
O O2 0.019008 0.500000 0.442039
O O3 0.976940 0.313056 0.444791
O O4 0.042881 0.397016 0.363981
O O5 0.250000 0.200059 0.748211
O O6 0.048755 0.319176 0.721522
O O7 0.011272 0.231895 0.805912
O O8 0.989044 0.150865 0.708040
O O9 0.500000 0.169901 0.500000
O O10 0.250000 0.198323 0.554000
O O11 0.498291 0.159491 0.605219
O O12 0.250000 0.394258 0.663461
O O13 0.059691 0.500000 0.708678
O O14 0.250000 0.102047 0.948453
O O15 0.480279 0.166537 0.899211
O O16 0.488004 0.000000 0.938027
O O17 0.500000 0.135571 0.000000
O O18 0.750000 0.260203 0.136866
O O19 0.000936 0.337004 0.104213
O O20 0.250000 0.385252 0.054730
O O21 0.472739 0.500000 0.062689
O O22 0.500000 0.365704 0.000000
O O23 0.250000 0.889757 0.348452
O O24 0.480023 0.000000 0.347756
#
# Coordination Sequence:
#
# PCOD9404632 Si02
#       8
#     8   8   8   8   8   8   8   8
#     4  10  20  35  58  89 124 161 198 237 284 339
#     4  10  21  37  59  88 119 156 197 241 294 352
#     4  12  25  42  66  94 125 160 198 246 299 355
#     4   9  17  31  53  81 113 151 193 234 279 336
#     4   9  18  33  52  75 105 141 181 229 284 341
#     4  10  21  35  55  85 118 151 192 240 292 350
#     4  10  21  37  57  82 115 158 205 252 303 356
#     4  11  25  45  67  90 119 156 199 249 304 361
#
# _framework density 19.188953000000001
#
# number of rings (size 3 to 8) (size 9 to 14) (size 15 to 20)
#    0.000    1.875    1.250    2.625    0.000    6.000 
#    0.000    2.500    0.000    3.000    0.000    0.000 
#    0.000    0.000    0.000    0.000    0.000    0.000 
#
# Total GULP energy -357264.878359 kJ/mol
# GULP energy per Si atom -5582.263724 kJ/mol
# Density = 1.914528 g / cm^3
# Si number density = 19.188953 Si / 1000 Ang^3
#
#
#
# Elastic Constant Matrix: (Units=GPa)
#
#
# Indices 1 2 3 4 5 6 
#
# 1 49.1449 45.4328 46.8381 0.0000 0.0000 0.0000
# 2 45.4328 114.5840 76.2389 0.0000 0.0000 0.0000
# 3 46.8381 76.2389 165.1202 0.0000 0.0000 0.0000
# 4 0.0000 0.0000 0.0000 -1.3564 0.0000 0.0000
# 5 0.0000 0.0000 0.0000 0.0000 29.5464 0.0000
# 6 0.0000 0.0000 0.0000 0.0000 0.0000 12.4748
#
#
#
# Elastic Compliance Matrix: (Units=1/GPa)
#
#
# Indices 1 2 3 4 5 6 
#
# 1 0.034820 -0.010442 -0.005056 0.000000 0.000000 0.000000
# 2 -0.010442 0.015729 -0.004300 0.000000 0.000000 0.000000
# 3 -0.005056 -0.004300 0.009476 0.000000 0.000000 0.000000
# 4 0.000000 0.000000 0.000000 -0.737233 0.000000 0.000000
# 5 0.000000 0.000000 0.000000 0.000000 0.033845 0.000000
# 6 0.000000 0.000000 0.000000 0.000000 0.000000 0.080162
#
#
# Mechanical properties :
#
#
# Convention : Reuss Voigt Hill
#
# Bulk Modulus (GPa) = 48.95215 73.98542 61.46878
# Shear Modulus (GPa) = -9.67500 18.82224 4.57362
#
# Velocity S-wave (km/s) = -2.24787 3.13531 1.54552
# Velocity P-wave (km/s) = 4.33921 7.19353 5.94035
#
# Compressibility (1/GPa) = 0.02042811
#
# Stress axis : x y z
#
# Youngs Moduli (GPa) = 28.71918 63.57765 105.53283
#
# Poissons Ratio (x) = 0.66390 0.53353
# Poissons Ratio (y) = 0.29990 0.45381
# Poissons Ratio (z) = 0.14519 0.27339
#
# Static dielectric constant tensor:
#      x y z
#    x 1.658290 0.000000 0.000000 
#    y 0.000000 1.675240 0.000000 
#    z 0.000000 0.000000 1.658770 
# 
# From -- ./inp_files/34994.got.cif
#   From: 2010.05.17/outbox.cif.g08.bks.cpg/sg51_18_cif.got.tgz:34994.got - 2010.06.03 11:52:47.
