data_PCOD9404432
_publ_section_title
;
Structure prediction by ZEFSAII (Michael W. Deem and Ramdas Pophale) SiO2 
 PCOD9404432
Probable space group: P M M A
;
_chemical_formula_sum "Si O2"
_cell_formula_units_Z 40
_cell_length_a 17.351193
_cell_length_b 17.236704
_cell_length_c 7.424808
_cell_angle_alpha 90.000000
_cell_angle_beta 90.000000
_cell_angle_gamma 90.000000
_cell_volume 2220.592107
_symmetry_space_group_name_H-M "P M M A"
_symmetry_group_IT_number 51
_symmetry_cell_setting 'orthorhombic'
loop_
_space_group_symop_operation_xyz
x,y,z
1/2-x,-y,z
1/2+x,-y,-z
-x,y,-z
-x,-y,-z
1/2+x,y,-z
1/2-x,y,z
x,-y,z
loop_
_atom_site_type_symbol
_atom_site_label
_atom_site_fract_x
_atom_site_fract_y
_atom_site_fract_z
Si Si1 0.591833 0.087177 0.517060
Si Si2 0.342901 0.500000 0.085629
Si Si3 0.157067 0.797783 0.772897
Si Si4 0.157365 0.912539 0.085416
Si Si5 0.656816 0.380574 0.225553
Si Si6 0.408162 0.500000 0.489889
O O1 0.500000 0.090384 0.500000
O O2 0.628643 0.154131 0.397917
O O3 0.617314 0.096416 0.722922
O O4 0.617412 0.000000 0.459729
O O5 0.250000 0.500000 0.109110
O O6 0.380607 0.500000 0.282481
O O7 0.363806 0.426488 0.958382
O O8 0.250000 0.797381 0.772289
O O9 0.131460 0.708646 0.776978
O O10 0.131806 0.847217 0.946259
O O11 0.250000 0.906963 0.109208
O O12 0.140856 0.000000 0.017321
O O13 0.750000 0.383607 0.237874
O O14 0.623766 0.426608 0.396819
O O15 0.500000 0.500000 0.500000
#
# Coordination Sequence:
#
# PCOD9404432 Si02
#       6
#     8   4   8   8   8   4
#     4  10  21  35  51  75 109 147 182 216 261 317
#     4   9  18  37  60  75 100 141 174 210 262 313
#     4  10  20  35  56  79 104 135 175 226 271 305
#     4   9  18  33  53  76 101 134 179 223 263 312
#     4   9  20  37  56  81 106 133 178 221 256 314
#     4  11  22  36  57  83 111 141 171 209 260 316
#
# _framework density 18.013213
#
# number of rings (size 3 to 8) (size 9 to 14) (size 15 to 20)
#    0.000    2.400    0.000    2.700    0.000    6.800 
#    0.000    9.000    0.000    0.000    0.000    0.000 
#    0.000    0.000    0.000    0.000    0.000    0.000 
#
# Total GULP energy -223180.197577 kJ/mol
# GULP energy per Si atom -5579.504939 kJ/mol
# Density = 1.797221 g / cm^3
# Si number density = 18.013213 Si / 1000 Ang^3
#
#
#
# Elastic Constant Matrix: (Units=GPa)
#
#
# Indices 1 2 3 4 5 6 
#
# 1 13.8928 35.5264 25.5103 0.0000 0.0000 0.0000
# 2 35.5264 193.6240 94.7244 0.0000 0.0000 0.0000
# 3 25.5103 94.7244 128.8379 0.0000 0.0000 0.0000
# 4 0.0000 0.0000 0.0000 82.4365 0.0000 0.0000
# 5 0.0000 0.0000 0.0000 0.0000 -85.1127 0.0000
# 6 0.0000 0.0000 0.0000 0.0000 0.0000 190.2461
#
#
#
# Elastic Compliance Matrix: (Units=1/GPa)
#
#
# Indices 1 2 3 4 5 6 
#
# 1 0.152136 -0.020579 -0.014993 0.000000 0.000000 0.000000
# 2 -0.020579 0.010849 -0.003902 0.000000 0.000000 0.000000
# 3 -0.014993 -0.003902 0.013599 0.000000 0.000000 0.000000
# 4 0.000000 0.000000 0.000000 0.012131 0.000000 0.000000
# 5 0.000000 0.000000 0.000000 0.000000 -0.011749 0.000000
# 6 0.000000 0.000000 0.000000 0.000000 0.000000 0.005256
#
#
# Mechanical properties :
#
#
# Convention : Reuss Voigt Hill
#
# Bulk Modulus (GPa) = 10.24215 71.98632 41.11423
# Shear Modulus (GPa) = 17.02326 49.55355 33.28840
#
# Velocity S-wave (km/s) = 3.07749 5.25065 4.30350
# Velocity P-wave (km/s) = 4.28091 8.76407 6.89692
#
# Compressibility (1/GPa) = 0.09763573
#
# Stress axis : x y z
#
# Youngs Moduli (GPa) = 6.57309 92.17016 73.53356
#
# Poissons Ratio (x) = 1.89679 1.10249
# Poissons Ratio (y) = 0.13527 0.28693
# Poissons Ratio (z) = 0.09855 0.35965
#
# Static dielectric constant tensor:
#      x y z
#    x 1.600370 0.000000 0.000000 
#    y 0.000000 1.622360 0.000000 
#    z 0.000000 0.000000 1.587540 
# 
# From -- ./inp_files/2473.got.cif
#   From: 2010.05.17/outbox.cif.g08.bks.cpg/sg51_2_cif.got.tgz:2473.got - 2010.06.03 11:52:47.
