data_PCOD9404498
_publ_section_title
;
Structure prediction by ZEFSAII (Michael W. Deem and Ramdas Pophale) SiO2 
 PCOD9404498
Probable space group: P M M A
;
_chemical_formula_sum "Si O2"
_cell_formula_units_Z 48
_cell_length_a 15.939880
_cell_length_b 8.348725
_cell_length_c 17.926585
_cell_angle_alpha 90.000000
_cell_angle_beta 90.000000
_cell_angle_gamma 90.000000
_cell_volume 2385.628246
_symmetry_space_group_name_H-M "P M M A"
_symmetry_group_IT_number 51
_symmetry_cell_setting 'orthorhombic'
loop_
_space_group_symop_operation_xyz
x,y,z
1/2-x,-y,z
1/2+x,-y,-z
-x,y,-z
-x,-y,-z
1/2+x,y,-z
1/2-x,y,z
x,-y,z
loop_
_atom_site_type_symbol
_atom_site_label
_atom_site_fract_x
_atom_site_fract_y
_atom_site_fract_z
Si Si1 0.104357 0.308233 0.660932
Si Si2 0.250000 0.690471 0.924662
Si Si3 0.408765 0.195670 0.193840
Si Si4 0.750000 0.194350 0.905758
Si Si5 0.604590 0.807874 0.181899
Si Si6 0.160552 0.691416 0.498090
Si Si7 0.922012 0.816267 0.644141
O O1 0.087891 0.500000 0.658095
O O2 0.141254 0.267031 0.741428
O O3 0.149496 0.262146 0.584116
O O4 0.020000 0.205321 0.658653
O O5 0.250000 0.500000 0.917890
O O6 0.333689 0.756867 0.884195
O O7 0.250000 0.741644 0.010653
O O8 0.335202 0.244523 0.137555
O O9 0.505571 0.243328 0.174621
O O10 0.385233 0.251381 0.278195
O O11 0.409748 0.000000 0.195958
O O12 0.750000 0.000000 0.907354
O O13 0.605157 0.000000 0.187866
O O14 0.250000 0.753964 0.470573
O O15 0.161505 0.500000 0.498865
O O16 0.094912 0.739623 0.435738
O O17 0.896766 0.000000 0.638255
#
# Coordination Sequence:
#
# PCOD9404498 Si02
#       7
#     8   4   8   4   8   8   8
#     4  10  20  36  58  81 112 156 196 239 294 351
#     4  12  26  42  60  89 122 155 192 239 298 359
#     4   8  18  36  62  90 118 151 194 241 295 349
#     4  10  20  40  66  89 116 155 192 233 290 359
#     4  10  21  40  63  91 120 154 199 247 293 352
#     4  10  22  36  50  76 114 155 195 238 293 351
#     4  10  20  35  56  83 113 150 197 246 288 341
#
# _framework density 20.120486
#
# number of rings (size 3 to 8) (size 9 to 14) (size 15 to 20)
#    0.000    2.167    0.000    3.750    2.333    4.333 
#    0.000    8.333    0.000    0.000    0.000    0.000 
#    0.000    0.000    0.000    0.000    0.000    0.000 
#
# Total GULP energy -267498.544530 kJ/mol
# GULP energy per Si atom -5572.886344 kJ/mol
# Density = 2.007469 g / cm^3
# Si number density = 20.120486 Si / 1000 Ang^3
#
#
#
# Elastic Constant Matrix: (Units=GPa)
#
#
# Indices 1 2 3 4 5 6 
#
# 1 80.0260 11.7765 63.4680 0.0000 0.0000 0.0000
# 2 11.7765 28.9140 30.1213 0.0000 0.0000 0.0000
# 3 63.4680 30.1213 156.1146 0.0000 0.0000 0.0000
# 4 0.0000 0.0000 0.0000 35.6716 0.0000 0.0000
# 5 0.0000 0.0000 0.0000 0.0000 36.5382 0.0000
# 6 0.0000 0.0000 0.0000 0.0000 0.0000 16.3959
#
#
#
# Elastic Compliance Matrix: (Units=1/GPa)
#
#
# Indices 1 2 3 4 5 6 
#
# 1 0.018446 0.000375 -0.007571 0.000000 0.000000 0.000000
# 2 0.000375 0.043293 -0.008505 0.000000 0.000000 0.000000
# 3 -0.007571 -0.008505 0.011125 0.000000 0.000000 0.000000
# 4 0.000000 0.000000 0.000000 0.028034 0.000000 0.000000
# 5 0.000000 0.000000 0.000000 0.000000 0.027369 0.000000
# 6 0.000000 0.000000 0.000000 0.000000 0.000000 0.060991
#
#
# Mechanical properties :
#
#
# Convention : Reuss Voigt Hill
#
# Bulk Modulus (GPa) = 24.11998 52.86514 38.49256
# Shear Modulus (GPa) = 21.32372 28.36706 24.84539
#
# Velocity S-wave (km/s) = 3.25899 3.75888 3.51783
# Velocity P-wave (km/s) = 5.11617 6.72088 5.97266
#
# Compressibility (1/GPa) = 0.04145941
#
# Stress axis : x y z
#
# Youngs Moduli (GPa) = 54.21371 23.09820 89.89002
#
# Poissons Ratio (x) = -0.00865 0.68058
# Poissons Ratio (y) = -0.02031 0.76456
# Poissons Ratio (z) = 0.41047 0.19646
#
# Static dielectric constant tensor:
#      x y z
#    x 1.730320 0.000000 0.000000 
#    y 0.000000 1.692380 0.000000 
#    z 0.000000 0.000000 1.728810 
# 
# From -- ./inp_files/29643.got.cif
#   From: 2010.05.17/outbox.cif.g08.bks.cpg/sg51_15_cif.got.tgz:29643.got - 2010.06.03 11:52:47.
