data_PCOD9404641
_publ_section_title
;
Structure prediction by ZEFSAII (Michael W. Deem and Ramdas Pophale) SiO2 
 PCOD9404641
Probable space group: P M M A
;
_chemical_formula_sum "Si O2"
_cell_formula_units_Z 64
_cell_length_a 15.663324
_cell_length_b 23.396604
_cell_length_c 8.792507
_cell_angle_alpha 90.000000
_cell_angle_beta 90.000000
_cell_angle_gamma 90.000000
_cell_volume 3222.177634
_symmetry_space_group_name_H-M "P M M A"
_symmetry_group_IT_number 51
_symmetry_cell_setting 'orthorhombic'
loop_
_space_group_symop_operation_xyz
x,y,z
1/2-x,-y,z
1/2+x,-y,-z
-x,y,-z
-x,-y,-z
1/2+x,y,-z
1/2-x,y,z
x,-y,z
loop_
_atom_site_type_symbol
_atom_site_label
_atom_site_fract_x
_atom_site_fract_y
_atom_site_fract_z
Si Si1 0.846099 0.145849 0.821258
Si Si2 0.106099 0.738099 0.336821
Si Si3 0.900981 0.754124 0.316017
Si Si4 0.508828 0.565059 0.324532
Si Si5 0.912708 0.344994 0.097906
Si Si6 0.844079 0.614858 0.796691
Si Si7 0.491279 0.934109 0.318901
Si Si8 0.348810 0.125303 0.819060
O O1 0.750000 0.125744 0.784667
O O2 0.854447 0.210918 0.762914
O O3 0.918750 0.108382 0.741562
O O4 0.858406 0.139650 0.002243
O O5 0.130857 0.741634 0.514025
O O6 0.131594 0.675998 0.277064
O O7 0.003974 0.747458 0.323612
O O8 0.875908 0.710082 0.183068
O O9 0.871622 0.816943 0.270962
O O10 0.500000 0.582723 0.500000
O O11 0.540488 0.500000 0.317420
O O12 0.563372 0.609713 0.228190
O O13 0.415008 0.569955 0.252543
O O14 0.851352 0.373576 0.975900
O O15 0.000000 0.331519 0.000000
O O16 0.750000 0.597817 0.750263
O O17 0.500000 0.925646 0.500000
O O18 0.580794 0.919763 0.236652
O O19 0.467939 0.000000 0.290263
O O20 0.250000 0.108761 0.791947
#
# Coordination Sequence:
#
# PCOD9404641 Si02
#       8
#     8   8   8   8   8   8   8   8
#     4  11  24  41  63  92 125 160 202 249 302 363
#     4  11  21  36  60  90 123 160 198 243 297 363
#     4  11  21  35  60  90 122 157 201 243 298 357
#     4  10  21  40  64  86 111 155 209 248 293 358
#     4  10  20  35  59  85 117 156 196 241 290 355
#     4  11  23  37  58  90 123 155 195 246 304 356
#     4  11  25  44  66  90 119 160 205 252 304 357
#     4  11  25  41  63  94 125 160 201 248 302 361
#
# _framework density 19.862344
#
# number of rings (size 3 to 8) (size 9 to 14) (size 15 to 20)
#    0.000    1.250    3.750    3.000    0.000    8.000 
#    0.000    4.375    0.000    0.750    0.000    0.000 
#    0.000    0.000    0.000    0.000    0.000    0.000 
#
# Total GULP energy -357690.277137 kJ/mol
# GULP energy per Si atom -5588.910580 kJ/mol
# Density = 1.981714 g / cm^3
# Si number density = 19.862344 Si / 1000 Ang^3
#
#
#
# Elastic Constant Matrix: (Units=GPa)
#
#
# Indices 1 2 3 4 5 6 
#
# 1 44.3212 -11.8656 -6.7048 0.0000 0.0000 0.0000
# 2 -11.8656 55.4144 17.5601 0.0000 0.0000 0.0000
# 3 -6.7048 17.5601 84.1646 0.0000 0.0000 0.0000
# 4 0.0000 0.0000 0.0000 -21.9270 0.0000 0.0000
# 5 0.0000 0.0000 0.0000 0.0000 6.6847 0.0000
# 6 0.0000 0.0000 0.0000 0.0000 0.0000 8.5096
#
#
#
# Elastic Compliance Matrix: (Units=1/GPa)
#
#
# Indices 1 2 3 4 5 6 
#
# 1 0.023998 0.004854 0.000899 0.000000 0.000000 0.000000
# 2 0.004854 0.020305 -0.003850 0.000000 0.000000 0.000000
# 3 0.000899 -0.003850 0.012756 0.000000 0.000000 0.000000
# 4 0.000000 0.000000 0.000000 -0.045606 0.000000 0.000000
# 5 0.000000 0.000000 0.000000 0.000000 0.149596 0.000000
# 6 0.000000 0.000000 0.000000 0.000000 0.000000 0.117515
#
#
# Mechanical properties :
#
#
# Convention : Reuss Voigt Hill
#
# Bulk Modulus (GPa) = 16.42972 20.20885 18.31929
# Shear Modulus (GPa) = 16.94645 10.98081 13.96363
#
# Velocity S-wave (km/s) = 2.92412 2.35382 2.65433
# Velocity P-wave (km/s) = 4.43738 4.19331 4.31707
#
# Compressibility (1/GPa) = 0.06086529
#
# Stress axis : x y z
#
# Youngs Moduli (GPa) = 41.67014 49.24871 78.39248
#
# Poissons Ratio (x) = -0.23904 -0.07048
# Poissons Ratio (y) = -0.20225 0.30180
# Poissons Ratio (z) = -0.03746 0.18960
#
# Static dielectric constant tensor:
#      x y z
#    x 1.722600 0.000000 0.000000 
#    y 0.000000 1.659700 0.000000 
#    z 0.000000 0.000000 1.697620 
# 
# From -- ./inp_files/8757.got.cif
#   From: 2010.05.17/outbox.cif.g08.bks.cpg/sg51_5_cif.got.tgz:8757.got - 2010.06.03 11:52:47.
