data_PCOD9404377
_publ_section_title
;
Structure prediction by ZEFSAII (Michael W. Deem and Ramdas Pophale) SiO2 
 PCOD9404377
Probable space group: P M M A
;
_chemical_formula_sum "Si O2"
_cell_formula_units_Z 64
_cell_length_a 7.629155
_cell_length_b 19.914559
_cell_length_c 20.071913
_cell_angle_alpha 90.000000
_cell_angle_beta 90.000000
_cell_angle_gamma 90.000000
_cell_volume 3049.550980
_symmetry_space_group_name_H-M "P M M A"
_symmetry_group_IT_number 51
_symmetry_cell_setting 'orthorhombic'
loop_
_space_group_symop_operation_xyz
x,y,z
1/2-x,-y,z
1/2+x,-y,-z
-x,y,-z
-x,-y,-z
1/2+x,y,-z
1/2-x,y,z
x,-y,z
loop_
_atom_site_type_symbol
_atom_site_label
_atom_site_fract_x
_atom_site_fract_y
_atom_site_fract_z
Si Si1 0.960884 0.076569 0.077768
Si Si2 0.460023 0.075564 0.427940
Si Si3 0.543164 0.818401 0.675473
Si Si4 0.041473 0.695541 0.577787
Si Si5 0.951174 0.193947 0.175279
Si Si6 0.965257 0.343222 0.197640
Si Si7 0.464055 0.577735 0.668527
Si Si8 0.959704 0.575368 0.070506
O O1 0.750000 0.074152 0.085125
O O2 0.026162 0.135079 0.128000
O O3 0.025983 0.000000 0.091445
O O4 0.000000 0.091610 0.000000
O O5 0.500000 0.105540 0.500000
O O6 0.250000 0.072547 0.421820
O O7 0.527838 0.122160 0.370372
O O8 0.530519 0.000000 0.426170
O O9 0.750000 0.827004 0.687770
O O10 0.523326 0.751375 0.630669
O O11 0.453162 0.823438 0.746664
O O12 0.250000 0.697460 0.583633
O O13 0.981765 0.622476 0.604834
O O14 0.000000 0.707444 0.500000
O O15 0.750000 0.202564 0.152229
O O16 0.030957 0.268664 0.180125
O O17 0.750000 0.339928 0.200857
O O18 0.018773 0.379097 0.266343
O O19 0.021799 0.388321 0.136006
O O20 0.250000 0.575484 0.669724
O O21 0.523181 0.500000 0.669390
O O22 0.750000 0.571617 0.075844
O O23 0.032625 0.500000 0.068275
O O24 0.000000 0.609307 0.000000
#
# Coordination Sequence:
#
# PCOD9404377 Si02
#       8
#     8   8   8   8   8   8   8   8
#     4   9  19  36  57  81 112 149 189 231 275 326
#     4   9  19  35  53  75 103 135 173 215 259 311
#     4  11  22  36  55  80 110 144 180 222 272 327
#     4  11  22  37  57  81 109 142 180 225 276 329
#     4  10  20  35  55  79 107 140 180 223 269 318
#     4   9  16  30  51  75 100 133 174 218 261 312
#     4   9  17  31  54  80 102 133 180 226 270 323
#     4   9  17  29  47  71  99 130 165 205 251 306
#
# _framework density 20.986696999999999
#
# number of rings (size 3 to 8) (size 9 to 14) (size 15 to 20)
#    0.000    2.375    1.250    1.500    0.000    5.250 
#    0.000    0.625    0.000    1.125    0.000    0.000 
#    0.000    0.000    0.000    0.000    0.000    0.000 
#
# Total GULP energy -356845.613073 kJ/mol
# GULP energy per Si atom -5575.712704 kJ/mol
# Density = 2.093893 g / cm^3
# Si number density = 20.986697 Si / 1000 Ang^3
#
#
#
# Elastic Constant Matrix: (Units=GPa)
#
#
# Indices 1 2 3 4 5 6 
#
# 1 45.3716 -1.8524 -9.7510 0.0000 0.0000 0.0000
# 2 -1.8524 119.8853 66.7206 0.0000 0.0000 0.0000
# 3 -9.7510 66.7206 127.4113 0.0000 0.0000 0.0000
# 4 0.0000 0.0000 0.0000 40.7372 0.0000 0.0000
# 5 0.0000 0.0000 0.0000 0.0000 18.9674 0.0000
# 6 0.0000 0.0000 0.0000 0.0000 0.0000 9.7544
#
#
#
# Elastic Compliance Matrix: (Units=1/GPa)
#
#
# Indices 1 2 3 4 5 6 
#
# 1 0.022472 -0.000861 0.002171 0.000000 0.000000 0.000000
# 2 -0.000861 0.011805 -0.006248 0.000000 0.000000 0.000000
# 3 0.002171 -0.006248 0.011286 0.000000 0.000000 0.000000
# 4 0.000000 0.000000 0.000000 0.024548 0.000000 0.000000
# 5 0.000000 0.000000 0.000000 0.000000 0.052722 0.000000
# 6 0.000000 0.000000 0.000000 0.000000 0.000000 0.102517
#
#
# Mechanical properties :
#
#
# Convention : Reuss Voigt Hill
#
# Bulk Modulus (GPa) = 28.02131 44.76694 36.39412
# Shear Modulus (GPa) = 20.23294 29.72855 24.98075
#
# Velocity S-wave (km/s) = 3.10834 3.76778 3.45383
# Velocity P-wave (km/s) = 5.12477 6.34867 5.76927
#
# Compressibility (1/GPa) = 0.03568713
#
# Stress axis : x y z
#
# Youngs Moduli (GPa) = 44.50068 84.70897 88.60190
#
# Poissons Ratio (x) = 0.07291 -0.19231
# Poissons Ratio (y) = 0.03830 0.55357
# Poissons Ratio (z) = -0.09659 0.52924
#
# Static dielectric constant tensor:
#      x y z
#    x 1.862340 0.000000 0.000000 
#    y 0.000000 1.785960 0.000000 
#    z 0.000000 0.000000 1.772630 
# 
# From -- ./inp_files/28448.got.cif
#   From: 2010.05.17/outbox.cif.g08.bks.cpg/sg51_15_cif.got.tgz:28448.got - 2010.06.03 11:52:47.
