data_PCOD9404585
_publ_section_title
;
Structure prediction by ZEFSAII (Michael W. Deem and Ramdas Pophale) SiO2 
 PCOD9404585
Probable space group: P M M A
;
_chemical_formula_sum "Si O2"
_cell_formula_units_Z 52
_cell_length_a 9.519317
_cell_length_b 10.811640
_cell_length_c 28.306271
_cell_angle_alpha 90.000000
_cell_angle_beta 90.000000
_cell_angle_gamma 90.000000
_cell_volume 2913.265233
_symmetry_space_group_name_H-M "P M M A"
_symmetry_group_IT_number 51
_symmetry_cell_setting 'orthorhombic'
loop_
_space_group_symop_operation_xyz
x,y,z
1/2-x,-y,z
1/2+x,-y,-z
-x,y,-z
-x,-y,-z
1/2+x,y,-z
1/2-x,y,z
x,-y,z
loop_
_atom_site_type_symbol
_atom_site_label
_atom_site_fract_x
_atom_site_fract_y
_atom_site_fract_z
Si Si1 0.580058 0.147316 0.142686
Si Si2 0.466485 0.251043 0.603796
Si Si3 0.418504 0.353351 0.205231
Si Si4 0.587686 0.851293 0.954908
Si Si5 0.250000 0.857422 0.532121
Si Si6 0.250000 0.147268 0.425522
Si Si7 0.918380 0.500000 0.451093
Si Si8 0.594650 0.643933 0.297343
O O1 0.750000 0.164309 0.140905
O O2 0.504803 0.249792 0.175869
O O3 0.505006 0.167602 0.091984
O O4 0.556430 0.000000 0.155392
O O5 0.378718 0.172904 0.565947
O O6 0.617873 0.194489 0.602658
O O7 0.461113 0.383487 0.579492
O O8 0.414066 0.269251 0.656913
O O9 0.250000 0.334897 0.201202
O O10 0.447125 0.500000 0.192835
O O11 0.474069 0.337491 0.258898
O O12 0.750000 0.805498 0.951601
O O13 0.598386 0.000000 0.960542
O O14 0.500000 0.803272 0.000000
O O15 0.250000 0.798769 0.479713
O O16 0.250000 0.000000 0.522247
O O17 0.250000 0.000000 0.427162
O O18 0.750000 0.500000 0.458141
O O19 0.000000 0.500000 0.500000
O O20 0.750000 0.660157 0.275202
O O21 0.586540 0.500000 0.313122
#
# Coordination Sequence:
#
# PCOD9404585 Si02
#       8
#     8   8   8   8   4   4   4   8
#     4  10  20  35  57  87 121 158 201 249 297 347
#     4  12  23  39  62  86 115 144 183 232 277 333
#     4  10  22  39  62  88 114 149 195 241 294 358
#     4   9  16  27  47  78 118 162 205 250 300 351
#     4  11  22  41  63  81 109 156 193 223 266 327
#     4  11  26  43  59  83 115 154 195 225 264 329
#     4  12  24  38  58  92 122 142 174 224 287 338
#     4  10  20  39  61  85 112 144 181 229 287 347
#
# _framework density 17.849387
#
# number of rings (size 3 to 8) (size 9 to 14) (size 15 to 20)
#    0.000    1.538    2.308    3.231    2.154    4.923 
#    0.000    1.538    0.000    0.462    0.000    0.000 
#    0.000    0.000    0.000    0.000    0.000    0.000 
#
# Total GULP energy -289708.499527 kJ/mol
# GULP energy per Si atom -5571.317299 kJ/mol
# Density = 1.780876 g / cm^3
# Si number density = 17.849387 Si / 1000 Ang^3
#
#
#
# Elastic Constant Matrix: (Units=GPa)
#
#
# Indices 1 2 3 4 5 6 
#
# 1 137.0648 51.4890 40.2194 0.0000 0.0000 0.0000
# 2 51.4890 75.1661 39.3972 0.0000 0.0000 0.0000
# 3 40.2194 39.3972 87.9509 0.0000 0.0000 0.0000
# 4 0.0000 0.0000 0.0000 27.1331 0.0000 0.0000
# 5 0.0000 0.0000 0.0000 0.0000 26.9672 0.0000
# 6 0.0000 0.0000 0.0000 0.0000 0.0000 30.6386
#
#
#
# Elastic Compliance Matrix: (Units=1/GPa)
#
#
# Indices 1 2 3 4 5 6 
#
# 1 0.010081 -0.005867 -0.001982 0.000000 0.000000 0.000000
# 2 -0.005867 0.020800 -0.006634 0.000000 0.000000 0.000000
# 3 -0.001982 -0.006634 0.015248 0.000000 0.000000 0.000000
# 4 0.000000 0.000000 0.000000 0.036855 0.000000 0.000000
# 5 0.000000 0.000000 0.000000 0.000000 0.037082 0.000000
# 6 0.000000 0.000000 0.000000 0.000000 0.000000 0.032639
#
#
# Mechanical properties :
#
#
# Convention : Reuss Voigt Hill
#
# Bulk Modulus (GPa) = 58.26533 62.48813 60.37673
# Shear Modulus (GPa) = 26.68185 28.21952 27.45068
#
# Velocity S-wave (km/s) = 3.87050 3.98047 3.92587
# Velocity P-wave (km/s) = 7.25865 7.49734 7.37896
#
# Compressibility (1/GPa) = 0.01716287
#
# Stress axis : x y z
#
# Youngs Moduli (GPa) = 99.19314 48.07690 65.58141
#
# Poissons Ratio (x) = 0.28206 0.12999
# Poissons Ratio (y) = 0.58195 0.43509
# Poissons Ratio (z) = 0.19661 0.31896
#
# Static dielectric constant tensor:
#      x y z
#    x 1.569420 0.000000 0.000000 
#    y 0.000000 1.594980 0.000000 
#    z 0.000000 0.000000 1.597200 
# 
# From -- ./inp_files/36287.got.cif
#   From: 2010.05.17/outbox.cif.g08.bks.cpg/sg51_19_cif.got.tgz:36287.got - 2010.06.03 11:52:47.
