data_PCOD9404198
_publ_section_title
;
Structure prediction by ZEFSAII (Michael W. Deem and Ramdas Pophale) SiO2 
 PCOD9404198
Probable space group: P M M A
;
_chemical_formula_sum "Si O2"
_cell_formula_units_Z 48
_cell_length_a 9.973227
_cell_length_b 7.867975
_cell_length_c 32.799063
_cell_angle_alpha 90.000000
_cell_angle_beta 90.000000
_cell_angle_gamma 90.000000
_cell_volume 2573.712978
_symmetry_space_group_name_H-M "P M M A"
_symmetry_group_IT_number 51
_symmetry_cell_setting 'orthorhombic'
loop_
_space_group_symop_operation_xyz
x,y,z
1/2-x,-y,z
1/2+x,-y,-z
-x,y,-z
-x,-y,-z
1/2+x,y,-z
1/2-x,y,z
x,-y,z
loop_
_atom_site_type_symbol
_atom_site_label
_atom_site_fract_x
_atom_site_fract_y
_atom_site_fract_z
Si Si1 0.094351 0.000000 0.323320
Si Si2 0.589688 0.311716 0.185678
Si Si3 0.407027 0.206278 0.538309
Si Si4 0.404649 0.304116 0.387110
Si Si5 0.517961 0.803102 0.098254
Si Si6 0.750000 0.300312 0.944047
Si Si7 0.088405 0.000000 0.755851
Si Si8 0.750000 0.793402 0.038036
O O1 0.074994 0.833718 0.351609
O O2 0.250000 0.000000 0.309504
O O3 0.992483 0.000000 0.285973
O O4 0.750000 0.296771 0.178749
O O5 0.561229 0.500000 0.201793
O O6 0.524011 0.288591 0.141499
O O7 0.552700 0.164775 0.217124
O O8 0.500000 0.257988 0.500000
O O9 0.250000 0.259700 0.535581
O O10 0.485365 0.271989 0.578052
O O11 0.407015 0.000000 0.539700
O O12 0.250000 0.278104 0.402484
O O13 0.413993 0.500000 0.373244
O O14 0.377474 0.785375 0.076365
O O15 0.624054 0.738552 0.065096
O O16 0.551679 0.000000 0.106758
O O17 0.750000 0.500000 0.934791
O O18 0.750000 0.276081 0.992606
O O19 0.250000 0.000000 0.749230
O O20 0.750000 0.000000 0.034615
#
# Coordination Sequence:
#
# PCOD9404198 Si02
#       8
#     4   8   8   8   8   4   4   4
#     4  10  22  42  63  89 122 155 194 243 307 373
#     4  10  20  37  63  91 117 150 194 238 288 351
#     4  10  20  34  56  87 124 167 216 264 310 359
#     4  10  21  38  62  88 119 163 208 252 304 362
#     4  11  21  39  63  84 114 155 199 242 288 345
#     4  12  26  38  50  84 126 156 196 243 291 340
#     4  10  22  40  64  89 116 148 191 241 295 356
#     4  10  22  38  62  84 110 154 204 242 284 343
#
# _framework density 18.650098
#
# number of rings (size 3 to 8) (size 9 to 14) (size 15 to 20)
#    0.000    1.667    2.500    2.250    0.000    6.000 
#    1.500    0.000    0.000    0.000    0.000    0.000 
#    0.000    0.000    0.000    0.000    0.000    0.000 
#
# Total GULP energy -268029.448537 kJ/mol
# GULP energy per Si atom -5583.946845 kJ/mol
# Density = 1.860765 g / cm^3
# Si number density = 18.650098 Si / 1000 Ang^3
#
#
#
# Elastic Constant Matrix: (Units=GPa)
#
#
# Indices 1 2 3 4 5 6 
#
# 1 120.1595 38.4352 70.6127 0.0000 0.0000 0.0000
# 2 38.4352 96.0139 54.2788 0.0000 0.0000 0.0000
# 3 70.6127 54.2788 121.9418 0.0000 0.0000 0.0000
# 4 0.0000 0.0000 0.0000 26.3210 0.0000 0.0000
# 5 0.0000 0.0000 0.0000 0.0000 4.9744 0.0000
# 6 0.0000 0.0000 0.0000 0.0000 0.0000 18.1120
#
#
#
# Elastic Compliance Matrix: (Units=1/GPa)
#
#
# Indices 1 2 3 4 5 6 
#
# 1 0.012725 -0.001240 -0.006816 0.000000 0.000000 0.000000
# 2 -0.001240 0.014038 -0.005530 0.000000 0.000000 0.000000
# 3 -0.006816 -0.005530 0.014609 0.000000 0.000000 0.000000
# 4 0.000000 0.000000 0.000000 0.037993 0.000000 0.000000
# 5 0.000000 0.000000 0.000000 0.000000 0.201030 0.000000
# 6 0.000000 0.000000 0.000000 0.000000 0.000000 0.055212
#
#
# Mechanical properties :
#
#
# Convention : Reuss Voigt Hill
#
# Bulk Modulus (GPa) = 70.43221 73.86318 72.14770
# Shear Modulus (GPa) = 13.60494 21.53404 17.56949
#
# Velocity S-wave (km/s) = 2.70383 3.40168 3.07263
# Velocity P-wave (km/s) = 6.89888 7.42423 7.16637
#
# Compressibility (1/GPa) = 0.01419805
#
# Stress axis : x y z
#
# Youngs Moduli (GPa) = 78.58713 71.23445 68.44869
#
# Poissons Ratio (x) = 0.08836 0.46657
# Poissons Ratio (y) = 0.09748 0.37855
# Poissons Ratio (z) = 0.53568 0.39396
#
# Static dielectric constant tensor:
#      x y z
#    x 1.602170 0.000000 0.000000 
#    y 0.000000 1.676170 0.000000 
#    z 0.000000 0.000000 1.594610 
# 
# From -- ./inp_files/37285.got.cif
#   From: 2010.05.17/outbox.cif.g08.bks.cpg/sg51_19_cif.got.tgz:37285.got - 2010.06.03 11:52:47.
