data_PCOD9404307
_publ_section_title
;
Structure prediction by ZEFSAII (Michael W. Deem and Ramdas Pophale) SiO2 
 PCOD9404307
Probable space group: P M M A
;
_chemical_formula_sum "Si O2"
_cell_formula_units_Z 42
_cell_length_a 30.067537
_cell_length_b 7.071162
_cell_length_c 6.872500
_cell_angle_alpha 90.000000
_cell_angle_beta 90.000000
_cell_angle_gamma 90.000000
_cell_volume 1461.178891
_symmetry_space_group_name_H-M "P M M A"
_symmetry_group_IT_number 51
_symmetry_cell_setting 'orthorhombic'
loop_
_space_group_symop_operation_xyz
x,y,z
1/2-x,-y,z
1/2+x,-y,-z
-x,y,-z
-x,-y,-z
1/2+x,y,-z
1/2-x,y,z
x,-y,z
loop_
_atom_site_type_symbol
_atom_site_label
_atom_site_fract_x
_atom_site_fract_y
_atom_site_fract_z
Si Si1 0.604951 0.779951 0.373758
Si Si2 0.202967 0.222867 0.679689
Si Si3 0.511391 0.230215 0.274926
Si Si4 0.319269 0.777691 0.124701
Si Si5 0.250000 0.500000 0.328939
Si Si6 0.417941 0.219412 0.169386
O O1 0.654423 0.700346 0.369508
O O2 0.562804 0.708853 0.249159
O O3 0.590165 0.773556 0.597390
O O4 0.610420 0.000000 0.317973
O O5 0.250000 0.314767 0.612700
O O6 0.204295 0.000000 0.628346
O O7 0.202853 0.235401 0.913621
O O8 0.500000 0.278049 0.500000
O O9 0.468396 0.292850 0.152040
O O10 0.511823 0.000000 0.264395
O O11 0.289916 0.663026 0.275310
O O12 0.370370 0.710310 0.094647
O O13 0.321582 0.000000 0.180672
O O14 0.420405 0.000000 0.109861
#
# Coordination Sequence:
#
# PCOD9404307 Si02
#       6
#     8   8   8   8   2   8
#     4   8  13  23  43  71 100 133 169 204 249 298
#     4   9  16  28  43  64  96 130 167 211 248 291
#     4   7  10  19  38  66 100 131 162 200 244 298
#     4  10  20  35  54  75  99 129 172 211 246 299
#     4  12  22  36  56  72  96 140 172 202 256 302
#     4   8  14  26  45  72 103 132 163 206 252 296
#
# _framework density 28.743914
#
# number of rings (size 3 to 8) (size 9 to 14) (size 15 to 20)
#    0.000    3.429    0.952    2.571    0.000    0.000 
#    1.714    0.952    0.000    8.000    0.000    8.667 
#    0.000    0.000    0.000    0.000    0.000    1.714 
#
# Total GULP energy -234428.044001 kJ/mol
# GULP energy per Si atom -5581.620095 kJ/mol
# Density = 2.867849 g / cm^3
# Si number density = 28.743914 Si / 1000 Ang^3
#
#
#
# Elastic Constant Matrix: (Units=GPa)
#
#
# Indices 1 2 3 4 5 6 
#
# 1 402.4179 32.6528 49.1976 0.0000 0.0000 0.0000
# 2 32.6528 170.4891 -27.6954 0.0000 0.0000 0.0000
# 3 49.1976 -27.6954 84.0106 0.0000 0.0000 0.0000
# 4 0.0000 0.0000 0.0000 -379.5201 0.0000 0.0000
# 5 0.0000 0.0000 0.0000 0.0000 76.6071 0.0000
# 6 0.0000 0.0000 0.0000 0.0000 0.0000 -424.5438
#
#
#
# Elastic Compliance Matrix: (Units=1/GPa)
#
#
# Indices 1 2 3 4 5 6 
#
# 1 0.002787 -0.000844 -0.001910 0.000000 0.000000 0.000000
# 2 -0.000844 0.006453 0.002622 0.000000 0.000000 0.000000
# 3 -0.001910 0.002622 0.013886 0.000000 0.000000 0.000000
# 4 0.000000 0.000000 0.000000 -0.002635 0.000000 0.000000
# 5 0.000000 0.000000 0.000000 0.000000 0.013054 0.000000
# 6 0.000000 0.000000 0.000000 0.000000 0.000000 -0.002355
#
#
# Mechanical properties :
#
#
# Convention : Reuss Voigt Hill
#
# Bulk Modulus (GPa) = 43.74329 85.02529 64.38429
# Shear Modulus (GPa) = 127.95741 -105.30720 11.32511
#
# Velocity S-wave (km/s) = 6.67930 -6.05936 1.98710
# Velocity P-wave (km/s) = 8.64496 4.39432 5.26428
#
# Compressibility (1/GPa) = 0.02286065
#
# Stress axis : x y z
#
# Youngs Moduli (GPa) = 358.80517 154.96598 72.01349
#
# Poissons Ratio (x) = 0.13081 0.13757
# Poissons Ratio (y) = 0.30288 -0.18880
# Poissons Ratio (z) = 0.68546 -0.40627
#
# Static dielectric constant tensor:
#      x y z
#    x 2.237320 0.000000 0.000000 
#    y 0.000000 2.160400 0.000000 
#    z 0.000000 0.000000 2.321170 
# 
# From -- ./inp_files/18442.got.cif
#   From: 2010.05.17/outbox.cif.g08.bks.cpg/sg51_10_cif.got.tgz:18442.got - 2010.06.03 11:52:47.
