data_PCOD9404050
_publ_section_title
;
Structure prediction by ZEFSAII (Michael W. Deem and Ramdas Pophale) SiO2 
 PCOD9404050
Probable space group: P M M A
;
_chemical_formula_sum "Si O2"
_cell_formula_units_Z 56
_cell_length_a 8.155503
_cell_length_b 19.221964
_cell_length_c 19.876709
_cell_angle_alpha 90.000000
_cell_angle_beta 90.000000
_cell_angle_gamma 90.000000
_cell_volume 3115.968014
_symmetry_space_group_name_H-M "P M M A"
_symmetry_group_IT_number 51
_symmetry_cell_setting 'orthorhombic'
loop_
_space_group_symop_operation_xyz
x,y,z
1/2-x,-y,z
1/2+x,-y,-z
-x,y,-z
-x,-y,-z
1/2+x,y,-z
1/2-x,y,z
x,-y,z
loop_
_atom_site_type_symbol
_atom_site_label
_atom_site_fract_x
_atom_site_fract_y
_atom_site_fract_z
Si Si1 0.056031 0.714778 0.924165
Si Si2 0.449574 0.207991 0.794798
Si Si3 0.944642 0.422704 0.849452
Si Si4 0.447425 0.153361 0.572974
Si Si5 0.552393 0.685652 0.426964
Si Si6 0.447974 0.650719 0.717538
Si Si7 0.450911 0.921093 0.709141
O O1 0.250000 0.722045 0.923378
O O2 0.989117 0.768826 0.868258
O O3 0.015590 0.638008 0.896125
O O4 0.000000 0.724792 0.000000
O O5 0.250000 0.205424 0.796694
O O6 0.489706 0.271762 0.744621
O O7 0.505809 0.135002 0.764560
O O8 0.750000 0.422649 0.859085
O O9 0.009052 0.500000 0.864102
O O10 0.981656 0.402092 0.772207
O O11 0.500000 0.126419 0.500000
O O12 0.250000 0.155206 0.575206
O O13 0.505218 0.233722 0.578401
O O14 0.502916 0.107964 0.636175
O O15 0.500000 0.658681 0.500000
O O16 0.750000 0.686926 0.425244
O O17 0.497333 0.645628 0.359821
O O18 0.250000 0.644732 0.720019
O O19 0.250000 0.921103 0.709421
O O20 0.504970 0.000000 0.720305
#
# Coordination Sequence:
#
# PCOD9404050 Si02
#       7
#     8   8   8   8   8   8   8
#     4  10  20  34  55  77 100 128 157 190 228 272
#     4   8  14  27  45  66  91 120 156 198 235 273
#     4  10  21  35  51  75 105 130 153 185 226 277
#     4   9  16  26  40  60  90 124 159 199 242 285
#     4   9  16  26  42  64  91 122 159 206 250 286
#     4   9  16  29  49  68  91 126 165 203 240 280
#     4   9  15  24  42  66  91 123 163 203 240 280
#
# _framework density 17.971943
#
# number of rings (size 3 to 8) (size 9 to 14) (size 15 to 20)
#    0.000    2.857    1.429    1.714    0.000    2.286 
#    0.000    0.000    0.000    0.857    0.000    0.000 
#    0.000    0.000    0.000    0.000    0.000    0.571 
#
# Total GULP energy -312062.556087 kJ/mol
# GULP energy per Si atom -5572.545644 kJ/mol
# Density = 1.793104 g / cm^3
# Si number density = 17.971943 Si / 1000 Ang^3
#
#
#
# Elastic Constant Matrix: (Units=GPa)
#
#
# Indices 1 2 3 4 5 6 
#
# 1 8.7640 0.6464 9.3980 0.0000 0.0000 0.0000
# 2 0.6464 57.5146 41.5245 0.0000 0.0000 0.0000
# 3 9.3980 41.5245 152.3665 0.0000 0.0000 0.0000
# 4 0.0000 0.0000 0.0000 12.6571 0.0000 0.0000
# 5 0.0000 0.0000 0.0000 0.0000 26.5742 0.0000
# 6 0.0000 0.0000 0.0000 0.0000 0.0000 7.1750
#
#
#
# Elastic Compliance Matrix: (Units=1/GPa)
#
#
# Indices 1 2 3 4 5 6 
#
# 1 0.123381 0.005114 -0.009004 0.000000 0.000000 0.000000
# 2 0.005114 0.021858 -0.006272 0.000000 0.000000 0.000000
# 3 -0.009004 -0.006272 0.008828 0.000000 0.000000 0.000000
# 4 0.000000 0.000000 0.000000 0.079007 0.000000 0.000000
# 5 0.000000 0.000000 0.000000 0.000000 0.037631 0.000000
# 6 0.000000 0.000000 0.000000 0.000000 0.000000 0.139372
#
#
# Mechanical properties :
#
#
# Convention : Reuss Voigt Hill
#
# Bulk Modulus (GPa) = 7.47710 35.75365 21.61538
# Shear Modulus (GPa) = 10.52673 20.41968 15.47321
#
# Velocity S-wave (km/s) = 2.42281 3.37441 2.93740
# Velocity P-wave (km/s) = 3.46355 5.92617 4.85364
#
# Compressibility (1/GPa) = 0.13374175
#
# Stress axis : x y z
#
# Youngs Moduli (GPa) = 8.10501 45.74994 113.27730
#
# Poissons Ratio (x) = -0.23396 1.01993
# Poissons Ratio (y) = -0.04145 0.71052
# Poissons Ratio (z) = 0.07298 0.28696
#
# Static dielectric constant tensor:
#      x y z
#    x 1.636840 0.000000 0.000000 
#    y 0.000000 1.613820 0.000000 
#    z 0.000000 0.000000 1.636400 
# 
# From -- ./inp_files/32261.got.cif
#   From: 2010.05.17/outbox.cif.g08.bks.cpg/sg51_17_cif.got.tgz:32261.got - 2010.06.03 11:52:47.
