data_PCOD9404378
_publ_section_title
;
Structure prediction by ZEFSAII (Michael W. Deem and Ramdas Pophale) SiO2 
 PCOD9404378
Probable space group: P M M A
;
_chemical_formula_sum "Si O2"
_cell_formula_units_Z 56
_cell_length_a 8.672098
_cell_length_b 20.906830
_cell_length_c 15.978236
_cell_angle_alpha 90.000000
_cell_angle_beta 90.000000
_cell_angle_gamma 90.000000
_cell_volume 2896.951313
_symmetry_space_group_name_H-M "P M M A"
_symmetry_group_IT_number 51
_symmetry_cell_setting 'orthorhombic'
loop_
_space_group_symop_operation_xyz
x,y,z
1/2-x,-y,z
1/2+x,-y,-z
-x,y,-z
-x,-y,-z
1/2+x,y,-z
1/2-x,y,z
x,-y,z
loop_
_atom_site_type_symbol
_atom_site_label
_atom_site_fract_x
_atom_site_fract_y
_atom_site_fract_z
Si Si1 0.436067 0.424919 0.256338
Si Si2 0.433018 0.931308 0.330867
Si Si3 0.433968 0.660984 0.595340
Si Si4 0.934166 0.206150 0.592639
Si Si5 0.066462 0.797605 0.092326
Si Si6 0.936324 0.343638 0.904958
Si Si7 0.930774 0.931168 0.150698
O O1 0.250000 0.417549 0.261893
O O2 0.472619 0.500000 0.255783
O O3 0.508503 0.390866 0.337538
O O4 0.484647 0.392742 0.167802
O O5 0.250000 0.928357 0.308194
O O6 0.470615 0.864052 0.372775
O O7 0.536747 0.934639 0.249048
O O8 0.453475 0.000000 0.377013
O O9 0.500000 0.652218 0.500000
O O10 0.250000 0.660820 0.588993
O O11 0.491129 0.730064 0.630470
O O12 0.750000 0.213910 0.594281
O O13 0.000000 0.206113 0.500000
O O14 0.250000 0.800081 0.093560
O O15 0.020949 0.728000 0.127979
O O16 0.007406 0.864767 0.126190
O O17 0.000000 0.794417 0.000000
O O18 0.750000 0.346134 0.912064
O O19 0.000000 0.353476 0.000000
O O20 0.750000 0.927648 0.131706
O O21 0.989945 0.000000 0.115526
#
# Coordination Sequence:
#
# PCOD9404378 Si02
#       7
#     8   8   8   8   8   8   8
#     4  10  22  41  64  91 123 159 196 235 288 353
#     4   9  19  35  53  75 106 146 188 230 280 337
#     4  11  23  40  62  89 121 157 198 246 296 349
#     4  10  20  35  56  81 111 146 188 234 283 339
#     4  10  20  35  55  79 107 143 186 232 282 337
#     4   9  20  38  60  88 121 156 195 239 289 342
#     4  10  21  35  51  75 107 142 184 234 285 337
#
# _framework density 19.330666000000001
#
# number of rings (size 3 to 8) (size 9 to 14) (size 15 to 20)
#    0.000    2.143    0.000    3.429    2.000    4.571 
#    0.000    0.000    0.000    0.000    0.000    0.000 
#    0.000    0.000    0.000    0.000    0.000    0.000 
#
# Total GULP energy -311918.505158 kJ/mol
# GULP energy per Si atom -5569.973306 kJ/mol
# Density = 1.928667 g / cm^3
# Si number density = 19.330666 Si / 1000 Ang^3
#
#
#
# Elastic Constant Matrix: (Units=GPa)
#
#
# Indices 1 2 3 4 5 6 
#
# 1 45.9308 67.3281 30.0647 0.0000 0.0000 0.0000
# 2 67.3281 212.3909 82.0435 0.0000 0.0000 0.0000
# 3 30.0647 82.0435 75.1090 0.0000 0.0000 0.0000
# 4 0.0000 0.0000 0.0000 102.9730 0.0000 0.0000
# 5 0.0000 0.0000 0.0000 0.0000 29.1219 0.0000
# 6 0.0000 0.0000 0.0000 0.0000 0.0000 18.7016
#
#
#
# Elastic Compliance Matrix: (Units=1/GPa)
#
#
# Indices 1 2 3 4 5 6 
#
# 1 0.041308 -0.011604 -0.003860 0.000000 0.000000 0.000000
# 2 -0.011604 0.011405 -0.007813 0.000000 0.000000 0.000000
# 3 -0.003860 -0.007813 0.023393 0.000000 0.000000 0.000000
# 4 0.000000 0.000000 0.000000 0.009711 0.000000 0.000000
# 5 0.000000 0.000000 0.000000 0.000000 0.034338 0.000000
# 6 0.000000 0.000000 0.000000 0.000000 0.000000 0.053471
#
#
# Mechanical properties :
#
#
# Convention : Reuss Voigt Hill
#
# Bulk Modulus (GPa) = 33.83753 76.92259 55.38006
# Shear Modulus (GPa) = 21.73629 40.42559 31.08094
#
# Velocity S-wave (km/s) = 3.35691 4.57800 4.01416
# Velocity P-wave (km/s) = 5.70682 8.23550 7.08489
#
# Compressibility (1/GPa) = 0.02955299
#
# Stress axis : x y z
#
# Youngs Moduli (GPa) = 24.20864 87.68344 42.74745
#
# Poissons Ratio (x) = 1.01744 0.16499
# Poissons Ratio (y) = 0.28091 0.33398
# Poissons Ratio (z) = 0.09344 0.68506
#
# Static dielectric constant tensor:
#      x y z
#    x 1.658890 0.000000 0.000000 
#    y 0.000000 1.801460 0.000000 
#    z 0.000000 0.000000 1.665570 
# 
# From -- ./inp_files/21857.got.cif
#   From: 2010.05.17/outbox.cif.g08.bks.cpg/sg51_11_cif.got.tgz:21857.got - 2010.06.03 11:52:47.
