data_PCOD9404921
_publ_section_title
;
Structure prediction by ZEFSAII (Michael W. Deem and Ramdas Pophale) SiO2 
 PCOD9404921
Probable space group: P M M A
;
_chemical_formula_sum "Si O2"
_cell_formula_units_Z 48
_cell_length_a 10.271866
_cell_length_b 8.934673
_cell_length_c 29.622582
_cell_angle_alpha 90.000000
_cell_angle_beta 90.000000
_cell_angle_gamma 90.000000
_cell_volume 2718.635089
_symmetry_space_group_name_H-M "P M M A"
_symmetry_group_IT_number 51
_symmetry_cell_setting 'orthorhombic'
loop_
_space_group_symop_operation_xyz
x,y,z
1/2-x,-y,z
1/2+x,-y,-z
-x,y,-z
-x,-y,-z
1/2+x,y,-z
1/2-x,y,z
x,-y,z
loop_
_atom_site_type_symbol
_atom_site_label
_atom_site_fract_x
_atom_site_fract_y
_atom_site_fract_z
Si Si1 0.902304 0.320684 0.791273
Si Si2 0.250000 0.323418 0.456717
Si Si3 0.901539 0.179051 0.136994
Si Si4 0.750000 0.178013 0.445743
Si Si5 0.594994 0.822781 0.694174
Si Si6 0.099248 0.679251 0.960600
Si Si7 0.495369 0.678313 0.603873
O O1 0.750000 0.283938 0.800981
O O2 0.913601 0.500000 0.789712
O O3 0.934333 0.251699 0.742337
O O4 0.998840 0.253995 0.828387
O O5 0.250000 0.500000 0.468979
O O6 0.250000 0.229237 0.502259
O O7 0.376479 0.294114 0.426391
O O8 0.750000 0.216839 0.147569
O O9 0.927153 0.238281 0.086446
O O10 0.914603 0.000000 0.138550
O O11 0.875366 0.245557 0.421026
O O12 0.750000 0.000000 0.442734
O O13 0.750000 0.801398 0.686132
O O14 0.519336 0.746504 0.653194
O O15 0.569231 0.000000 0.695777
O O16 0.250000 0.708542 0.973352
O O17 0.086099 0.500000 0.953562
O O18 0.000000 0.723602 0.000000
O O19 0.476343 0.500000 0.606995
#
# Coordination Sequence:
#
# PCOD9404921 Si02
#       7
#     8   4   8   4   8   8   8
#     4  10  21  37  59  85 112 145 189 236 281 336
#     4  10  22  40  64  88 112 150 194 234 279 340
#     4  10  21  37  56  81 115 152 190 234 286 341
#     4  12  26  40  56  86 122 152 188 238 287 334
#     4  10  20  36  60  88 117 147 184 232 286 340
#     4   9  18  33  53  77 108 147 190 234 279 332
#     4  11  22  40  63  86 115 152 192 233 281 340
#
# _framework density 17.655919000000001
#
# number of rings (size 3 to 8) (size 9 to 14) (size 15 to 20)
#    0.000    1.833    0.833    3.250    0.000    7.000 
#    1.500    1.667    0.000    0.000    0.000    0.000 
#    0.000    0.000    0.000    0.000    0.000    0.000 
#
# Total GULP energy -268155.443902 kJ/mol
# GULP energy per Si atom -5586.571748 kJ/mol
# Density = 1.761573 g / cm^3
# Si number density = 17.655919 Si / 1000 Ang^3
#
#
#
# Elastic Constant Matrix: (Units=GPa)
#
#
# Indices 1 2 3 4 5 6 
#
# 1 121.8715 83.1557 100.5097 0.0000 0.0000 0.0000
# 2 83.1557 89.8738 88.5100 0.0000 0.0000 0.0000
# 3 100.5097 88.5100 160.0882 0.0000 0.0000 0.0000
# 4 0.0000 0.0000 0.0000 81.7430 0.0000 0.0000
# 5 0.0000 0.0000 0.0000 0.0000 16.0199 0.0000
# 6 0.0000 0.0000 0.0000 0.0000 0.0000 29.9566
#
#
#
# Elastic Compliance Matrix: (Units=1/GPa)
#
#
# Indices 1 2 3 4 5 6 
#
# 1 0.024888 -0.016771 -0.006354 0.000000 0.000000 0.000000
# 2 -0.016771 0.035728 -0.009224 0.000000 0.000000 0.000000
# 3 -0.006354 -0.009224 0.015335 0.000000 0.000000 0.000000
# 4 0.000000 0.000000 0.000000 0.012233 0.000000 0.000000
# 5 0.000000 0.000000 0.000000 0.000000 0.062422 0.000000
# 6 0.000000 0.000000 0.000000 0.000000 0.000000 0.033382
#
#
# Mechanical properties :
#
#
# Convention : Reuss Voigt Hill
#
# Bulk Modulus (GPa) = 88.85019 101.79825 95.32422
# Shear Modulus (GPa) = 19.80687 32.18777 25.99732
#
# Velocity S-wave (km/s) = 3.35300 4.27436 3.84140
# Velocity P-wave (km/s) = 8.08842 9.06323 8.58966
#
# Compressibility (1/GPa) = 0.01125490
#
# Stress axis : x y z
#
# Youngs Moduli (GPa) = 40.17930 27.98936 65.20849
#
# Poissons Ratio (x) = 0.46940 0.41431
# Poissons Ratio (y) = 0.67384 0.60148
# Poissons Ratio (z) = 0.25529 0.25817
#
# Static dielectric constant tensor:
#      x y z
#    x 1.547890 0.000000 0.000000 
#    y 0.000000 1.585630 0.000000 
#    z 0.000000 0.000000 1.560640 
# 
# From -- ./inp_files/37156.got.cif
#   From: 2010.05.17/outbox.cif.g08.bks.cpg/sg51_19_cif.got.tgz:37156.got - 2010.06.03 11:52:47.
