data_PCOD9404819
_publ_section_title
;
Structure prediction by ZEFSAII (Michael W. Deem and Ramdas Pophale) SiO2 
 PCOD9404819
Probable space group: P M M A
;
_chemical_formula_sum "Si O2"
_cell_formula_units_Z 40
_cell_length_a 15.608182
_cell_length_b 13.947457
_cell_length_c 7.891442
_cell_angle_alpha 90.000000
_cell_angle_beta 90.000000
_cell_angle_gamma 90.000000
_cell_volume 1717.923105
_symmetry_space_group_name_H-M "P M M A"
_symmetry_group_IT_number 51
_symmetry_cell_setting 'orthorhombic'
loop_
_space_group_symop_operation_xyz
x,y,z
1/2-x,-y,z
1/2+x,-y,-z
-x,y,-z
-x,-y,-z
1/2+x,y,-z
1/2-x,y,z
x,-y,z
loop_
_atom_site_type_symbol
_atom_site_label
_atom_site_fract_x
_atom_site_fract_y
_atom_site_fract_z
Si Si1 0.906223 0.809442 0.579403
Si Si2 0.343299 0.000000 0.565300
Si Si3 0.899134 0.396691 0.963545
Si Si4 0.600671 0.396965 0.554591
Si Si5 0.347041 0.804964 0.057275
Si Si6 0.410655 0.000000 0.904790
O O1 0.852997 0.903795 0.539984
O O2 0.867008 0.709350 0.509200
O O3 0.911054 0.804096 0.782937
O O4 0.000000 0.818576 0.500000
O O5 0.250000 0.000000 0.650669
O O6 0.417874 0.000000 0.703772
O O7 0.866155 0.500000 0.027921
O O8 0.889145 0.398426 0.759087
O O9 0.859988 0.297901 0.032144
O O10 0.000000 0.393682 0.000000
O O11 0.500000 0.396247 0.500000
O O12 0.635523 0.500000 0.491949
O O13 0.250000 0.806640 0.123197
O O14 0.363684 0.901097 0.953416
O O15 0.500000 0.000000 0.000000
#
# Coordination Sequence:
#
# PCOD9404819 Si02
#       6
#     8   4   8   8   8   4
#     4  10  20  36  58  83 111 149 191 227 270 335
#     4  12  24  38  56  80 110 142 182 234 286 330
#     4   9  18  33  54  81 112 148 190 230 270 325
#     4   8  15  29  51  80 109 137 176 224 266 309
#     4  11  22  37  57  84 117 149 184 234 295 343
#     4  12  25  42  61  80 106 144 190 236 283 346
#
# _framework density 23.283928
#
# number of rings (size 3 to 8) (size 9 to 14) (size 15 to 20)
#    0.000    2.000    0.000    4.200    0.000    3.600 
#    0.000    0.000    0.000    1.800    0.000    0.000 
#    0.000    8.000    0.000    0.000    0.000    0.000 
#
# Total GULP energy -223198.559107 kJ/mol
# GULP energy per Si atom -5579.963978 kJ/mol
# Density = 2.323093 g / cm^3
# Si number density = 23.283928 Si / 1000 Ang^3
#
#
#
# Elastic Constant Matrix: (Units=GPa)
#
#
# Indices 1 2 3 4 5 6 
#
# 1 44.5435 29.2626 -12.2805 0.0000 0.0000 0.0000
# 2 29.2626 291.8476 28.4742 0.0000 0.0000 0.0000
# 3 -12.2805 28.4742 21.2467 0.0000 0.0000 0.0000
# 4 0.0000 0.0000 0.0000 3.9366 0.0000 0.0000
# 5 0.0000 0.0000 0.0000 0.0000 20.1357 0.0000
# 6 0.0000 0.0000 0.0000 0.0000 0.0000 -7.9689
#
#
#
# Elastic Compliance Matrix: (Units=1/GPa)
#
#
# Indices 1 2 3 4 5 6 
#
# 1 0.034240 -0.006171 0.028061 0.000000 0.000000 0.000000
# 2 -0.006171 0.005054 -0.010340 0.000000 0.000000 0.000000
# 3 0.028061 -0.010340 0.077143 0.000000 0.000000 0.000000
# 4 0.000000 0.000000 0.000000 0.254026 0.000000 0.000000
# 5 0.000000 0.000000 0.000000 0.000000 0.049663 0.000000
# 6 0.000000 0.000000 0.000000 0.000000 0.000000 -0.125489
#
#
# Mechanical properties :
#
#
# Convention : Reuss Voigt Hill
#
# Bulk Modulus (GPa) = 7.16656 49.83894 28.50275
# Shear Modulus (GPa) = 15.72081 24.03278 19.87680
#
# Velocity S-wave (km/s) = 2.60124 3.21621 2.92493
# Velocity P-wave (km/s) = 3.47944 5.93661 4.86569
#
# Compressibility (1/GPa) = 0.13953692
#
# Stress axis : x y z
#
# Youngs Moduli (GPa) = 29.20539 197.86244 12.96297
#
# Poissons Ratio (x) = 1.22100 -0.36375
# Poissons Ratio (y) = 0.18022 0.13404
# Poissons Ratio (z) = -0.81953 2.04591
#
# Static dielectric constant tensor:
#      x y z
#    x 1.871690 0.000000 0.000000 
#    y 0.000000 1.993370 0.000000 
#    z 0.000000 0.000000 1.851580 
# 
# From -- ./inp_files/7985.got.cif
#   From: 2010.05.17/outbox.cif.g08.bks.cpg/sg51_4_cif.got.tgz:7985.got - 2010.06.03 11:52:47.
