data_PCOD9404310
_publ_section_title
;
Structure prediction by ZEFSAII (Michael W. Deem and Ramdas Pophale) SiO2 
 PCOD9404310
Probable space group: P M M A
;
_chemical_formula_sum "Si O2"
_cell_formula_units_Z 44
_cell_length_a 8.726782
_cell_length_b 29.752471
_cell_length_c 9.440141
_cell_angle_alpha 90.000000
_cell_angle_beta 90.000000
_cell_angle_gamma 90.000000
_cell_volume 2451.069630
_symmetry_space_group_name_H-M "P M M A"
_symmetry_group_IT_number 51
_symmetry_cell_setting 'orthorhombic'
loop_
_space_group_symop_operation_xyz
x,y,z
1/2-x,-y,z
1/2+x,-y,-z
-x,y,-z
-x,-y,-z
1/2+x,y,-z
1/2-x,y,z
x,-y,z
loop_
_atom_site_type_symbol
_atom_site_label
_atom_site_fract_x
_atom_site_fract_y
_atom_site_fract_z
Si Si1 0.565439 0.000000 0.659653
Si Si2 0.067209 0.368876 0.156929
Si Si3 0.566965 0.447585 0.343937
Si Si4 0.433998 0.287861 0.659241
Si Si5 0.566137 0.097289 0.660775
Si Si6 0.067175 0.811985 0.659438
O O1 0.500000 0.000000 0.500000
O O2 0.521755 0.951529 0.724560
O O3 0.750000 0.000000 0.650221
O O4 0.250000 0.368248 0.153340
O O5 0.008879 0.413888 0.233947
O O6 0.005630 0.326638 0.246235
O O7 0.000000 0.366884 0.000000
O O8 0.500000 0.438353 0.500000
O O9 0.750000 0.441083 0.345904
O O10 0.535620 0.500000 0.311102
O O11 0.500000 0.291141 0.500000
O O12 0.250000 0.292547 0.653265
O O13 0.469259 0.237603 0.717882
O O14 0.500000 0.096408 0.500000
O O15 0.750000 0.100382 0.654450
O O16 0.501359 0.142983 0.728444
O O17 0.250000 0.816575 0.652003
O O18 0.000000 0.810766 0.500000
#
# Coordination Sequence:
#
# PCOD9404310 Si02
#       6
#     4   8   8   8   8   8
#     4   8  14  20  26  40  64 100 141 182 229 282
#     4  12  25  40  58  80 109 142 176 215 260 309
#     4  10  21  39  63  89 116 146 180 216 254 298
#     4  10  20  35  54  76 102 133 172 215 259 308
#     4   9  14  20  30  45  70 103 143 188 234 286
#     4   9  16  25  39  59  83 112 150 197 244 290
#
# _framework density 17.951346000000001
#
# number of rings (size 3 to 8) (size 9 to 14) (size 15 to 20)
#    0.000    2.182    0.000    5.455    0.000    4.364 
#    0.000    0.000    0.000    0.000    0.000    0.000 
#    0.000    0.000    0.000    0.818    0.000   11.455 
#
# Total GULP energy -245261.753499 kJ/mol
# GULP energy per Si atom -5574.130761 kJ/mol
# Density = 1.791049 g / cm^3
# Si number density = 17.951346 Si / 1000 Ang^3
#
#
#
# Elastic Constant Matrix: (Units=GPa)
#
#
# Indices 1 2 3 4 5 6 
#
# 1 99.9574 81.1571 36.8577 0.0000 0.0000 0.0000
# 2 81.1571 172.0515 78.4518 0.0000 0.0000 0.0000
# 3 36.8577 78.4518 58.7489 0.0000 0.0000 0.0000
# 4 0.0000 0.0000 0.0000 -2.8470 0.0000 0.0000
# 5 0.0000 0.0000 0.0000 0.0000 19.9621 0.0000
# 6 0.0000 0.0000 0.0000 0.0000 0.0000 32.2435
#
#
#
# Elastic Compliance Matrix: (Units=1/GPa)
#
#
# Indices 1 2 3 4 5 6 
#
# 1 0.016214 -0.007696 0.000105 0.000000 0.000000 0.000000
# 2 -0.007696 0.018514 -0.019895 0.000000 0.000000 0.000000
# 3 0.000105 -0.019895 0.043523 0.000000 0.000000 0.000000
# 4 0.000000 0.000000 0.000000 -0.351248 0.000000 0.000000
# 5 0.000000 0.000000 0.000000 0.000000 0.050095 0.000000
# 6 0.000000 0.000000 0.000000 0.000000 0.000000 0.031014
#
#
# Mechanical properties :
#
#
# Convention : Reuss Voigt Hill
#
# Bulk Modulus (GPa) = 42.95749 80.41011 61.68380
# Shear Modulus (GPa) = -38.71336 18.82445 -9.94445
#
# Velocity S-wave (km/s) = -4.64893 3.24178 -2.35620
# Velocity P-wave (km/s) = 2.19882 7.67482 5.19942
#
# Compressibility (1/GPa) = 0.02327883
#
# Stress axis : x y z
#
# Youngs Moduli (GPa) = 61.67443 54.01277 22.97616
#
# Poissons Ratio (x) = 0.41568 -0.00240
# Poissons Ratio (y) = 0.47464 0.45711
# Poissons Ratio (z) = -0.00645 1.07459
#
# Static dielectric constant tensor:
#      x y z
#    x 1.608140 0.000000 0.000000 
#    y 0.000000 1.693420 0.000000 
#    z 0.000000 0.000000 1.558650 
# 
# From -- ./inp_files/5823.got.cif
#   From: 2010.05.17/outbox.cif.g08.bks.cpg/sg51_3_cif.got.tgz:5823.got - 2010.06.03 11:52:47.
