data_PCOD9404035
_publ_section_title
;
Structure prediction by ZEFSAII (Michael W. Deem and Ramdas Pophale) SiO2 
 PCOD9404035
Probable space group: P M M A
;
_chemical_formula_sum "Si O2"
_cell_formula_units_Z 64
_cell_length_a 14.129174
_cell_length_b 9.027242
_cell_length_c 26.451666
_cell_angle_alpha 90.000000
_cell_angle_beta 90.000000
_cell_angle_gamma 90.000000
_cell_volume 3373.843154
_symmetry_space_group_name_H-M "P M M A"
_symmetry_group_IT_number 51
_symmetry_cell_setting 'orthorhombic'
loop_
_space_group_symop_operation_xyz
x,y,z
1/2-x,-y,z
1/2+x,-y,-z
-x,y,-z
-x,-y,-z
1/2+x,y,-z
1/2-x,y,z
x,-y,z
loop_
_atom_site_type_symbol
_atom_site_label
_atom_site_fract_x
_atom_site_fract_y
_atom_site_fract_z
Si Si1 0.362702 0.673135 0.524926
Si Si2 0.634903 0.169539 0.973507
Si Si3 0.138808 0.175703 0.419202
Si Si4 0.962685 0.822723 0.172967
Si Si5 0.031463 0.677163 0.628285
Si Si6 0.139490 0.177984 0.721613
Si Si7 0.860937 0.323377 0.867861
Si Si8 0.135394 0.327102 0.923031
O O1 0.250000 0.685546 0.532662
O O2 0.384587 0.500000 0.514747
O O3 0.387223 0.766020 0.475272
O O4 0.413657 0.718086 0.576431
O O5 0.750000 0.166089 0.975558
O O6 0.612286 0.263724 0.923718
O O7 0.601972 0.000000 0.968613
O O8 0.603944 0.244635 0.025724
O O9 0.250000 0.208504 0.411957
O O10 0.072958 0.257432 0.379047
O O11 0.125009 0.000000 0.416477
O O12 0.909860 0.786062 0.225092
O O13 0.906736 0.751409 0.126053
O O14 0.068130 0.756431 0.170363
O O15 0.965257 0.000000 0.167358
O O16 0.029469 0.500000 0.631668
O O17 0.085516 0.744435 0.675825
O O18 0.250000 0.220486 0.722451
O O19 0.134500 0.000000 0.715144
O O20 0.750000 0.288556 0.859399
O O21 0.872215 0.500000 0.866024
O O22 0.250000 0.319725 0.920943
O O23 0.108386 0.500000 0.924579
#
# Coordination Sequence:
#
# PCOD9404035 Si02
#       8
#     8   8   8   8   8   8   8   8
#     4   9  18  33  53  81 118 155 190 231 282 339
#     4   9  17  31  53  81 113 148 185 226 274 330
#     4  10  21  36  55  82 117 156 196 237 282 333
#     4  11  23  39  60  84 110 144 188 233 279 333
#     4  11  22  36  58  86 115 151 194 237 284 338
#     4  10  23  43  64  86 114 147 184 230 281 331
#     4  10  21  38  59  83 113 146 182 228 280 334
#     4  10  20  34  54  82 116 151 186 227 278 335
#
# _framework density 18.969463999999999
#
# number of rings (size 3 to 8) (size 9 to 14) (size 15 to 20)
#    0.000    2.000    0.000    3.375    0.000    9.000 
#    0.000    4.375    0.000    0.750    0.000    0.000 
#    0.000    0.000    0.000    0.000    0.000    0.000 
#
# Total GULP energy -357752.340599 kJ/mol
# GULP energy per Si atom -5589.880322 kJ/mol
# Density = 1.892629 g / cm^3
# Si number density = 18.969464 Si / 1000 Ang^3
#
#
#
# Elastic Constant Matrix: (Units=GPa)
#
#
# Indices 1 2 3 4 5 6 
#
# 1 103.7899 57.5858 83.4255 0.0000 0.0000 0.0000
# 2 57.5858 81.6483 68.1596 0.0000 0.0000 0.0000
# 3 83.4255 68.1596 126.2336 0.0000 0.0000 0.0000
# 4 0.0000 0.0000 0.0000 41.8222 0.0000 0.0000
# 5 0.0000 0.0000 0.0000 0.0000 35.8064 0.0000
# 6 0.0000 0.0000 0.0000 0.0000 0.0000 28.1747
#
#
#
# Elastic Compliance Matrix: (Units=1/GPa)
#
#
# Indices 1 2 3 4 5 6 
#
# 1 0.022149 -0.006194 -0.011294 0.000000 0.000000 0.000000
# 2 -0.006194 0.024031 -0.008882 0.000000 0.000000 0.000000
# 3 -0.011294 -0.008882 0.020181 0.000000 0.000000 0.000000
# 4 0.000000 0.000000 0.000000 0.023911 0.000000 0.000000
# 5 0.000000 0.000000 0.000000 0.000000 0.027928 0.000000
# 6 0.000000 0.000000 0.000000 0.000000 0.000000 0.035493
#
#
# Mechanical properties :
#
#
# Convention : Reuss Voigt Hill
#
# Bulk Modulus (GPa) = 73.40818 81.11262 77.26040
# Shear Modulus (GPa) = 23.69984 27.99407 25.84695
#
# Velocity S-wave (km/s) = 3.53847 3.84571 3.69529
# Velocity P-wave (km/s) = 7.44825 7.91023 7.68271
#
# Compressibility (1/GPa) = 0.01362246
#
# Stress axis : x y z
#
# Youngs Moduli (GPa) = 45.14888 41.61351 49.55054
#
# Poissons Ratio (x) = 0.25774 0.55960
# Poissons Ratio (y) = 0.27963 0.44011
# Poissons Ratio (z) = 0.50989 0.36961
#
# Static dielectric constant tensor:
#      x y z
#    x 1.697900 0.000000 0.000000 
#    y 0.000000 1.632960 0.000000 
#    z 0.000000 0.000000 1.612630 
# 
# From -- ./inp_files/35872.got.cif
#   From: 2010.05.17/outbox.cif.g08.bks.cpg/sg51_18_cif.got.tgz:35872.got - 2010.06.03 11:52:47.
