data_PCOD9404230
_publ_section_title
;
Structure prediction by ZEFSAII (Michael W. Deem and Ramdas Pophale) SiO2 
 PCOD9404230
Probable space group: P M M A
;
_chemical_formula_sum "Si O2"
_cell_formula_units_Z 64
_cell_length_a 16.871300
_cell_length_b 14.254199
_cell_length_c 13.239495
_cell_angle_alpha 90.000000
_cell_angle_beta 90.000000
_cell_angle_gamma 90.000000
_cell_volume 3183.924681
_symmetry_space_group_name_H-M "P M M A"
_symmetry_group_IT_number 51
_symmetry_cell_setting 'orthorhombic'
loop_
_space_group_symop_operation_xyz
x,y,z
1/2-x,-y,z
1/2+x,-y,-z
-x,y,-z
-x,-y,-z
1/2+x,y,-z
1/2-x,y,z
x,-y,z
loop_
_atom_site_type_symbol
_atom_site_label
_atom_site_fract_x
_atom_site_fract_y
_atom_site_fract_z
Si Si1 0.093266 0.609013 0.180856
Si Si2 0.653437 0.892270 0.552454
Si Si3 0.338974 0.613594 0.968259
Si Si4 0.588968 0.110780 0.959951
Si Si5 0.157027 0.202506 0.237563
Si Si6 0.656053 0.106230 0.167130
Si Si7 0.410464 0.390486 0.756052
Si Si8 0.653609 0.773205 0.357636
O O1 0.118375 0.500000 0.192682
O O2 0.144019 0.685738 0.240245
O O3 0.002978 0.616823 0.216785
O O4 0.103320 0.633688 0.061781
O O5 0.750000 0.894164 0.550575
O O6 0.630563 0.847104 0.659227
O O7 0.629273 0.827153 0.458846
O O8 0.626464 0.000000 0.542289
O O9 0.250000 0.646108 0.992894
O O10 0.337720 0.500000 0.962155
O O11 0.364759 0.644078 0.856994
O O12 0.608292 0.163316 0.857248
O O13 0.605194 0.000000 0.943475
O O14 0.500000 0.121506 0.000000
O O15 0.640491 0.144517 0.055324
O O16 0.250000 0.181601 0.221774
O O17 0.750000 0.100022 0.180903
O O18 0.626050 0.165787 0.260934
O O19 0.622590 0.000000 0.169966
O O20 0.391812 0.500000 0.739999
O O21 0.384072 0.327867 0.662246
O O22 0.750000 0.765785 0.356565
#
# Coordination Sequence:
#
# PCOD9404230 Si02
#       8
#     8   8   8   8   8   8   8   8
#     4  10  22  38  55  79 116 160 202 245 297 356
#     4   9  19  39  65  91 117 148 193 246 296 350
#     4   9  17  31  53  81 113 150 194 243 289 342
#     4  10  22  37  56  86 124 158 188 234 296 359
#     4  11  23  38  63  90 115 156 205 248 296 352
#     4   9  18  33  54  81 113 149 188 231 286 351
#     4  10  21  36  55  81 118 162 200 240 298 360
#     4  10  20  34  59  89 115 148 193 243 295 345
#
# _framework density 20.100977
#
# number of rings (size 3 to 8) (size 9 to 14) (size 15 to 20)
#    0.000    2.250    0.000    2.250    3.500    5.750 
#    0.000    1.250    0.000    4.500    0.000    0.000 
#    0.000    0.000    0.000    0.000    0.000    0.000 
#
# Total GULP energy -357386.562106 kJ/mol
# GULP energy per Si atom -5584.165033 kJ/mol
# Density = 2.005523 g / cm^3
# Si number density = 20.100977 Si / 1000 Ang^3
#
#
#
# Elastic Constant Matrix: (Units=GPa)
#
#
# Indices 1 2 3 4 5 6 
#
# 1 21.9891 27.5475 27.6178 0.0000 0.0000 0.0000
# 2 27.5475 118.9587 85.8462 0.0000 0.0000 0.0000
# 3 27.6178 85.8462 146.5272 0.0000 0.0000 0.0000
# 4 0.0000 0.0000 0.0000 34.7576 0.0000 0.0000
# 5 0.0000 0.0000 0.0000 0.0000 26.1165 0.0000
# 6 0.0000 0.0000 0.0000 0.0000 0.0000 20.5531
#
#
#
# Elastic Compliance Matrix: (Units=1/GPa)
#
#
# Indices 1 2 3 4 5 6 
#
# 1 0.067106 -0.011109 -0.006140 0.000000 0.000000 0.000000
# 2 -0.011109 0.016403 -0.007516 0.000000 0.000000 0.000000
# 3 -0.006140 -0.007516 0.012385 0.000000 0.000000 0.000000
# 4 0.000000 0.000000 0.000000 0.028771 0.000000 0.000000
# 5 0.000000 0.000000 0.000000 0.000000 0.038290 0.000000
# 6 0.000000 0.000000 0.000000 0.000000 0.000000 0.048654
#
#
# Mechanical properties :
#
#
# Convention : Reuss Voigt Hill
#
# Bulk Modulus (GPa) = 21.56842 63.27756 42.42299
# Shear Modulus (GPa) = 18.07707 26.04967 22.06337
#
# Velocity S-wave (km/s) = 3.00211 3.60382 3.31664
# Velocity P-wave (km/s) = 4.77181 6.99034 5.98478
#
# Compressibility (1/GPa) = 0.04636409
#
# Stress axis : x y z
#
# Youngs Moduli (GPa) = 14.90185 60.96540 80.74050
#
# Poissons Ratio (x) = 0.67727 0.49573
# Poissons Ratio (y) = 0.16555 0.60685
# Poissons Ratio (z) = 0.09149 0.45822
#
# Static dielectric constant tensor:
#      x y z
#    x 1.797290 0.000000 0.000000 
#    y 0.000000 1.763970 0.000000 
#    z 0.000000 0.000000 1.682250 
# 
# From -- ./inp_files/17559.got.cif
#   From: 2010.05.17/outbox.cif.g08.bks.cpg/sg51_9_cif.got.tgz:17559.got - 2010.06.03 11:52:47.
