data_PCOD9404812
_publ_section_title
;
Structure prediction by ZEFSAII (Michael W. Deem and Ramdas Pophale) SiO2 
 PCOD9404812
Probable space group: P M M A
;
_chemical_formula_sum "Si O2"
_cell_formula_units_Z 64
_cell_length_a 24.326702
_cell_length_b 7.913711
_cell_length_c 15.826311
_cell_angle_alpha 90.000000
_cell_angle_beta 90.000000
_cell_angle_gamma 90.000000
_cell_volume 3046.794178
_symmetry_space_group_name_H-M "P M M A"
_symmetry_group_IT_number 51
_symmetry_cell_setting 'orthorhombic'
loop_
_space_group_symop_operation_xyz
x,y,z
1/2-x,-y,z
1/2+x,-y,-z
-x,y,-z
-x,-y,-z
1/2+x,y,-z
1/2-x,y,z
x,-y,z
loop_
_atom_site_type_symbol
_atom_site_label
_atom_site_fract_x
_atom_site_fract_y
_atom_site_fract_z
Si Si1 0.108784 0.199241 0.097059
Si Si2 0.990499 0.199177 0.655469
Si Si3 0.311511 0.200115 0.241497
Si Si4 0.990716 0.795916 0.147141
Si Si5 0.126648 0.304754 0.406406
Si Si6 0.871520 0.696599 0.086203
Si Si7 0.891161 0.705123 0.408036
Si Si8 0.812936 0.293229 0.254783
O O1 0.146974 0.272382 0.171034
O O2 0.046155 0.264410 0.100721
O O3 0.102561 0.000000 0.114866
O O4 0.134522 0.220609 0.005090
O O5 0.000943 0.241899 0.753699
O O6 0.937365 0.292023 0.619583
O O7 0.046401 0.237202 0.605969
O O8 0.978247 0.000000 0.651390
O O9 0.250000 0.271698 0.237442
O O10 0.337906 0.219454 0.333574
O O11 0.307468 0.000000 0.224275
O O12 0.934930 0.715995 0.113850
O O13 0.984682 0.000000 0.137094
O O14 0.143425 0.500000 0.408045
O O15 0.131092 0.235475 0.501375
O O16 0.858044 0.500000 0.076159
O O17 0.835550 0.765182 0.163965
O O18 0.891406 0.500000 0.408929
O O19 0.853450 0.761815 0.329826
O O20 0.750000 0.242610 0.268528
O O21 0.814662 0.500000 0.254085
#
# Coordination Sequence:
#
# PCOD9404812 Si02
#       8
#     8   8   8   8   8   8   8   8
#     4  10  21  39  59  82 114 151 189 231 286 348
#     4  11  21  36  60  87 117 153 192 236 288 348
#     4  10  22  42  64  84 113 156 201 242 289 344
#     4  10  20  36  58  82 112 152 188 228 286 348
#     4  11  23  37  59  89 121 152 190 241 292 345
#     4  11  22  35  57  88 115 146 189 237 287 340
#     4  10  21  38  59  86 117 153 193 236 289 347
#     4   9  19  37  58  79 110 152 192 231 279 337
#
# _framework density 21.005685
#
# number of rings (size 3 to 8) (size 9 to 14) (size 15 to 20)
#    0.000    1.750    2.500    1.875    0.000    6.750 
#    0.000    1.250    0.000    3.000    0.000    0.000 
#    0.000    0.000    0.000    0.000    0.000    0.000 
#
# Total GULP energy -357633.505284 kJ/mol
# GULP energy per Si atom -5588.023520 kJ/mol
# Density = 2.095787 g / cm^3
# Si number density = 21.005685 Si / 1000 Ang^3
#
#
#
# Elastic Constant Matrix: (Units=GPa)
#
#
# Indices 1 2 3 4 5 6 
#
# 1 78.3716 -9.7369 -2.8360 0.0000 0.0000 0.0000
# 2 -9.7369 14.0290 -8.2136 0.0000 0.0000 0.0000
# 3 -2.8360 -8.2136 66.6769 0.0000 0.0000 0.0000
# 4 0.0000 0.0000 0.0000 24.7847 0.0000 0.0000
# 5 0.0000 0.0000 0.0000 0.0000 5.0122 0.0000
# 6 0.0000 0.0000 0.0000 0.0000 0.0000 17.3924
#
#
#
# Elastic Compliance Matrix: (Units=1/GPa)
#
#
# Indices 1 2 3 4 5 6 
#
# 1 0.014197 0.011001 0.001959 0.000000 0.000000 0.000000
# 2 0.011001 0.085345 0.010981 0.000000 0.000000 0.000000
# 3 0.001959 0.010981 0.016434 0.000000 0.000000 0.000000
# 4 0.000000 0.000000 0.000000 0.040347 0.000000 0.000000
# 5 0.000000 0.000000 0.000000 0.000000 0.199514 0.000000
# 6 0.000000 0.000000 0.000000 0.000000 0.000000 0.057496
#
#
# Mechanical properties :
#
#
# Convention : Reuss Voigt Hill
#
# Bulk Modulus (GPa) = 6.10285 13.05606 9.57946
# Shear Modulus (GPa) = 11.90272 21.42879 16.66575
#
# Velocity S-wave (km/s) = 2.38301 3.19743 2.81978
# Velocity P-wave (km/s) = 3.23779 4.45650 3.89511
#
# Compressibility (1/GPa) = 0.16385782
#
# Stress axis : x y z
#
# Youngs Moduli (GPa) = 70.43578 11.71712 60.85044
#
# Poissons Ratio (x) = -0.12890 -0.11920
# Poissons Ratio (y) = -0.77484 -0.66821
# Poissons Ratio (z) = -0.13798 -0.12867
#
# Static dielectric constant tensor:
#      x y z
#    x 1.729260 0.000000 0.000000 
#    y 0.000000 1.768730 0.000000 
#    z 0.000000 0.000000 1.747290 
# 
# From -- ./inp_files/26297.got.cif
#   From: 2010.05.17/outbox.cif.g08.bks.cpg/sg51_14_cif.got.tgz:26297.got - 2010.06.03 11:52:47.
