data_PCOD9404128
_publ_section_title
;
Structure prediction by ZEFSAII (Michael W. Deem and Ramdas Pophale) SiO2 
 PCOD9404128
Probable space group: P M M A
;
_chemical_formula_sum "Si O2"
_cell_formula_units_Z 64
_cell_length_a 15.264342
_cell_length_b 17.803680
_cell_length_c 12.036484
_cell_angle_alpha 90.000000
_cell_angle_beta 90.000000
_cell_angle_gamma 90.000000
_cell_volume 3271.052470
_symmetry_space_group_name_H-M "P M M A"
_symmetry_group_IT_number 51
_symmetry_cell_setting 'orthorhombic'
loop_
_space_group_symop_operation_xyz
x,y,z
1/2-x,-y,z
1/2+x,-y,-z
-x,y,-z
-x,-y,-z
1/2+x,y,-z
1/2-x,y,z
x,-y,z
loop_
_atom_site_type_symbol
_atom_site_label
_atom_site_fract_x
_atom_site_fract_y
_atom_site_fract_z
Si Si1 0.515360 0.410476 0.329673
Si Si2 0.497743 0.698597 0.867203
Si Si3 0.090537 0.844197 0.765318
Si Si4 0.852392 0.082043 0.019357
Si Si5 0.150140 0.177301 0.518927
Si Si6 0.348044 0.198111 0.154462
Si Si7 0.587129 0.912151 0.672641
Si Si8 0.643407 0.647693 0.520832
O O1 0.518762 0.500000 0.326270
O O2 0.523312 0.372686 0.208904
O O3 0.421766 0.386302 0.385412
O O4 0.595278 0.381071 0.408046
O O5 0.434953 0.767146 0.828371
O O6 0.592465 0.730003 0.829769
O O7 0.500000 0.686878 0.000000
O O8 0.140923 0.895183 0.853137
O O9 0.137495 0.824808 0.650761
O O10 0.005182 0.890481 0.727404
O O11 0.750000 0.078962 0.987936
O O12 0.891113 0.000000 0.998030
O O13 0.890770 0.147518 0.943281
O O14 0.250000 0.158014 0.494372
O O15 0.092301 0.117563 0.452747
O O16 0.132471 0.261930 0.477664
O O17 0.250000 0.220605 0.125288
O O18 0.348476 0.142268 0.258665
O O19 0.606136 0.000000 0.682411
O O20 0.750000 0.632189 0.526821
#
# Coordination Sequence:
#
# PCOD9404128 Si02
#       8
#     8   8   8   8   8   8   8   8
#     4  11  24  40  66 100 130 161 199 249 309 373
#     4  11  22  41  63  88 120 160 201 248 298 365
#     4  11  21  38  59  81 115 157 203 245 297 358
#     4  10  20  34  55  84 116 151 203 264 307 345
#     4  11  23  38  60  85 114 159 204 245 297 359
#     4  10  21  38  60  84 114 158 208 252 300 358
#     4  11  24  36  53  82 120 160 201 250 307 362
#     4  10  21  41  68  97 128 164 206 253 305 366
#
# _framework density 19.565567999999999
#
# number of rings (size 3 to 8) (size 9 to 14) (size 15 to 20)
#    0.000    1.375    2.500    4.125    1.750    5.750 
#    0.000    2.500    0.000    0.000    0.000    1.750 
#    0.000    0.000    0.000    0.000    0.000    0.000 
#
# Total GULP energy -357213.929750 kJ/mol
# GULP energy per Si atom -5581.467652 kJ/mol
# Density = 1.952104 g / cm^3
# Si number density = 19.565568 Si / 1000 Ang^3
#
#
#
# Elastic Constant Matrix: (Units=GPa)
#
#
# Indices 1 2 3 4 5 6 
#
# 1 72.3349 21.2896 10.4038 0.0000 0.0000 0.0000
# 2 21.2896 66.5184 25.4070 0.0000 0.0000 0.0000
# 3 10.4038 25.4070 118.5485 0.0000 0.0000 0.0000
# 4 0.0000 0.0000 0.0000 6.3532 0.0000 0.0000
# 5 0.0000 0.0000 0.0000 0.0000 25.8171 0.0000
# 6 0.0000 0.0000 0.0000 0.0000 0.0000 -40.0583
#
#
#
# Elastic Compliance Matrix: (Units=1/GPa)
#
#
# Indices 1 2 3 4 5 6 
#
# 1 0.015273 -0.004767 -0.000319 0.000000 0.000000 0.000000
# 2 -0.004767 0.017861 -0.003410 0.000000 0.000000 0.000000
# 3 -0.000319 -0.003410 0.009194 0.000000 0.000000 0.000000
# 4 0.000000 0.000000 0.000000 0.157401 0.000000 0.000000
# 5 0.000000 0.000000 0.000000 0.000000 0.038734 0.000000
# 6 0.000000 0.000000 0.000000 0.000000 0.000000 -0.024964
#
#
# Mechanical properties :
#
#
# Convention : Reuss Voigt Hill
#
# Bulk Modulus (GPa) = 39.46540 41.28919 40.37729
# Shear Modulus (GPa) = 20.92603 11.77581 16.35092
#
# Velocity S-wave (km/s) = 3.27392 2.45595 2.89398
# Velocity P-wave (km/s) = 5.87418 5.40288 5.64345
#
# Compressibility (1/GPa) = 0.02533865
#
# Stress axis : x y z
#
# Youngs Moduli (GPa) = 65.47356 55.98682 108.76536
#
# Poissons Ratio (x) = 0.26686 0.03468
# Poissons Ratio (y) = 0.31208 0.37086
# Poissons Ratio (z) = 0.02087 0.19090
#
# Static dielectric constant tensor:
#      x y z
#    x 1.725600 0.000000 0.000000 
#    y 0.000000 1.661880 0.000000 
#    z 0.000000 0.000000 1.723920 
# 
# From -- ./inp_files/16832.got.cif
#   From: 2010.05.17/outbox.cif.g08.bks.cpg/sg51_9_cif.got.tgz:16832.got - 2010.06.03 11:52:47.
