data_PCOD9404956
_publ_section_title
;
Structure prediction by ZEFSAII (Michael W. Deem and Ramdas Pophale) SiO2 
 PCOD9404956
Probable space group: P M M A
;
_chemical_formula_sum "Si O2"
_cell_formula_units_Z 64
_cell_length_a 8.362042
_cell_length_b 16.002868
_cell_length_c 24.480383
_cell_angle_alpha 90.000000
_cell_angle_beta 90.000000
_cell_angle_gamma 90.000000
_cell_volume 3275.882950
_symmetry_space_group_name_H-M "P M M A"
_symmetry_group_IT_number 51
_symmetry_cell_setting 'orthorhombic'
loop_
_space_group_symop_operation_xyz
x,y,z
1/2-x,-y,z
1/2+x,-y,-z
-x,y,-z
-x,-y,-z
1/2+x,y,-z
1/2-x,y,z
x,-y,z
loop_
_atom_site_type_symbol
_atom_site_label
_atom_site_fract_x
_atom_site_fract_y
_atom_site_fract_z
Si Si1 0.940874 0.907291 0.130939
Si Si2 0.440861 0.750148 0.061806
Si Si3 0.944446 0.344324 0.748809
Si Si4 0.556390 0.406456 0.630384
Si Si5 0.443229 0.092535 0.634585
Si Si6 0.441866 0.149431 0.248055
Si Si7 0.441406 0.248627 0.561890
Si Si8 0.054476 0.593004 0.133033
O O1 0.750000 0.905267 0.126183
O O2 0.009788 0.832867 0.094586
O O3 0.987485 0.891495 0.193831
O O4 0.997933 0.000000 0.114546
O O5 0.250000 0.746117 0.061682
O O6 0.500928 0.667882 0.094087
O O7 0.500000 0.752098 0.000000
O O8 0.750000 0.347044 0.748657
O O9 0.997369 0.386363 0.692430
O O10 0.990855 0.247032 0.749982
O O11 0.996510 0.388237 0.804682
O O12 0.750000 0.404721 0.630151
O O13 0.505030 0.500000 0.614675
O O14 0.497157 0.333433 0.591136
O O15 0.250000 0.094742 0.634866
O O16 0.501796 0.107155 0.696184
O O17 0.500868 0.168589 0.596685
O O18 0.493567 0.000000 0.615768
O O19 0.250000 0.145922 0.244650
O O20 0.500000 0.244804 0.500000
O O21 0.250000 0.246814 0.562292
O O22 0.250000 0.594342 0.132900
O O23 0.004078 0.500000 0.116294
#
# Coordination Sequence:
#
# PCOD9404956 Si02
#       8
#     8   8   8   8   8   8   8   8
#     4  11  24  41  61  86 118 156 195 240 294 348
#     4  11  23  40  61  87 116 154 199 245 293 345
#     4   9  16  30  55  88 120 148 183 230 283 337
#     4  10  20  36  61  90 119 152 190 236 290 348
#     4  10  22  40  60  85 118 155 192 234 291 351
#     4  11  20  34  60  92 122 154 192 235 285 344
#     4  11  24  41  61  83 112 152 196 247 295 344
#     4   9  17  32  57  88 119 152 190 232 282 340
#
# _framework density 19.536719000000002
#
# number of rings (size 3 to 8) (size 9 to 14) (size 15 to 20)
#    0.000    1.750    2.500    2.250    0.000    6.000 
#    0.000    0.000    0.000    1.125    0.000    0.000 
#    0.000    0.000    0.000    0.000    0.000    0.000 
#
# Total GULP energy -357561.577117 kJ/mol
# GULP energy per Si atom -5586.899642 kJ/mol
# Density = 1.949225 g / cm^3
# Si number density = 19.536719 Si / 1000 Ang^3
#
#
#
# Elastic Constant Matrix: (Units=GPa)
#
#
# Indices 1 2 3 4 5 6 
#
# 1 20.7250 26.7883 16.8925 0.0000 0.0000 0.0000
# 2 26.7883 195.3664 87.4765 0.0000 0.0000 0.0000
# 3 16.8925 87.4765 152.0952 0.0000 0.0000 0.0000
# 4 0.0000 0.0000 0.0000 -72.3710 0.0000 0.0000
# 5 0.0000 0.0000 0.0000 0.0000 11.0556 0.0000
# 6 0.0000 0.0000 0.0000 0.0000 0.0000 17.4768
#
#
#
# Elastic Compliance Matrix: (Units=1/GPa)
#
#
# Indices 1 2 3 4 5 6 
#
# 1 0.059384 -0.006989 -0.002576 0.000000 0.000000 0.000000
# 2 -0.006989 0.007717 -0.003662 0.000000 0.000000 0.000000
# 3 -0.002576 -0.003662 0.008967 0.000000 0.000000 0.000000
# 4 0.000000 0.000000 0.000000 -0.013818 0.000000 0.000000
# 5 0.000000 0.000000 0.000000 0.000000 0.090452 0.000000
# 6 0.000000 0.000000 0.000000 0.000000 0.000000 0.057219
#
#
# Mechanical properties :
#
#
# Convention : Reuss Voigt Hill
#
# Bulk Modulus (GPa) = 20.15553 70.05570 45.10561
# Shear Modulus (GPa) = 19.76966 7.03423 13.40194
#
# Velocity S-wave (km/s) = 3.18453 1.89956 2.62198
# Velocity P-wave (km/s) = 4.88475 6.38337 5.68367
#
# Compressibility (1/GPa) = 0.04961417
#
# Stress axis : x y z
#
# Youngs Moduli (GPa) = 16.83943 129.59104 111.52021
#
# Poissons Ratio (x) = 0.90577 0.28724
# Poissons Ratio (y) = 0.11770 0.40837
# Poissons Ratio (z) = 0.04337 0.47454
#
# Static dielectric constant tensor:
#      x y z
#    x 1.677340 0.000000 0.000000 
#    y 0.000000 1.697670 0.000000 
#    z 0.000000 0.000000 1.644340 
# 
# From -- ./inp_files/34887.got.cif
#   From: 2010.05.17/outbox.cif.g08.bks.cpg/sg51_18_cif.got.tgz:34887.got - 2010.06.03 11:52:47.
