data_PCOD9404637
_publ_section_title
;
Structure prediction by ZEFSAII (Michael W. Deem and Ramdas Pophale) SiO2 
 PCOD9404637
Probable space group: P M M A
;
_chemical_formula_sum "Si O2"
_cell_formula_units_Z 40
_cell_length_a 20.169906
_cell_length_b 11.307723
_cell_length_c 9.936392
_cell_angle_alpha 90.000000
_cell_angle_beta 90.000000
_cell_angle_gamma 90.000000
_cell_volume 2266.249660
_symmetry_space_group_name_H-M "P M M A"
_symmetry_group_IT_number 51
_symmetry_cell_setting 'orthorhombic'
loop_
_space_group_symop_operation_xyz
x,y,z
1/2-x,-y,z
1/2+x,-y,-z
-x,y,-z
-x,-y,-z
1/2+x,y,-z
1/2-x,y,z
x,-y,z
loop_
_atom_site_type_symbol
_atom_site_label
_atom_site_fract_x
_atom_site_fract_y
_atom_site_fract_z
Si Si1 0.634806 0.141824 0.647177
Si Si2 0.499399 0.288542 0.347276
Si Si3 0.750000 0.858976 0.154354
Si Si4 0.750000 0.856509 0.849366
Si Si5 0.853831 0.760512 0.360015
Si Si6 0.672296 0.500000 0.269306
Si Si7 0.470031 0.500000 0.850828
O O1 0.564710 0.206795 0.665278
O O2 0.685125 0.177273 0.765203
O O3 0.663793 0.183678 0.503488
O O4 0.627375 0.000000 0.646248
O O5 0.500000 0.340315 0.500000
O O6 0.568240 0.217586 0.339099
O O7 0.504116 0.387435 0.233436
O O8 0.812616 0.814685 0.238633
O O9 0.750000 0.000000 0.150883
O O10 0.750000 0.812639 0.001994
O O11 0.750000 0.000000 0.853571
O O12 0.839987 0.619577 0.354663
O O13 0.750000 0.500000 0.223727
O O14 0.611161 0.500000 0.161299
O O15 0.500000 0.500000 0.000000
#
# Coordination Sequence:
#
# PCOD9404637 Si02
#       7
#     8   8   4   4   8   4   4
#     4  10  20  36  58  84 115 147 186 235 283 340
#     4   9  20  36  58  83 113 147 184 233 288 335
#     4  11  21  34  53  78 110 145 184 229 276 337
#     4   9  21  37  51  74 112 152 181 221 284 333
#     4  10  20  35  59  82 105 146 189 230 277 337
#     4  10  20  37  56  83 116 143 188 239 285 323
#     4  10  21  37  60  85 113 157 196 236 282 346
#
# _framework density 17.650303999999998
#
# number of rings (size 3 to 8) (size 9 to 14) (size 15 to 20)
#    0.000    2.200    1.000    1.500    0.000   10.800 
#    0.000    0.000    0.000    6.600    0.000    0.000 
#    0.000    0.000    0.000    0.000    0.000    0.000 
#
# Total GULP energy -223012.268805 kJ/mol
# GULP energy per Si atom -5575.306720 kJ/mol
# Density = 1.761013 g / cm^3
# Si number density = 17.650304 Si / 1000 Ang^3
#
#
#
# Elastic Constant Matrix: (Units=GPa)
#
#
# Indices 1 2 3 4 5 6 
#
# 1 148.9890 38.9600 87.5347 0.0000 0.0000 0.0000
# 2 38.9600 69.6927 43.6255 0.0000 0.0000 0.0000
# 3 87.5347 43.6255 173.0460 0.0000 0.0000 0.0000
# 4 0.0000 0.0000 0.0000 18.2851 0.0000 0.0000
# 5 0.0000 0.0000 0.0000 0.0000 17.0981 0.0000
# 6 0.0000 0.0000 0.0000 0.0000 0.0000 21.8559
#
#
#
# Elastic Compliance Matrix: (Units=1/GPa)
#
#
# Indices 1 2 3 4 5 6 
#
# 1 0.010015 -0.002882 -0.004339 0.000000 0.000000 0.000000
# 2 -0.002882 0.017867 -0.003046 0.000000 0.000000 0.000000
# 3 -0.004339 -0.003046 0.008742 0.000000 0.000000 0.000000
# 4 0.000000 0.000000 0.000000 0.054689 0.000000 0.000000
# 5 0.000000 0.000000 0.000000 0.000000 0.058486 0.000000
# 6 0.000000 0.000000 0.000000 0.000000 0.000000 0.045754
#
#
# Mechanical properties :
#
#
# Convention : Reuss Voigt Hill
#
# Bulk Modulus (GPa) = 62.15919 81.32978 71.74449
# Shear Modulus (GPa) = 22.57823 26.22166 24.39995
#
# Velocity S-wave (km/s) = 3.58047 3.85856 3.72211
# Velocity P-wave (km/s) = 7.23785 8.12587 7.69468
#
# Compressibility (1/GPa) = 0.01608772
#
# Stress axis : x y z
#
# Youngs Moduli (GPa) = 99.84835 55.96949 114.39153
#
# Poissons Ratio (x) = 0.16132 0.49640
# Poissons Ratio (y) = 0.28780 0.34847
# Poissons Ratio (z) = 0.43329 0.17050
#
# Static dielectric constant tensor:
#      x y z
#    x 1.618750 0.000000 0.000000 
#    y 0.000000 1.597450 0.000000 
#    z 0.000000 0.000000 1.589440 
# 
# From -- ./inp_files/10735.got.cif
#   From: 2010.05.17/outbox.cif.g08.bks.cpg/sg51_6_cif.got.tgz:10735.got - 2010.06.03 11:52:47.
