data_PCOD9404898
_publ_section_title
;
Structure prediction by ZEFSAII (Michael W. Deem and Ramdas Pophale) SiO2 
 PCOD9404898
Probable space group: P M M A
;
_chemical_formula_sum "Si O2"
_cell_formula_units_Z 48
_cell_length_a 16.467947
_cell_length_b 8.839151
_cell_length_c 16.916007
_cell_angle_alpha 90.000000
_cell_angle_beta 90.000000
_cell_angle_gamma 90.000000
_cell_volume 2462.339148
_symmetry_space_group_name_H-M "P M M A"
_symmetry_group_IT_number 51
_symmetry_cell_setting 'orthorhombic'
loop_
_space_group_symop_operation_xyz
x,y,z
1/2-x,-y,z
1/2+x,-y,-z
-x,y,-z
-x,-y,-z
1/2+x,y,-z
1/2-x,y,z
x,-y,z
loop_
_atom_site_type_symbol
_atom_site_label
_atom_site_fract_x
_atom_site_fract_y
_atom_site_fract_z
Si Si1 0.916279 0.182741 0.954686
Si Si2 0.346733 0.328961 0.363815
Si Si3 0.652717 0.820000 0.472475
Si Si4 0.750000 0.317299 0.026231
Si Si5 0.750000 0.316563 0.208940
Si Si6 0.404418 0.681345 0.688834
Si Si7 0.060976 0.180115 0.228954
O O1 0.833508 0.255625 0.987956
O O2 0.925554 0.222429 0.862201
O O3 0.909087 0.000000 0.961488
O O4 0.000000 0.226922 0.000000
O O5 0.250000 0.336993 0.370567
O O6 0.379138 0.500000 0.356823
O O7 0.375892 0.251527 0.444764
O O8 0.367658 0.233046 0.286725
O O9 0.750000 0.788657 0.463150
O O10 0.606834 0.750091 0.397956
O O11 0.642403 0.000000 0.474927
O O12 0.750000 0.500000 0.021829
O O13 0.750000 0.268133 0.118215
O O14 0.750000 0.500000 0.208048
O O15 0.828579 0.267808 0.257451
O O16 0.403886 0.500000 0.683300
O O17 0.483431 0.739341 0.733256
O O18 0.050913 0.000000 0.232312
#
# Coordination Sequence:
#
# PCOD9404898 Si02
#       7
#     8   8   8   4   4   8   8
#     4  10  23  44  66  91 127 168 211 260 317 380
#     4  10  22  40  62  87 118 158 204 250 301 361
#     4  10  20  36  59  89 123 159 201 247 299 356
#     4  11  23  39  65  96 125 162 209 259 318 379
#     4   9  20  37  59  90 123 156 195 245 302 363
#     4  11  21  37  61  88 123 161 201 247 302 361
#     4  11  24  40  60  88 121 158 203 254 306 359
#
# _framework density 19.493659999999998
#
# number of rings (size 3 to 8) (size 9 to 14) (size 15 to 20)
#    0.000    1.667    0.833    3.250    1.167    4.000 
#    0.000    5.833    0.000    0.000    0.000    0.000 
#    0.000    0.000    0.000    0.000    0.000    0.000 
#
# Total GULP energy -268194.538176 kJ/mol
# GULP energy per Si atom -5587.386212 kJ/mol
# Density = 1.944929 g / cm^3
# Si number density = 19.493660 Si / 1000 Ang^3
#
#
#
# Elastic Constant Matrix: (Units=GPa)
#
#
# Indices 1 2 3 4 5 6 
#
# 1 86.0682 32.8308 58.1684 0.0000 0.0000 0.0000
# 2 32.8308 43.4947 43.4176 0.0000 0.0000 0.0000
# 3 58.1684 43.4176 184.8284 0.0000 0.0000 0.0000
# 4 0.0000 0.0000 0.0000 29.2022 0.0000 0.0000
# 5 0.0000 0.0000 0.0000 0.0000 21.5545 0.0000
# 6 0.0000 0.0000 0.0000 0.0000 0.0000 24.2269
#
#
#
# Elastic Compliance Matrix: (Units=1/GPa)
#
#
# Indices 1 2 3 4 5 6 
#
# 1 0.017628 -0.010147 -0.003164 0.000000 0.000000 0.000000
# 2 -0.010147 0.035875 -0.005234 0.000000 0.000000 0.000000
# 3 -0.003164 -0.005234 0.007636 0.000000 0.000000 0.000000
# 4 0.000000 0.000000 0.000000 0.034244 0.000000 0.000000
# 5 0.000000 0.000000 0.000000 0.000000 0.046394 0.000000
# 6 0.000000 0.000000 0.000000 0.000000 0.000000 0.041277
#
#
# Mechanical properties :
#
#
# Convention : Reuss Voigt Hill
#
# Bulk Modulus (GPa) = 41.58317 64.80277 53.19297
# Shear Modulus (GPa) = 21.91442 26.99501 24.45471
#
# Velocity S-wave (km/s) = 3.35652 3.72534 3.54573
# Velocity P-wave (km/s) = 6.03321 7.19857 6.64150
#
# Compressibility (1/GPa) = 0.02404819
#
# Stress axis : x y z
#
# Youngs Moduli (GPa) = 56.72842 27.87428 130.96442
#
# Poissons Ratio (x) = 0.28285 0.41438
# Poissons Ratio (y) = 0.57565 0.68544
# Poissons Ratio (z) = 0.17949 0.14589
#
# Static dielectric constant tensor:
#      x y z
#    x 0.116930 0.000000 0.000000 
#    y 0.000000 1.666470 0.000000 
#    z 0.000000 0.000000 1.647510 
# 
# From -- ./inp_files/24928.got.cif
#   From: 2010.05.17/outbox.cif.g08.bks.cpg/sg51_13_cif.got.tgz:24928.got - 2010.06.03 11:52:47.
