data_PCOD9404379
_publ_section_title
;
Structure prediction by ZEFSAII (Michael W. Deem and Ramdas Pophale) SiO2 
 PCOD9404379
Probable space group: P M M A
;
_chemical_formula_sum "Si O2"
_cell_formula_units_Z 64
_cell_length_a 18.556476
_cell_length_b 19.943359
_cell_length_c 9.763550
_cell_angle_alpha 90.000000
_cell_angle_beta 90.000000
_cell_angle_gamma 90.000000
_cell_volume 3613.279574
_symmetry_space_group_name_H-M "P M M A"
_symmetry_group_IT_number 51
_symmetry_cell_setting 'orthorhombic'
loop_
_space_group_symop_operation_xyz
x,y,z
1/2-x,-y,z
1/2+x,-y,-z
-x,y,-z
-x,-y,-z
1/2+x,y,-z
1/2-x,y,z
x,-y,z
loop_
_atom_site_type_symbol
_atom_site_label
_atom_site_fract_x
_atom_site_fract_y
_atom_site_fract_z
Si Si1 0.836017 0.298090 0.604446
Si Si2 0.931673 0.217989 0.395725
Si Si3 0.568772 0.716976 0.101940
Si Si4 0.336702 0.075091 0.246585
Si Si5 0.561658 0.422308 0.607108
Si Si6 0.956103 0.572201 0.139573
Si Si7 0.415591 0.073133 0.537648
Si Si8 0.336316 0.786188 0.120117
O O1 0.750000 0.301782 0.594710
O O2 0.869803 0.257953 0.476911
O O3 0.873077 0.370853 0.606479
O O4 0.854480 0.258723 0.745699
O O5 0.948210 0.249933 0.248541
O O6 0.907531 0.140735 0.376486
O O7 0.000000 0.219628 0.500000
O O8 0.590031 0.639660 0.132612
O O9 0.500000 0.716172 0.000000
O O10 0.628239 0.756488 0.015528
O O11 0.250000 0.078940 0.260742
O O12 0.371923 0.082179 0.396250
O O13 0.360048 0.137631 0.153954
O O14 0.354893 0.000000 0.195717
O O15 0.500000 0.401213 0.500000
O O16 0.581852 0.500000 0.579348
O O17 0.518345 0.419406 0.748251
O O18 0.919205 0.500000 0.164508
O O19 0.000000 0.568124 0.000000
O O20 0.500000 0.069974 0.500000
O O21 0.395418 0.000000 0.596957
O O22 0.250000 0.785748 0.107146
#
# Coordination Sequence:
#
# PCOD9404379 Si02
#       8
#     8   8   8   8   8   8   8   8
#     4  11  21  34  55  80 109 143 183 227 275 331
#     4  11  21  35  56  79 109 145 188 233 273 333
#     4  11  22  34  55  81 109 145 182 225 284 332
#     4   9  17  33  58  81 106 147 192 228 272 335
#     4  10  20  35  55  79 108 140 177 224 275 325
#     4   9  17  31  52  75  99 132 179 224 258 310
#     4   9  18  31  52  80 109 141 182 237 280 316
#     4  10  21  37  54  80 114 144 180 228 280 330
#
# _framework density 17.712440000000001
#
# number of rings (size 3 to 8) (size 9 to 14) (size 15 to 20)
#    0.000    2.000    1.250    4.125    1.750    0.750 
#    0.000    0.625    0.000    1.875    0.000    0.000 
#    0.000    0.000    0.000    0.000    0.000    0.000 
#
# Total GULP energy -356751.588874 kJ/mol
# GULP energy per Si atom -5574.243576 kJ/mol
# Density = 1.767213 g / cm^3
# Si number density = 17.712440 Si / 1000 Ang^3
#
#
#
# Elastic Constant Matrix: (Units=GPa)
#
#
# Indices 1 2 3 4 5 6 
#
# 1 46.3906 38.3551 31.3384 0.0000 0.0000 0.0000
# 2 38.3551 169.0679 50.2087 0.0000 0.0000 0.0000
# 3 31.3384 50.2087 98.4160 0.0000 0.0000 0.0000
# 4 0.0000 0.0000 0.0000 21.4705 0.0000 0.0000
# 5 0.0000 0.0000 0.0000 0.0000 26.9360 0.0000
# 6 0.0000 0.0000 0.0000 0.0000 0.0000 21.6755
#
#
#
# Elastic Compliance Matrix: (Units=1/GPa)
#
#
# Indices 1 2 3 4 5 6 
#
# 1 0.030373 -0.004736 -0.007256 0.000000 0.000000 0.000000
# 2 -0.004736 0.007709 -0.002425 0.000000 0.000000 0.000000
# 3 -0.007256 -0.002425 0.013708 0.000000 0.000000 0.000000
# 4 0.000000 0.000000 0.000000 0.046576 0.000000 0.000000
# 5 0.000000 0.000000 0.000000 0.000000 0.037125 0.000000
# 6 0.000000 0.000000 0.000000 0.000000 0.000000 0.046135
#
#
# Mechanical properties :
#
#
# Convention : Reuss Voigt Hill
#
# Bulk Modulus (GPa) = 43.55776 61.51987 52.53882
# Shear Modulus (GPa) = 22.92404 26.94789 24.93596
#
# Velocity S-wave (km/s) = 3.60145 3.90476 3.75617
# Velocity P-wave (km/s) = 6.47603 7.42546 6.96694
#
# Compressibility (1/GPa) = 0.02295802
#
# Stress axis : x y z
#
# Youngs Moduli (GPa) = 32.92411 129.71307 72.94745
#
# Poissons Ratio (x) = 0.61429 0.52927
# Poissons Ratio (y) = 0.15592 0.17690
# Poissons Ratio (z) = 0.23888 0.31456
#
# Static dielectric constant tensor:
#      x y z
#    x 1.581220 0.000000 0.000000 
#    y 0.000000 1.681550 0.000000 
#    z 0.000000 0.000000 1.574170 
# 
# From -- ./inp_files/10059.got.cif
#   From: 2010.05.17/outbox.cif.g08.bks.cpg/sg51_6_cif.got.tgz:10059.got - 2010.06.03 11:52:47.
