data_PCOD9404009
_publ_section_title
;
Structure prediction by ZEFSAII (Michael W. Deem and Ramdas Pophale) SiO2 
 PCOD9404009
Probable space group: P M M A
;
_chemical_formula_sum "Si O2"
_cell_formula_units_Z 48
_cell_length_a 15.494170
_cell_length_b 8.905982
_cell_length_c 19.149313
_cell_angle_alpha 90.000000
_cell_angle_beta 90.000000
_cell_angle_gamma 90.000000
_cell_volume 2642.429004
_symmetry_space_group_name_H-M "P M M A"
_symmetry_group_IT_number 51
_symmetry_cell_setting 'orthorhombic'
loop_
_space_group_symop_operation_xyz
x,y,z
1/2-x,-y,z
1/2+x,-y,-z
-x,y,-z
-x,-y,-z
1/2+x,y,-z
1/2-x,y,z
x,-y,z
loop_
_atom_site_type_symbol
_atom_site_label
_atom_site_fract_x
_atom_site_fract_y
_atom_site_fract_z
Si Si1 0.610095 0.166504 0.689523
Si Si2 0.848522 0.319666 0.307693
Si Si3 0.998520 0.321801 0.417301
Si Si4 0.250000 0.821848 0.081868
Si Si5 0.937088 0.678435 0.933977
Si Si6 0.250000 0.669774 0.229003
Si Si7 0.961928 0.169030 0.194657
O O1 0.573063 0.222524 0.616830
O O2 0.670003 0.292443 0.722471
O O3 0.531746 0.157091 0.743728
O O4 0.649329 0.000000 0.685527
O O5 0.750000 0.271476 0.320105
O O6 0.850363 0.500000 0.301204
O O7 0.911404 0.282904 0.373399
O O8 0.884373 0.252262 0.234848
O O9 0.013532 0.500000 0.404844
O O10 0.000000 0.298425 0.500000
O O11 0.158285 0.751854 0.056537
O O12 0.250000 0.783494 0.164365
O O13 0.250000 0.000000 0.070119
O O14 0.924872 0.500000 0.923623
O O15 0.988880 0.746515 0.867926
O O16 0.000000 0.701847 0.000000
O O17 0.250000 0.500000 0.202781
O O18 0.937778 0.000000 0.172191
#
# Coordination Sequence:
#
# PCOD9404009 Si02
#       7
#     8   8   8   4   8   4   8
#     4  10  20  34  54  81 112 145 184 233 285 339
#     4   9  18  34  56  79 108 150 197 245 293 349
#     4   9  18  34  54  79 112 150 194 239 289 349
#     4  12  24  40  64  92 122 157 196 243 300 360
#     4  11  24  42  64  90 121 159 200 244 293 355
#     4  12  22  34  58  86 114 147 188 235 282 338
#     4  10  20  35  58  84 112 146 186 238 292 345
#
# _framework density 18.165103999999999
#
# number of rings (size 3 to 8) (size 9 to 14) (size 15 to 20)
#    0.000    1.833    1.667    3.000    0.000    3.333 
#    3.000    0.000    0.000    0.000    0.000    0.000 
#    0.000    0.000    0.000    0.000    0.000    0.000 
#
# Total GULP energy -267495.502505 kJ/mol
# GULP energy per Si atom -5572.822969 kJ/mol
# Density = 1.812376 g / cm^3
# Si number density = 18.165104 Si / 1000 Ang^3
#
#
#
# Elastic Constant Matrix: (Units=GPa)
#
#
# Indices 1 2 3 4 5 6 
#
# 1 105.6592 42.2822 38.3422 0.0000 0.0000 0.0000
# 2 42.2822 80.4262 49.1714 0.0000 0.0000 0.0000
# 3 38.3422 49.1714 91.5246 0.0000 0.0000 0.0000
# 4 0.0000 0.0000 0.0000 13.8823 0.0000 0.0000
# 5 0.0000 0.0000 0.0000 0.0000 -78.9793 0.0000
# 6 0.0000 0.0000 0.0000 0.0000 0.0000 -4.4806
#
#
#
# Elastic Compliance Matrix: (Units=1/GPa)
#
#
# Indices 1 2 3 4 5 6 
#
# 1 0.012362 -0.004963 -0.002512 0.000000 0.000000 0.000000
# 2 -0.004963 0.020508 -0.008939 0.000000 0.000000 0.000000
# 3 -0.002512 -0.008939 0.016781 0.000000 0.000000 0.000000
# 4 0.000000 0.000000 0.000000 0.072034 0.000000 0.000000
# 5 0.000000 0.000000 0.000000 0.000000 -0.012662 0.000000
# 6 0.000000 0.000000 0.000000 0.000000 0.000000 -0.223182
#
#
# Mechanical properties :
#
#
# Convention : Reuss Voigt Hill
#
# Bulk Modulus (GPa) = 59.44391 59.68906 59.56648
# Shear Modulus (GPa) = -66.03042 -4.06124 -35.04583
#
# Velocity S-wave (km/s) = -6.03565 -1.49686 -4.39714
# Velocity P-wave (km/s) = 3.97200 5.47203 2.66142
#
# Compressibility (1/GPa) = 0.01682258
#
# Stress axis : x y z
#
# Youngs Moduli (GPa) = 80.89158 48.76156 59.59167
#
# Poissons Ratio (x) = 0.24201 0.14972
# Poissons Ratio (y) = 0.40147 0.53267
# Poissons Ratio (z) = 0.20324 0.43586
#
# Static dielectric constant tensor:
#      x y z
#    x 1.643040 0.000000 0.000000 
#    y 0.000000 1.646660 0.000000 
#    z 0.000000 0.000000 1.589670 
# 
# From -- ./inp_files/29614.got.cif
#   From: 2010.05.17/outbox.cif.g08.bks.cpg/sg51_15_cif.got.tgz:29614.got - 2010.06.03 11:52:47.
