data_PCOD9404967
_publ_section_title
;
Structure prediction by ZEFSAII (Michael W. Deem and Ramdas Pophale) SiO2 
 PCOD9404967
Probable space group: P M M A
;
_chemical_formula_sum "Si O2"
_cell_formula_units_Z 48
_cell_length_a 14.875378
_cell_length_b 9.026375
_cell_length_c 19.919903
_cell_angle_alpha 90.000000
_cell_angle_beta 90.000000
_cell_angle_gamma 90.000000
_cell_volume 2674.660118
_symmetry_space_group_name_H-M "P M M A"
_symmetry_group_IT_number 51
_symmetry_cell_setting 'orthorhombic'
loop_
_space_group_symop_operation_xyz
x,y,z
1/2-x,-y,z
1/2+x,-y,-z
-x,y,-z
-x,-y,-z
1/2+x,y,-z
1/2-x,y,z
x,-y,z
loop_
_atom_site_type_symbol
_atom_site_label
_atom_site_fract_x
_atom_site_fract_y
_atom_site_fract_z
Si Si1 0.750000 0.177755 0.126926
Si Si2 0.013055 0.324246 0.670036
Si Si3 0.142780 0.825544 0.564313
Si Si4 0.442338 0.177634 0.811976
Si Si5 0.250000 0.321827 0.019727
Si Si6 0.644097 0.176351 0.591369
Si Si7 0.553898 0.322480 0.931005
O O1 0.659459 0.218277 0.166466
O O2 0.750000 0.251727 0.054023
O O3 0.750000 0.000000 0.118323
O O4 0.013780 0.500000 0.676595
O O5 0.087068 0.270338 0.616244
O O6 0.033269 0.249039 0.741128
O O7 0.918519 0.267216 0.640680
O O8 0.250000 0.808181 0.573341
O O9 0.121987 0.789578 0.486599
O O10 0.121547 0.000000 0.574482
O O11 0.507734 0.237875 0.869981
O O12 0.447988 0.000000 0.807686
O O13 0.250000 0.500000 0.012127
O O14 0.342001 0.281205 0.057513
O O15 0.750000 0.204563 0.601093
O O16 0.629148 0.000000 0.600424
O O17 0.548434 0.500000 0.919496
O O18 0.500000 0.291139 0.000000
#
# Coordination Sequence:
#
# PCOD9404967 Si02
#       7
#     4   8   8   8   4   8   8
#     4  10  22  38  60  88 114 145 190 241 290 336
#     4  12  25  38  56  86 122 158 193 237 295 353
#     4   9  19  37  62  89 117 152 195 241 287 342
#     4  11  24  41  60  84 116 155 197 242 288 341
#     4  10  20  36  62  90 118 151 184 229 290 352
#     4   9  19  39  65  88 112 150 199 244 288 343
#     4  10  20  37  61  89 119 151 189 233 286 347
#
# _framework density 17.946204999999999
#
# number of rings (size 3 to 8) (size 9 to 14) (size 15 to 20)
#    0.000    1.833    1.667    3.500    1.167    5.000 
#    1.500    1.667    0.000    0.000    0.000    0.000 
#    0.000    0.000    0.000    0.000    0.000    0.000 
#
# Total GULP energy -268202.770584 kJ/mol
# GULP energy per Si atom -5587.557721 kJ/mol
# Density = 1.790536 g / cm^3
# Si number density = 17.946205 Si / 1000 Ang^3
#
#
#
# Elastic Constant Matrix: (Units=GPa)
#
#
# Indices 1 2 3 4 5 6 
#
# 1 145.3337 71.8202 99.5190 0.0000 0.0000 0.0000
# 2 71.8202 77.5535 86.5443 0.0000 0.0000 0.0000
# 3 99.5190 86.5443 150.9658 0.0000 0.0000 0.0000
# 4 0.0000 0.0000 0.0000 55.8808 0.0000 0.0000
# 5 0.0000 0.0000 0.0000 0.0000 -70.8694 0.0000
# 6 0.0000 0.0000 0.0000 0.0000 0.0000 800.2495
#
#
#
# Elastic Compliance Matrix: (Units=1/GPa)
#
#
# Indices 1 2 3 4 5 6 
#
# 1 0.013904 -0.007349 -0.004952 0.000000 0.000000 0.000000
# 2 -0.007349 0.039676 -0.017900 0.000000 0.000000 0.000000
# 3 -0.004952 -0.017900 0.020150 0.000000 0.000000 0.000000
# 4 0.000000 0.000000 0.000000 0.017895 0.000000 0.000000
# 5 0.000000 0.000000 0.000000 0.000000 -0.014110 0.000000
# 6 0.000000 0.000000 0.000000 0.000000 0.000000 0.001250
#
#
# Mechanical properties :
#
#
# Convention : Reuss Voigt Hill
#
# Bulk Modulus (GPa) = 75.04114 98.84665 86.94390
# Shear Modulus (GPa) = 34.81655 164.78348 99.80002
#
# Velocity S-wave (km/s) = 4.40938 9.59271 7.46535
# Velocity P-wave (km/s) = 8.23582 13.33763 11.08425
#
# Compressibility (1/GPa) = 0.01332602
#
# Stress axis : x y z
#
# Youngs Moduli (GPa) = 71.92253 25.20439 49.62709
#
# Poissons Ratio (x) = 0.18524 0.24577
# Poissons Ratio (y) = 0.52859 0.88833
# Poissons Ratio (z) = 0.35619 0.45116
#
# Static dielectric constant tensor:
#      x y z
#    x 1.619070 0.000000 0.000000 
#    y 0.000000 1.593430 0.000000 
#    z 0.000000 0.000000 1.572220 
# 
# From -- ./inp_files/29563.got.cif
#   From: 2010.05.17/outbox.cif.g08.bks.cpg/sg51_15_cif.got.tgz:29563.got - 2010.06.03 11:52:47.
