data_PCOD9404369
_publ_section_title
;
Structure prediction by ZEFSAII (Michael W. Deem and Ramdas Pophale) SiO2 
 PCOD9404369
Probable space group: P M M A
;
_chemical_formula_sum "Si O2"
_cell_formula_units_Z 48
_cell_length_a 14.203055
_cell_length_b 19.219338
_cell_length_c 9.051890
_cell_angle_alpha 90.000000
_cell_angle_beta 90.000000
_cell_angle_gamma 90.000000
_cell_volume 2470.924417
_symmetry_space_group_name_H-M "P M M A"
_symmetry_group_IT_number 51
_symmetry_cell_setting 'orthorhombic'
loop_
_space_group_symop_operation_xyz
x,y,z
1/2-x,-y,z
1/2+x,-y,-z
-x,y,-z
-x,-y,-z
1/2+x,y,-z
1/2-x,y,z
x,-y,z
loop_
_atom_site_type_symbol
_atom_site_label
_atom_site_fract_x
_atom_site_fract_y
_atom_site_fract_z
Si Si1 0.862618 0.080602 0.162987
Si Si2 0.463855 0.582511 0.738653
Si Si3 0.526608 0.808317 0.331055
Si Si4 0.855598 0.416114 0.571179
Si Si5 0.358889 0.815321 0.104479
Si Si6 0.860565 0.300380 0.139437
O O1 0.750000 0.085472 0.186142
O O2 0.915539 0.121782 0.292208
O O3 0.889180 0.000000 0.153169
O O4 0.881555 0.122431 0.010860
O O5 0.465690 0.500000 0.768074
O O6 0.567913 0.607757 0.691309
O O7 0.399637 0.594066 0.591447
O O8 0.415290 0.627234 0.864711
O O9 0.500000 0.799512 0.500000
O O10 0.431460 0.812869 0.236281
O O11 0.590148 0.745680 0.267004
O O12 0.750000 0.387819 0.584743
O O13 0.851242 0.500000 0.587989
O O14 0.250000 0.822335 0.149885
O O15 0.369267 0.745445 0.007572
O O16 0.750000 0.310178 0.169488
#
# Coordination Sequence:
#
# PCOD9404369 Si02
#       6
#     8   8   8   8   8   8
#     4   9  18  36  62  88 116 153 191 226 272 331
#     4   9  17  28  47  76 106 142 191 240 291 349
#     4  11  23  36  57  85 115 149 189 236 283 332
#     4   8  14  25  41  65 105 148 179 221 285 350
#     4   9  20  39  60  82 111 150 190 229 275 336
#     4  10  20  35  55  78 110 149 190 236 286 344
#
# _framework density 19.425927999999999
#
# number of rings (size 3 to 8) (size 9 to 14) (size 15 to 20)
#    0.000    2.667    0.000    5.000    2.333    4.000 
#    0.000    0.833    0.000    6.000    0.000    0.000 
#    0.000    2.667    0.000    0.000    0.000    0.000 
#
# Total GULP energy -268033.547664 kJ/mol
# GULP energy per Si atom -5584.032243 kJ/mol
# Density = 1.938171 g / cm^3
# Si number density = 19.425928 Si / 1000 Ang^3
#
#
#
# Elastic Constant Matrix: (Units=GPa)
#
#
# Indices 1 2 3 4 5 6 
#
# 1 121.7234 30.9440 32.0611 0.0000 0.0000 0.0000
# 2 30.9440 75.6760 5.9006 0.0000 0.0000 0.0000
# 3 32.0611 5.9006 52.0099 0.0000 0.0000 0.0000
# 4 0.0000 0.0000 0.0000 2.6405 0.0000 0.0000
# 5 0.0000 0.0000 0.0000 0.0000 4.4343 0.0000
# 6 0.0000 0.0000 0.0000 0.0000 0.0000 28.7042
#
#
#
# Elastic Compliance Matrix: (Units=1/GPa)
#
#
# Indices 1 2 3 4 5 6 
#
# 1 0.010867 -0.003956 -0.006250 0.000000 0.000000 0.000000
# 2 -0.003956 0.014772 0.000763 0.000000 0.000000 0.000000
# 3 -0.006250 0.000763 0.022993 0.000000 0.000000 0.000000
# 4 0.000000 0.000000 0.000000 0.378713 0.000000 0.000000
# 5 0.000000 0.000000 0.000000 0.000000 0.225514 0.000000
# 6 0.000000 0.000000 0.000000 0.000000 0.000000 0.034838
#
#
# Mechanical properties :
#
#
# Convention : Reuss Voigt Hill
#
# Bulk Modulus (GPa) = 33.61801 43.02451 38.32126
# Shear Modulus (GPa) = 6.97836 19.18939 13.08387
#
# Velocity S-wave (km/s) = 1.89739 3.14638 2.59805
# Velocity P-wave (km/s) = 4.70568 5.94942 5.36372
#
# Compressibility (1/GPa) = 0.02974596
#
# Stress axis : x y z
#
# Youngs Moduli (GPa) = 92.01843 67.69335 43.49058
#
# Poissons Ratio (x) = 0.26782 0.27183
# Poissons Ratio (y) = 0.36406 -0.03318
# Poissons Ratio (z) = 0.57514 -0.05164
#
# Static dielectric constant tensor:
#      x y z
#    x 1.696790 0.000000 0.000000 
#    y 0.000000 1.698040 0.000000 
#    z 0.000000 0.000000 1.659710 
# 
# From -- ./inp_files/8293.got.cif
#   From: 2010.05.17/outbox.cif.g08.bks.cpg/sg51_5_cif.got.tgz:8293.got - 2010.06.03 11:52:47.
