data_PCOD9404739
_publ_section_title
;
Structure prediction by ZEFSAII (Michael W. Deem and Ramdas Pophale) SiO2 
 PCOD9404739
Probable space group: P M M A
;
_chemical_formula_sum "Si O2"
_cell_formula_units_Z 48
_cell_length_a 19.616910
_cell_length_b 8.822701
_cell_length_c 15.464041
_cell_angle_alpha 90.000000
_cell_angle_beta 90.000000
_cell_angle_gamma 90.000000
_cell_volume 2676.425465
_symmetry_space_group_name_H-M "P M M A"
_symmetry_group_IT_number 51
_symmetry_cell_setting 'orthorhombic'
loop_
_space_group_symop_operation_xyz
x,y,z
1/2-x,-y,z
1/2+x,-y,-z
-x,y,-z
-x,-y,-z
1/2+x,y,-z
1/2-x,y,z
x,-y,z
loop_
_atom_site_type_symbol
_atom_site_label
_atom_site_fract_x
_atom_site_fract_y
_atom_site_fract_z
Si Si1 0.409996 0.181740 0.274015
Si Si2 0.670614 0.682846 0.888128
Si Si3 0.328993 0.817472 0.620827
Si Si4 0.572060 0.317570 0.042966
Si Si5 0.435079 0.817228 0.767946
Si Si6 0.670404 0.681305 0.566286
O O1 0.367247 0.242452 0.192636
O O2 0.488770 0.227946 0.261153
O O3 0.377233 0.247867 0.360819
O O4 0.406935 0.000000 0.276553
O O5 0.750000 0.724126 0.890214
O O6 0.665777 0.500000 0.879010
O O7 0.631643 0.725061 0.976249
O O8 0.250000 0.780263 0.640683
O O9 0.379529 0.768949 0.697008
O O10 0.346449 0.743056 0.528976
O O11 0.333828 0.000000 0.611871
O O12 0.571358 0.500000 0.050937
O O13 0.579327 0.247534 0.137341
O O14 0.500000 0.271363 0.000000
O O15 0.433392 0.000000 0.772599
O O16 0.750000 0.721606 0.583683
O O17 0.665060 0.500000 0.567936
#
# Coordination Sequence:
#
# PCOD9404739 Si02
#       6
#     8   8   8   8   8   8
#     4  11  22  35  54  81 113 146 181 222 271 328
#     4  10  21  37  56  80 110 143 183 230 274 320
#     4   9  19  38  60  80 107 144 184 225 271 324
#     4  10  20  36  57  79 106 144 184 221 270 329
#     4  10  22  37  56  83 112 144 181 225 274 323
#     4  10  21  37  57  81 110 144 182 226 274 322
#
# _framework density 17.934367999999999
#
# number of rings (size 3 to 8) (size 9 to 14) (size 15 to 20)
#    0.000    2.000    1.667    1.500    0.000    7.000 
#    0.000    3.333    0.000    0.000    0.000    0.000 
#    0.000    0.000    0.000    0.000    0.000    0.000 
#
# Total GULP energy -268072.536687 kJ/mol
# GULP energy per Si atom -5584.844514 kJ/mol
# Density = 1.789355 g / cm^3
# Si number density = 17.934368 Si / 1000 Ang^3
#
#
#
# Elastic Constant Matrix: (Units=GPa)
#
#
# Indices 1 2 3 4 5 6 
#
# 1 152.3455 45.7422 127.5501 0.0000 0.0000 0.0000
# 2 45.7422 21.3750 50.5141 0.0000 0.0000 0.0000
# 3 127.5501 50.5141 201.3189 0.0000 0.0000 0.0000
# 4 0.0000 0.0000 0.0000 41.5839 0.0000 0.0000
# 5 0.0000 0.0000 0.0000 0.0000 39.6721 0.0000
# 6 0.0000 0.0000 0.0000 0.0000 0.0000 21.6047
#
#
#
# Elastic Compliance Matrix: (Units=1/GPa)
#
#
# Indices 1 2 3 4 5 6 
#
# 1 0.020064 -0.031681 -0.004763 0.000000 0.000000 0.000000
# 2 -0.031681 0.164965 -0.021320 0.000000 0.000000 0.000000
# 3 -0.004763 -0.021320 0.013334 0.000000 0.000000 0.000000
# 4 0.000000 0.000000 0.000000 0.024048 0.000000 0.000000
# 5 0.000000 0.000000 0.000000 0.000000 0.025207 0.000000
# 6 0.000000 0.000000 0.000000 0.000000 0.000000 0.046286
#
#
# Mechanical properties :
#
#
# Convention : Reuss Voigt Hill
#
# Bulk Modulus (GPa) = 12.07211 91.40581 51.73896
# Shear Modulus (GPa) = 11.44050 30.65433 21.04742
#
# Velocity S-wave (km/s) = 2.52843 4.13879 3.42947
# Velocity P-wave (km/s) = 3.90766 8.59750 6.67783
#
# Compressibility (1/GPa) = 0.08283557
#
# Stress axis : x y z
#
# Youngs Moduli (GPa) = 49.84074 6.06188 74.99528
#
# Poissons Ratio (x) = 0.19205 0.35717
# Poissons Ratio (y) = 1.57903 1.59889
# Poissons Ratio (z) = 0.23737 0.12924
#
# Static dielectric constant tensor:
#      x y z
#    x 1.608790 0.000000 0.000000 
#    y 0.000000 1.605920 0.000000 
#    z 0.000000 0.000000 1.569550 
# 
# From -- ./inp_files/24694.got.cif
#   From: 2010.05.17/outbox.cif.g08.bks.cpg/sg51_13_cif.got.tgz:24694.got - 2010.06.03 11:52:47.
