data_PCOD9404810
_publ_section_title
;
Structure prediction by ZEFSAII (Michael W. Deem and Ramdas Pophale) SiO2 
 PCOD9404810
Probable space group: P M M A
;
_chemical_formula_sum "Si O2"
_cell_formula_units_Z 40
_cell_length_a 14.643136
_cell_length_b 8.656887
_cell_length_c 17.536898
_cell_angle_alpha 90.000000
_cell_angle_beta 90.000000
_cell_angle_gamma 90.000000
_cell_volume 2223.046876
_symmetry_space_group_name_H-M "P M M A"
_symmetry_group_IT_number 51
_symmetry_cell_setting 'orthorhombic'
loop_
_space_group_symop_operation_xyz
x,y,z
1/2-x,-y,z
1/2+x,-y,-z
-x,y,-z
-x,-y,-z
1/2+x,y,-z
1/2-x,y,z
x,-y,z
loop_
_atom_site_type_symbol
_atom_site_label
_atom_site_fract_x
_atom_site_fract_y
_atom_site_fract_z
Si Si1 0.750000 0.313795 0.481712
Si Si2 0.250000 0.186177 0.346791
Si Si3 0.054335 0.685488 0.578080
Si Si4 0.444700 0.815460 0.280373
Si Si5 0.008999 0.683998 0.116563
Si Si6 0.643521 0.185752 0.009314
O O1 0.750000 0.500000 0.488209
O O2 0.750000 0.248783 0.567216
O O3 0.658618 0.268402 0.437349
O O4 0.158017 0.234426 0.303399
O O5 0.250000 0.000000 0.350686
O O6 0.049824 0.500000 0.590435
O O7 0.000000 0.718883 0.500000
O O8 0.008630 0.769455 0.648983
O O9 0.477223 0.735866 0.203070
O O10 0.444864 0.000000 0.269780
O O11 0.007327 0.500000 0.109947
O O12 0.092088 0.749614 0.065280
O O13 0.916316 0.751690 0.079762
O O14 0.750000 0.230434 0.012306
O O15 0.638106 0.000000 0.008115
#
# Coordination Sequence:
#
# PCOD9404810 Si02
#       6
#     4   4   8   8   8   8
#     4  10  20  36  58  82 111 148 191 238 292 352
#     4  10  22  36  56  84 113 146 191 242 292 342
#     4  10  20  36  58  83 113 150 191 237 292 346
#     4  11  23  39  58  84 117 153 194 241 291 343
#     4  11  23  39  61  90 122 154 193 239 288 344
#     4  10  21  40  66  91 119 155 192 233 286 347
#
# _framework density 17.993321999999999
#
# number of rings (size 3 to 8) (size 9 to 14) (size 15 to 20)
#    0.000    1.600    2.000    4.200    1.400    3.600 
#    1.800    0.000    0.000    0.000    0.000    0.000 
#    0.000    0.000    0.000    0.000    0.000    0.000 
#
# Total GULP energy -223496.916261 kJ/mol
# GULP energy per Si atom -5587.422907 kJ/mol
# Density = 1.795237 g / cm^3
# Si number density = 17.993322 Si / 1000 Ang^3
#
#
#
# Elastic Constant Matrix: (Units=GPa)
#
#
# Indices 1 2 3 4 5 6 
#
# 1 172.8714 51.4177 70.6359 0.0000 0.0000 0.0000
# 2 51.4177 66.9028 41.8162 0.0000 0.0000 0.0000
# 3 70.6359 41.8162 126.8521 0.0000 0.0000 0.0000
# 4 0.0000 0.0000 0.0000 36.9048 0.0000 0.0000
# 5 0.0000 0.0000 0.0000 0.0000 9.1675 0.0000
# 6 0.0000 0.0000 0.0000 0.0000 0.0000 -6.6996
#
#
#
# Elastic Compliance Matrix: (Units=1/GPa)
#
#
# Indices 1 2 3 4 5 6 
#
# 1 0.008429 -0.004464 -0.003222 0.000000 0.000000 0.000000
# 2 -0.004464 0.021190 -0.004499 0.000000 0.000000 0.000000
# 3 -0.003222 -0.004499 0.011161 0.000000 0.000000 0.000000
# 4 0.000000 0.000000 0.000000 0.027097 0.000000 0.000000
# 5 0.000000 0.000000 0.000000 0.000000 0.109081 0.000000
# 6 0.000000 0.000000 0.000000 0.000000 0.000000 -0.149262
#
#
# Mechanical properties :
#
#
# Convention : Reuss Voigt Hill
#
# Bulk Modulus (GPa) = 60.94381 77.15176 69.04778
# Shear Modulus (GPa) = 86.90105 21.39163 54.14634
#
# Velocity S-wave (km/s) = 6.95709 3.45173 5.49161
# Velocity P-wave (km/s) = 9.92364 7.67183 8.86949
#
# Compressibility (1/GPa) = 0.01640856
#
# Stress axis : x y z
#
# Youngs Moduli (GPa) = 118.63883 47.19147 89.60164
#
# Poissons Ratio (x) = 0.21067 0.28869
# Poissons Ratio (y) = 0.52963 0.40316
# Poissons Ratio (z) = 0.38225 0.21234
#
# Static dielectric constant tensor:
#      x y z
#    x 1.615410 0.000000 0.000000 
#    y 0.000000 1.609290 0.000000 
#    z 0.000000 0.000000 1.572450 
# 
# From -- ./inp_files/23739.got.cif
#   From: 2010.05.17/outbox.cif.g08.bks.cpg/sg51_12_cif.got.tgz:23739.got - 2010.06.03 11:52:47.
