data_PCOD9404536
_publ_section_title
;
Structure prediction by ZEFSAII (Michael W. Deem and Ramdas Pophale) SiO2 
 PCOD9404536
Probable space group: P M M A
;
_chemical_formula_sum "Si O2"
_cell_formula_units_Z 64
_cell_length_a 21.382679
_cell_length_b 8.728483
_cell_length_c 17.001760
_cell_angle_alpha 90.000000
_cell_angle_beta 90.000000
_cell_angle_gamma 90.000000
_cell_volume 3173.180436
_symmetry_space_group_name_H-M "P M M A"
_symmetry_group_IT_number 51
_symmetry_cell_setting 'orthorhombic'
loop_
_space_group_symop_operation_xyz
x,y,z
1/2-x,-y,z
1/2+x,-y,-z
-x,y,-z
-x,-y,-z
1/2+x,y,-z
1/2-x,y,z
x,-y,z
loop_
_atom_site_type_symbol
_atom_site_label
_atom_site_fract_x
_atom_site_fract_y
_atom_site_fract_z
Si Si1 0.928064 0.182431 0.512587
Si Si2 0.820762 0.314996 0.399904
Si Si3 0.912801 0.822447 0.941313
Si Si4 0.997999 0.183635 0.189273
Si Si5 0.182556 0.682437 0.943200
Si Si6 0.591267 0.679233 0.681011
Si Si7 0.636515 0.683456 0.225443
Si Si8 0.823200 0.676466 0.819365
O O1 0.876755 0.252725 0.453805
O O2 0.910467 0.227247 0.601231
O O3 0.000000 0.236447 0.500000
O O4 0.927613 0.000000 0.501984
O O5 0.750000 0.264889 0.421893
O O6 0.821776 0.500000 0.404555
O O7 0.834436 0.272190 0.309073
O O8 0.975801 0.766674 0.897025
O O9 0.861516 0.793287 0.872693
O O10 0.921145 0.000000 0.960146
O O11 0.879342 0.744383 0.014820
O O12 0.039940 0.261029 0.256958
O O13 0.928003 0.231823 0.207522
O O14 0.005317 0.000000 0.192949
O O15 0.250000 0.741412 0.974035
O O16 0.182489 0.500000 0.954812
O O17 0.178962 0.712986 0.850424
O O18 0.580376 0.500000 0.664015
O O19 0.655666 0.694195 0.729342
O O20 0.624988 0.500000 0.228255
O O21 0.750000 0.693791 0.829076
O O22 0.840565 0.500000 0.842238
#
# Coordination Sequence:
#
# PCOD9404536 Si02
#       8
#     8   8   8   8   8   8   8   8
#     4  11  24  40  59  86 120 155 192 237 290 349
#     4  10  22  41  64  89 118 153 196 247 300 354
#     4  10  21  35  52  78 112 148 185 226 274 330
#     4  10  21  37  56  81 116 152 186 231 286 340
#     4  10  21  37  57  81 110 144 184 233 286 338
#     4  10  20  35  57  83 110 143 185 229 275 332
#     4  10  21  38  61  85 109 143 189 238 288 344
#     4   9  18  33  53  77 106 140 177 219 268 322
#
# _framework density 20.169039000000001
#
# number of rings (size 3 to 8) (size 9 to 14) (size 15 to 20)
#    0.000    2.000    0.000    3.000    0.000   10.750 
#    0.000    3.750    0.000    2.250    0.000    0.000 
#    0.000    0.000    0.000    0.000    0.000    0.000 
#
# Total GULP energy -357269.581386 kJ/mol
# GULP energy per Si atom -5582.337209 kJ/mol
# Density = 2.012313 g / cm^3
# Si number density = 20.169039 Si / 1000 Ang^3
#
#
#
# Elastic Constant Matrix: (Units=GPa)
#
#
# Indices 1 2 3 4 5 6 
#
# 1 118.0080 31.5341 38.2203 0.0000 0.0000 0.0000
# 2 31.5341 17.6151 17.4882 0.0000 0.0000 0.0000
# 3 38.2203 17.4882 102.1794 0.0000 0.0000 0.0000
# 4 0.0000 0.0000 0.0000 95.1753 0.0000 0.0000
# 5 0.0000 0.0000 0.0000 0.0000 0.1768 0.0000
# 6 0.0000 0.0000 0.0000 0.0000 0.0000 9.0378
#
#
#
# Elastic Compliance Matrix: (Units=1/GPa)
#
#
# Indices 1 2 3 4 5 6 
#
# 1 0.016395 -0.028024 -0.001336 0.000000 0.000000 0.000000
# 2 -0.028024 0.116290 -0.009421 0.000000 0.000000 0.000000
# 3 -0.001336 -0.009421 0.011899 0.000000 0.000000 0.000000
# 4 0.000000 0.000000 0.000000 0.010507 0.000000 0.000000
# 5 0.000000 0.000000 0.000000 0.000000 5.657307 0.000000
# 6 0.000000 0.000000 0.000000 0.000000 0.000000 0.110646
#
#
# Mechanical properties :
#
#
# Convention : Reuss Voigt Hill
#
# Bulk Modulus (GPa) = 14.92046 45.80975 30.36510
# Shear Modulus (GPa) = 0.83016 30.91530 15.87273
#
# Velocity S-wave (km/s) = 0.64226 3.91936 2.80837
# Velocity P-wave (km/s) = 2.82201 6.57602 5.06003
#
# Compressibility (1/GPa) = 0.06702206
#
# Stress axis : x y z
#
# Youngs Moduli (GPa) = 60.99307 8.59921 84.04068
#
# Poissons Ratio (x) = 0.24098 0.11231
# Poissons Ratio (y) = 1.70925 0.79174
# Poissons Ratio (z) = 0.08151 0.08101
#
# Static dielectric constant tensor:
#      x y z
#    x 1.712230 0.000000 0.000000 
#    y 0.000000 1.692550 0.000000 
#    z 0.000000 0.000000 1.716050 
# 
# From -- ./inp_files/26324.got.cif
#   From: 2010.05.17/outbox.cif.g08.bks.cpg/sg51_14_cif.got.tgz:26324.got - 2010.06.03 11:52:47.
