data_PCOD9404951
_publ_section_title
;
Structure prediction by ZEFSAII (Michael W. Deem and Ramdas Pophale) SiO2 
 PCOD9404951
Probable space group: P M M A
;
_chemical_formula_sum "Si O2"
_cell_formula_units_Z 56
_cell_length_a 9.345298
_cell_length_b 15.209068
_cell_length_c 21.206964
_cell_angle_alpha 90.000000
_cell_angle_beta 90.000000
_cell_angle_gamma 90.000000
_cell_volume 3014.215199
_symmetry_space_group_name_H-M "P M M A"
_symmetry_group_IT_number 51
_symmetry_cell_setting 'orthorhombic'
loop_
_space_group_symop_operation_xyz
x,y,z
1/2-x,-y,z
1/2+x,-y,-z
-x,y,-z
-x,-y,-z
1/2+x,y,-z
1/2-x,y,z
x,-y,z
loop_
_atom_site_type_symbol
_atom_site_label
_atom_site_fract_x
_atom_site_fract_y
_atom_site_fract_z
Si Si1 0.750000 0.224242 0.520286
Si Si2 0.916732 0.645990 0.063470
Si Si3 0.530444 0.804265 0.404669
Si Si4 0.416809 0.859378 0.936592
Si Si5 0.416052 0.749070 0.734631
Si Si6 0.081177 0.100355 0.191289
Si Si7 0.417917 0.398165 0.191099
Si Si8 0.420454 0.000000 0.567726
O O1 0.869852 0.217226 0.463772
O O2 0.626077 0.222620 0.574415
O O3 0.750000 0.618355 0.063261
O O4 0.918271 0.752655 0.066195
O O5 0.002775 0.612736 0.124101
O O6 0.000000 0.619314 0.000000
O O7 0.577440 0.758274 0.340526
O O8 0.539179 0.910457 0.397417
O O9 0.250000 0.886764 0.936471
O O10 0.504019 0.892756 0.876403
O O11 0.500000 0.885809 0.000000
O O12 0.250000 0.747873 0.755528
O O13 0.498305 0.832280 0.764093
O O14 0.498945 0.664275 0.760540
O O15 0.250000 0.122655 0.185933
O O16 0.070241 0.000000 0.214094
O O17 0.250000 0.373264 0.185539
O O18 0.424993 0.500000 0.210213
O O19 0.500000 0.000000 0.500000
O O20 0.250000 0.000000 0.555356
#
# Coordination Sequence:
#
# PCOD9404951 Si02
#       8
#     4   8   8   8   8   8   8   4
#     4  10  20  39  58  88 123 160 208 252 297 358
#     4  10  20  36  62  94 126 163 204 254 314 373
#     4  11  22  36  59  89 124 165 204 252 301 357
#     4  10  20  36  61  89 118 162 210 261 315 365
#     4  12  25  42  63  93 126 168 208 255 313 375
#     4  11  25  42  59  86 124 168 217 265 310 367
#     4  11  25  44  67  94 125 163 207 258 315 377
#     4  12  18  32  52  82 124 160 203 248 293 352
#
# _framework density 18.578634000000001
#
# number of rings (size 3 to 8) (size 9 to 14) (size 15 to 20)
#    0.000    1.143    4.286    2.143    3.000    4.000 
#    0.000    0.000    0.000    0.000    0.000    3.000 
#    0.000    0.000    0.000    0.000    0.000    0.000 
#
# Total GULP energy -311846.917366 kJ/mol
# GULP energy per Si atom -5568.694953 kJ/mol
# Density = 1.853635 g / cm^3
# Si number density = 18.578634 Si / 1000 Ang^3
#
#
#
# Elastic Constant Matrix: (Units=GPa)
#
#
# Indices 1 2 3 4 5 6 
#
# 1 199.7063 45.3285 41.4983 0.0000 0.0000 0.0000
# 2 45.3285 70.9966 35.4010 0.0000 0.0000 0.0000
# 3 41.4983 35.4010 84.1795 0.0000 0.0000 0.0000
# 4 0.0000 0.0000 0.0000 -0.6649 0.0000 0.0000
# 5 0.0000 0.0000 0.0000 0.0000 34.1431 0.0000
# 6 0.0000 0.0000 0.0000 0.0000 0.0000 54.8061
#
#
#
# Elastic Compliance Matrix: (Units=1/GPa)
#
#
# Indices 1 2 3 4 5 6 
#
# 1 0.006046 -0.003004 -0.001717 0.000000 0.000000 0.000000
# 2 -0.003004 0.019315 -0.006642 0.000000 0.000000 0.000000
# 3 -0.001717 -0.006642 0.015519 0.000000 0.000000 0.000000
# 4 0.000000 0.000000 0.000000 -1.503920 0.000000 0.000000
# 5 0.000000 0.000000 0.000000 0.000000 0.029288 0.000000
# 6 0.000000 0.000000 0.000000 0.000000 0.000000 0.018246
#
#
# Mechanical properties :
#
#
# Convention : Reuss Voigt Hill
#
# Bulk Modulus (GPa) = 55.08433 66.59309 60.83871
# Shear Modulus (GPa) = -3.60561 33.16718 14.78079
#
# Velocity S-wave (km/s) = -1.39461 4.22978 2.82366
# Velocity P-wave (km/s) = 5.20773 7.73153 6.59154
#
# Compressibility (1/GPa) = 0.01815398
#
# Stress axis : x y z
#
# Youngs Moduli (GPa) = 165.39867 51.77368 64.43658
#
# Poissons Ratio (x) = 0.15552 0.11066
# Poissons Ratio (y) = 0.49683 0.42798
# Poissons Ratio (z) = 0.28404 0.34387
#
# Static dielectric constant tensor:
#      x y z
#    x 1.632040 0.000000 0.000000 
#    y 0.000000 1.663790 0.000000 
#    z 0.000000 0.000000 1.610550 
# 
# From -- ./inp_files/32128.got.cif
#   From: 2010.05.17/outbox.cif.g08.bks.cpg/sg51_17_cif.got.tgz:32128.got - 2010.06.03 11:52:47.
