data_PCOD9404425
_publ_section_title
;
Structure prediction by ZEFSAII (Michael W. Deem and Ramdas Pophale) SiO2 
 PCOD9404425
Probable space group: P M M A
;
_chemical_formula_sum "Si O2"
_cell_formula_units_Z 36
_cell_length_a 14.923103
_cell_length_b 14.502944
_cell_length_c 9.583739
_cell_angle_alpha 90.000000
_cell_angle_beta 90.000000
_cell_angle_gamma 90.000000
_cell_volume 2074.198350
_symmetry_space_group_name_H-M "P M M A"
_symmetry_group_IT_number 51
_symmetry_cell_setting 'orthorhombic'
loop_
_space_group_symop_operation_xyz
x,y,z
1/2-x,-y,z
1/2+x,-y,-z
-x,y,-z
-x,-y,-z
1/2+x,y,-z
1/2-x,y,z
x,-y,z
loop_
_atom_site_type_symbol
_atom_site_label
_atom_site_fract_x
_atom_site_fract_y
_atom_site_fract_z
Si Si1 0.250000 0.293463 0.198847
Si Si2 0.250000 0.612183 0.504784
Si Si3 0.750000 0.899308 0.675850
Si Si4 0.555134 0.892795 0.632826
Si Si5 0.438152 0.607678 0.636904
Si Si6 0.952240 0.270571 0.852480
O O1 0.250000 0.340583 0.352440
O O2 0.250000 0.183169 0.216381
O O3 0.150395 0.310218 0.135415
O O4 0.250000 0.500000 0.486377
O O5 0.339178 0.638737 0.589653
O O6 0.659431 0.891790 0.589898
O O7 0.750000 0.000000 0.744880
O O8 0.500000 0.859388 0.500000
O O9 0.548210 0.825002 0.764098
O O10 0.530971 0.000000 0.663144
O O11 0.500000 0.615408 0.500000
O O12 0.431806 0.500000 0.674786
O O13 0.486923 0.661885 0.759241
O O14 0.000000 0.258155 0.000000
#
# Coordination Sequence:
#
# PCOD9404425 Si02
#       6
#     4   4   4   8   8   8
#     4  10  20  35  56  77 107 151 184 223 275 330
#     4  10  20  35  60  86 105 138 188 237 277 317
#     4   8  16  30  50  77 104 135 176 222 272 315
#     4   9  18  34  56  80 107 143 189 232 269 316
#     4  10  20  36  58  82 106 139 186 233 271 317
#     4  11  23  36  54  82 117 150 182 222 280 340
#
# _framework density 17.356103000000001
#
# number of rings (size 3 to 8) (size 9 to 14) (size 15 to 20)
#    0.000    2.222    2.222    0.667    3.111    1.778 
#    0.000    1.111    0.000    0.000    0.000    0.000 
#    0.000    0.000    0.000    0.000    0.000    0.000 
#
# Total GULP energy -200438.736520 kJ/mol
# GULP energy per Si atom -5567.742681 kJ/mol
# Density = 1.731660 g / cm^3
# Si number density = 17.356103 Si / 1000 Ang^3
#
#
#
# Elastic Constant Matrix: (Units=GPa)
#
#
# Indices 1 2 3 4 5 6 
#
# 1 162.6365 34.9563 64.6135 0.0000 0.0000 0.0000
# 2 34.9563 54.6138 34.6976 0.0000 0.0000 0.0000
# 3 64.6135 34.6976 98.1715 0.0000 0.0000 0.0000
# 4 0.0000 0.0000 0.0000 18.5751 0.0000 0.0000
# 5 0.0000 0.0000 0.0000 0.0000 22.6632 0.0000
# 6 0.0000 0.0000 0.0000 0.0000 0.0000 17.6445
#
#
#
# Elastic Compliance Matrix: (Units=1/GPa)
#
#
# Indices 1 2 3 4 5 6 
#
# 1 0.008573 -0.002453 -0.004776 0.000000 0.000000 0.000000
# 2 -0.002453 0.024315 -0.006979 0.000000 0.000000 0.000000
# 3 -0.004776 -0.006979 0.015796 0.000000 0.000000 0.000000
# 4 0.000000 0.000000 0.000000 0.053835 0.000000 0.000000
# 5 0.000000 0.000000 0.000000 0.000000 0.044124 0.000000
# 6 0.000000 0.000000 0.000000 0.000000 0.000000 0.056675
#
#
# Mechanical properties :
#
#
# Convention : Reuss Voigt Hill
#
# Bulk Modulus (GPa) = 49.33862 64.88405 57.11133
# Shear Modulus (GPa) = 20.96520 23.85353 22.40936
#
# Velocity S-wave (km/s) = 3.47932 3.71126 3.59716
# Velocity P-wave (km/s) = 6.68056 7.47193 7.08730
#
# Compressibility (1/GPa) = 0.02026810
#
# Stress axis : x y z
#
# Youngs Moduli (GPa) = 116.64169 41.12745 63.30711
#
# Poissons Ratio (x) = 0.10090 0.30233
# Poissons Ratio (y) = 0.28617 0.44182
# Poissons Ratio (z) = 0.55703 0.28703
#
# Static dielectric constant tensor:
#      x y z
#    x 1.633960 0.000000 0.000000 
#    y 0.000000 1.636050 0.000000 
#    z 0.000000 0.000000 1.534570 
# 
# From -- ./inp_files/7854.got.cif
#   From: 2010.05.17/outbox.cif.g08.bks.cpg/sg51_4_cif.got.tgz:7854.got - 2010.06.03 11:52:47.
