data_PCOD9404111
_publ_section_title
;
Structure prediction by ZEFSAII (Michael W. Deem and Ramdas Pophale) SiO2 
 PCOD9404111
Probable space group: P M M A
;
_chemical_formula_sum "Si O2"
_cell_formula_units_Z 64
_cell_length_a 22.825540
_cell_length_b 9.452077
_cell_length_c 15.510179
_cell_angle_alpha 90.000000
_cell_angle_beta 90.000000
_cell_angle_gamma 90.000000
_cell_volume 3346.301912
_symmetry_space_group_name_H-M "P M M A"
_symmetry_group_IT_number 51
_symmetry_cell_setting 'orthorhombic'
loop_
_space_group_symop_operation_xyz
x,y,z
1/2-x,-y,z
1/2+x,-y,-z
-x,y,-z
-x,-y,-z
1/2+x,y,-z
1/2-x,y,z
x,-y,z
loop_
_atom_site_type_symbol
_atom_site_label
_atom_site_fract_x
_atom_site_fract_y
_atom_site_fract_z
Si Si1 0.360329 0.166976 0.360039
Si Si2 0.508205 0.664264 0.216197
Si Si3 0.179076 0.660552 0.702174
Si Si4 0.384822 0.168337 0.850007
Si Si5 0.818393 0.843764 0.453458
Si Si6 0.868744 0.667860 0.808021
Si Si7 0.819052 0.167589 0.971198
Si Si8 0.975408 0.664549 0.596144
O O1 0.322880 0.190281 0.445996
O O2 0.342724 0.255846 0.276500
O O3 0.423626 0.225161 0.388567
O O4 0.361073 0.000000 0.340337
O O5 0.520207 0.500000 0.195783
O O6 0.551216 0.764441 0.163562
O O7 0.439405 0.690296 0.197044
O O8 0.516586 0.683534 0.319819
O O9 0.250000 0.657860 0.704549
O O10 0.158134 0.500000 0.712600
O O11 0.155373 0.759163 0.777601
O O12 0.158333 0.725644 0.611028
O O13 0.386501 0.000000 0.837850
O O14 0.356455 0.197669 0.943029
O O15 0.750000 0.855301 0.432278
O O16 0.845673 0.000000 0.439888
O O17 0.858416 0.500000 0.806110
O O18 0.842333 0.739397 0.892514
O O19 0.750000 0.193910 0.986746
O O20 0.825567 0.000000 0.951267
O O21 0.954306 0.500000 0.603108
O O22 0.000000 0.682286 0.500000
#
# Coordination Sequence:
#
# PCOD9404111 Si02
#       8
#     8   8   8   8   8   8   8   8
#     4  10  20  34  55  83 113 149 191 238 288 341
#     4   9  20  38  57  84 120 158 198 239 292 350
#     4  10  21  36  55  80 112 152 195 241 293 349
#     4  11  23  38  60  88 119 154 194 242 294 353
#     4   9  19  35  53  77 111 150 191 233 283 343
#     4  10  22  41  63  87 118 154 194 243 297 351
#     4  10  23  43  65  89 117 152 193 239 296 357
#     4   9  19  35  54  78 112 156 197 239 289 339
#
# _framework density 19.125591
#
# number of rings (size 3 to 8) (size 9 to 14) (size 15 to 20)
#    0.000    2.250    0.000    2.625    1.750    7.250 
#    0.000    3.750    0.000    0.000    0.000    0.000 
#    0.000    0.000    0.000    0.000    0.000    0.000 
#
# Total GULP energy -357106.780641 kJ/mol
# GULP energy per Si atom -5579.793448 kJ/mol
# Density = 1.908206 g / cm^3
# Si number density = 19.125591 Si / 1000 Ang^3
#
#
#
# Elastic Constant Matrix: (Units=GPa)
#
#
# Indices 1 2 3 4 5 6 
#
# 1 15.5828 11.1569 6.1298 0.0000 0.0000 0.0000
# 2 11.1569 72.3355 63.9835 0.0000 0.0000 0.0000
# 3 6.1298 63.9835 108.8990 0.0000 0.0000 0.0000
# 4 0.0000 0.0000 0.0000 25.8389 0.0000 0.0000
# 5 0.0000 0.0000 0.0000 0.0000 29.7446 0.0000
# 6 0.0000 0.0000 0.0000 0.0000 0.0000 66.1190
#
#
#
# Elastic Compliance Matrix: (Units=1/GPa)
#
#
# Indices 1 2 3 4 5 6 
#
# 1 0.073558 -0.015997 0.005258 0.000000 0.000000 0.000000
# 2 -0.015997 0.032262 -0.018055 0.000000 0.000000 0.000000
# 3 0.005258 -0.018055 0.019495 0.000000 0.000000 0.000000
# 4 0.000000 0.000000 0.000000 0.038701 0.000000 0.000000
# 5 0.000000 0.000000 0.000000 0.000000 0.033620 0.000000
# 6 0.000000 0.000000 0.000000 0.000000 0.000000 0.015124
#
#
# Mechanical properties :
#
#
# Convention : Reuss Voigt Hill
#
# Bulk Modulus (GPa) = 14.76482 39.92864 27.34673
# Shear Modulus (GPa) = 17.06922 32.04363 24.55643
#
# Velocity S-wave (km/s) = 2.99068 4.09764 3.58712
# Velocity P-wave (km/s) = 4.43422 6.58103 5.61125
#
# Compressibility (1/GPa) = 0.06772854
#
# Stress axis : x y z
#
# Youngs Moduli (GPa) = 13.59465 30.99579 51.29458
#
# Poissons Ratio (x) = 0.49583 -0.26973
# Poissons Ratio (y) = 0.21747 0.92614
# Poissons Ratio (z) = -0.07149 0.55964
#
# Static dielectric constant tensor:
#      x y z
#    x 1.683390 0.000000 0.000000 
#    y 0.000000 1.655100 0.000000 
#    z 0.000000 0.000000 1.655300 
# 
# From -- ./inp_files/26309.got.cif
#   From: 2010.05.17/outbox.cif.g08.bks.cpg/sg51_14_cif.got.tgz:26309.got - 2010.06.03 11:52:47.
