data_PCOD9404138
_publ_section_title
;
Structure prediction by ZEFSAII (Michael W. Deem and Ramdas Pophale) SiO2 
 PCOD9404138
Probable space group: P M M A
;
_chemical_formula_sum "Si O2"
_cell_formula_units_Z 48
_cell_length_a 28.694077
_cell_length_b 8.913002
_cell_length_c 10.513690
_cell_angle_alpha 90.000000
_cell_angle_beta 90.000000
_cell_angle_gamma 90.000000
_cell_volume 2688.880062
_symmetry_space_group_name_H-M "P M M A"
_symmetry_group_IT_number 51
_symmetry_cell_setting 'orthorhombic'
loop_
_space_group_symop_operation_xyz
x,y,z
1/2-x,-y,z
1/2+x,-y,-z
-x,y,-z
-x,-y,-z
1/2+x,y,-z
1/2-x,y,z
x,-y,z
loop_
_atom_site_type_symbol
_atom_site_label
_atom_site_fract_x
_atom_site_fract_y
_atom_site_fract_z
Si Si1 0.447211 0.319835 0.257955
Si Si2 0.196220 0.678851 0.392520
Si Si3 0.696561 0.821464 0.886576
Si Si4 0.106473 0.178639 0.496194
Si Si5 0.891696 0.319861 0.999270
Si Si6 0.943207 0.319508 0.260634
O O1 0.442556 0.500000 0.276164
O O2 0.421747 0.237899 0.373430
O O3 0.422910 0.281728 0.124141
O O4 0.501940 0.283540 0.255292
O O5 0.250000 0.709565 0.427808
O O6 0.189182 0.500000 0.390269
O O7 0.189156 0.742692 0.250106
O O8 0.158405 0.755096 0.482392
O O9 0.750000 0.790399 0.925722
O O10 0.657943 0.758764 0.981591
O O11 0.691393 0.000000 0.870780
O O12 0.081225 0.239892 0.621386
O O13 0.107795 0.000000 0.495913
O O14 0.885354 0.500000 0.998733
O O15 0.918186 0.278928 0.128451
O O16 0.939404 0.500000 0.276536
#
# Coordination Sequence:
#
# PCOD9404138 Si02
#       6
#     8   8   8   8   8   8
#     4  10  20  37  61  85 111 148 195 242 283 330
#     4  10  20  36  60  86 110 142 188 237 281 331
#     4  10  20  34  55  85 118 149 182 225 280 339
#     4  12  24  37  56  85 119 153 188 231 286 343
#     4  10  20  36  60  87 113 147 192 238 283 331
#     4  10  22  39  58  82 115 154 195 238 282 332
#
# _framework density 17.851299000000001
#
# number of rings (size 3 to 8) (size 9 to 14) (size 15 to 20)
#    0.000    1.667    1.667    3.500    0.000    7.333 
#    0.000    0.833    0.000    4.000    0.000    0.000 
#    0.000    0.000    0.000    0.000    0.000    0.000 
#
# Total GULP energy -268201.150838 kJ/mol
# GULP energy per Si atom -5587.523976 kJ/mol
# Density = 1.781067 g / cm^3
# Si number density = 17.851299 Si / 1000 Ang^3
#
#
#
# Elastic Constant Matrix: (Units=GPa)
#
#
# Indices 1 2 3 4 5 6 
#
# 1 153.8903 69.9790 75.5160 0.0000 0.0000 0.0000
# 2 69.9790 60.2512 59.9836 0.0000 0.0000 0.0000
# 3 75.5160 59.9836 123.0709 0.0000 0.0000 0.0000
# 4 0.0000 0.0000 0.0000 -18.3648 0.0000 0.0000
# 5 0.0000 0.0000 0.0000 0.0000 -2.7195 0.0000
# 6 0.0000 0.0000 0.0000 0.0000 0.0000 17.1807
#
#
#
# Elastic Compliance Matrix: (Units=1/GPa)
#
#
# Indices 1 2 3 4 5 6 
#
# 1 0.013875 -0.014840 -0.001281 0.000000 0.000000 0.000000
# 2 -0.014840 0.048114 -0.014344 0.000000 0.000000 0.000000
# 3 -0.001281 -0.014344 0.015903 0.000000 0.000000 0.000000
# 4 0.000000 0.000000 0.000000 -0.054452 0.000000 0.000000
# 5 0.000000 0.000000 0.000000 0.000000 -0.367716 0.000000
# 6 0.000000 0.000000 0.000000 0.000000 0.000000 0.058205
#
#
# Mechanical properties :
#
#
# Convention : Reuss Voigt Hill
#
# Bulk Modulus (GPa) = 58.95878 83.12996 71.04437
# Shear Modulus (GPa) = -22.78028 8.00153 -7.38937
#
# Velocity S-wave (km/s) = -3.57615 2.11945 -2.03676
# Velocity P-wave (km/s) = 4.00595 7.25662 5.86115
#
# Compressibility (1/GPa) = 0.01696100
#
# Stress axis : x y z
#
# Youngs Moduli (GPa) = 72.07312 20.78407 62.88284
#
# Poissons Ratio (x) = 0.30843 0.08053
# Poissons Ratio (y) = 1.06956 0.90202
# Poissons Ratio (z) = 0.09230 0.29814
#
# Static dielectric constant tensor:
#      x y z
#    x 1.610900 0.000000 0.000000 
#    y 0.000000 1.592250 0.000000 
#    z 0.000000 0.000000 1.573620 
# 
# From -- ./inp_files/12775.got.cif
#   From: 2010.05.17/outbox.cif.g08.bks.cpg/sg51_7_cif.got.tgz:12775.got - 2010.06.03 11:52:47.
