data_PCOD9404561
_publ_section_title
;
Structure prediction by ZEFSAII (Michael W. Deem and Ramdas Pophale) SiO2 
 PCOD9404561
Probable space group: P M M A
;
_chemical_formula_sum "Si O2"
_cell_formula_units_Z 32
_cell_length_a 10.087289
_cell_length_b 20.127574
_cell_length_c 8.912463
_cell_angle_alpha 90.000000
_cell_angle_beta 90.000000
_cell_angle_gamma 90.000000
_cell_volume 1809.521033
_symmetry_space_group_name_H-M "P M M A"
_symmetry_group_IT_number 51
_symmetry_cell_setting 'orthorhombic'
loop_
_space_group_symop_operation_xyz
x,y,z
1/2-x,-y,z
1/2+x,-y,-z
-x,y,-z
-x,-y,-z
1/2+x,y,-z
1/2-x,y,z
x,-y,z
loop_
_atom_site_type_symbol
_atom_site_label
_atom_site_fract_x
_atom_site_fract_y
_atom_site_fract_z
Si Si1 0.495575 0.848537 0.178764
Si Si2 0.595285 0.428493 0.643930
Si Si3 0.750000 0.919498 0.319212
Si Si4 0.750000 0.078434 0.674986
Si Si5 0.410119 0.718496 0.348512
O O1 0.624733 0.883525 0.246092
O O2 0.375846 0.891426 0.243855
O O3 0.467710 0.774667 0.240283
O O4 0.500000 0.848901 0.000000
O O5 0.500000 0.429096 0.500000
O O6 0.750000 0.427751 0.596356
O O7 0.574174 0.500000 0.723977
O O8 0.574124 0.356395 0.717075
O O9 0.750000 0.906349 0.497729
O O10 0.750000 0.000000 0.296877
O O11 0.750000 0.000000 0.689600
O O12 0.500000 0.721921 0.500000
O O13 0.250000 0.729163 0.374954
#
# Coordination Sequence:
#
# PCOD9404561 Si02
#       5
#     8   8   4   4   8
#     4  12  25  39  58  86 119 151 185 232 284 337
#     4   8  14  26  47  77 110 142 181 229 275 320
#     4  11  25  43  65  87 110 147 190 233 281 338
#     4  11  23  43  65  85 110 143 188 235 283 340
#     4  10  20  35  57  84 114 151 192 232 278 335
#
# _framework density 17.684238000000001
#
# number of rings (size 3 to 8) (size 9 to 14) (size 15 to 20)
#    0.000    1.750    1.250    3.750    1.750    5.000 
#    0.000    0.000    0.000    0.750    0.000    0.000 
#    0.000    0.000    0.000    0.000    0.000    0.000 
#
# Total GULP energy -178278.274183 kJ/mol
# GULP energy per Si atom -5571.196068 kJ/mol
# Density = 1.764399 g / cm^3
# Si number density = 17.684238 Si / 1000 Ang^3
#
#
#
# Elastic Constant Matrix: (Units=GPa)
#
#
# Indices 1 2 3 4 5 6 
#
# 1 138.4622 79.5672 57.5731 0.0000 0.0000 0.0000
# 2 79.5672 179.3427 100.7932 0.0000 0.0000 0.0000
# 3 57.5731 100.7932 114.9102 0.0000 0.0000 0.0000
# 4 0.0000 0.0000 0.0000 -8.1444 0.0000 0.0000
# 5 0.0000 0.0000 0.0000 0.0000 20.2523 0.0000
# 6 0.0000 0.0000 0.0000 0.0000 0.0000 30.5713
#
#
#
# Elastic Compliance Matrix: (Units=1/GPa)
#
#
# Indices 1 2 3 4 5 6 
#
# 1 0.009968 -0.003186 -0.002199 0.000000 0.000000 0.000000
# 2 -0.003186 0.012016 -0.008943 0.000000 0.000000 0.000000
# 3 -0.002199 -0.008943 0.017649 0.000000 0.000000 0.000000
# 4 0.000000 0.000000 0.000000 -0.122784 0.000000 0.000000
# 5 0.000000 0.000000 0.000000 0.000000 0.049377 0.000000
# 6 0.000000 0.000000 0.000000 0.000000 0.000000 0.032710
#
#
# Mechanical properties :
#
#
# Convention : Reuss Voigt Hill
#
# Bulk Modulus (GPa) = 91.11748 100.95356 96.03552
# Shear Modulus (GPa) = 159.99287 21.52130 90.75708
#
# Velocity S-wave (km/s) = 9.52200 3.49230 7.17163
# Velocity P-wave (km/s) = 13.13498 8.57160 11.09054
#
# Compressibility (1/GPa) = 0.01097484
#
# Stress axis : x y z
#
# Youngs Moduli (GPa) = 100.32512 83.22447 56.66107
#
# Poissons Ratio (x) = 0.26517 0.12461
# Poissons Ratio (y) = 0.31966 0.50673
# Poissons Ratio (z) = 0.22064 0.74429
#
# Static dielectric constant tensor:
#      x y z
#    x 1.605350 0.000000 0.000000 
#    y 0.000000 1.665980 0.000000 
#    z 0.000000 0.000000 1.548530 
# 
# From -- ./inp_files/4995.got.cif
#   From: 2010.05.17/outbox.cif.g08.bks.cpg/sg51_3_cif.got.tgz:4995.got - 2010.06.03 11:52:47.
