data_PCOD9404465
_publ_section_title
;
Structure prediction by ZEFSAII (Michael W. Deem and Ramdas Pophale) SiO2 
 PCOD9404465
Probable space group: P M M A
;
_chemical_formula_sum "Si O2"
_cell_formula_units_Z 32
_cell_length_a 14.623574
_cell_length_b 13.109514
_cell_length_c 7.243604
_cell_angle_alpha 90.000000
_cell_angle_beta 90.000000
_cell_angle_gamma 90.000000
_cell_volume 1388.656460
_symmetry_space_group_name_H-M "P M M A"
_symmetry_group_IT_number 51
_symmetry_cell_setting 'orthorhombic'
loop_
_space_group_symop_operation_xyz
x,y,z
1/2-x,-y,z
1/2+x,-y,-z
-x,y,-z
-x,-y,-z
1/2+x,y,-z
1/2-x,y,z
x,-y,z
loop_
_atom_site_type_symbol
_atom_site_label
_atom_site_fract_x
_atom_site_fract_y
_atom_site_fract_z
Si Si1 0.860322 0.500000 0.502472
Si Si2 0.143730 0.886466 0.218291
Si Si3 0.861226 0.720078 0.501748
Si Si4 0.894871 0.500000 0.064654
Si Si5 0.396173 0.721175 0.931935
O O1 0.750000 0.500000 0.515838
O O2 0.893571 0.609019 0.576256
O O3 0.886483 0.500000 0.286604
O O4 0.250000 0.898258 0.268398
O O5 0.102769 0.812314 0.374315
O O6 0.142699 0.820404 0.031913
O O7 0.103270 0.000000 0.202730
O O8 0.750000 0.719050 0.510316
O O9 0.886739 0.729757 0.287725
O O10 0.854953 0.389510 0.009979
O O11 0.000000 0.500000 0.000000
O O12 0.500000 0.718466 0.000000
#
# Coordination Sequence:
#
# PCOD9404465 Si02
#       5
#     4   8   8   4   8
#     4   8  14  27  50  77 100 127 170 215 256 308
#     4  10  22  38  55  77 103 136 181 221 257 311
#     4   9  18  34  54  76 105 138 171 215 265 308
#     4   8  16  31  50  76 109 139 167 203 257 321
#     4  10  20  35  56  81 109 140 173 214 264 315
#
# _framework density 23.043856000000002
#
# number of rings (size 3 to 8) (size 9 to 14) (size 15 to 20)
#    0.000    2.750    0.000    0.750    0.000    4.500 
#    0.000    5.000    0.000    9.000    0.000    0.000 
#    0.000    0.000    0.000    0.000    0.000    0.000 
#
# Total GULP energy -178585.723826 kJ/mol
# GULP energy per Si atom -5580.803870 kJ/mol
# Density = 2.299141 g / cm^3
# Si number density = 23.043856 Si / 1000 Ang^3
#
#
#
# Elastic Constant Matrix: (Units=GPa)
#
#
# Indices 1 2 3 4 5 6 
#
# 1 61.1027 9.9709 -16.4053 0.0000 0.0000 0.0000
# 2 9.9709 282.3229 87.1864 0.0000 0.0000 0.0000
# 3 -16.4053 87.1864 112.4411 0.0000 0.0000 0.0000
# 4 0.0000 0.0000 0.0000 19.8546 0.0000 0.0000
# 5 0.0000 0.0000 0.0000 0.0000 19.2779 0.0000
# 6 0.0000 0.0000 0.0000 0.0000 0.0000 -67.2939
#
#
#
# Elastic Compliance Matrix: (Units=1/GPa)
#
#
# Indices 1 2 3 4 5 6 
#
# 1 0.017759 -0.001877 0.004046 0.000000 0.000000 0.000000
# 2 -0.001877 0.004856 -0.004039 0.000000 0.000000 0.000000
# 3 0.004046 -0.004039 0.012616 0.000000 0.000000 0.000000
# 4 0.000000 0.000000 0.000000 0.050366 0.000000 0.000000
# 5 0.000000 0.000000 0.000000 0.000000 0.051873 0.000000
# 6 0.000000 0.000000 0.000000 0.000000 0.000000 -0.014860
#
#
# Mechanical properties :
#
#
# Convention : Reuss Voigt Hill
#
# Bulk Modulus (GPa) = 31.75513 68.59673 50.17593
# Shear Modulus (GPa) = 36.53794 19.37538 27.95666
#
# Velocity S-wave (km/s) = 3.98626 2.90281 3.48687
# Velocity P-wave (km/s) = 5.91584 6.40840 6.16704
#
# Compressibility (1/GPa) = 0.03149098
#
# Stress axis : x y z
#
# Youngs Moduli (GPa) = 56.31106 205.94839 79.26707
#
# Poissons Ratio (x) = 0.38651 -0.32073
# Poissons Ratio (y) = 0.10568 0.32015
# Poissons Ratio (z) = -0.22785 0.83179
#
# Static dielectric constant tensor:
#      x y z
#    x 1.954390 0.000000 0.000000 
#    y 0.000000 1.934100 0.000000 
#    z 0.000000 0.000000 1.816970 
# 
# From -- ./inp_files/2874.got.cif
#   From: 2010.05.17/outbox.cif.g08.bks.cpg/sg51_2_cif.got.tgz:2874.got - 2010.06.03 11:52:47.
