data_PCOD9404859
_publ_section_title
;
Structure prediction by ZEFSAII (Michael W. Deem and Ramdas Pophale) SiO2 
 PCOD9404859
Probable space group: P M M A
;
_chemical_formula_sum "Si O2"
_cell_formula_units_Z 56
_cell_length_a 19.818129
_cell_length_b 7.744561
_cell_length_c 16.759783
_cell_angle_alpha 90.000000
_cell_angle_beta 90.000000
_cell_angle_gamma 90.000000
_cell_volume 2572.336896
_symmetry_space_group_name_H-M "P M M A"
_symmetry_group_IT_number 51
_symmetry_cell_setting 'orthorhombic'
loop_
_space_group_symop_operation_xyz
x,y,z
1/2-x,-y,z
1/2+x,-y,-z
-x,y,-z
-x,-y,-z
1/2+x,y,-z
1/2-x,y,z
x,-y,z
loop_
_atom_site_type_symbol
_atom_site_label
_atom_site_fract_x
_atom_site_fract_y
_atom_site_fract_z
Si Si1 0.174612 0.205714 0.490897
Si Si2 0.419454 0.290346 0.167437
Si Si3 0.827479 0.708337 0.686312
Si Si4 0.545263 0.790944 0.425193
Si Si5 0.576173 0.204017 0.006973
Si Si6 0.826569 0.795722 0.146128
Si Si7 0.446424 0.296964 0.753852
O O1 0.250000 0.279474 0.496499
O O2 0.148394 0.235081 0.401001
O O3 0.120744 0.270988 0.553885
O O4 0.179050 0.000000 0.501784
O O5 0.419746 0.500000 0.166902
O O6 0.372686 0.232178 0.240454
O O7 0.395089 0.227644 0.081831
O O8 0.495486 0.228213 0.186890
O O9 0.750000 0.767636 0.694354
O O10 0.827683 0.500000 0.686857
O O11 0.500000 0.732787 0.500000
O O12 0.528743 0.733220 0.336218
O O13 0.543261 0.000000 0.425065
O O14 0.568882 0.000000 0.023853
O O15 0.500000 0.279292 0.000000
O O16 0.626671 0.276690 0.074028
O O17 0.750000 0.725892 0.151337
O O18 0.873165 0.776285 0.224570
O O19 0.820033 0.000000 0.131511
O O20 0.441649 0.500000 0.766573
#
# Coordination Sequence:
#
# PCOD9404859 Si02
#       7
#     8   8   8   8   8   8   8
#     4   9  18  33  52  74 101 135 176 222 273 326
#     4  10  21  35  54  81 113 147 181 220 273 331
#     4   9  18  33  52  76 108 144 181 221 269 326
#     4  10  21  36  55  80 110 145 189 236 283 334
#     4  10  20  36  59  84 108 140 184 229 273 328
#     4  10  22  41  62  84 113 149 189 234 284 336
#     4  11  23  37  56  83 114 148 187 232 281 338
#
# _framework density 21.770087
#
# number of rings (size 3 to 8) (size 9 to 14) (size 15 to 20)
#    0.000    2.143    1.429    1.286    0.000    4.286 
#    0.000    1.429    0.000    0.000    0.000    0.000 
#    0.000    0.000    0.000    0.000    0.000    0.000 
#
# Total GULP energy -312637.029827 kJ/mol
# GULP energy per Si atom -5582.804104 kJ/mol
# Density = 2.172054 g / cm^3
# Si number density = 21.770087 Si / 1000 Ang^3
#
#
#
# Elastic Constant Matrix: (Units=GPa)
#
#
# Indices 1 2 3 4 5 6 
#
# 1 82.3313 9.9742 25.5918 0.0000 0.0000 0.0000
# 2 9.9742 34.2441 -6.1211 0.0000 0.0000 0.0000
# 3 25.5918 -6.1211 86.8392 0.0000 0.0000 0.0000
# 4 0.0000 0.0000 0.0000 38.3189 0.0000 0.0000
# 5 0.0000 0.0000 0.0000 0.0000 32.8187 0.0000
# 6 0.0000 0.0000 0.0000 0.0000 0.0000 1.4322
#
#
#
# Elastic Compliance Matrix: (Units=1/GPa)
#
#
# Indices 1 2 3 4 5 6 
#
# 1 0.014147 -0.004928 -0.004517 0.000000 0.000000 0.000000
# 2 -0.004928 0.031291 0.003658 0.000000 0.000000 0.000000
# 3 -0.004517 0.003658 0.013104 0.000000 0.000000 0.000000
# 4 0.000000 0.000000 0.000000 0.026097 0.000000 0.000000
# 5 0.000000 0.000000 0.000000 0.000000 0.030470 0.000000
# 6 0.000000 0.000000 0.000000 0.000000 0.000000 0.698212
#
#
# Mechanical properties :
#
#
# Convention : Reuss Voigt Hill
#
# Bulk Modulus (GPa) = 21.29031 29.14494 25.21763
# Shear Modulus (GPa) = 5.94848 26.11195 16.03021
#
# Velocity S-wave (km/s) = 1.65479 3.46705 2.71650
# Velocity P-wave (km/s) = 3.66769 5.42623 4.63119
#
# Compressibility (1/GPa) = 0.04696972
#
# Stress axis : x y z
#
# Youngs Moduli (GPa) = 70.68650 31.95773 76.31014
#
# Poissons Ratio (x) = 0.15748 0.34466
# Poissons Ratio (y) = 0.34834 -0.27914
# Poissons Ratio (z) = 0.31926 -0.11690
#
# Static dielectric constant tensor:
#      x y z
#    x 1.837510 0.000000 0.000000 
#    y 0.000000 1.790530 0.000000 
#    z 0.000000 0.000000 1.773380 
# 
# From -- ./inp_files/25779.got.cif
#   From: 2010.05.17/outbox.cif.g08.bks.cpg/sg51_13_cif.got.tgz:25779.got - 2010.06.03 11:52:47.
