data_PCOD9404920
_publ_section_title
;
Structure prediction by ZEFSAII (Michael W. Deem and Ramdas Pophale) SiO2 
 PCOD9404920
Probable space group: P M M A
;
_chemical_formula_sum "Si O2"
_cell_formula_units_Z 48
_cell_length_a 19.639685
_cell_length_b 8.583884
_cell_length_c 15.519372
_cell_angle_alpha 90.000000
_cell_angle_beta 90.000000
_cell_angle_gamma 90.000000
_cell_volume 2616.329881
_symmetry_space_group_name_H-M "P M M A"
_symmetry_group_IT_number 51
_symmetry_cell_setting 'orthorhombic'
loop_
_space_group_symop_operation_xyz
x,y,z
1/2-x,-y,z
1/2+x,-y,-z
-x,y,-z
-x,-y,-z
1/2+x,y,-z
1/2-x,y,z
x,-y,z
loop_
_atom_site_type_symbol
_atom_site_label
_atom_site_fract_x
_atom_site_fract_y
_atom_site_fract_z
Si Si1 0.065711 0.186826 0.232744
Si Si2 0.587783 0.810114 0.273484
Si Si3 0.328780 0.686413 0.371461
Si Si4 0.072566 0.686673 0.040681
Si Si5 0.829233 0.188033 0.440445
Si Si6 0.671216 0.811493 0.104063
O O1 0.121882 0.244796 0.299685
O O2 0.078805 0.248920 0.136895
O O3 0.990221 0.239604 0.262269
O O4 0.065885 0.000000 0.230731
O O5 0.623324 0.758980 0.361936
O O6 0.631613 0.760931 0.190482
O O7 0.588557 0.000000 0.274250
O O8 0.250000 0.735841 0.357719
O O9 0.331285 0.500000 0.368275
O O10 0.348568 0.742923 0.467101
O O11 0.073600 0.500000 0.043109
O O12 0.131737 0.747079 0.978383
O O13 0.000000 0.737401 0.000000
O O14 0.750000 0.228680 0.423109
O O15 0.833023 0.000000 0.445779
O O16 0.750000 0.763675 0.106401
O O17 0.669067 0.000000 0.101472
#
# Coordination Sequence:
#
# PCOD9404920 Si02
#       6
#     8   8   8   8   8   8
#     4  11  22  37  61  86 111 146 189 236 283 336
#     4   9  18  33  56  87 117 145 181 231 282 329
#     4  10  22  40  58  79 112 150 189 236 285 334
#     4  11  23  39  58  81 114 154 190 229 282 339
#     4   9  17  33  58  84 112 148 188 228 274 331
#     4  10  20  36  60  88 116 148 189 235 282 335
#
# _framework density 18.346309999999999
#
# number of rings (size 3 to 8) (size 9 to 14) (size 15 to 20)
#    0.000    2.000    1.667    2.000    0.000    5.333 
#    0.000    5.833    0.000    2.000    0.000    0.000 
#    0.000    0.000    0.000    0.000    0.000    0.000 
#
# Total GULP energy -268080.875583 kJ/mol
# GULP energy per Si atom -5585.018241 kJ/mol
# Density = 1.830455 g / cm^3
# Si number density = 18.346310 Si / 1000 Ang^3
#
#
#
# Elastic Constant Matrix: (Units=GPa)
#
#
# Indices 1 2 3 4 5 6 
#
# 1 149.7580 34.2267 126.0997 0.0000 0.0000 0.0000
# 2 34.2267 23.6584 38.6870 0.0000 0.0000 0.0000
# 3 126.0997 38.6870 208.7473 0.0000 0.0000 0.0000
# 4 0.0000 0.0000 0.0000 -22.5443 0.0000 0.0000
# 5 0.0000 0.0000 0.0000 0.0000 42.7758 0.0000
# 6 0.0000 0.0000 0.0000 0.0000 0.0000 16.7889
#
#
#
# Elastic Compliance Matrix: (Units=1/GPa)
#
#
# Indices 1 2 3 4 5 6 
#
# 1 0.015052 -0.009911 -0.007256 0.000000 0.000000 0.000000
# 2 -0.009911 0.067174 -0.006462 0.000000 0.000000 0.000000
# 3 -0.007256 -0.006462 0.010371 0.000000 0.000000 0.000000
# 4 0.000000 0.000000 0.000000 -0.044357 0.000000 0.000000
# 5 0.000000 0.000000 0.000000 0.000000 0.023378 0.000000
# 6 0.000000 0.000000 0.000000 0.000000 0.000000 0.059563
#
#
# Mechanical properties :
#
#
# Convention : Reuss Voigt Hill
#
# Bulk Modulus (GPa) = 22.05603 86.68782 54.37192
# Shear Modulus (GPa) = 25.83274 19.61410 22.72342
#
# Velocity S-wave (km/s) = 3.75649 3.27326 3.52317
# Velocity P-wave (km/s) = 5.55545 7.85105 6.80081
#
# Compressibility (1/GPa) = 0.04533908
#
# Stress axis : x y z
#
# Youngs Moduli (GPa) = 66.43539 14.88670 96.42021
#
# Poissons Ratio (x) = 0.14754 0.69962
# Poissons Ratio (y) = 0.65844 0.62309
# Poissons Ratio (z) = 0.48205 0.09620
#
# Static dielectric constant tensor:
#      x y z
#    x 1.621370 0.000000 0.000000 
#    y 0.000000 1.622690 0.000000 
#    z 0.000000 0.000000 1.590530 
# 
# From -- ./inp_files/24680.got.cif
#   From: 2010.05.17/outbox.cif.g08.bks.cpg/sg51_13_cif.got.tgz:24680.got - 2010.06.03 11:52:47.
