data_PCOD9404194
_publ_section_title
;
Structure prediction by ZEFSAII (Michael W. Deem and Ramdas Pophale) SiO2 
 PCOD9404194
Probable space group: P M M A
;
_chemical_formula_sum "Si O2"
_cell_formula_units_Z 64
_cell_length_a 8.714236
_cell_length_b 24.289707
_cell_length_c 15.942801
_cell_angle_alpha 90.000000
_cell_angle_beta 90.000000
_cell_angle_gamma 90.000000
_cell_volume 3374.552729
_symmetry_space_group_name_H-M "P M M A"
_symmetry_group_IT_number 51
_symmetry_cell_setting 'orthorhombic'
loop_
_space_group_symop_operation_xyz
x,y,z
1/2-x,-y,z
1/2+x,-y,-z
-x,y,-z
-x,-y,-z
1/2+x,y,-z
1/2-x,y,z
x,-y,z
loop_
_atom_site_type_symbol
_atom_site_label
_atom_site_fract_x
_atom_site_fract_y
_atom_site_fract_z
Si Si1 0.434898 0.436092 0.410124
Si Si2 0.434335 0.367861 0.246474
Si Si3 0.565481 0.175815 0.411757
Si Si4 0.933721 0.061578 0.850688
Si Si5 0.564281 0.754650 0.248726
Si Si6 0.935054 0.061073 0.337252
Si Si7 0.933618 0.564613 0.090670
Si Si8 0.566693 0.173972 0.086923
O O1 0.500000 0.417868 0.500000
O O2 0.250000 0.434688 0.414132
O O3 0.481690 0.500000 0.397135
O O4 0.484448 0.399226 0.331610
O O5 0.250000 0.368523 0.243964
O O6 0.494562 0.305786 0.246745
O O7 0.497952 0.399927 0.165859
O O8 0.500000 0.194995 0.500000
O O9 0.750000 0.176809 0.415437
O O10 0.517643 0.212820 0.332776
O O11 0.516849 0.112768 0.393064
O O12 0.750000 0.065906 0.854330
O O13 0.989393 0.066172 0.754265
O O14 0.008304 0.111822 0.899770
O O15 0.978405 0.000000 0.879899
O O16 0.750000 0.751092 0.248402
O O17 0.518317 0.789976 0.167158
O O18 0.750000 0.064287 0.326307
O O19 0.972091 0.000000 0.370729
O O20 0.750000 0.569742 0.089424
O O21 0.972944 0.500000 0.103391
O O22 0.000000 0.581085 0.000000
O O23 0.750000 0.173739 0.083566
O O24 0.500000 0.196065 0.000000
#
# Coordination Sequence:
#
# PCOD9404194 Si02
#       8
#     8   8   8   8   8   8   8   8
#     4   9  19  36  58  86 120 155 192 236 285 338
#     4  11  23  38  60  88 119 157 199 243 293 345
#     4  10  21  38  58  83 112 150 193 239 293 348
#     4  10  20  34  56  87 118 147 183 230 285 346
#     4  10  23  43  60  79 114 154 197 245 293 343
#     4   9  17  33  57  82 112 150 188 230 288 351
#     4  10  21  38  62  92 125 160 196 237 287 341
#     4  11  23  41  63  85 111 148 191 238 291 347
#
# _framework density 18.965478000000001
#
# number of rings (size 3 to 8) (size 9 to 14) (size 15 to 20)
#    0.000    2.000    1.250    1.875    0.000    6.500 
#    0.000    5.000    0.000    0.000    0.000    0.000 
#    0.000    0.000    0.000    0.000    0.000    0.000 
#
# Total GULP energy -357470.311756 kJ/mol
# GULP energy per Si atom -5585.473621 kJ/mol
# Density = 1.892231 g / cm^3
# Si number density = 18.965478 Si / 1000 Ang^3
#
#
#
# Elastic Constant Matrix: (Units=GPa)
#
#
# Indices 1 2 3 4 5 6 
#
# 1 25.3633 39.6626 42.5738 0.0000 0.0000 0.0000
# 2 39.6626 127.9935 103.6022 0.0000 0.0000 0.0000
# 3 42.5738 103.6022 183.9646 0.0000 0.0000 0.0000
# 4 0.0000 0.0000 0.0000 -3.0976 0.0000 0.0000
# 5 0.0000 0.0000 0.0000 0.0000 32.5572 0.0000
# 6 0.0000 0.0000 0.0000 0.0000 0.0000 24.0233
#
#
#
# Elastic Compliance Matrix: (Units=1/GPa)
#
#
# Indices 1 2 3 4 5 6 
#
# 1 0.083488 -0.018804 -0.008732 0.000000 0.000000 0.000000
# 2 -0.018804 0.018593 -0.006119 0.000000 0.000000 0.000000
# 3 -0.008732 -0.006119 0.010903 0.000000 0.000000 0.000000
# 4 0.000000 0.000000 0.000000 -0.322828 0.000000 0.000000
# 5 0.000000 0.000000 0.000000 0.000000 0.030715 0.000000
# 6 0.000000 0.000000 0.000000 0.000000 0.000000 0.041626
#
#
# Mechanical properties :
#
#
# Convention : Reuss Voigt Hill
#
# Bulk Modulus (GPa) = 21.89390 78.77763 50.33576
# Shear Modulus (GPa) = -90.96066 20.79544 -35.08261
#
# Velocity S-wave (km/s) = -6.93291 3.31492 -4.30561
# Velocity P-wave (km/s) = 7.24692 7.50194 1.37135
#
# Compressibility (1/GPa) = 0.04567483
#
# Stress axis : x y z
#
# Youngs Moduli (GPa) = 11.97772 53.78420 91.72064
#
# Poissons Ratio (x) = 1.01133 0.80088
# Poissons Ratio (y) = 0.22522 0.56126
# Poissons Ratio (z) = 0.10459 0.32912
#
# Static dielectric constant tensor:
#      x y z
#    x 1.641880 0.000000 0.000000 
#    y 0.000000 1.647400 0.000000 
#    z 0.000000 0.000000 1.645360 
# 
# From -- ./inp_files/22359.got.cif
#   From: 2010.05.17/outbox.cif.g08.bks.cpg/sg51_12_cif.got.tgz:22359.got - 2010.06.03 11:52:47.
