data_PCOD9404500
_publ_section_title
;
Structure prediction by ZEFSAII (Michael W. Deem and Ramdas Pophale) SiO2 
 PCOD9404500
Probable space group: P M M A
;
_chemical_formula_sum "Si O2"
_cell_formula_units_Z 56
_cell_length_a 17.368615
_cell_length_b 17.986433
_cell_length_c 9.329047
_cell_angle_alpha 90.000000
_cell_angle_beta 90.000000
_cell_angle_gamma 90.000000
_cell_volume 2914.388965
_symmetry_space_group_name_H-M "P M M A"
_symmetry_group_IT_number 51
_symmetry_cell_setting 'orthorhombic'
loop_
_space_group_symop_operation_xyz
x,y,z
1/2-x,-y,z
1/2+x,-y,-z
-x,y,-z
-x,-y,-z
1/2+x,y,-z
1/2-x,y,z
x,-y,z
loop_
_atom_site_type_symbol
_atom_site_label
_atom_site_fract_x
_atom_site_fract_y
_atom_site_fract_z
Si Si1 0.536944 0.853632 0.772286
Si Si2 0.424968 0.415377 0.603137
Si Si3 0.875231 0.082074 0.280768
Si Si4 0.662906 0.660718 0.645176
Si Si5 0.166925 0.913865 0.041682
Si Si6 0.511795 0.318558 0.828417
Si Si7 0.335226 0.167214 0.448785
O O1 0.464767 0.906657 0.755538
O O2 0.593159 0.869791 0.904646
O O3 0.508574 0.768733 0.786415
O O4 0.593843 0.866001 0.638701
O O5 0.500000 0.414059 0.500000
O O6 0.411281 0.500000 0.649872
O O7 0.359138 0.386988 0.495243
O O8 0.447663 0.363043 0.736570
O O9 0.848848 0.146051 0.387438
O O10 0.861337 0.000000 0.344117
O O11 0.833900 0.086457 0.129147
O O12 0.750000 0.644181 0.695395
O O13 0.595817 0.654731 0.766348
O O14 0.661658 0.745850 0.589434
O O15 0.250000 0.883892 0.090570
O O16 0.159989 0.000000 0.088463
O O17 0.500000 0.327056 0.000000
O O18 0.250000 0.139474 0.409858
#
# Coordination Sequence:
#
# PCOD9404500 Si02
#       7
#     8   8   8   8   8   8   8
#     4  11  21  35  54  77 104 138 181 225 269 322
#     4   9  18  34  57  83 111 146 183 216 259 320
#     4  11  22  35  52  75 102 135 178 227 277 327
#     4   9  19  36  57  81 109 143 185 230 271 318
#     4  10  21  36  52  72 102 139 178 223 277 333
#     4  10  20  35  56  83 114 148 185 226 277 334
#     4  10  21  36  53  74 102 135 173 221 274 323
#
# _framework density 19.215005000000001
#
# number of rings (size 3 to 8) (size 9 to 14) (size 15 to 20)
#    0.000    2.000    0.000    3.857    0.000    7.143 
#    0.000    0.714    0.000    0.000    0.000    0.000 
#    0.000    0.000    0.000    0.000    0.000    0.000 
#
# Total GULP energy -312349.552795 kJ/mol
# GULP energy per Si atom -5577.670586 kJ/mol
# Density = 1.917127 g / cm^3
# Si number density = 19.215005 Si / 1000 Ang^3
#
#
#
# Elastic Constant Matrix: (Units=GPa)
#
#
# Indices 1 2 3 4 5 6 
#
# 1 103.9592 23.4193 20.1388 0.0000 0.0000 0.0000
# 2 23.4193 35.8804 21.8634 0.0000 0.0000 0.0000
# 3 20.1388 21.8634 81.8445 0.0000 0.0000 0.0000
# 4 0.0000 0.0000 0.0000 24.1943 0.0000 0.0000
# 5 0.0000 0.0000 0.0000 0.0000 -108.2572 0.0000
# 6 0.0000 0.0000 0.0000 0.0000 0.0000 45.3182
#
#
#
# Elastic Compliance Matrix: (Units=1/GPa)
#
#
# Indices 1 2 3 4 5 6 
#
# 1 0.011342 -0.006811 -0.000971 0.000000 0.000000 0.000000
# 2 -0.006811 0.037379 -0.008309 0.000000 0.000000 0.000000
# 3 -0.000971 -0.008309 0.014677 0.000000 0.000000 0.000000
# 4 0.000000 0.000000 0.000000 0.041332 0.000000 0.000000
# 5 0.000000 0.000000 0.000000 0.000000 -0.009237 0.000000
# 6 0.000000 0.000000 0.000000 0.000000 0.000000 0.022066
#
#
# Mechanical properties :
#
#
# Convention : Reuss Voigt Hill
#
# Bulk Modulus (GPa) = 32.03624 39.16972 35.60298
# Shear Modulus (GPa) = 31.22140 2.66858 16.94499
#
# Velocity S-wave (km/s) = 4.03531 1.17975 2.97284
# Velocity P-wave (km/s) = 6.19841 4.72070 5.50932
#
# Compressibility (1/GPa) = 0.03121465
#
# Stress axis : x y z
#
# Youngs Moduli (GPa) = 88.17066 26.75294 68.13384
#
# Poissons Ratio (x) = 0.18221 0.06618
# Poissons Ratio (y) = 0.60052 0.56615
# Poissons Ratio (z) = 0.08564 0.22230
#
# Static dielectric constant tensor:
#      x y z
#    x 1.688280 0.000000 0.000000 
#    y 0.000000 1.660640 0.000000 
#    z 0.000000 0.000000 1.689960 
# 
# From -- ./inp_files/8562.got.cif
#   From: 2010.05.17/outbox.cif.g08.bks.cpg/sg51_5_cif.got.tgz:8562.got - 2010.06.03 11:52:47.
