data_PCOD9404058
_publ_section_title
;
Structure prediction by ZEFSAII (Michael W. Deem and Ramdas Pophale) SiO2 
 PCOD9404058
Probable space group: P M M A
;
_chemical_formula_sum "Si O2"
_cell_formula_units_Z 48
_cell_length_a 16.621216
_cell_length_b 7.464415
_cell_length_c 17.182968
_cell_angle_alpha 90.000000
_cell_angle_beta 90.000000
_cell_angle_gamma 90.000000
_cell_volume 2131.850529
_symmetry_space_group_name_H-M "P M M A"
_symmetry_group_IT_number 51
_symmetry_cell_setting 'orthorhombic'
loop_
_space_group_symop_operation_xyz
x,y,z
1/2-x,-y,z
1/2+x,-y,-z
-x,y,-z
-x,-y,-z
1/2+x,y,-z
1/2-x,y,z
x,-y,z
loop_
_atom_site_type_symbol
_atom_site_label
_atom_site_fract_x
_atom_site_fract_y
_atom_site_fract_z
Si Si1 0.921859 0.202231 0.223108
Si Si2 0.250000 0.283943 0.206297
Si Si3 0.589396 0.710084 0.710490
Si Si4 0.919524 0.780185 0.046486
Si Si5 0.750000 0.210571 0.975735
Si Si6 0.153602 0.790668 0.623098
Si Si7 0.843258 0.216608 0.546578
O O1 0.920411 0.279265 0.136530
O O2 0.876420 0.290569 0.296091
O O3 0.013009 0.196348 0.252820
O O4 0.888137 0.000000 0.214657
O O5 0.250000 0.500000 0.211971
O O6 0.170548 0.219754 0.249867
O O7 0.250000 0.232961 0.116690
O O8 0.580720 0.500000 0.728278
O O9 0.601210 0.730372 0.618268
O O10 0.835037 0.719769 0.008752
O O11 0.921494 0.000000 0.045141
O O12 0.000000 0.723077 0.000000
O O13 0.750000 0.000000 0.995021
O O14 0.250000 0.787341 0.622155
O O15 0.128828 0.718011 0.538559
O O16 0.127237 0.000000 0.624292
O O17 0.750000 0.275475 0.560271
O O18 0.841419 0.000000 0.543343
#
# Coordination Sequence:
#
# PCOD9404058 Si02
#       7
#     8   4   8   8   4   8   8
#     4  10  20  34  55  80 109 144 180 220 269 321
#     4  10  22  38  54  75 104 140 178 221 268 324
#     4  11  22  36  53  76 109 143 181 224 270 319
#     4   9  18  32  51  81 115 139 172 224 274 321
#     4  10  20  34  58  85 108 140 178 223 276 328
#     4   8  16  31  53  80 108 139 179 224 266 319
#     4   9  17  32  54  79 105 137 180 224 267 318
#
# _framework density 22.515649
#
# number of rings (size 3 to 8) (size 9 to 14) (size 15 to 20)
#    0.000    2.500    0.833    2.500    1.167    3.333 
#    0.000    5.000    0.000    4.500    0.000    0.000 
#    0.000    0.000    0.000    0.000    0.000    0.000 
#
# Total GULP energy -267985.156378 kJ/mol
# GULP energy per Si atom -5583.024091 kJ/mol
# Density = 2.246440 g / cm^3
# Si number density = 22.515649 Si / 1000 Ang^3
#
#
#
# Elastic Constant Matrix: (Units=GPa)
#
#
# Indices 1 2 3 4 5 6 
#
# 1 86.8004 -2.4578 72.1928 0.0000 0.0000 0.0000
# 2 -2.4578 70.3740 -6.1557 0.0000 0.0000 0.0000
# 3 72.1928 -6.1557 216.6167 0.0000 0.0000 0.0000
# 4 0.0000 0.0000 0.0000 33.4433 0.0000 0.0000
# 5 0.0000 0.0000 0.0000 0.0000 41.2403 0.0000
# 6 0.0000 0.0000 0.0000 0.0000 0.0000 -13.7169
#
#
#
# Elastic Compliance Matrix: (Units=1/GPa)
#
#
# Indices 1 2 3 4 5 6 
#
# 1 0.015939 0.000092 -0.005310 0.000000 0.000000 0.000000
# 2 0.000092 0.014246 0.000374 0.000000 0.000000 0.000000
# 3 -0.005310 0.000374 0.006397 0.000000 0.000000 0.000000
# 4 0.000000 0.000000 0.000000 0.029901 0.000000 0.000000
# 5 0.000000 0.000000 0.000000 0.000000 0.024248 0.000000
# 6 0.000000 0.000000 0.000000 0.000000 0.000000 -0.072903
#
#
# Mechanical properties :
#
#
# Convention : Reuss Voigt Hill
#
# Bulk Modulus (GPa) = 37.18130 55.66107 46.42118
# Shear Modulus (GPa) = 137.06119 32.87413 84.96766
#
# Velocity S-wave (km/s) = 7.81063 3.82521 6.14972
# Velocity P-wave (km/s) = 9.89397 6.65465 8.43134
#
# Compressibility (1/GPa) = 0.02689524
#
# Stress axis : x y z
#
# Youngs Moduli (GPa) = 62.73802 70.19647 156.33276
#
# Poissons Ratio (x) = -0.00648 0.83005
# Poissons Ratio (y) = -0.00579 -0.05848
# Poissons Ratio (z) = 0.33311 -0.02626
#
# Static dielectric constant tensor:
#      x y z
#    x 1.850170 0.000000 0.000000 
#    y 0.000000 1.891460 0.000000 
#    z 0.000000 0.000000 1.822070 
# 
# From -- ./inp_files/24979.got.cif
#   From: 2010.05.17/outbox.cif.g08.bks.cpg/sg51_13_cif.got.tgz:24979.got - 2010.06.03 11:52:47.
