data_PCOD9404722
_publ_section_title
;
Structure prediction by ZEFSAII (Michael W. Deem and Ramdas Pophale) SiO2 
 PCOD9404722
Probable space group: P M M A
;
_chemical_formula_sum "Si O2"
_cell_formula_units_Z 44
_cell_length_a 9.515750
_cell_length_b 8.003684
_cell_length_c 30.974747
_cell_angle_alpha 90.000000
_cell_angle_beta 90.000000
_cell_angle_gamma 90.000000
_cell_volume 2359.069442
_symmetry_space_group_name_H-M "P M M A"
_symmetry_group_IT_number 51
_symmetry_cell_setting 'orthorhombic'
loop_
_space_group_symop_operation_xyz
x,y,z
1/2-x,-y,z
1/2+x,-y,-z
-x,y,-z
-x,-y,-z
1/2+x,y,-z
1/2-x,y,z
x,-y,z
loop_
_atom_site_type_symbol
_atom_site_label
_atom_site_fract_x
_atom_site_fract_y
_atom_site_fract_z
Si Si1 0.090710 0.200794 0.717726
Si Si2 0.089126 0.300769 0.364709
Si Si3 0.910662 0.201518 0.540602
Si Si4 0.079132 0.000000 0.045324
Si Si5 0.579368 0.686137 0.895388
Si Si6 0.913959 0.202588 0.800248
O O1 0.250000 0.265323 0.716360
O O2 0.006536 0.240668 0.674318
O O3 0.005896 0.260483 0.759811
O O4 0.096705 0.000000 0.721298
O O5 0.250000 0.235281 0.360367
O O6 0.094768 0.500000 0.363174
O O7 0.035020 0.249365 0.412036
O O8 0.750000 0.262721 0.537694
O O9 0.000000 0.263099 0.500000
O O10 0.908296 0.000000 0.538599
O O11 0.038372 0.164512 0.072803
O O12 0.250000 0.000000 0.040184
O O13 0.000000 0.000000 0.000000
O O14 0.750000 0.687415 0.894981
O O15 0.532852 0.500000 0.908196
O O16 0.537250 0.725426 0.846121
O O17 0.750000 0.247733 0.793564
O O18 0.919770 0.000000 0.803200
#
# Coordination Sequence:
#
# PCOD9404722 Si02
#       6
#     8   8   8   4   8   8
#     4  10  21  35  52  77 108 142 176 213 263 319
#     4  10  21  36  53  74 102 137 177 218 258 307
#     4   9  18  33  53  75  98 126 164 210 258 309
#     4  10  20  36  56  80 110 144 182 226 273 320
#     4   9  17  31  54  81 107 139 182 228 270 318
#     4   9  16  30  53  77 101 134 177 221 264 312
#
# _framework density 18.651422
#
# number of rings (size 3 to 8) (size 9 to 14) (size 15 to 20)
#    0.000    2.545    0.909    1.091    0.000    4.364 
#    0.000    4.545    0.000    1.091    0.000    0.000 
#    0.000    0.000    0.000    0.000    0.000    0.000 
#
# Total GULP energy -245450.343814 kJ/mol
# GULP energy per Si atom -5578.416905 kJ/mol
# Density = 1.860897 g / cm^3
# Si number density = 18.651422 Si / 1000 Ang^3
#
#
#
# Elastic Constant Matrix: (Units=GPa)
#
#
# Indices 1 2 3 4 5 6 
#
# 1 63.8623 28.4126 77.0358 0.0000 0.0000 0.0000
# 2 28.4126 62.0256 55.3413 0.0000 0.0000 0.0000
# 3 77.0358 55.3413 197.2669 0.0000 0.0000 0.0000
# 4 0.0000 0.0000 0.0000 -13.3142 0.0000 0.0000
# 5 0.0000 0.0000 0.0000 0.0000 33.1537 0.0000
# 6 0.0000 0.0000 0.0000 0.0000 0.0000 7.5129
#
#
#
# Elastic Compliance Matrix: (Units=1/GPa)
#
#
# Indices 1 2 3 4 5 6 
#
# 1 0.030503 -0.004461 -0.010660 0.000000 0.000000 0.000000
# 2 -0.004461 0.022158 -0.004474 0.000000 0.000000 0.000000
# 3 -0.010660 -0.004474 0.010487 0.000000 0.000000 0.000000
# 4 0.000000 0.000000 0.000000 -0.075108 0.000000 0.000000
# 5 0.000000 0.000000 0.000000 0.000000 0.030163 0.000000
# 6 0.000000 0.000000 0.000000 0.000000 0.000000 0.133104
#
#
# Mechanical properties :
#
#
# Convention : Reuss Voigt Hill
#
# Bulk Modulus (GPa) = 41.74142 71.63713 56.68927
# Shear Modulus (GPa) = 25.19110 16.29484 20.74297
#
# Velocity S-wave (km/s) = 3.67907 2.95897 3.33849
# Velocity P-wave (km/s) = 6.36206 7.08278 6.73207
#
# Compressibility (1/GPa) = 0.02395702
#
# Stress axis : x y z
#
# Youngs Moduli (GPa) = 32.78397 45.13086 95.35264
#
# Poissons Ratio (x) = 0.20134 1.01648
# Poissons Ratio (y) = 0.14626 0.42660
# Poissons Ratio (z) = 0.34948 0.20191
#
# Static dielectric constant tensor:
#      x y z
#    x 1.642420 0.000000 0.000000 
#    y 0.000000 1.667210 0.000000 
#    z 0.000000 0.000000 1.616850 
# 
# From -- ./inp_files/36778.got.cif
#   From: 2010.05.17/outbox.cif.g08.bks.cpg/sg51_19_cif.got.tgz:36778.got - 2010.06.03 11:52:47.
