data_PCOD9404876
_publ_section_title
;
Structure prediction by ZEFSAII (Michael W. Deem and Ramdas Pophale) SiO2 
 PCOD9404876
Probable space group: P M M A
;
_chemical_formula_sum "Si O2"
_cell_formula_units_Z 40
_cell_length_a 18.213490
_cell_length_b 7.567417
_cell_length_c 12.790824
_cell_angle_alpha 90.000000
_cell_angle_beta 90.000000
_cell_angle_gamma 90.000000
_cell_volume 1762.947426
_symmetry_space_group_name_H-M "P M M A"
_symmetry_group_IT_number 51
_symmetry_cell_setting 'orthorhombic'
loop_
_space_group_symop_operation_xyz
x,y,z
1/2-x,-y,z
1/2+x,-y,-z
-x,y,-z
-x,-y,-z
1/2+x,y,-z
1/2-x,y,z
x,-y,z
loop_
_atom_site_type_symbol
_atom_site_label
_atom_site_fract_x
_atom_site_fract_y
_atom_site_fract_z
Si Si1 0.058046 0.292917 0.172426
Si Si2 0.167697 0.287113 0.351590
Si Si3 0.924253 0.789484 0.449496
Si Si4 0.831383 0.214389 0.010451
Si Si5 0.397180 0.201633 0.780354
O O1 0.043255 0.500000 0.190289
O O2 0.108847 0.222657 0.266748
O O3 0.979641 0.200953 0.173403
O O4 0.105344 0.274387 0.067847
O O5 0.250000 0.221676 0.331998
O O6 0.169012 0.500000 0.342792
O O7 0.139137 0.239970 0.466291
O O8 0.904332 0.716987 0.335086
O O9 0.000000 0.718118 0.500000
O O10 0.935686 0.000000 0.435463
O O11 0.750000 0.269352 0.974983
O O12 0.847378 0.279573 0.127988
O O13 0.833449 0.000000 0.011672
O O14 0.371015 0.000000 0.765553
#
# Coordination Sequence:
#
# PCOD9404876 Si02
#       5
#     8   8   8   8   8
#     4  11  22  37  59  85 115 150 190 236 284 334
#     4  10  22  38  56  82 116 152 189 232 285 339
#     4  10  20  36  59  86 114 146 188 235 281 332
#     4  10  22  39  58  81 112 151 190 232 286 341
#     4  10  21  38  60  85 115 148 189 236 282 339
#
# _framework density 22.689276
#
# number of rings (size 3 to 8) (size 9 to 14) (size 15 to 20)
#    0.000    1.800    2.000    1.800    0.000    7.600 
#    0.000    2.000    0.000    0.000    0.000    0.000 
#    0.000    0.000    0.000    0.000    0.000    0.000 
#
# Total GULP energy -223598.771646 kJ/mol
# GULP energy per Si atom -5589.969291 kJ/mol
# Density = 2.263763 g / cm^3
# Si number density = 22.689276 Si / 1000 Ang^3
#
#
#
# Elastic Constant Matrix: (Units=GPa)
#
#
# Indices 1 2 3 4 5 6 
#
# 1 40.2724 -10.7390 -9.3762 0.0000 0.0000 0.0000
# 2 -10.7390 58.3268 -5.6885 0.0000 0.0000 0.0000
# 3 -9.3762 -5.6885 104.0481 0.0000 0.0000 0.0000
# 4 0.0000 0.0000 0.0000 14.8146 0.0000 0.0000
# 5 0.0000 0.0000 0.0000 0.0000 103.2239 0.0000
# 6 0.0000 0.0000 0.0000 0.0000 0.0000 11.7481
#
#
#
# Elastic Compliance Matrix: (Units=1/GPa)
#
#
# Indices 1 2 3 4 5 6 
#
# 1 0.026849 0.005207 0.002704 0.000000 0.000000 0.000000
# 2 0.005207 0.018247 0.001467 0.000000 0.000000 0.000000
# 3 0.002704 0.001467 0.009935 0.000000 0.000000 0.000000
# 4 0.000000 0.000000 0.000000 0.067501 0.000000 0.000000
# 5 0.000000 0.000000 0.000000 0.000000 0.009688 0.000000
# 6 0.000000 0.000000 0.000000 0.000000 0.000000 0.085120
#
#
# Mechanical properties :
#
#
# Convention : Reuss Voigt Hill
#
# Bulk Modulus (GPa) = 13.55260 16.78220 15.16740
# Shear Modulus (GPa) = 22.40363 41.18740 31.79552
#
# Velocity S-wave (km/s) = 3.14572 4.26523 3.74752
# Velocity P-wave (km/s) = 4.37952 5.62751 5.04227
#
# Compressibility (1/GPa) = 0.07378656
#
# Stress axis : x y z
#
# Youngs Moduli (GPa) = 37.24535 54.80484 100.65611
#
# Poissons Ratio (x) = -0.28538 -0.27219
# Poissons Ratio (y) = -0.19394 -0.14764
# Poissons Ratio (z) = -0.10072 -0.08039
#
# Static dielectric constant tensor:
#      x y z
#    x 1.799500 0.000000 0.000000 
#    y 0.000000 1.873780 0.000000 
#    z 0.000000 0.000000 1.842490 
# 
# From -- ./inp_files/17052.got.cif
#   From: 2010.05.17/outbox.cif.g08.bks.cpg/sg51_9_cif.got.tgz:17052.got - 2010.06.03 11:52:47.
