data_PCOD9404556
_publ_section_title
;
Structure prediction by ZEFSAII (Michael W. Deem and Ramdas Pophale) SiO2 
 PCOD9404556
Probable space group: P M M A
;
_chemical_formula_sum "Si O2"
_cell_formula_units_Z 48
_cell_length_a 17.896924
_cell_length_b 9.092732
_cell_length_c 15.678557
_cell_angle_alpha 90.000000
_cell_angle_beta 90.000000
_cell_angle_gamma 90.000000
_cell_volume 2551.401896
_symmetry_space_group_name_H-M "P M M A"
_symmetry_group_IT_number 51
_symmetry_cell_setting 'orthorhombic'
loop_
_space_group_symop_operation_xyz
x,y,z
1/2-x,-y,z
1/2+x,-y,-z
-x,y,-z
-x,-y,-z
1/2+x,y,-z
1/2-x,y,z
x,-y,z
loop_
_atom_site_type_symbol
_atom_site_label
_atom_site_fract_x
_atom_site_fract_y
_atom_site_fract_z
Si Si1 0.335541 0.326873 0.014946
Si Si2 0.659146 0.169064 0.490409
Si Si3 0.159725 0.328800 0.338063
Si Si4 0.661208 0.176471 0.298292
Si Si5 0.093910 0.174967 0.173019
Si Si6 0.566010 0.675920 0.150266
O O1 0.250000 0.306897 0.986409
O O2 0.345467 0.500000 0.036574
O O3 0.352280 0.231625 0.097925
O O4 0.391428 0.290764 0.938154
O O5 0.750000 0.168632 0.489073
O O6 0.635848 0.269784 0.569039
O O7 0.636641 0.215013 0.394999
O O8 0.635488 0.000000 0.504709
O O9 0.250000 0.314906 0.332853
O O10 0.140782 0.500000 0.327678
O O11 0.123431 0.234846 0.263100
O O12 0.750000 0.205586 0.290302
O O13 0.615724 0.263919 0.227899
O O14 0.650894 0.000000 0.288463
O O15 0.013559 0.245792 0.153871
O O16 0.089525 0.000000 0.173970
O O17 0.557297 0.500000 0.155917
#
# Coordination Sequence:
#
# PCOD9404556 Si02
#       6
#     8   8   8   8   8   8
#     4  10  22  41  63  86 112 143 181 226 276 330
#     4   8  15  30  53  81 113 148 185 227 276 327
#     4  10  20  35  57  84 113 146 186 233 281 330
#     4   9  18  34  57  85 117 151 187 230 278 328
#     4  12  25  39  57  82 113 149 187 229 279 333
#     4  11  23  39  59  83 114 151 188 228 276 330
#
# _framework density 18.813188
#
# number of rings (size 3 to 8) (size 9 to 14) (size 15 to 20)
#    0.000    2.000    0.000    5.000    0.000    8.333 
#    0.000    2.500    0.000    5.000    0.000    0.000 
#    0.000    0.000    0.000    0.000    0.000    0.000 
#
# Total GULP energy -268138.083634 kJ/mol
# GULP energy per Si atom -5586.210076 kJ/mol
# Density = 1.877037 g / cm^3
# Si number density = 18.813188 Si / 1000 Ang^3
#
#
#
# Elastic Constant Matrix: (Units=GPa)
#
#
# Indices 1 2 3 4 5 6 
#
# 1 27.6421 14.8829 0.0240 0.0000 0.0000 0.0000
# 2 14.8829 55.5945 29.3572 0.0000 0.0000 0.0000
# 3 0.0240 29.3572 75.7713 0.0000 0.0000 0.0000
# 4 0.0000 0.0000 0.0000 37.6111 0.0000 0.0000
# 5 0.0000 0.0000 0.0000 0.0000 -18.6834 0.0000
# 6 0.0000 0.0000 0.0000 0.0000 0.0000 27.9958
#
#
#
# Elastic Compliance Matrix: (Units=1/GPa)
#
#
# Indices 1 2 3 4 5 6 
#
# 1 0.044171 -0.014857 0.005742 0.000000 0.000000 0.000000
# 2 -0.014857 0.027611 -0.010693 0.000000 0.000000 0.000000
# 3 0.005742 -0.010693 0.017339 0.000000 0.000000 0.000000
# 4 0.000000 0.000000 0.000000 0.026588 0.000000 0.000000
# 5 0.000000 0.000000 0.000000 0.000000 -0.053523 0.000000
# 6 0.000000 0.000000 0.000000 0.000000 0.000000 0.035720
#
#
# Mechanical properties :
#
#
# Convention : Reuss Voigt Hill
#
# Bulk Modulus (GPa) = 20.19987 27.50399 23.85193
# Shear Modulus (GPa) = 32.46275 17.03428 24.74851
#
# Velocity S-wave (km/s) = 4.15846 3.01232 3.63090
# Velocity P-wave (km/s) = 5.81528 5.17205 5.50307
#
# Compressibility (1/GPa) = 0.04950526
#
# Stress axis : x y z
#
# Youngs Moduli (GPa) = 22.63933 36.21707 57.67414
#
# Poissons Ratio (x) = 0.53808 -0.33118
# Poissons Ratio (y) = 0.33635 0.61672
# Poissons Ratio (z) = -0.13000 0.38727
#
# Static dielectric constant tensor:
#      x y z
#    x 1.655090 0.000000 0.000000 
#    y 0.000000 1.626260 0.000000 
#    z 0.000000 0.000000 1.634130 
# 
# From -- ./inp_files/24766.got.cif
#   From: 2010.05.17/outbox.cif.g08.bks.cpg/sg51_13_cif.got.tgz:24766.got - 2010.06.03 11:52:47.
