data_PCOD9404777
_publ_section_title
;
Structure prediction by ZEFSAII (Michael W. Deem and Ramdas Pophale) SiO2 
 PCOD9404777
Probable space group: P M M A
;
_chemical_formula_sum "Si O2"
_cell_formula_units_Z 56
_cell_length_a 21.420470
_cell_length_b 15.669844
_cell_length_c 8.297463
_cell_angle_alpha 90.000000
_cell_angle_beta 90.000000
_cell_angle_gamma 90.000000
_cell_volume 2785.088456
_symmetry_space_group_name_H-M "P M M A"
_symmetry_group_IT_number 51
_symmetry_cell_setting 'orthorhombic'
loop_
_space_group_symop_operation_xyz
x,y,z
1/2-x,-y,z
1/2+x,-y,-z
-x,y,-z
-x,-y,-z
1/2+x,y,-z
1/2-x,y,z
x,-y,z
loop_
_atom_site_type_symbol
_atom_site_label
_atom_site_fract_x
_atom_site_fract_y
_atom_site_fract_z
Si Si1 0.632489 0.731216 0.890406
Si Si2 0.318528 0.410117 0.886738
Si Si3 0.093651 0.634098 0.609221
Si Si4 0.959254 0.598891 0.733157
Si Si5 0.565979 0.095513 0.548508
Si Si6 0.929976 0.904830 0.935553
Si Si7 0.676109 0.782143 0.533328
O O1 0.575867 0.665667 0.848112
O O2 0.609525 0.819534 0.971655
O O3 0.665587 0.755661 0.721476
O O4 0.673839 0.672961 0.005080
O O5 0.250000 0.407975 0.811936
O O6 0.323701 0.500000 0.982842
O O7 0.368852 0.412848 0.747425
O O8 0.080062 0.594520 0.433796
O O9 0.138751 0.713106 0.571636
O O10 0.024795 0.642440 0.684962
O O11 0.967695 0.500000 0.789016
O O12 0.500000 0.139682 0.500000
O O13 0.565831 0.093816 0.741746
O O14 0.632094 0.136099 0.503885
O O15 0.563582 0.000000 0.480265
O O16 0.906814 0.000000 0.986601
O O17 0.000000 0.895192 0.000000
O O18 0.750000 0.789774 0.501155
#
# Coordination Sequence:
#
# PCOD9404777 Si02
#       7
#     8   8   8   8   8   8   8
#     4  10  22  35  57  83 114 146 194 236 290 339
#     4  11  23  38  55  78 112 152 192 235 284 342
#     4  10  21  35  55  79 110 145 190 232 285 341
#     4  10  20  36  57  83 114 148 188 241 293 342
#     4   9  19  34  56  84 113 144 185 240 291 338
#     4   9  19  35  54  81 114 146 182 227 286 344
#     4  10  21  36  56  79 112 153 193 233 283 350
#
# _framework density 20.107081000000001
#
# number of rings (size 3 to 8) (size 9 to 14) (size 15 to 20)
#    0.000    2.143    0.000    3.000    8.000    0.286 
#    0.000    1.429    0.000    9.857    0.000    0.000 
#    0.000    5.714    0.000    0.000    0.000    0.000 
#
# Total GULP energy -311842.809732 kJ/mol
# GULP energy per Si atom -5568.621602 kJ/mol
# Density = 2.006132 g / cm^3
# Si number density = 20.107081 Si / 1000 Ang^3
#
#
#
# Elastic Constant Matrix: (Units=GPa)
#
#
# Indices 1 2 3 4 5 6 
#
# 1 148.9137 62.4576 14.2299 0.0000 0.0000 0.0000
# 2 62.4576 120.2724 14.5590 0.0000 0.0000 0.0000
# 3 14.2299 14.5590 13.7201 0.0000 0.0000 0.0000
# 4 0.0000 0.0000 0.0000 58.9149 0.0000 0.0000
# 5 0.0000 0.0000 0.0000 0.0000 18.7531 0.0000
# 6 0.0000 0.0000 0.0000 0.0000 0.0000 24.7287
#
#
#
# Elastic Compliance Matrix: (Units=1/GPa)
#
#
# Indices 1 2 3 4 5 6 
#
# 1 0.008868 -0.004007 -0.004946 0.000000 0.000000 0.000000
# 2 -0.004007 0.011350 -0.007889 0.000000 0.000000 0.000000
# 3 -0.004946 -0.007889 0.086387 0.000000 0.000000 0.000000
# 4 0.000000 0.000000 0.000000 0.016974 0.000000 0.000000
# 5 0.000000 0.000000 0.000000 0.000000 0.053324 0.000000
# 6 0.000000 0.000000 0.000000 0.000000 0.000000 0.040439
#
#
# Mechanical properties :
#
#
# Convention : Reuss Voigt Hill
#
# Bulk Modulus (GPa) = 13.71320 51.71102 32.71211
# Shear Modulus (GPa) = 18.15982 33.25664 25.70823
#
# Velocity S-wave (km/s) = 3.00852 4.07132 3.57958
# Velocity P-wave (km/s) = 4.34777 6.91914 5.77831
#
# Compressibility (1/GPa) = 0.07292245
#
# Stress axis : x y z
#
# Youngs Moduli (GPa) = 112.75948 88.10560 11.57580
#
# Poissons Ratio (x) = 0.35301 0.05726
# Poissons Ratio (y) = 0.45178 0.09132
# Poissons Ratio (z) = 0.55775 0.69502
#
# Static dielectric constant tensor:
#      x y z
#    x 1.691040 0.000000 0.000000 
#    y 0.000000 1.819390 0.000000 
#    z 0.000000 0.000000 1.706180 
# 
# From -- ./inp_files/10990.got.cif
#   From: 2010.05.17/outbox.cif.g08.bks.cpg/sg51_6_cif.got.tgz:10990.got - 2010.06.03 11:52:47.
