data_PCOD9404261
_publ_section_title
;
Structure prediction by ZEFSAII (Michael W. Deem and Ramdas Pophale) SiO2 
 PCOD9404261
Probable space group: P M M A
;
_chemical_formula_sum "Si O2"
_cell_formula_units_Z 56
_cell_length_a 15.802503
_cell_length_b 8.319297
_cell_length_c 20.899664
_cell_angle_alpha 90.000000
_cell_angle_beta 90.000000
_cell_angle_gamma 90.000000
_cell_volume 2747.589288
_symmetry_space_group_name_H-M "P M M A"
_symmetry_group_IT_number 51
_symmetry_cell_setting 'orthorhombic'
loop_
_space_group_symop_operation_xyz
x,y,z
1/2-x,-y,z
1/2+x,-y,-z
-x,y,-z
-x,-y,-z
1/2+x,y,-z
1/2-x,y,z
x,-y,z
loop_
_atom_site_type_symbol
_atom_site_label
_atom_site_fract_x
_atom_site_fract_y
_atom_site_fract_z
Si Si1 0.347672 0.806106 0.335341
Si Si2 0.603948 0.686310 0.063237
Si Si3 0.499615 0.196866 0.426319
Si Si4 0.851403 0.681921 0.803460
Si Si5 0.847032 0.192346 0.337918
Si Si6 0.080452 0.814738 0.067148
Si Si7 0.850962 0.682385 0.201127
O O1 0.250000 0.751127 0.345604
O O2 0.415100 0.752257 0.388366
O O3 0.377971 0.751439 0.265047
O O4 0.345961 0.000000 0.335785
O O5 0.630459 0.500000 0.060796
O O6 0.502652 0.704172 0.065750
O O7 0.631224 0.756900 0.131704
O O8 0.631603 0.770456 0.997323
O O9 0.500000 0.247857 0.500000
O O10 0.583691 0.251453 0.388536
O O11 0.500103 0.000000 0.425588
O O12 0.750000 0.677731 0.801154
O O13 0.883417 0.500000 0.811252
O O14 0.875755 0.782936 0.865528
O O15 0.750000 0.253407 0.346673
O O16 0.878193 0.231192 0.265957
O O17 0.842886 0.000000 0.343855
O O18 0.054577 0.000000 0.062966
O O19 0.750000 0.673732 0.205629
O O20 0.885610 0.500000 0.200959
#
# Coordination Sequence:
#
# PCOD9404261 Si02
#       7
#     8   8   8   8   8   8   8
#     4   9  18  33  53  79 109 141 179 226 274 321
#     4  10  20  35  53  75 105 142 184 224 267 323
#     4   9  18  32  52  81 111 140 177 218 266 324
#     4  10  21  37  56  77 103 138 179 224 275 330
#     4   9  18  32  51  77 108 140 177 221 267 316
#     4  11  22  35  52  76 107 141 178 224 275 323
#     4   9  19  35  54  76 102 135 175 219 267 316
#
# _framework density 20.381502999999999
#
# number of rings (size 3 to 8) (size 9 to 14) (size 15 to 20)
#    0.000    2.429    0.000    3.000    2.000    3.143 
#    0.000    4.286    0.000    1.714    0.000    4.000 
#    0.000    0.000    0.000    0.000    0.000    0.000 
#
# Total GULP energy -312242.852292 kJ/mol
# GULP energy per Si atom -5575.765219 kJ/mol
# Density = 2.033511 g / cm^3
# Si number density = 20.381503 Si / 1000 Ang^3
#
#
#
# Elastic Constant Matrix: (Units=GPa)
#
#
# Indices 1 2 3 4 5 6 
#
# 1 70.6194 11.1093 76.6962 0.0000 0.0000 0.0000
# 2 11.1093 20.9507 18.8529 0.0000 0.0000 0.0000
# 3 76.6962 18.8529 216.8600 0.0000 0.0000 0.0000
# 4 0.0000 0.0000 0.0000 111.7803 0.0000 0.0000
# 5 0.0000 0.0000 0.0000 0.0000 62.3574 0.0000
# 6 0.0000 0.0000 0.0000 0.0000 0.0000 6.4470
#
#
#
# Elastic Compliance Matrix: (Units=1/GPa)
#
#
# Indices 1 2 3 4 5 6 
#
# 1 0.023544 -0.005415 -0.007856 0.000000 0.000000 0.000000
# 2 -0.005415 0.053027 -0.002695 0.000000 0.000000 0.000000
# 3 -0.007856 -0.002695 0.007624 0.000000 0.000000 0.000000
# 4 0.000000 0.000000 0.000000 0.008946 0.000000 0.000000
# 5 0.000000 0.000000 0.000000 0.000000 0.016037 0.000000
# 6 0.000000 0.000000 0.000000 0.000000 0.000000 0.155111
#
#
# Mechanical properties :
#
#
# Convention : Reuss Voigt Hill
#
# Bulk Modulus (GPa) = 19.13374 57.97188 38.55281
# Shear Modulus (GPa) = 15.94168 49.56838 32.75503
#
# Velocity S-wave (km/s) = 2.79975 4.93691 4.01321
# Velocity P-wave (km/s) = 4.45642 7.81041 6.35855
#
# Compressibility (1/GPa) = 0.05226369
#
# Stress axis : x y z
#
# Youngs Moduli (GPa) = 42.47292 18.85815 131.16484
#
# Poissons Ratio (x) = 0.10212 1.03045
# Poissons Ratio (y) = 0.23000 0.35347
# Poissons Ratio (z) = 0.33367 0.05082
#
# Static dielectric constant tensor:
#      x y z
#    x 1.747040 0.000000 0.000000 
#    y 0.000000 1.725460 0.000000 
#    z 0.000000 0.000000 1.737820 
# 
# From -- ./inp_files/33327.got.cif
#   From: 2010.05.17/outbox.cif.g08.bks.cpg/sg51_17_cif.got.tgz:33327.got - 2010.06.03 11:52:47.
