data_PCOD9404350
_publ_section_title
;
Structure prediction by ZEFSAII (Michael W. Deem and Ramdas Pophale) SiO2 
 PCOD9404350
Probable space group: P M M A
;
_chemical_formula_sum "Si O2"
_cell_formula_units_Z 48
_cell_length_a 14.567467
_cell_length_b 8.585263
_cell_length_c 21.781123
_cell_angle_alpha 90.000000
_cell_angle_beta 90.000000
_cell_angle_gamma 90.000000
_cell_volume 2724.067810
_symmetry_space_group_name_H-M "P M M A"
_symmetry_group_IT_number 51
_symmetry_cell_setting 'orthorhombic'
loop_
_space_group_symop_operation_xyz
x,y,z
1/2-x,-y,z
1/2+x,-y,-z
-x,y,-z
-x,-y,-z
1/2+x,y,-z
1/2-x,y,z
x,-y,z
loop_
_atom_site_type_symbol
_atom_site_label
_atom_site_fract_x
_atom_site_fract_y
_atom_site_fract_z
Si Si1 0.495588 0.688603 0.070742
Si Si2 0.996256 0.686887 0.732459
Si Si3 0.856533 0.186722 0.831416
Si Si4 0.143571 0.687132 0.502715
Si Si5 0.003977 0.814550 0.404570
Si Si6 0.645759 0.689409 0.168918
O O1 0.489615 0.500000 0.072818
O O2 0.409579 0.756329 0.107859
O O3 0.586094 0.735167 0.109436
O O4 0.500000 0.736954 0.000000
O O5 0.996210 0.500000 0.727587
O O6 0.910533 0.739897 0.773955
O O7 0.994415 0.759796 0.665394
O O8 0.086535 0.735121 0.771464
O O9 0.750000 0.232221 0.832174
O O10 0.862529 0.000000 0.827391
O O11 0.250000 0.734299 0.503590
O O12 0.138739 0.500000 0.503836
O O13 0.090219 0.747261 0.442624
O O14 0.086213 0.752041 0.560274
O O15 0.005781 0.000000 0.408533
O O16 0.750000 0.746681 0.168776
O O17 0.648569 0.500000 0.168890
#
# Coordination Sequence:
#
# PCOD9404350 Si02
#       6
#     8   8   8   8   8   8
#     4   9  18  32  52  78 105 136 174 215 260 312
#     4  10  20  35  55  77 103 137 178 220 263 314
#     4  10  21  36  53  75 105 140 177 219 268 317
#     4  10  21  38  59  81 107 141 181 221 259 307
#     4  11  22  36  56  81 111 142 173 217 270 321
#     4   8  15  29  49  73 100 130 167 212 257 301
#
# _framework density 17.620705999999998
#
# number of rings (size 3 to 8) (size 9 to 14) (size 15 to 20)
#    0.000    2.333    0.000    5.000    0.000    5.000 
#    0.000    3.333    0.000   12.000    0.000    0.000 
#    0.000    0.000    0.000    0.000    0.000    0.000 
#
# Total GULP energy -267870.599417 kJ/mol
# GULP energy per Si atom -5580.637488 kJ/mol
# Density = 1.758060 g / cm^3
# Si number density = 17.620706 Si / 1000 Ang^3
#
#
#
# Elastic Constant Matrix: (Units=GPa)
#
#
# Indices 1 2 3 4 5 6 
#
# 1 180.4121 40.8604 85.1728 0.0000 0.0000 0.0000
# 2 40.8604 53.8797 35.6677 0.0000 0.0000 0.0000
# 3 85.1728 35.6677 167.9681 0.0000 0.0000 0.0000
# 4 0.0000 0.0000 0.0000 -1.8291 0.0000 0.0000
# 5 0.0000 0.0000 0.0000 0.0000 4.3524 0.0000
# 6 0.0000 0.0000 0.0000 0.0000 0.0000 -31.3066
#
#
#
# Elastic Compliance Matrix: (Units=1/GPa)
#
#
# Indices 1 2 3 4 5 6 
#
# 1 0.007935 -0.003903 -0.003195 0.000000 0.000000 0.000000
# 2 -0.003903 0.023515 -0.003014 0.000000 0.000000 0.000000
# 3 -0.003195 -0.003014 0.008214 0.000000 0.000000 0.000000
# 4 0.000000 0.000000 0.000000 -0.546723 0.000000 0.000000
# 5 0.000000 0.000000 0.000000 0.000000 0.229756 0.000000
# 6 0.000000 0.000000 0.000000 0.000000 0.000000 -0.031942
#
#
# Mechanical properties :
#
#
# Convention : Reuss Voigt Hill
#
# Bulk Modulus (GPa) = 51.44110 80.62908 66.03509
# Shear Modulus (GPa) = -17.69654 10.28062 -3.70796
#
# Velocity S-wave (km/s) = -3.17251 2.41807 -1.45220
# Velocity P-wave (km/s) = 3.97959 7.32486 5.89452
#
# Compressibility (1/GPa) = 0.01943971
#
# Stress axis : x y z
#
# Youngs Moduli (GPa) = 126.02210 42.52605 121.74740
#
# Poissons Ratio (x) = 0.16596 0.38898
# Poissons Ratio (y) = 0.49182 0.36700
# Poissons Ratio (z) = 0.40264 0.12819
#
# Static dielectric constant tensor:
#      x y z
#    x 1.589820 0.000000 0.000000 
#    y 0.000000 1.594360 0.000000 
#    z 0.000000 0.000000 1.572750 
# 
# From -- ./inp_files/33202.got.cif
#   From: 2010.05.17/outbox.cif.g08.bks.cpg/sg51_17_cif.got.tgz:33202.got - 2010.06.03 11:52:47.
