data_PCOD9404527
_publ_section_title
;
Structure prediction by ZEFSAII (Michael W. Deem and Ramdas Pophale) SiO2 
 PCOD9404527
Probable space group: P M M A
;
_chemical_formula_sum "Si O2"
_cell_formula_units_Z 64
_cell_length_a 32.256678
_cell_length_b 7.540591
_cell_length_c 12.120358
_cell_angle_alpha 90.000000
_cell_angle_beta 90.000000
_cell_angle_gamma 90.000000
_cell_volume 2948.088198
_symmetry_space_group_name_H-M "P M M A"
_symmetry_group_IT_number 51
_symmetry_cell_setting 'orthorhombic'
loop_
_space_group_symop_operation_xyz
x,y,z
1/2-x,-y,z
1/2+x,-y,-z
-x,y,-z
-x,-y,-z
1/2+x,y,-z
1/2-x,y,z
x,-y,z
loop_
_atom_site_type_symbol
_atom_site_label
_atom_site_fract_x
_atom_site_fract_y
_atom_site_fract_z
Si Si1 0.204759 0.790667 0.011430
Si Si2 0.876385 0.217621 0.858211
Si Si3 0.794778 0.208430 0.479128
Si Si4 0.956322 0.710104 0.457506
Si Si5 0.123500 0.214296 0.396660
Si Si6 0.179492 0.287485 0.764409
Si Si7 0.416295 0.715591 0.767816
Si Si8 0.954050 0.793849 0.997157
O O1 0.250000 0.716014 0.042101
O O2 0.164210 0.720345 0.074492
O O3 0.205849 0.000000 0.036300
O O4 0.198625 0.771317 0.880142
O O5 0.874845 0.269914 0.730628
O O6 0.918708 0.280631 0.916441
O O7 0.876566 0.000000 0.863186
O O8 0.750000 0.284485 0.512576
O O9 0.836195 0.281605 0.536506
O O10 0.799230 0.223908 0.347349
O O11 0.793975 0.000000 0.506969
O O12 0.962363 0.500000 0.441101
O O13 0.918948 0.732498 0.543629
O O14 0.940914 0.779859 0.339560
O O15 0.000000 0.784280 0.500000
O O16 0.124265 0.000000 0.398737
O O17 0.180826 0.500000 0.762782
O O18 0.131577 0.229070 0.760688
O O19 0.416864 0.500000 0.770304
O O20 0.435837 0.782981 0.880355
O O21 0.958999 0.000000 0.963973
O O22 0.000000 0.713127 0.000000
#
# Coordination Sequence:
#
# PCOD9404527 Si02
#       8
#     8   8   8   8   8   8   8   8
#     4  10  20  35  57  82 109 145 184 222 272 331
#     4   9  19  36  54  78 111 141 176 223 270 318
#     4  10  21  36  55  81 111 144 182 224 275 331
#     4  10  22  40  59  81 112 147 183 226 276 330
#     4  10  21  37  58  82 110 143 184 232 273 322
#     4  11  21  35  56  82 113 145 181 227 275 323
#     4  10  21  37  57  82 111 144 182 224 271 325
#     4  10  21  36  57  83 111 144 180 223 274 324
#
# _framework density 21.708984000000001
#
# number of rings (size 3 to 8) (size 9 to 14) (size 15 to 20)
#    0.000    2.000    2.500    0.750    1.750    4.000 
#    0.000    3.750    0.000    0.000    0.000    1.750 
#    0.000    0.000    0.000    0.000    0.000    0.000 
#
# Total GULP energy -357574.533882 kJ/mol
# GULP energy per Si atom -5587.102092 kJ/mol
# Density = 2.165957 g / cm^3
# Si number density = 21.708984 Si / 1000 Ang^3
#
#
#
# Elastic Constant Matrix: (Units=GPa)
#
#
# Indices 1 2 3 4 5 6 
#
# 1 176.1928 -9.2764 42.0646 0.0000 0.0000 0.0000
# 2 -9.2764 49.0276 -24.7545 0.0000 0.0000 0.0000
# 3 42.0646 -24.7545 99.8166 0.0000 0.0000 0.0000
# 4 0.0000 0.0000 0.0000 23.8963 0.0000 0.0000
# 5 0.0000 0.0000 0.0000 0.0000 411.4948 0.0000
# 6 0.0000 0.0000 0.0000 0.0000 0.0000 11.0793
#
#
#
# Elastic Compliance Matrix: (Units=1/GPa)
#
#
# Indices 1 2 3 4 5 6 
#
# 1 0.006312 -0.000170 -0.002702 0.000000 0.000000 0.000000
# 2 -0.000170 0.023321 0.005855 0.000000 0.000000 0.000000
# 3 -0.002702 0.005855 0.012609 0.000000 0.000000 0.000000
# 4 0.000000 0.000000 0.000000 0.041847 0.000000 0.000000
# 5 0.000000 0.000000 0.000000 0.000000 0.002430 0.000000
# 6 0.000000 0.000000 0.000000 0.000000 0.000000 0.090259
#
#
# Mechanical properties :
#
#
# Convention : Reuss Voigt Hill
#
# Bulk Modulus (GPa) = 20.74342 37.90048 29.32195
# Shear Modulus (GPa) = 26.75495 110.42764 68.59130
#
# Velocity S-wave (km/s) = 3.51442 7.13987 5.62711
# Velocity P-wave (km/s) = 5.10335 9.24481 7.46695
#
# Compressibility (1/GPa) = 0.04820805
#
# Stress axis : x y z
#
# Youngs Moduli (GPa) = 158.43487 42.88003 79.30728
#
# Poissons Ratio (x) = 0.00729 0.21429
# Poissons Ratio (y) = 0.02694 -0.46436
# Poissons Ratio (z) = 0.42810 -0.25107
#
# Static dielectric constant tensor:
#      x y z
#    x 1.784390 0.000000 0.000000 
#    y 0.000000 1.811610 0.000000 
#    z 0.000000 0.000000 1.730080 
# 
# From -- ./inp_files/19450.got.cif
#   From: 2010.05.17/outbox.cif.g08.bks.cpg/sg51_10_cif.got.tgz:19450.got - 2010.06.03 11:52:47.
