data_PCOD9404435
_publ_section_title
;
Structure prediction by ZEFSAII (Michael W. Deem and Ramdas Pophale) SiO2 
 PCOD9404435
Probable space group: P M M A
;
_chemical_formula_sum "Si O2"
_cell_formula_units_Z 56
_cell_length_a 8.439604
_cell_length_b 24.631290
_cell_length_c 14.777663
_cell_angle_alpha 90.000000
_cell_angle_beta 90.000000
_cell_angle_gamma 90.000000
_cell_volume 3071.955959
_symmetry_space_group_name_H-M "P M M A"
_symmetry_group_IT_number 51
_symmetry_cell_setting 'orthorhombic'
loop_
_space_group_symop_operation_xyz
x,y,z
1/2-x,-y,z
1/2+x,-y,-z
-x,y,-z
-x,-y,-z
1/2+x,y,-z
1/2-x,y,z
x,-y,z
loop_
_atom_site_type_symbol
_atom_site_label
_atom_site_fract_x
_atom_site_fract_y
_atom_site_fract_z
Si Si1 0.559899 0.150191 0.397393
Si Si2 0.058955 0.643443 0.247484
Si Si3 0.059975 0.852136 0.897433
Si Si4 0.059560 0.232268 0.248152
Si Si5 0.939806 0.560305 0.102262
Si Si6 0.057005 0.061868 0.748163
Si Si7 0.941319 0.439220 0.601505
O O1 0.500000 0.150353 0.500000
O O2 0.750000 0.151401 0.398016
O O3 0.499617 0.200646 0.337305
O O4 0.508814 0.096943 0.339699
O O5 0.250000 0.645003 0.250949
O O6 0.003316 0.705470 0.247046
O O7 0.001146 0.608040 0.332673
O O8 0.008636 0.608751 0.161063
O O9 0.250000 0.851188 0.898302
O O10 0.008582 0.904428 0.837508
O O11 0.000604 0.800711 0.839361
O O12 0.000000 0.853021 0.000000
O O13 0.250000 0.231356 0.247801
O O14 0.750000 0.562456 0.103833
O O15 0.989831 0.500000 0.135993
O O16 0.000000 0.564701 0.000000
O O17 0.250000 0.060846 0.748182
O O18 0.000447 0.000000 0.747137
O O19 0.750000 0.438762 0.602031
O O20 0.992796 0.500000 0.630388
O O21 0.000000 0.430851 0.500000
#
# Coordination Sequence:
#
# PCOD9404435 Si02
#       7
#     8   8   8   8   8   8   8
#     4  10  20  35  56  79 107 144 180 217 264 313
#     4  10  21  36  55  78 103 135 173 217 267 313
#     4  10  20  35  56  79 106 142 178 214 262 314
#     4  10  21  37  55  77 105 136 178 226 268 314
#     4  10  21  36  55  79 106 137 172 212 260 315
#     4   8  16  32  53  79 110 140 174 217 261 309
#     4   9  18  33  52  74 101 131 163 202 250 304
#
# _framework density 18.229427999999999
#
# number of rings (size 3 to 8) (size 9 to 14) (size 15 to 20)
#    0.000    2.429    0.000    3.000    0.000    4.857 
#    0.000    2.857    0.000   14.571    0.000    0.000 
#    0.000    0.000    0.000    0.000    0.000    0.000 
#
# Total GULP energy -312431.253329 kJ/mol
# GULP energy per Si atom -5579.129524 kJ/mol
# Density = 1.818794 g / cm^3
# Si number density = 18.229428 Si / 1000 Ang^3
#
#
#
# Elastic Constant Matrix: (Units=GPa)
#
#
# Indices 1 2 3 4 5 6 
#
# 1 27.1127 30.2288 24.1385 0.0000 0.0000 0.0000
# 2 30.2288 207.4145 108.2685 0.0000 0.0000 0.0000
# 3 24.1385 108.2685 166.5739 0.0000 0.0000 0.0000
# 4 0.0000 0.0000 0.0000 13.8391 0.0000 0.0000
# 5 0.0000 0.0000 0.0000 0.0000 28.6927 0.0000
# 6 0.0000 0.0000 0.0000 0.0000 0.0000 29.5897
#
#
#
# Elastic Compliance Matrix: (Units=1/GPa)
#
#
# Indices 1 2 3 4 5 6 
#
# 1 0.045306 -0.004807 -0.003441 0.000000 0.000000 0.000000
# 2 -0.004807 0.007807 -0.004378 0.000000 0.000000 0.000000
# 3 -0.003441 -0.004378 0.009347 0.000000 0.000000 0.000000
# 4 0.000000 0.000000 0.000000 0.072259 0.000000 0.000000
# 5 0.000000 0.000000 0.000000 0.000000 0.034852 0.000000
# 6 0.000000 0.000000 0.000000 0.000000 0.000000 0.033796
#
#
# Mechanical properties :
#
#
# Convention : Reuss Voigt Hill
#
# Bulk Modulus (GPa) = 26.87515 80.70808 53.79161
# Shear Modulus (GPa) = 20.74508 30.32198 25.53353
#
# Velocity S-wave (km/s) = 3.37708 4.08285 3.74662
# Velocity P-wave (km/s) = 5.47549 8.16063 6.94899
#
# Compressibility (1/GPa) = 0.03720910
#
# Stress axis : x y z
#
# Youngs Moduli (GPa) = 22.07218 128.09107 106.98132
#
# Poissons Ratio (x) = 0.61569 0.36814
# Poissons Ratio (y) = 0.10609 0.46834
# Poissons Ratio (z) = 0.07595 0.56075
#
# Static dielectric constant tensor:
#      x y z
#    x 1.622930 0.000000 0.000000 
#    y 0.000000 1.630110 0.000000 
#    z 0.000000 0.000000 1.585720 
# 
# From -- ./inp_files/21730.got.cif
#   From: 2010.05.17/outbox.cif.g08.bks.cpg/sg51_11_cif.got.tgz:21730.got - 2010.06.03 11:52:47.
