data_PCOD9404772
_publ_section_title
;
Structure prediction by ZEFSAII (Michael W. Deem and Ramdas Pophale) SiO2 
 PCOD9404772
Probable space group: P M M A
;
_chemical_formula_sum "Si O2"
_cell_formula_units_Z 32
_cell_length_a 13.898201
_cell_length_b 11.136731
_cell_length_c 8.607765
_cell_angle_alpha 90.000000
_cell_angle_beta 90.000000
_cell_angle_gamma 90.000000
_cell_volume 1332.314394
_symmetry_space_group_name_H-M "P M M A"
_symmetry_group_IT_number 51
_symmetry_cell_setting 'orthorhombic'
loop_
_space_group_symop_operation_xyz
x,y,z
1/2-x,-y,z
1/2+x,-y,-z
-x,y,-z
-x,-y,-z
1/2+x,y,-z
1/2-x,y,z
x,-y,z
loop_
_atom_site_type_symbol
_atom_site_label
_atom_site_fract_x
_atom_site_fract_y
_atom_site_fract_z
Si Si1 0.867549 0.250643 0.227355
Si Si2 0.893494 0.500000 0.573442
Si Si3 0.633305 0.139777 0.895442
Si Si4 0.643029 0.226480 0.561560
Si Si5 0.973606 0.500000 0.175765
O O1 0.750000 0.255510 0.230955
O O2 0.898540 0.190456 0.392587
O O3 0.912707 0.383086 0.220140
O O4 0.897169 0.188776 0.064792
O O5 0.849542 0.628920 0.542318
O O6 0.000000 0.500000 0.500000
O O7 0.920088 0.500000 0.752392
O O8 0.750000 0.153031 0.898072
O O9 0.600389 0.201000 0.732859
O O10 0.609380 0.000000 0.885147
O O11 0.750000 0.172357 0.567116
O O12 0.000000 0.500000 0.000000
#
# Coordination Sequence:
#
# PCOD9404772 Si02
#       5
#     8   4   8   8   4
#     4  10  20  36  57  82 113 146 183 227 276 332
#     4  12  21  35  55  83 115 143 178 230 275 330
#     4   9  19  35  56  84 112 141 187 238 275 319
#     4  10  20  36  59  84 113 149 184 226 281 332
#     4  12  23  35  55  85 113 150 182 225 281 337
#
# _framework density 24.018356000000001
#
# number of rings (size 3 to 8) (size 9 to 14) (size 15 to 20)
#    0.000    1.750    2.500    2.250    0.000    3.000 
#    0.000   10.000    0.000    7.500    0.000    0.000 
#    0.000    0.000    0.000    0.000    0.000    0.000 
#
# Total GULP energy -178519.874439 kJ/mol
# GULP energy per Si atom -5578.746076 kJ/mol
# Density = 2.396369 g / cm^3
# Si number density = 24.018356 Si / 1000 Ang^3
#
#
#
# Elastic Constant Matrix: (Units=GPa)
#
#
# Indices 1 2 3 4 5 6 
#
# 1 57.9347 2.2695 30.9024 0.0000 0.0000 0.0000
# 2 2.2695 90.3108 66.4261 0.0000 0.0000 0.0000
# 3 30.9024 66.4261 295.5115 0.0000 0.0000 0.0000
# 4 0.0000 0.0000 0.0000 -0.0102 0.0000 0.0000
# 5 0.0000 0.0000 0.0000 0.0000 28.2077 0.0000
# 6 0.0000 0.0000 0.0000 0.0000 0.0000 -26.6457
#
#
#
# Elastic Compliance Matrix: (Units=1/GPa)
#
#
# Indices 1 2 3 4 5 6 
#
# 1 0.018378 0.001140 -0.002178 0.000000 0.000000 0.000000
# 2 0.001140 0.013337 -0.003117 0.000000 0.000000 0.000000
# 3 -0.002178 -0.003117 0.004312 0.000000 0.000000 0.000000
# 4 0.000000 0.000000 0.000000-98.056841 0.000000 0.000000
# 5 0.000000 0.000000 0.000000 0.000000 0.035451 0.000000
# 6 0.000000 0.000000 0.000000 0.000000 0.000000 -0.037530
#
#
# Mechanical properties :
#
#
# Convention : Reuss Voigt Hill
#
# Bulk Modulus (GPa) = 36.07863 71.43923 53.75893
# Shear Modulus (GPa) = -0.05102 23.25429 11.60163
#
# Velocity S-wave (km/s) = -0.14590 3.11495 2.20018
# Velocity P-wave (km/s) = 3.87627 6.53799 5.37452
#
# Compressibility (1/GPa) = 0.02771724
#
# Stress axis : x y z
#
# Youngs Moduli (GPa) = 54.41302 74.97948 231.88803
#
# Poissons Ratio (x) = -0.08550 0.50509
# Poissons Ratio (y) = -0.06204 0.72283
# Poissons Ratio (z) = 0.11852 0.23372
#
# Static dielectric constant tensor:
#      x y z
#    x 1.959110 0.000000 0.000000 
#    y 0.000000 1.846890 0.000000 
#    z 0.000000 0.000000 2.131200 
# 
# From -- ./inp_files/9209.got.cif
#   From: 2010.05.17/outbox.cif.g08.bks.cpg/sg51_5_cif.got.tgz:9209.got - 2010.06.03 11:52:47.
