data_PCOD9404743
_publ_section_title
;
Structure prediction by ZEFSAII (Michael W. Deem and Ramdas Pophale) SiO2 
 PCOD9404743
Probable space group: P M M A
;
_chemical_formula_sum "Si O2"
_cell_formula_units_Z 64
_cell_length_a 17.615088
_cell_length_b 7.607649
_cell_length_c 22.220626
_cell_angle_alpha 90.000000
_cell_angle_beta 90.000000
_cell_angle_gamma 90.000000
_cell_volume 2977.772905
_symmetry_space_group_name_H-M "P M M A"
_symmetry_group_IT_number 51
_symmetry_cell_setting 'orthorhombic'
loop_
_space_group_symop_operation_xyz
x,y,z
1/2-x,-y,z
1/2+x,-y,-z
-x,y,-z
-x,-y,-z
1/2+x,y,-z
1/2-x,y,z
x,-y,z
loop_
_atom_site_type_symbol
_atom_site_label
_atom_site_fract_x
_atom_site_fract_y
_atom_site_fract_z
Si Si1 0.833466 0.786652 0.491861
Si Si2 0.949288 0.212221 0.191147
Si Si3 0.334926 0.291271 0.710732
Si Si4 0.392175 0.786871 0.247605
Si Si5 0.992277 0.202909 0.933942
Si Si6 0.377991 0.201435 0.379225
Si Si7 0.449929 0.294284 0.610120
Si Si8 0.667193 0.292561 0.881278
O O1 0.750000 0.735709 0.467923
O O2 0.842127 0.721807 0.560426
O O3 0.902411 0.722234 0.451143
O O4 0.837238 0.000000 0.492218
O O5 0.872767 0.264485 0.224368
O O6 0.021786 0.270949 0.231218
O O7 0.962346 0.279210 0.123267
O O8 0.952901 0.000000 0.189207
O O9 0.250000 0.218888 0.706095
O O10 0.330603 0.500000 0.699416
O O11 0.394129 0.219991 0.661642
O O12 0.366241 0.720676 0.312804
O O13 0.342944 0.733527 0.190312
O O14 0.392956 0.000000 0.250178
O O15 0.904698 0.206390 0.913231
O O16 0.017746 0.000000 0.939223
O O17 0.000000 0.284321 0.000000
O O18 0.468829 0.202912 0.389807
O O19 0.350655 0.000000 0.376203
O O20 0.465139 0.500000 0.621744
O O21 0.750000 0.225957 0.899697
O O22 0.663180 0.500000 0.893742
#
# Coordination Sequence:
#
# PCOD9404743 Si02
#       8
#     8   8   8   8   8   8   8   8
#     4  10  22  38  54  74 102 138 179 225 276 325
#     4   9  17  32  54  80 105 131 170 216 262 311
#     4  10  21  35  51  74 104 139 176 215 264 319
#     4   9  18  33  55  80 106 138 177 221 270 322
#     4   9  19  37  60  84 110 144 186 228 267 314
#     4  10  20  36  57  80 105 135 177 226 272 327
#     4  11  22  36  55  77 104 139 179 222 270 326
#     4  10  21  35  53  82 118 150 184 225 267 317
#
# _framework density 21.492571999999999
#
# number of rings (size 3 to 8) (size 9 to 14) (size 15 to 20)
#    0.000    2.250    1.250    2.250    0.000    7.750 
#    0.000    1.875    0.000    3.750    0.000    0.000 
#    0.000    0.000    0.000    0.000    0.000    0.000 
#
# Total GULP energy -357359.364539 kJ/mol
# GULP energy per Si atom -5583.740071 kJ/mol
# Density = 2.144365 g / cm^3
# Si number density = 21.492572 Si / 1000 Ang^3
#
#
#
# Elastic Constant Matrix: (Units=GPa)
#
#
# Indices 1 2 3 4 5 6 
#
# 1 70.6456 -9.3258 8.8636 0.0000 0.0000 0.0000
# 2 -9.3258 51.0478 -7.2292 0.0000 0.0000 0.0000
# 3 8.8636 -7.2292 115.1199 0.0000 0.0000 0.0000
# 4 0.0000 0.0000 0.0000 24.8203 0.0000 0.0000
# 5 0.0000 0.0000 0.0000 0.0000 11.1392 0.0000
# 6 0.0000 0.0000 0.0000 0.0000 0.0000 9.6333
#
#
#
# Elastic Compliance Matrix: (Units=1/GPa)
#
#
# Indices 1 2 3 4 5 6 
#
# 1 0.014611 0.002532 -0.000966 0.000000 0.000000 0.000000
# 2 0.002532 0.020204 0.001074 0.000000 0.000000 0.000000
# 3 -0.000966 0.001074 0.008828 0.000000 0.000000 0.000000
# 4 0.000000 0.000000 0.000000 0.040290 0.000000 0.000000
# 5 0.000000 0.000000 0.000000 0.000000 0.089773 0.000000
# 6 0.000000 0.000000 0.000000 0.000000 0.000000 0.103806
#
#
# Mechanical properties :
#
#
# Convention : Reuss Voigt Hill
#
# Bulk Modulus (GPa) = 20.43997 24.60340 22.52169
# Shear Modulus (GPa) = 17.32863 25.41888 21.37375
#
# Velocity S-wave (km/s) = 2.84255 3.44275 3.15695
# Velocity P-wave (km/s) = 4.50604 5.22260 4.87750
#
# Compressibility (1/GPa) = 0.04892374
#
# Stress axis : x y z
#
# Youngs Moduli (GPa) = 68.44327 49.49473 113.27090
#
# Poissons Ratio (x) = -0.12534 0.10941
# Poissons Ratio (y) = -0.17333 -0.12163
# Poissons Ratio (z) = 0.06611 -0.05315
#
# Static dielectric constant tensor:
#      x y z
#    x 1.758050 0.000000 0.000000 
#    y 0.000000 1.810800 0.000000 
#    z 0.000000 0.000000 1.800990 
# 
# From -- ./inp_files/33959.got.cif
#   From: 2010.05.17/outbox.cif.g08.bks.cpg/sg51_17_cif.got.tgz:33959.got - 2010.06.03 11:52:47.
