data_PCOD9404935
_publ_section_title
;
Structure prediction by ZEFSAII (Michael W. Deem and Ramdas Pophale) SiO2 
 PCOD9404935
Probable space group: P M M A
;
_chemical_formula_sum "Si O2"
_cell_formula_units_Z 48
_cell_length_a 8.757388
_cell_length_b 10.070159
_cell_length_c 29.589284
_cell_angle_alpha 90.000000
_cell_angle_beta 90.000000
_cell_angle_gamma 90.000000
_cell_volume 2609.428346
_symmetry_space_group_name_H-M "P M M A"
_symmetry_group_IT_number 51
_symmetry_cell_setting 'orthorhombic'
loop_
_space_group_symop_operation_xyz
x,y,z
1/2-x,-y,z
1/2+x,-y,-z
-x,y,-z
-x,-y,-z
1/2+x,y,-z
1/2-x,y,z
x,-y,z
loop_
_atom_site_type_symbol
_atom_site_label
_atom_site_fract_x
_atom_site_fract_y
_atom_site_fract_z
Si Si1 0.933371 0.242014 0.106781
Si Si2 0.069495 0.157375 0.198854
Si Si3 0.066813 0.154204 0.702346
Si Si4 0.567803 0.000000 0.949757
Si Si5 0.566675 0.151803 0.449662
Si Si6 0.933553 0.344039 0.625759
Si Si7 0.067325 0.500000 0.950016
O O1 0.750000 0.228063 0.107829
O O2 0.975793 0.373332 0.079524
O O3 0.996430 0.236758 0.157554
O O4 0.007508 0.124608 0.078191
O O5 0.250000 0.183384 0.202482
O O6 0.989036 0.181632 0.246737
O O7 0.049824 0.000000 0.188646
O O8 0.250000 0.161680 0.699596
O O9 0.994273 0.260476 0.668530
O O10 0.022908 0.000000 0.691613
O O11 0.750000 0.000000 0.951984
O O12 0.500000 0.000000 0.000000
O O13 0.500000 0.165617 0.500000
O O14 0.750000 0.163030 0.450565
O O15 0.498008 0.263447 0.417198
O O16 0.529862 0.000000 0.434096
O O17 0.750000 0.339843 0.625076
O O18 0.979751 0.500000 0.626415
O O19 0.250000 0.500000 0.954792
O O20 0.000000 0.500000 0.000000
#
# Coordination Sequence:
#
# PCOD9404935 Si02
#       7
#     8   8   8   4   8   8   4
#     4  11  22  39  61  86 117 152 191 238 289 346
#     4  10  20  36  60  90 120 150 190 238 290 348
#     4  10  21  38  62  89 116 152 196 242 295 353
#     4  12  24  38  58  88 118 150 192 238 289 346
#     4  10  21  38  62  91 121 157 203 251 300 356
#     4  11  24  40  58  85 122 161 202 248 299 354
#     4  10  24  42  60  84 114 152 194 234 283 344
#
# _framework density 18.394833999999999
#
# number of rings (size 3 to 8) (size 9 to 14) (size 15 to 20)
#    0.000    1.500    0.833    4.250    0.000    9.000 
#    1.500    0.000    0.000    0.000    0.000    0.000 
#    0.000    0.000    0.000    0.000    0.000    0.000 
#
# Total GULP energy -268222.962136 kJ/mol
# GULP energy per Si atom -5587.978378 kJ/mol
# Density = 1.835297 g / cm^3
# Si number density = 18.394834 Si / 1000 Ang^3
#
#
#
# Elastic Constant Matrix: (Units=GPa)
#
#
# Indices 1 2 3 4 5 6 
#
# 1 78.7663 70.0726 53.4206 0.0000 0.0000 0.0000
# 2 70.0726 175.2834 105.4395 0.0000 0.0000 0.0000
# 3 53.4206 105.4395 149.5927 0.0000 0.0000 0.0000
# 4 0.0000 0.0000 0.0000 34.7218 0.0000 0.0000
# 5 0.0000 0.0000 0.0000 0.0000 41.2519 0.0000
# 6 0.0000 0.0000 0.0000 0.0000 0.0000 38.8636
#
#
#
# Elastic Compliance Matrix: (Units=1/GPa)
#
#
# Indices 1 2 3 4 5 6 
#
# 1 0.020292 -0.006516 -0.002654 0.000000 0.000000 0.000000
# 2 -0.006516 0.011997 -0.006129 0.000000 0.000000 0.000000
# 3 -0.002654 -0.006129 0.011952 0.000000 0.000000 0.000000
# 4 0.000000 0.000000 0.000000 0.028800 0.000000 0.000000
# 5 0.000000 0.000000 0.000000 0.000000 0.024241 0.000000
# 6 0.000000 0.000000 0.000000 0.000000 0.000000 0.025731
#
#
# Mechanical properties :
#
#
# Convention : Reuss Voigt Hill
#
# Bulk Modulus (GPa) = 73.29127 95.72310 84.50718
# Shear Modulus (GPa) = 31.61369 34.61478 33.11423
#
# Velocity S-wave (km/s) = 4.15012 4.34264 4.24747
# Velocity P-wave (km/s) = 7.93061 8.79180 8.37228
#
# Compressibility (1/GPa) = 0.01364419
#
# Stress axis : x y z
#
# Youngs Moduli (GPa) = 49.27971 83.35697 83.66469
#
# Poissons Ratio (x) = 0.54313 0.22204
# Poissons Ratio (y) = 0.32110 0.51277
# Poissons Ratio (z) = 0.13079 0.51089
#
# Static dielectric constant tensor:
#      x y z
#    x 1.613720 0.000000 0.000000 
#    y 0.000000 1.593500 0.000000 
#    z 0.000000 0.000000 1.611550 
# 
# From -- ./inp_files/37198.got.cif
#   From: 2010.05.17/outbox.cif.g08.bks.cpg/sg51_19_cif.got.tgz:37198.got - 2010.06.03 11:52:47.
