data_PCOD9404482
_publ_section_title
;
Structure prediction by ZEFSAII (Michael W. Deem and Ramdas Pophale) SiO2 
 PCOD9404482
Probable space group: P M M A
;
_chemical_formula_sum "Si O2"
_cell_formula_units_Z 64
_cell_length_a 23.516537
_cell_length_b 8.893271
_cell_length_c 16.301182
_cell_angle_alpha 90.000000
_cell_angle_beta 90.000000
_cell_angle_gamma 90.000000
_cell_volume 3409.211868
_symmetry_space_group_name_H-M "P M M A"
_symmetry_group_IT_number 51
_symmetry_cell_setting 'orthorhombic'
loop_
_space_group_symop_operation_xyz
x,y,z
1/2-x,-y,z
1/2+x,-y,-z
-x,y,-z
-x,-y,-z
1/2+x,y,-z
1/2-x,y,z
x,-y,z
loop_
_atom_site_type_symbol
_atom_site_label
_atom_site_fract_x
_atom_site_fract_y
_atom_site_fract_z
Si Si1 0.316571 0.828215 0.664764
Si Si2 0.965430 0.818094 0.119312
Si Si3 0.317124 0.170093 0.469977
Si Si4 0.497141 0.179462 0.404477
Si Si5 0.588875 0.181756 0.949838
Si Si6 0.683036 0.817553 0.821723
Si Si7 0.884471 0.323405 0.667895
Si Si8 0.579802 0.325515 0.284030
O O1 0.250000 0.816579 0.682307
O O2 0.323540 0.805993 0.566880
O O3 0.353666 0.710606 0.713817
O O4 0.334733 0.000000 0.683637
O O5 0.946807 0.739082 0.201648
O O6 0.030857 0.778583 0.098466
O O7 0.962776 0.000000 0.127214
O O8 0.924647 0.772054 0.043289
O O9 0.250000 0.172558 0.451810
O O10 0.348618 0.289070 0.414224
O O11 0.338457 0.000000 0.451030
O O12 0.500000 0.225860 0.500000
O O13 0.445421 0.250894 0.352927
O O14 0.553659 0.233666 0.359662
O O15 0.491962 0.000000 0.401879
O O16 0.645377 0.230351 0.901223
O O17 0.590854 0.000000 0.951576
O O18 0.750000 0.773358 0.823959
O O19 0.649736 0.753007 0.742768
O O20 0.681690 0.000000 0.817108
O O21 0.890327 0.500000 0.683203
O O22 0.567533 0.500000 0.293569
#
# Coordination Sequence:
#
# PCOD9404482 Si02
#       8
#     8   8   8   8   8   8   8   8
#     4   9  19  37  59  79 101 137 185 229 267 311
#     4   9  17  34  60  83 107 142 184 229 275 329
#     4   9  18  34  55  76 100 137 187 234 271 314
#     4  11  24  41  60  80 107 148 194 237 282 331
#     4   8  16  33  58  84 104 133 185 238 277 320
#     4  10  20  35  56  81 112 151 194 239 286 340
#     4  12  24  35  51  79 114 148 184 228 280 338
#     4  12  24  36  54  84 118 146 176 217 271 332
#
# _framework density 18.772666000000001
#
# number of rings (size 3 to 8) (size 9 to 14) (size 15 to 20)
#    0.000    2.000    0.000    6.000    0.000    7.750 
#    0.000    3.750    0.000    2.250    0.000    0.000 
#    0.000    0.000    0.000    0.000    0.000    0.000 
#
# Total GULP energy -357255.235595 kJ/mol
# GULP energy per Si atom -5582.113056 kJ/mol
# Density = 1.872994 g / cm^3
# Si number density = 18.772666 Si / 1000 Ang^3
#
#
#
# Elastic Constant Matrix: (Units=GPa)
#
#
# Indices 1 2 3 4 5 6 
#
# 1 96.0670 29.5517 36.4245 0.0000 0.0000 0.0000
# 2 29.5517 35.2989 23.3807 0.0000 0.0000 0.0000
# 3 36.4245 23.3807 63.9913 0.0000 0.0000 0.0000
# 4 0.0000 0.0000 0.0000 -59.6214 0.0000 0.0000
# 5 0.0000 0.0000 0.0000 0.0000 29.7463 0.0000
# 6 0.0000 0.0000 0.0000 0.0000 0.0000 -2.6204
#
#
#
# Elastic Compliance Matrix: (Units=1/GPa)
#
#
# Indices 1 2 3 4 5 6 
#
# 1 0.015273 -0.009272 -0.005306 0.000000 0.000000 0.000000
# 2 -0.009272 0.043003 -0.010434 0.000000 0.000000 0.000000
# 3 -0.005306 -0.010434 0.022460 0.000000 0.000000 0.000000
# 4 0.000000 0.000000 0.000000 -0.016773 0.000000 0.000000
# 5 0.000000 0.000000 0.000000 0.000000 0.033618 0.000000
# 6 0.000000 0.000000 0.000000 0.000000 0.000000 -0.381617
#
#
# Mechanical properties :
#
#
# Convention : Reuss Voigt Hill
#
# Bulk Modulus (GPa) = 32.56124 41.56346 37.06235
# Shear Modulus (GPa) = -22.34407 0.56759 -10.88824
#
# Velocity S-wave (km/s) = -3.45374 0.55046 -2.41094
# Velocity P-wave (km/s) = 1.21585 4.75316 3.46921
#
# Compressibility (1/GPa) = 0.03071136
#
# Stress axis : x y z
#
# Youngs Moduli (GPa) = 65.47300 23.25397 44.52390
#
# Poissons Ratio (x) = 0.21562 0.23624
# Poissons Ratio (y) = 0.60708 0.46458
# Poissons Ratio (z) = 0.34740 0.24264
#
# Static dielectric constant tensor:
#      x y z
#    x 1.713890 0.000000 0.000000 
#    y 0.000000 1.636770 0.000000 
#    z 0.000000 0.000000 1.639700 
# 
# From -- ./inp_files/26205.got.cif
#   From: 2010.05.17/outbox.cif.g08.bks.cpg/sg51_14_cif.got.tgz:26205.got - 2010.06.03 11:52:47.
