data_PCOD9404675
_publ_section_title
;
Structure prediction by ZEFSAII (Michael W. Deem and Ramdas Pophale) SiO2 
 PCOD9404675
Probable space group: P M M A
;
_chemical_formula_sum "Si O2"
_cell_formula_units_Z 44
_cell_length_a 8.581751
_cell_length_b 29.666360
_cell_length_c 9.893122
_cell_angle_alpha 90.000000
_cell_angle_beta 90.000000
_cell_angle_gamma 90.000000
_cell_volume 2518.683149
_symmetry_space_group_name_H-M "P M M A"
_symmetry_group_IT_number 51
_symmetry_cell_setting 'orthorhombic'
loop_
_space_group_symop_operation_xyz
x,y,z
1/2-x,-y,z
1/2+x,-y,-z
-x,y,-z
-x,-y,-z
1/2+x,y,-z
1/2-x,y,z
x,-y,z
loop_
_atom_site_type_symbol
_atom_site_label
_atom_site_fract_x
_atom_site_fract_y
_atom_site_fract_z
Si Si1 0.562002 0.822489 0.850014
Si Si2 0.938703 0.098443 0.652781
Si Si3 0.435417 0.356835 0.652983
Si Si4 0.937204 0.280302 0.848964
Si Si5 0.562256 0.000000 0.653204
Si Si6 0.063096 0.549109 0.346156
O O1 0.750000 0.823785 0.853464
O O2 0.507002 0.860391 0.745545
O O3 0.516674 0.771230 0.812768
O O4 0.500000 0.831543 0.000000
O O5 0.750000 0.099534 0.648341
O O6 0.000000 0.102644 0.500000
O O7 0.986584 0.048877 0.709313
O O8 0.500000 0.352622 0.500000
O O9 0.250000 0.357065 0.646930
O O10 0.495638 0.316167 0.744483
O O11 0.493447 0.404944 0.712086
O O12 0.750000 0.283009 0.849611
O O13 0.000000 0.288949 0.000000
O O14 0.500000 0.000000 0.500000
O O15 0.750000 0.000000 0.651570
O O16 0.250000 0.552630 0.349128
O O17 0.021618 0.500000 0.285384
O O18 0.000000 0.548117 0.500000
#
# Coordination Sequence:
#
# PCOD9404675 Si02
#       6
#     8   8   8   8   4   8
#     4   9  19  34  51  70  95 126 161 199 241 290
#     4   9  17  30  48  72  97 125 160 198 240 285
#     4  11  21  33  51  76 104 133 166 207 249 290
#     4  10  20  36  54  72  96 129 167 205 248 301
#     4   8  14  26  45  66  94 126 156 192 235 284
#     4   9  16  27  45  70 100 132 164 200 243 290
#
# _framework density 17.469446000000001
#
# number of rings (size 3 to 8) (size 9 to 14) (size 15 to 20)
#    0.000    2.545    0.000    3.818    0.000    3.273 
#    0.000    2.273    0.000    0.545    0.000    0.000 
#    0.000    0.000    0.000    0.000    0.000    0.000 
#
# Total GULP energy -245130.257680 kJ/mol
# GULP energy per Si atom -5571.142220 kJ/mol
# Density = 1.742968 g / cm^3
# Si number density = 17.469446 Si / 1000 Ang^3
#
#
#
# Elastic Constant Matrix: (Units=GPa)
#
#
# Indices 1 2 3 4 5 6 
#
# 1 58.5294 50.6956 25.1030 0.0000 0.0000 0.0000
# 2 50.6956 204.2220 92.5311 0.0000 0.0000 0.0000
# 3 25.1030 92.5311 60.6943 0.0000 0.0000 0.0000
# 4 0.0000 0.0000 0.0000 -12.6087 0.0000 0.0000
# 5 0.0000 0.0000 0.0000 0.0000 24.3651 0.0000
# 6 0.0000 0.0000 0.0000 0.0000 0.0000 33.6016
#
#
#
# Elastic Compliance Matrix: (Units=1/GPa)
#
#
# Indices 1 2 3 4 5 6 
#
# 1 0.021881 -0.004305 -0.002487 0.000000 0.000000 0.000000
# 2 -0.004305 0.016681 -0.023651 0.000000 0.000000 0.000000
# 3 -0.002487 -0.023651 0.053561 0.000000 0.000000 0.000000
# 4 0.000000 0.000000 0.000000 -0.079310 0.000000 0.000000
# 5 0.000000 0.000000 0.000000 0.000000 0.041042 0.000000
# 6 0.000000 0.000000 0.000000 0.000000 0.000000 0.029760
#
#
# Mechanical properties :
#
#
# Convention : Reuss Voigt Hill
#
# Bulk Modulus (GPa) = 32.01217 73.34499 52.67858
# Shear Modulus (GPa) = 32.27622 19.41268 25.84445
#
# Velocity S-wave (km/s) = 4.30301 3.33714 3.85048
# Velocity P-wave (km/s) = 6.56143 7.54483 7.07025
#
# Compressibility (1/GPa) = 0.03123812
#
# Stress axis : x y z
#
# Youngs Moduli (GPa) = 45.70237 59.94791 18.67027
#
# Poissons Ratio (x) = 0.25806 0.04643
# Poissons Ratio (y) = 0.19674 0.44156
# Poissons Ratio (z) = 0.11366 1.41781
#
# Static dielectric constant tensor:
#      x y z
#    x 1.583720 0.000000 0.000000 
#    y 0.000000 1.653110 0.000000 
#    z 0.000000 0.000000 1.546990 
# 
# From -- ./inp_files/5758.got.cif
#   From: 2010.05.17/outbox.cif.g08.bks.cpg/sg51_3_cif.got.tgz:5758.got - 2010.06.03 11:52:47.
