data_PCOD9404346
_publ_section_title
;
Structure prediction by ZEFSAII (Michael W. Deem and Ramdas Pophale) SiO2 
 PCOD9404346
Probable space group: P M M A
;
_chemical_formula_sum "Si O2"
_cell_formula_units_Z 64
_cell_length_a 8.560648
_cell_length_b 20.367879
_cell_length_c 20.522346
_cell_angle_alpha 90.000000
_cell_angle_beta 90.000000
_cell_angle_gamma 90.000000
_cell_volume 3578.322272
_symmetry_space_group_name_H-M "P M M A"
_symmetry_group_IT_number 51
_symmetry_cell_setting 'orthorhombic'
loop_
_space_group_symop_operation_xyz
x,y,z
1/2-x,-y,z
1/2+x,-y,-z
-x,y,-z
-x,-y,-z
1/2+x,y,-z
1/2-x,y,z
x,-y,z
loop_
_atom_site_type_symbol
_atom_site_label
_atom_site_fract_x
_atom_site_fract_y
_atom_site_fract_z
Si Si1 0.064043 0.709195 0.931614
Si Si2 0.937001 0.251280 0.711882
Si Si3 0.563525 0.571946 0.886810
Si Si4 0.561218 0.429293 0.607182
Si Si5 0.062880 0.181814 0.828873
Si Si6 0.935854 0.607011 0.253205
Si Si7 0.937382 0.285342 0.567695
Si Si8 0.563645 0.077474 0.928767
O O1 0.250000 0.710804 0.932521
O O2 0.010252 0.755792 0.872904
O O3 0.009566 0.634706 0.921573
O O4 0.000000 0.734402 0.000000
O O5 0.750000 0.261172 0.715719
O O6 0.979844 0.248976 0.635178
O O7 0.987601 0.191603 0.757926
O O8 0.021840 0.316098 0.739788
O O9 0.750000 0.575683 0.892658
O O10 0.511015 0.500000 0.910492
O O11 0.515231 0.578949 0.811254
O O12 0.750000 0.427682 0.606560
O O13 0.509674 0.500000 0.579710
O O14 0.503494 0.425077 0.681522
O O15 0.505681 0.361337 0.574930
O O16 0.250000 0.183206 0.822925
O O17 0.011126 0.119172 0.870653
O O18 0.750000 0.598492 0.249135
O O19 0.750000 0.286619 0.564647
O O20 0.000000 0.257721 0.500000
O O21 0.750000 0.086304 0.928100
O O22 0.528552 0.000000 0.921257
O O23 0.500000 0.097755 0.000000
#
# Coordination Sequence:
#
# PCOD9404346 Si02
#       8
#     8   8   8   8   8   8   8   8
#     4  11  24  39  55  76 101 131 171 218 269 323
#     4  10  20  35  55  76 103 137 175 218 265 317
#     4  11  23  37  53  70  91 125 167 215 274 331
#     4   9  18  32  47  64  90 125 165 207 259 327
#     4  11  22  36  58  87 113 142 183 227 270 314
#     4  11  20  31  48  72  97 122 160 212 268 323
#     4   9  19  33  49  71  98 133 170 213 269 325
#     4  10  21  37  58  86 122 163 199 229 265 311
#
# _framework density 17.885476000000001
#
# number of rings (size 3 to 8) (size 9 to 14) (size 15 to 20)
#    0.000    1.750    1.250    4.500    0.000    9.000 
#    0.000    0.000    0.000    0.000    0.000    0.000 
#    0.000    0.500    0.000    1.625    0.000    2.000 
#
# Total GULP energy -357403.634002 kJ/mol
# GULP energy per Si atom -5584.431781 kJ/mol
# Density = 1.784477 g / cm^3
# Si number density = 17.885476 Si / 1000 Ang^3
#
#
#
# Elastic Constant Matrix: (Units=GPa)
#
#
# Indices 1 2 3 4 5 6 
#
# 1 19.8715 15.9102 18.0610 0.0000 0.0000 0.0000
# 2 15.9102 57.4773 37.5608 0.0000 0.0000 0.0000
# 3 18.0610 37.5608 123.1277 0.0000 0.0000 0.0000
# 4 0.0000 0.0000 0.0000 54.0680 0.0000 0.0000
# 5 0.0000 0.0000 0.0000 0.0000 25.9476 0.0000
# 6 0.0000 0.0000 0.0000 0.0000 0.0000 16.5411
#
#
#
# Elastic Compliance Matrix: (Units=1/GPa)
#
#
# Indices 1 2 3 4 5 6 
#
# 1 0.067242 -0.015197 -0.005227 0.000000 0.000000 0.000000
# 2 -0.015197 0.025165 -0.005447 0.000000 0.000000 0.000000
# 3 -0.005227 -0.005447 0.010550 0.000000 0.000000 0.000000
# 4 0.000000 0.000000 0.000000 0.018495 0.000000 0.000000
# 5 0.000000 0.000000 0.000000 0.000000 0.038539 0.000000
# 6 0.000000 0.000000 0.000000 0.000000 0.000000 0.060456
#
#
# Mechanical properties :
#
#
# Convention : Reuss Voigt Hill
#
# Bulk Modulus (GPa) = 19.52625 38.17116 28.84870
# Shear Modulus (GPa) = 17.28535 27.90763 22.59649
#
# Velocity S-wave (km/s) = 3.11214 3.95441 3.55829
# Velocity P-wave (km/s) = 4.88416 6.49909 5.74862
#
# Compressibility (1/GPa) = 0.05121311
#
# Stress axis : x y z
#
# Youngs Moduli (GPa) = 14.87160 39.73814 94.78488
#
# Poissons Ratio (x) = 0.60391 0.49548
# Poissons Ratio (y) = 0.22601 0.51634
# Poissons Ratio (z) = 0.07774 0.21647
#
# Static dielectric constant tensor:
#      x y z
#    x 1.598180 0.000000 0.000000 
#    y 0.000000 1.637600 0.000000 
#    z 0.000000 0.000000 2.181920 
# 
# From -- ./inp_files/32387.got.cif
#   From: 2010.05.17/outbox.cif.g08.bks.cpg/sg51_17_cif.got.tgz:32387.got - 2010.06.03 11:52:47.
