data_PCOD9404211
_publ_section_title
;
Structure prediction by ZEFSAII (Michael W. Deem and Ramdas Pophale) SiO2 
 PCOD9404211
Probable space group: P M M A
;
_chemical_formula_sum "Si O2"
_cell_formula_units_Z 36
_cell_length_a 8.874404
_cell_length_b 16.326210
_cell_length_c 13.710863
_cell_angle_alpha 90.000000
_cell_angle_beta 90.000000
_cell_angle_gamma 90.000000
_cell_volume 1986.503642
_symmetry_space_group_name_H-M "P M M A"
_symmetry_group_IT_number 51
_symmetry_cell_setting 'orthorhombic'
loop_
_space_group_symop_operation_xyz
x,y,z
1/2-x,-y,z
1/2+x,-y,-z
-x,y,-z
-x,-y,-z
1/2+x,y,-z
1/2-x,y,z
x,-y,z
loop_
_atom_site_type_symbol
_atom_site_label
_atom_site_fract_x
_atom_site_fract_y
_atom_site_fract_z
Si Si1 0.068624 0.592838 0.188409
Si Si2 0.070578 0.754238 0.897376
Si Si3 0.568109 0.170529 0.705888
Si Si4 0.570210 0.662034 0.602580
Si Si5 0.931608 0.000000 0.607229
O O1 0.250000 0.604810 0.179693
O O2 0.032321 0.500000 0.160520
O O3 0.029554 0.608505 0.302417
O O4 0.985784 0.662090 0.126700
O O5 0.250000 0.756759 0.901092
O O6 0.008219 0.808599 0.808430
O O7 0.000000 0.779970 0.000000
O O8 0.750000 0.173254 0.717973
O O9 0.527750 0.244631 0.632092
O O10 0.524171 0.082723 0.663562
O O11 0.500000 0.637603 0.500000
O O12 0.750000 0.658611 0.592885
O O13 0.000000 0.000000 0.500000
O O14 0.750000 0.000000 0.599923
#
# Coordination Sequence:
#
# PCOD9404211 Si02
#       5
#     8   8   8   8   4
#     4   9  19  36  54  74 104 139 175 218 265 313
#     4  11  22  37  58  80 103 135 174 218 267 318
#     4   9  19  36  54  77 109 142 177 217 261 309
#     4   9  17  29  47  71 102 139 175 211 254 305
#     4  10  20  34  57  86 117 148 177 216 262 308
#
# _framework density 18.122292000000002
#
# number of rings (size 3 to 8) (size 9 to 14) (size 15 to 20)
#    0.000    2.444    0.000    4.000    0.000    5.778 
#    0.000    0.556    0.000    0.000    0.000    0.000 
#    0.000    0.000    0.000    0.000    0.000    0.000 
#
# Total GULP energy -200937.962103 kJ/mol
# GULP energy per Si atom -5581.610058 kJ/mol
# Density = 1.808105 g / cm^3
# Si number density = 18.122292 Si / 1000 Ang^3
#
#
#
# Elastic Constant Matrix: (Units=GPa)
#
#
# Indices 1 2 3 4 5 6 
#
# 1 39.9735 27.3369 34.2113 0.0000 0.0000 0.0000
# 2 27.3369 94.3151 21.2442 0.0000 0.0000 0.0000
# 3 34.2113 21.2442 98.5980 0.0000 0.0000 0.0000
# 4 0.0000 0.0000 0.0000 5.1883 0.0000 0.0000
# 5 0.0000 0.0000 0.0000 0.0000 35.7076 0.0000
# 6 0.0000 0.0000 0.0000 0.0000 0.0000 20.1284
#
#
#
# Elastic Compliance Matrix: (Units=1/GPa)
#
#
# Indices 1 2 3 4 5 6 
#
# 1 0.042264 -0.009403 -0.012639 0.000000 0.000000 0.000000
# 2 -0.009403 0.013236 0.000411 0.000000 0.000000 0.000000
# 3 -0.012639 0.000411 0.014439 0.000000 0.000000 0.000000
# 4 0.000000 0.000000 0.000000 0.192742 0.000000 0.000000
# 5 0.000000 0.000000 0.000000 0.000000 0.028005 0.000000
# 6 0.000000 0.000000 0.000000 0.000000 0.000000 0.049681
#
#
# Mechanical properties :
#
#
# Convention : Reuss Voigt Hill
#
# Bulk Modulus (GPa) = 37.48580 44.27460 40.88020
# Shear Modulus (GPa) = 12.73816 22.21113 17.47465
#
# Velocity S-wave (km/s) = 2.65410 3.50469 3.10863
# Velocity P-wave (km/s) = 5.48837 6.39228 5.95749
#
# Compressibility (1/GPa) = 0.02667676
#
# Stress axis : x y z
#
# Youngs Moduli (GPa) = 23.66078 75.55323 69.25699
#
# Poissons Ratio (x) = 0.71045 0.87531
# Poissons Ratio (y) = 0.22249 -0.02846
# Poissons Ratio (z) = 0.29904 -0.03105
#
# Static dielectric constant tensor:
#      x y z
#    x 1.604840 0.000000 0.000000 
#    y 0.000000 1.622260 0.000000 
#    z 0.000000 0.000000 1.601350 
# 
# From -- ./inp_files/14006.got.cif
#   From: 2010.05.17/outbox.cif.g08.bks.cpg/sg51_8_cif.got.tgz:14006.got - 2010.06.03 11:52:47.
