data_PCOD9404083
_publ_section_title
;
Structure prediction by ZEFSAII (Michael W. Deem and Ramdas Pophale) SiO2 
 PCOD9404083
Probable space group: P M M A
;
_chemical_formula_sum "Si O2"
_cell_formula_units_Z 48
_cell_length_a 19.249606
_cell_length_b 14.635408
_cell_length_c 9.424418
_cell_angle_alpha 90.000000
_cell_angle_beta 90.000000
_cell_angle_gamma 90.000000
_cell_volume 2655.102055
_symmetry_space_group_name_H-M "P M M A"
_symmetry_group_IT_number 51
_symmetry_cell_setting 'orthorhombic'
loop_
_space_group_symop_operation_xyz
x,y,z
1/2-x,-y,z
1/2+x,-y,-z
-x,y,-z
-x,-y,-z
1/2+x,y,-z
1/2-x,y,z
x,-y,z
loop_
_atom_site_type_symbol
_atom_site_label
_atom_site_fract_x
_atom_site_fract_y
_atom_site_fract_z
Si Si1 0.566309 0.296407 0.604537
Si Si2 0.832669 0.895667 0.249828
Si Si3 0.667278 0.713386 0.099032
Si Si4 0.167196 0.606114 0.609412
Si Si5 0.081235 0.100512 0.459783
Si Si6 0.433093 0.606297 0.101308
O O1 0.500000 0.295188 0.500000
O O2 0.627208 0.345467 0.517585
O O3 0.587893 0.191236 0.633948
O O4 0.550049 0.351547 0.746061
O O5 0.750000 0.884549 0.278706
O O6 0.852375 0.817677 0.137662
O O7 0.874957 0.883690 0.395908
O O8 0.844235 0.000000 0.201323
O O9 0.750000 0.709604 0.074198
O O10 0.651771 0.656256 0.242400
O O11 0.626166 0.667053 0.972014
O O12 0.250000 0.611607 0.587741
O O13 0.146988 0.500000 0.618913
O O14 0.000000 0.095333 0.500000
O O15 0.101321 0.000000 0.402251
O O16 0.412016 0.500000 0.114061
O O17 0.500000 0.610445 0.000000
#
# Coordination Sequence:
#
# PCOD9404083 Si02
#       6
#     8   8   8   8   8   8
#     4  11  22  37  59  82 109 148 190 239 282 329
#     4   9  17  32  58  88 115 148 191 236 283 340
#     4  10  20  37  59  83 113 149 186 228 285 345
#     4  10  20  34  55  82 109 139 184 237 283 332
#     4   9  18  32  54  85 116 145 183 235 288 335
#     4  11  25  40  55  79 114 154 194 234 286 345
#
# _framework density 18.078399999999998
#
# number of rings (size 3 to 8) (size 9 to 14) (size 15 to 20)
#    0.000    2.000    1.667    2.000    2.333    4.333 
#    0.000    0.833    0.000    1.000    0.000    0.000 
#    0.000    0.000    0.000    0.000    0.000    0.000 
#
# Total GULP energy -267817.125672 kJ/mol
# GULP energy per Si atom -5579.523452 kJ/mol
# Density = 1.803725 g / cm^3
# Si number density = 18.078400 Si / 1000 Ang^3
#
#
#
# Elastic Constant Matrix: (Units=GPa)
#
#
# Indices 1 2 3 4 5 6 
#
# 1 34.5036 37.7494 25.9521 0.0000 0.0000 0.0000
# 2 37.7494 154.0018 47.4277 0.0000 0.0000 0.0000
# 3 25.9521 47.4277 77.4525 0.0000 0.0000 0.0000
# 4 0.0000 0.0000 0.0000 23.0511 0.0000 0.0000
# 5 0.0000 0.0000 0.0000 0.0000 31.0792 0.0000
# 6 0.0000 0.0000 0.0000 0.0000 0.0000 11.6690
#
#
#
# Elastic Compliance Matrix: (Units=1/GPa)
#
#
# Indices 1 2 3 4 5 6 
#
# 1 0.045487 -0.007956 -0.010369 0.000000 0.000000 0.000000
# 2 -0.007956 0.009394 -0.003087 0.000000 0.000000 0.000000
# 3 -0.010369 -0.003087 0.018276 0.000000 0.000000 0.000000
# 4 0.000000 0.000000 0.000000 0.043382 0.000000 0.000000
# 5 0.000000 0.000000 0.000000 0.000000 0.032176 0.000000
# 6 0.000000 0.000000 0.000000 0.000000 0.000000 0.085697
#
#
# Mechanical properties :
#
#
# Convention : Reuss Voigt Hill
#
# Bulk Modulus (GPa) = 32.96834 54.24626 43.60730
# Shear Modulus (GPa) = 17.40061 23.48178 20.44119
#
# Velocity S-wave (km/s) = 3.10580 3.60792 3.36623
# Velocity P-wave (km/s) = 5.58007 6.88675 6.26756
#
# Compressibility (1/GPa) = 0.03033213
#
# Stress axis : x y z
#
# Youngs Moduli (GPa) = 21.98452 106.44729 54.71776
#
# Poissons Ratio (x) = 0.84694 0.56737
# Poissons Ratio (y) = 0.17492 0.16889
# Poissons Ratio (z) = 0.22796 0.32856
#
# Static dielectric constant tensor:
#      x y z
#    x 1.618030 0.000000 0.000000 
#    y 0.000000 1.663620 0.000000 
#    z 0.000000 0.000000 1.578520 
# 
# From -- ./inp_files/9656.got.cif
#   From: 2010.05.17/outbox.cif.g08.bks.cpg/sg51_5_cif.got.tgz:9656.got - 2010.06.03 11:52:47.
