data_PCOD9404901
_publ_section_title
;
Structure prediction by ZEFSAII (Michael W. Deem and Ramdas Pophale) SiO2 
 PCOD9404901
Probable space group: P M M A
;
_chemical_formula_sum "Si O2"
_cell_formula_units_Z 56
_cell_length_a 18.913249
_cell_length_b 13.852144
_cell_length_c 12.168197
_cell_angle_alpha 90.000000
_cell_angle_beta 90.000000
_cell_angle_gamma 90.000000
_cell_volume 3187.934356
_symmetry_space_group_name_H-M "P M M A"
_symmetry_group_IT_number 51
_symmetry_cell_setting 'orthorhombic'
loop_
_space_group_symop_operation_xyz
x,y,z
1/2-x,-y,z
1/2+x,-y,-z
-x,y,-z
-x,-y,-z
1/2+x,y,-z
1/2-x,y,z
x,-y,z
loop_
_atom_site_type_symbol
_atom_site_label
_atom_site_fract_x
_atom_site_fract_y
_atom_site_fract_z
Si Si1 0.582304 0.712389 0.501710
Si Si2 0.452832 0.389000 0.891823
Si Si3 0.069950 0.227112 0.733853
Si Si4 0.437077 0.110850 0.339544
Si Si5 0.833464 0.749125 0.075892
Si Si6 0.666238 0.797245 0.828499
Si Si7 0.665481 0.608234 0.688732
O O1 0.500000 0.681620 0.500000
O O2 0.604013 0.728306 0.375886
O O3 0.583761 0.816065 0.562963
O O4 0.627558 0.641148 0.576682
O O5 0.456519 0.500000 0.858159
O O6 0.472604 0.313744 0.795720
O O7 0.373254 0.354371 0.921255
O O8 0.500000 0.374883 0.000000
O O9 0.128120 0.196862 0.823249
O O10 0.014327 0.146056 0.699893
O O11 0.382140 0.130864 0.240922
O O12 0.436981 0.000000 0.372625
O O13 0.750000 0.741115 0.089640
O O14 0.848445 0.796781 0.958084
O O15 0.750000 0.816158 0.812044
O O16 0.651290 0.690044 0.779888
O O17 0.750000 0.608303 0.671690
O O18 0.643644 0.500000 0.721441
#
# Coordination Sequence:
#
# PCOD9404901 Si02
#       7
#     8   8   8   8   8   8   8
#     4   9  19  35  52  77 105 137 173 224 276 317
#     4   9  18  32  52  77 109 146 185 223 260 311
#     4   9  20  34  52  77 109 140 176 221 273 321
#     4  10  20  36  60  82 100 133 182 228 275 331
#     4   9  19  34  54  77 110 149 179 217 266 321
#     4   9  18  34  54  79 111 138 172 224 273 318
#     4   9  18  32  51  75 104 141 180 217 262 318
#
# _framework density 17.566233
#
# number of rings (size 3 to 8) (size 9 to 14) (size 15 to 20)
#    0.857    2.000    0.000    0.857    0.000    5.143 
#    0.000   11.429    0.000    1.286    0.000    4.000 
#    0.000    0.000    0.000    0.000    0.000    0.000 
#
# Total GULP energy -311821.918663 kJ/mol
# GULP energy per Si atom -5568.248548 kJ/mol
# Density = 1.752625 g / cm^3
# Si number density = 17.566233 Si / 1000 Ang^3
#
#
#
# Elastic Constant Matrix: (Units=GPa)
#
#
# Indices 1 2 3 4 5 6 
#
# 1 37.3574 -1.8213 16.9658 0.0000 0.0000 0.0000
# 2 -1.8213 49.8892 -10.5613 0.0000 0.0000 0.0000
# 3 16.9658 -10.5613 87.7782 0.0000 0.0000 0.0000
# 4 0.0000 0.0000 0.0000 6.5221 0.0000 0.0000
# 5 0.0000 0.0000 0.0000 0.0000 28.4973 0.0000
# 6 0.0000 0.0000 0.0000 0.0000 0.0000 11.5703
#
#
#
# Elastic Compliance Matrix: (Units=1/GPa)
#
#
# Indices 1 2 3 4 5 6 
#
# 1 0.029345 -0.000133 -0.005688 0.000000 0.000000 0.000000
# 2 -0.000133 0.020569 0.002500 0.000000 0.000000 0.000000
# 3 -0.005688 0.002500 0.012793 0.000000 0.000000 0.000000
# 4 0.000000 0.000000 0.000000 0.153325 0.000000 0.000000
# 5 0.000000 0.000000 0.000000 0.000000 0.035091 0.000000
# 6 0.000000 0.000000 0.000000 0.000000 0.000000 0.086428
#
#
# Mechanical properties :
#
#
# Convention : Reuss Voigt Hill
#
# Bulk Modulus (GPa) = 17.83600 20.46567 19.15083
# Shear Modulus (GPa) = 13.77867 20.68072 17.22969
#
# Velocity S-wave (km/s) = 2.80372 3.43490 3.13524
# Velocity P-wave (km/s) = 4.54497 5.23520 4.90225
#
# Compressibility (1/GPa) = 0.05606639
#
# Stress axis : x y z
#
# Youngs Moduli (GPa) = 34.07721 48.61706 78.17049
#
# Poissons Ratio (x) = 0.00645 0.44462
# Poissons Ratio (y) = 0.00452 -0.19546
# Poissons Ratio (z) = 0.19382 -0.12157
#
# Static dielectric constant tensor:
#      x y z
#    x 1.604940 0.000000 0.000000 
#    y 0.000000 1.579810 0.000000 
#    z 0.000000 0.000000 1.611210 
# 
# From -- ./inp_files/18771.got.cif
#   From: 2010.05.17/outbox.cif.g08.bks.cpg/sg51_10_cif.got.tgz:18771.got - 2010.06.03 11:52:47.
