data_PCOD9404472
_publ_section_title
;
Structure prediction by ZEFSAII (Michael W. Deem and Ramdas Pophale) SiO2 
 PCOD9404472
Probable space group: P M M A
;
_chemical_formula_sum "Si O2"
_cell_formula_units_Z 48
_cell_length_a 27.441293
_cell_length_b 7.633284
_cell_length_c 10.643512
_cell_angle_alpha 90.000000
_cell_angle_beta 90.000000
_cell_angle_gamma 90.000000
_cell_volume 2229.466474
_symmetry_space_group_name_H-M "P M M A"
_symmetry_group_IT_number 51
_symmetry_cell_setting 'orthorhombic'
loop_
_space_group_symop_operation_xyz
x,y,z
1/2-x,-y,z
1/2+x,-y,-z
-x,y,-z
-x,-y,-z
1/2+x,y,-z
1/2-x,y,z
x,-y,z
loop_
_atom_site_type_symbol
_atom_site_label
_atom_site_fract_x
_atom_site_fract_y
_atom_site_fract_z
Si Si1 0.531000 0.285064 0.620403
Si Si2 0.694587 0.790343 0.876717
Si Si3 0.194120 0.287647 0.643357
Si Si4 0.631476 0.793944 0.111305
Si Si5 0.479798 0.295593 0.871298
Si Si6 0.643041 0.711118 0.613383
O O1 0.500000 0.229240 0.500000
O O2 0.531038 0.500000 0.619058
O O3 0.504374 0.222119 0.746340
O O4 0.587097 0.228016 0.616476
O O5 0.750000 0.721717 0.883243
O O6 0.671127 0.757441 0.740915
O O7 0.697331 0.000000 0.893603
O O8 0.660441 0.722771 0.989699
O O9 0.250000 0.228798 0.652346
O O10 0.193945 0.500000 0.641869
O O11 0.163666 0.231013 0.764410
O O12 0.170063 0.226790 0.512723
O O13 0.578362 0.713374 0.130458
O O14 0.623350 0.000000 0.091311
O O15 0.494376 0.500000 0.871669
O O16 0.500000 0.215832 0.000000
O O17 0.642015 0.500000 0.607079
#
# Coordination Sequence:
#
# PCOD9404472 Si02
#       6
#     8   8   8   8   8   8
#     4   9  17  31  53  79 107 139 173 215 268 322
#     4  10  22  39  56  77 109 147 184 223 271 328
#     4  10  21  37  58  85 114 143 181 231 281 330
#     4  11  23  38  57  81 112 151 191 230 274 328
#     4  10  20  35  56  81 109 143 184 229 278 330
#     4  10  20  36  60  87 111 139 181 230 278 329
#
# _framework density 21.529816
#
# number of rings (size 3 to 8) (size 9 to 14) (size 15 to 20)
#    0.000    2.000    0.000    3.500    0.000    8.333 
#    0.000    0.833    0.000    2.000    0.000    0.000 
#    0.000    0.000    0.000    0.000    0.000    0.000 
#
# Total GULP energy -268335.204526 kJ/mol
# GULP energy per Si atom -5590.316761 kJ/mol
# Density = 2.148081 g / cm^3
# Si number density = 21.529816 Si / 1000 Ang^3
#
#
#
# Elastic Constant Matrix: (Units=GPa)
#
#
# Indices 1 2 3 4 5 6 
#
# 1 125.2655 -18.9248 53.8448 0.0000 0.0000 0.0000
# 2 -18.9248 39.3300 -12.9893 0.0000 0.0000 0.0000
# 3 53.8448 -12.9893 163.1250 0.0000 0.0000 0.0000
# 4 0.0000 0.0000 0.0000 16.4210 0.0000 0.0000
# 5 0.0000 0.0000 0.0000 0.0000 48.7260 0.0000
# 6 0.0000 0.0000 0.0000 0.0000 0.0000 -20.0116
#
#
#
# Elastic Compliance Matrix: (Units=1/GPa)
#
#
# Indices 1 2 3 4 5 6 
#
# 1 0.009814 0.003751 -0.002941 0.000000 0.000000 0.000000
# 2 0.003751 0.027546 0.000955 0.000000 0.000000 0.000000
# 3 -0.002941 0.000955 0.007177 0.000000 0.000000 0.000000
# 4 0.000000 0.000000 0.000000 0.060897 0.000000 0.000000
# 5 0.000000 0.000000 0.000000 0.000000 0.020523 0.000000
# 6 0.000000 0.000000 0.000000 0.000000 0.000000 -0.049971
#
#
# Mechanical properties :
#
#
# Convention : Reuss Voigt Hill
#
# Bulk Modulus (GPa) = 20.80371 41.28687 31.04529
# Shear Modulus (GPa) = 56.51131 29.41309 42.96220
#
# Velocity S-wave (km/s) = 5.12883 3.70016 4.47192
# Velocity P-wave (km/s) = 6.69006 6.12153 6.41210
#
# Compressibility (1/GPa) = 0.04806836
#
# Stress axis : x y z
#
# Youngs Moduli (GPa) = 101.89766 36.30250 139.33388
#
# Poissons Ratio (x) = -0.13617 0.40974
# Poissons Ratio (y) = -0.38222 -0.13311
# Poissons Ratio (z) = 0.29965 -0.03468
#
# Static dielectric constant tensor:
#      x y z
#    x 1.731520 0.000000 0.000000 
#    y 0.000000 1.806400 0.000000 
#    z 0.000000 0.000000 1.563370 
# 
# From -- ./inp_files/12744.got.cif
#   From: 2010.05.17/outbox.cif.g08.bks.cpg/sg51_7_cif.got.tgz:12744.got - 2010.06.03 11:52:47.
