data_PCOD9404358
_publ_section_title
;
Structure prediction by ZEFSAII (Michael W. Deem and Ramdas Pophale) SiO2 
 PCOD9404358
Probable space group: P M M A
;
_chemical_formula_sum "Si O2"
_cell_formula_units_Z 36
_cell_length_a 8.057284
_cell_length_b 11.121654
_cell_length_c 19.905551
_cell_angle_alpha 90.000000
_cell_angle_beta 90.000000
_cell_angle_gamma 90.000000
_cell_volume 1783.742891
_symmetry_space_group_name_H-M "P M M A"
_symmetry_group_IT_number 51
_symmetry_cell_setting 'orthorhombic'
loop_
_space_group_symop_operation_xyz
x,y,z
1/2-x,-y,z
1/2+x,-y,-z
-x,y,-z
-x,-y,-z
1/2+x,y,-z
1/2-x,y,z
x,-y,z
loop_
_atom_site_type_symbol
_atom_site_label
_atom_site_fract_x
_atom_site_fract_y
_atom_site_fract_z
Si Si1 0.449261 0.000000 0.422031
Si Si2 0.063335 0.145080 0.071784
Si Si3 0.447559 0.629858 0.709136
Si Si4 0.555668 0.864447 0.217996
Si Si5 0.550633 0.262716 0.577628
O O1 0.500000 0.000000 0.500000
O O2 0.509422 0.870524 0.397538
O O3 0.250000 0.000000 0.416401
O O4 0.250000 0.187958 0.083848
O O5 0.958382 0.165479 0.138734
O O6 0.068472 0.000000 0.065553
O O7 0.000000 0.191465 0.000000
O O8 0.250000 0.629731 0.722199
O O9 0.514315 0.500000 0.731773
O O10 0.519579 0.750482 0.743145
O O11 0.476674 0.643962 0.629674
O O12 0.750000 0.872396 0.235634
O O13 0.483688 0.000000 0.229240
O O14 0.500000 0.278519 0.500000
O O15 0.750000 0.266018 0.580738
#
# Coordination Sequence:
#
# PCOD9404358 Si02
#       5
#     4   8   8   8   8
#     4   8  16  30  48  74 102 126 155 200 255 306
#     4   9  16  27  47  77 110 140 170 210 257 303
#     4  10  22  38  54  75 105 140 175 215 264 314
#     4   9  18  33  53  77 104 137 175 213 255 306
#     4  10  20  35  55  78 103 133 171 216 265 316
#
# _framework density 20.182281
#
# number of rings (size 3 to 8) (size 9 to 14) (size 15 to 20)
#    0.000    2.667    0.000    1.333    1.556    5.333 
#    0.000    0.000    0.000    0.667    0.000    0.000 
#    0.000    0.000    0.000    0.000    0.000    0.000 
#
# Total GULP energy -200526.900949 kJ/mol
# GULP energy per Si atom -5570.191693 kJ/mol
# Density = 2.013635 g / cm^3
# Si number density = 20.182281 Si / 1000 Ang^3
#
#
#
# Elastic Constant Matrix: (Units=GPa)
#
#
# Indices 1 2 3 4 5 6 
#
# 1 22.4440 9.2298 -9.3474 0.0000 0.0000 0.0000
# 2 9.2298 134.3448 57.7679 0.0000 0.0000 0.0000
# 3 -9.3474 57.7679 75.3302 0.0000 0.0000 0.0000
# 4 0.0000 0.0000 0.0000 2.2368 0.0000 0.0000
# 5 0.0000 0.0000 0.0000 0.0000 21.9038 0.0000
# 6 0.0000 0.0000 0.0000 0.0000 0.0000 4.8873
#
#
#
# Elastic Compliance Matrix: (Units=1/GPa)
#
#
# Indices 1 2 3 4 5 6 
#
# 1 0.054651 -0.009952 0.014414 0.000000 0.000000 0.000000
# 2 -0.009952 0.012918 -0.011141 0.000000 0.000000 0.000000
# 3 0.014414 -0.011141 0.023607 0.000000 0.000000 0.000000
# 4 0.000000 0.000000 0.000000 0.447068 0.000000 0.000000
# 5 0.000000 0.000000 0.000000 0.000000 0.045654 0.000000
# 6 0.000000 0.000000 0.000000 0.000000 0.000000 0.204612
#
#
# Mechanical properties :
#
#
# Convention : Reuss Voigt Hill
#
# Bulk Modulus (GPa) = 12.85083 38.60218 25.72651
# Shear Modulus (GPa) = 6.04004 17.43683 11.73843
#
# Velocity S-wave (km/s) = 1.73183 2.94252 2.41430
# Velocity P-wave (km/s) = 3.22183 5.54192 4.53283
#
# Compressibility (1/GPa) = 0.07781596
#
# Stress axis : x y z
#
# Youngs Moduli (GPa) = 18.29789 77.41129 42.35994
#
# Poissons Ratio (x) = 0.77043 -0.61056
# Poissons Ratio (y) = 0.18211 0.47194
# Poissons Ratio (z) = -0.26374 0.86246
#
# Static dielectric constant tensor:
#      x y z
#    x 1.717980 0.000000 0.000000 
#    y 0.000000 1.780330 0.000000 
#    z 0.000000 0.000000 1.714070 
# 
# From -- ./inp_files/31305.got.cif
#   From: 2010.05.17/outbox.cif.g08.bks.cpg/sg51_16_cif.got.tgz:31305.got - 2010.06.03 11:52:47.
