data_PCOD9404081
_publ_section_title
;
Structure prediction by ZEFSAII (Michael W. Deem and Ramdas Pophale) SiO2 
 PCOD9404081
Probable space group: P M M A
;
_chemical_formula_sum "Si O2"
_cell_formula_units_Z 48
_cell_length_a 9.446258
_cell_length_b 7.810409
_cell_length_c 31.742220
_cell_angle_alpha 90.000000
_cell_angle_beta 90.000000
_cell_angle_gamma 90.000000
_cell_volume 2341.913646
_symmetry_space_group_name_H-M "P M M A"
_symmetry_group_IT_number 51
_symmetry_cell_setting 'orthorhombic'
loop_
_space_group_symop_operation_xyz
x,y,z
1/2-x,-y,z
1/2+x,-y,-z
-x,y,-z
-x,-y,-z
1/2+x,y,-z
1/2-x,y,z
x,-y,z
loop_
_atom_site_type_symbol
_atom_site_label
_atom_site_fract_x
_atom_site_fract_y
_atom_site_fract_z
Si Si1 0.410853 0.706392 0.795135
Si Si2 0.411098 0.295002 0.960222
Si Si3 0.411339 0.204230 0.122239
Si Si4 0.409155 0.204961 0.539236
Si Si5 0.086544 0.709009 0.284868
Si Si6 0.411861 0.706600 0.379567
O O1 0.250000 0.769892 0.800263
O O2 0.404304 0.500000 0.792475
O O3 0.508323 0.748436 0.834922
O O4 0.484333 0.769344 0.752164
O O5 0.250000 0.227787 0.958447
O O6 0.400821 0.500000 0.965432
O O7 0.496980 0.263721 0.917524
O O8 0.500000 0.226663 0.000000
O O9 0.250000 0.272371 0.121274
O O10 0.403805 0.000000 0.120128
O O11 0.500000 0.273559 0.500000
O O12 0.250000 0.274449 0.539130
O O13 0.486626 0.237221 0.583243
O O14 0.400400 0.000000 0.533970
O O15 0.250000 0.759258 0.277046
O O16 0.084251 0.500000 0.284559
O O17 0.047198 0.763314 0.332308
O O18 0.250000 0.764176 0.387489
O O19 0.410595 0.500000 0.379092
#
# Coordination Sequence:
#
# PCOD9404081 Si02
#       6
#     8   8   8   8   8   8
#     4  10  20  34  55  82 108 137 176 219 263 312
#     4  10  21  38  61  87 112 140 177 219 263 313
#     4  11  24  39  55  78 109 145 183 221 264 313
#     4  10  21  36  53  73  99 134 175 215 257 308
#     4   8  15  30  52  77 105 137 172 211 256 307
#     4   9  18  33  54  80 107 134 168 211 259 311
#
# _framework density 20.496058999999999
#
# number of rings (size 3 to 8) (size 9 to 14) (size 15 to 20)
#    0.000    2.333    0.000    3.500    0.000    8.000 
#    0.000    2.500    0.000    1.000    0.000    0.000 
#    0.000    0.000    0.000    0.000    0.000    0.000 
#
# Total GULP energy -268064.856719 kJ/mol
# GULP energy per Si atom -5584.684515 kJ/mol
# Density = 2.044941 g / cm^3
# Si number density = 20.496059 Si / 1000 Ang^3
#
#
#
# Elastic Constant Matrix: (Units=GPa)
#
#
# Indices 1 2 3 4 5 6 
#
# 1 210.4622 9.7128 140.6191 0.0000 0.0000 0.0000
# 2 9.7128 24.8298 -0.5251 0.0000 0.0000 0.0000
# 3 140.6191 -0.5251 190.3484 0.0000 0.0000 0.0000
# 4 0.0000 0.0000 0.0000 58.2297 0.0000 0.0000
# 5 0.0000 0.0000 0.0000 0.0000 43.8301 0.0000
# 6 0.0000 0.0000 0.0000 0.0000 0.0000 16.6080
#
#
#
# Elastic Compliance Matrix: (Units=1/GPa)
#
#
# Indices 1 2 3 4 5 6 
#
# 1 0.009759 -0.003970 -0.007220 0.000000 0.000000 0.000000
# 2 -0.003970 0.041892 0.003048 0.000000 0.000000 0.000000
# 3 -0.007220 0.003048 0.010596 0.000000 0.000000 0.000000
# 4 0.000000 0.000000 0.000000 0.017173 0.000000 0.000000
# 5 0.000000 0.000000 0.000000 0.000000 0.022815 0.000000
# 6 0.000000 0.000000 0.000000 0.000000 0.000000 0.060212
#
#
# Mechanical properties :
#
#
# Convention : Reuss Voigt Hill
#
# Bulk Modulus (GPa) = 21.75686 80.58379 51.17032
# Shear Modulus (GPa) = 25.76632 42.12245 33.94439
#
# Velocity S-wave (km/s) = 3.54946 4.53829 4.07399
# Velocity P-wave (km/s) = 5.23797 8.17701 6.86658
#
# Compressibility (1/GPa) = 0.04596252
#
# Stress axis : x y z
#
# Youngs Moduli (GPa) = 102.47125 23.87112 94.37647
#
# Poissons Ratio (x) = 0.09477 0.68142
# Poissons Ratio (y) = 0.40682 -0.28770
# Poissons Ratio (z) = 0.73987 -0.07277
#
# Static dielectric constant tensor:
#      x y z
#    x 1.724010 0.000000 0.000000 
#    y 0.000000 1.756710 0.000000 
#    z 0.000000 0.000000 1.691920 
# 
# From -- ./inp_files/36999.got.cif
#   From: 2010.05.17/outbox.cif.g08.bks.cpg/sg51_19_cif.got.tgz:36999.got - 2010.06.03 11:52:47.
