data_PCOD9404588
_publ_section_title
;
Structure prediction by ZEFSAII (Michael W. Deem and Ramdas Pophale) SiO2 
 PCOD9404588
Probable space group: P M M A
;
_chemical_formula_sum "Si O2"
_cell_formula_units_Z 56
_cell_length_a 21.105129
_cell_length_b 14.429699
_cell_length_c 10.036307
_cell_angle_alpha 90.000000
_cell_angle_beta 90.000000
_cell_angle_gamma 90.000000
_cell_volume 3056.463546
_symmetry_space_group_name_H-M "P M M A"
_symmetry_group_IT_number 51
_symmetry_cell_setting 'orthorhombic'
loop_
_space_group_symop_operation_xyz
x,y,z
1/2-x,-y,z
1/2+x,-y,-z
-x,y,-z
-x,-y,-z
1/2+x,y,-z
1/2-x,y,z
x,-y,z
loop_
_atom_site_type_symbol
_atom_site_label
_atom_site_fract_x
_atom_site_fract_y
_atom_site_fract_z
Si Si1 0.612002 0.734002 0.227179
Si Si2 0.059559 0.110674 0.404874
Si Si3 0.177955 0.766669 0.497353
Si Si4 0.501915 0.607232 0.341871
Si Si5 0.979306 0.889811 0.149480
Si Si6 0.823842 0.605905 0.011626
Si Si7 0.855026 0.391913 0.706983
O O1 0.660148 0.742505 0.350430
O O2 0.552307 0.674084 0.276871
O O3 0.582998 0.833140 0.188718
O O4 0.641122 0.679928 0.102663
O O5 0.122791 0.164419 0.445688
O O6 0.000000 0.136190 0.500000
O O7 0.034886 0.131285 0.255912
O O8 0.069127 0.000000 0.417950
O O9 0.250000 0.802431 0.488362
O O10 0.172163 0.675673 0.404697
O O11 0.500000 0.623644 0.500000
O O12 0.520278 0.500000 0.320452
O O13 0.430927 0.620485 0.289834
O O14 0.967849 0.000000 0.157329
O O15 0.000000 0.865785 0.000000
O O16 0.750000 0.606117 0.047463
O O17 0.848319 0.500000 0.030790
O O18 0.829787 0.627188 0.854744
O O19 0.842129 0.500000 0.675017
#
# Coordination Sequence:
#
# PCOD9404588 Si02
#       7
#     8   8   8   8   8   8   8
#     4  12  23  36  62  89 124 157 202 249 309 362
#     4  10  21  42  68  92 120 156 198 249 305 363
#     4  12  25  38  60  94 126 161 204 249 301 364
#     4  10  20  35  57  88 122 155 199 254 304 350
#     4  10  23  41  64  93 120 154 200 249 307 371
#     4  10  23  42  59  81 120 167 209 248 299 365
#     4  10  22  40  61  85 121 166 207 251 302 357
#
# _framework density 18.321828
#
# number of rings (size 3 to 8) (size 9 to 14) (size 15 to 20)
#    0.000    1.429    2.857    2.143    4.000    1.714 
#    0.000    2.143    0.000    1.286    0.000    0.000 
#    0.000    0.000    0.000    0.000    0.000    0.000 
#
# Total GULP energy -312948.147327 kJ/mol
# GULP energy per Si atom -5588.359774 kJ/mol
# Density = 1.828013 g / cm^3
# Si number density = 18.321828 Si / 1000 Ang^3
#
#
#
# Elastic Constant Matrix: (Units=GPa)
#
#
# Indices 1 2 3 4 5 6 
#
# 1 105.2987 49.2111 48.5738 0.0000 0.0000 0.0000
# 2 49.2111 67.7475 45.0247 0.0000 0.0000 0.0000
# 3 48.5738 45.0247 99.0707 0.0000 0.0000 0.0000
# 4 0.0000 0.0000 0.0000 24.9766 0.0000 0.0000
# 5 0.0000 0.0000 0.0000 0.0000 13.9055 0.0000
# 6 0.0000 0.0000 0.0000 0.0000 0.0000 15.3765
#
#
#
# Elastic Compliance Matrix: (Units=1/GPa)
#
#
# Indices 1 2 3 4 5 6 
#
# 1 0.015172 -0.008707 -0.003482 0.000000 0.000000 0.000000
# 2 -0.008707 0.026145 -0.007613 0.000000 0.000000 0.000000
# 3 -0.003482 -0.007613 0.015261 0.000000 0.000000 0.000000
# 4 0.000000 0.000000 0.000000 0.040038 0.000000 0.000000
# 5 0.000000 0.000000 0.000000 0.000000 0.071914 0.000000
# 6 0.000000 0.000000 0.000000 0.000000 0.000000 0.065034
#
#
# Mechanical properties :
#
#
# Convention : Reuss Voigt Hill
#
# Bulk Modulus (GPa) = 58.91279 61.97069 60.44174
# Shear Modulus (GPa) = 17.93236 19.47220 18.70228
#
# Velocity S-wave (km/s) = 3.13188 3.26358 3.19841
# Velocity P-wave (km/s) = 6.73071 6.93528 6.83376
#
# Compressibility (1/GPa) = 0.01697424
#
# Stress axis : x y z
#
# Youngs Moduli (GPa) = 65.91069 38.24828 65.52707
#
# Poissons Ratio (x) = 0.33302 0.22815
# Poissons Ratio (y) = 0.57388 0.49887
# Poissons Ratio (z) = 0.22948 0.29119
#
# Static dielectric constant tensor:
#      x y z
#    x 1.605250 0.000000 0.000000 
#    y 0.000000 1.642970 0.000000 
#    z 0.000000 0.000000 1.625810 
# 
# From -- ./inp_files/10963.got.cif
#   From: 2010.05.17/outbox.cif.g08.bks.cpg/sg51_6_cif.got.tgz:10963.got - 2010.06.03 11:52:47.
