data_PCOD9404706
_publ_section_title
;
Structure prediction by ZEFSAII (Michael W. Deem and Ramdas Pophale) SiO2 
 PCOD9404706
Probable space group: P M M A
;
_chemical_formula_sum "Si O2"
_cell_formula_units_Z 48
_cell_length_a 8.115519
_cell_length_b 32.435631
_cell_length_c 9.717190
_cell_angle_alpha 90.000000
_cell_angle_beta 90.000000
_cell_angle_gamma 90.000000
_cell_volume 2557.875160
_symmetry_space_group_name_H-M "P M M A"
_symmetry_group_IT_number 51
_symmetry_cell_setting 'orthorhombic'
loop_
_space_group_symop_operation_xyz
x,y,z
1/2-x,-y,z
1/2+x,-y,-z
-x,y,-z
-x,-y,-z
1/2+x,y,-z
1/2-x,y,z
x,-y,z
loop_
_atom_site_type_symbol
_atom_site_label
_atom_site_fract_x
_atom_site_fract_y
_atom_site_fract_z
Si Si1 0.050943 0.879287 0.843536
Si Si2 0.550978 0.045652 0.341843
Si Si3 0.550374 0.365477 0.840285
Si Si4 0.446009 0.710626 0.342064
Si Si5 0.553040 0.786502 0.156816
Si Si6 0.551161 0.455784 0.839593
O O1 0.250000 0.878872 0.835814
O O2 0.988832 0.915954 0.746935
O O3 0.992685 0.832892 0.808589
O O4 0.000000 0.887322 0.000000
O O5 0.500000 0.050344 0.500000
O O6 0.750000 0.045815 0.335012
O O7 0.494645 0.000000 0.294886
O O8 0.750000 0.365286 0.837848
O O9 0.487868 0.328466 0.744968
O O10 0.493921 0.410913 0.788828
O O11 0.500000 0.360053 0.000000
O O12 0.500000 0.710584 0.500000
O O13 0.250000 0.707574 0.340317
O O14 0.493667 0.752215 0.262482
O O15 0.750000 0.786969 0.159447
O O16 0.500000 0.777004 0.000000
O O17 0.750000 0.455893 0.831570
O O18 0.492440 0.500000 0.780437
O O19 0.500000 0.456007 0.000000
#
# Coordination Sequence:
#
# PCOD9404706 Si02
#       6
#     8   8   8   8   8   8
#     4   9  19  34  52  76 103 130 161 200 244 290
#     4   9  18  33  51  72 100 133 168 204 242 286
#     4   9  18  31  49  73  98 126 160 198 242 291
#     4  11  23  37  52  72  99 131 168 208 251 297
#     4  10  20  36  56  77 102 131 165 204 248 298
#     4   8  13  23  41  66  94 121 151 190 235 282
#
# _framework density 18.765574999999998
#
# number of rings (size 3 to 8) (size 9 to 14) (size 15 to 20)
#    0.000    2.667    0.000    1.500    0.000    5.000 
#    0.000    1.667    0.000    0.500    0.000    0.000 
#    0.000    0.000    0.000    0.000    0.000    0.167 
#
# Total GULP energy -267495.471017 kJ/mol
# GULP energy per Si atom -5572.822313 kJ/mol
# Density = 1.872286 g / cm^3
# Si number density = 18.765575 Si / 1000 Ang^3
#
#
#
# Elastic Constant Matrix: (Units=GPa)
#
#
# Indices 1 2 3 4 5 6 
#
# 1 16.5326 17.8619 8.8364 0.0000 0.0000 0.0000
# 2 17.8619 216.1811 117.2701 0.0000 0.0000 0.0000
# 3 8.8364 117.2701 95.6985 0.0000 0.0000 0.0000
# 4 0.0000 0.0000 0.0000 -9.1496 0.0000 0.0000
# 5 0.0000 0.0000 0.0000 0.0000 26.1735 0.0000
# 6 0.0000 0.0000 0.0000 0.0000 0.0000 16.3197
#
#
#
# Elastic Compliance Matrix: (Units=1/GPa)
#
#
# Indices 1 2 3 4 5 6 
#
# 1 0.066516 -0.006455 0.001768 0.000000 0.000000 0.000000
# 2 -0.006455 0.014424 -0.017079 0.000000 0.000000 0.000000
# 3 0.001768 -0.017079 0.031215 0.000000 0.000000 0.000000
# 4 0.000000 0.000000 0.000000 -0.109295 0.000000 0.000000
# 5 0.000000 0.000000 0.000000 0.000000 0.038207 0.000000
# 6 0.000000 0.000000 0.000000 0.000000 0.000000 0.061276
#
#
# Mechanical properties :
#
#
# Convention : Reuss Voigt Hill
#
# Bulk Modulus (GPa) = 14.57236 68.48322 41.52779
# Shear Modulus (GPa) = 29.62984 18.96498 24.29741
#
# Velocity S-wave (km/s) = 3.97791 3.18248 3.60222
# Velocity P-wave (km/s) = 5.37407 7.07655 6.28324
#
# Compressibility (1/GPa) = 0.06862306
#
# Stress axis : x y z
#
# Youngs Moduli (GPa) = 15.03404 69.32906 32.03555
#
# Poissons Ratio (x) = 0.44753 -0.05665
# Poissons Ratio (y) = 0.09705 0.54714
# Poissons Ratio (z) = -0.02659 1.18409
#
# Static dielectric constant tensor:
#      x y z
#    x 1.690860 0.000000 0.000000 
#    y 0.000000 1.721680 0.000000 
#    z 0.000000 0.000000 1.592760 
# 
# From -- ./inp_files/6074.got.cif
#   From: 2010.05.17/outbox.cif.g08.bks.cpg/sg51_4_cif.got.tgz:6074.got - 2010.06.03 11:52:47.
