data_PCOD9404986
_publ_section_title
;
Structure prediction by ZEFSAII (Michael W. Deem and Ramdas Pophale) SiO2 
 PCOD9404986
Probable space group: P M M A
;
_chemical_formula_sum "Si O2"
_cell_formula_units_Z 58
_cell_length_a 25.649165
_cell_length_b 12.686118
_cell_length_c 8.600810
_cell_angle_alpha 90.000000
_cell_angle_beta 90.000000
_cell_angle_gamma 90.000000
_cell_volume 2798.603235
_symmetry_space_group_name_H-M "P M M A"
_symmetry_group_IT_number 51
_symmetry_cell_setting 'orthorhombic'
loop_
_space_group_symop_operation_xyz
x,y,z
1/2-x,-y,z
1/2+x,-y,-z
-x,y,-z
-x,-y,-z
1/2+x,y,-z
1/2-x,y,z
x,-y,z
loop_
_atom_site_type_symbol
_atom_site_label
_atom_site_fract_x
_atom_site_fract_y
_atom_site_fract_z
Si Si1 0.663286 0.659755 0.865827
Si Si2 0.522274 0.331801 0.169778
Si Si3 0.927340 0.613814 0.643198
Si Si4 0.187622 0.881413 0.263539
Si Si5 0.250000 0.500000 0.245357
Si Si6 0.528618 0.117808 0.332608
Si Si7 0.855526 0.382077 0.213742
Si Si8 0.630312 0.789663 0.444131
O O1 0.606870 0.627951 0.799895
O O2 0.669592 0.785051 0.845070
O O3 0.704580 0.593005 0.766176
O O4 0.669833 0.628877 0.044409
O O5 0.486802 0.381749 0.304194
O O6 0.515434 0.207668 0.208513
O O7 0.582202 0.365433 0.187364
O O8 0.500000 0.357452 0.000000
O O9 0.915669 0.500000 0.572965
O O10 0.907659 0.707551 0.535128
O O11 0.250000 0.881127 0.265856
O O12 0.165378 0.849657 0.432174
O O13 0.169864 0.000000 0.221632
O O14 0.500000 0.134261 0.500000
O O15 0.590450 0.131650 0.361073
O O16 0.515346 0.000000 0.281705
O O17 0.844786 0.500000 0.272687
O O18 0.839219 0.287195 0.326908
#
# Coordination Sequence:
#
# PCOD9404986 Si02
#       8
#     8   8   8   8   2   8   8   8
#     4  11  22  38  62  90 118 158 194 243 302 356
#     4  11  22  35  55  85 118 154 197 242 288 352
#     4  11  20  35  57  86 116 153 196 237 291 347
#     4  10  22  43  67  90 115 152 205 257 301 351
#     4  12  20  40  62  88 124 156 200 240 308 366
#     4  10  20  37  56  77 110 155 199 239 289 342
#     4  11  22  38  57  89 127 159 193 241 301 363
#     4  10  22  38  59  85 118 155 200 245 294 355
#
# _framework density 20.724623999999999
#
# number of rings (size 3 to 8) (size 9 to 14) (size 15 to 20)
#    0.000    1.379    4.828    1.241    0.000    0.828 
#    1.241    5.517    0.000    2.483    0.000    0.000 
#    0.000    0.000    0.000    0.000    0.000    0.000 
#
# Total GULP energy -323428.778569 kJ/mol
# GULP energy per Si atom -5576.358251 kJ/mol
# Density = 2.067745 g / cm^3
# Si number density = 20.724624 Si / 1000 Ang^3
#
#
#
# Elastic Constant Matrix: (Units=GPa)
#
#
# Indices 1 2 3 4 5 6 
#
# 1 26.5251 4.7670 -17.9975 0.0000 0.0000 0.0000
# 2 4.7670 148.0071 0.4504 0.0000 0.0000 0.0000
# 3 -17.9975 0.4504 36.5594 0.0000 0.0000 0.0000
# 4 0.0000 0.0000 0.0000 2.3889 0.0000 0.0000
# 5 0.0000 0.0000 0.0000 0.0000 1.2398 0.0000
# 6 0.0000 0.0000 0.0000 0.0000 0.0000 23.2813
#
#
#
# Elastic Compliance Matrix: (Units=1/GPa)
#
#
# Indices 1 2 3 4 5 6 
#
# 1 0.057152 -0.001926 0.028159 0.000000 0.000000 0.000000
# 2 -0.001926 0.006822 -0.001032 0.000000 0.000000 0.000000
# 3 0.028159 -0.001032 0.041228 0.000000 0.000000 0.000000
# 4 0.000000 0.000000 0.000000 0.418596 0.000000 0.000000
# 5 0.000000 0.000000 0.000000 0.000000 0.806604 0.000000
# 6 0.000000 0.000000 0.000000 0.000000 0.000000 0.042953
#
#
# Mechanical properties :
#
#
# Convention : Reuss Voigt Hill
#
# Bulk Modulus (GPa) = 6.42667 20.61459 13.52063
# Shear Modulus (GPa) = 3.63684 20.30677 11.97180
#
# Velocity S-wave (km/s) = 1.32614 3.13363 2.40606
# Velocity P-wave (km/s) = 2.33508 4.80222 3.77584
#
# Compressibility (1/GPa) = 0.15560157
#
# Stress axis : x y z
#
# Youngs Moduli (GPa) = 17.49707 146.59268 24.25562
#
# Poissons Ratio (x) = 0.28240 -0.68301
# Poissons Ratio (y) = 0.03371 0.02504
# Poissons Ratio (z) = -0.49270 0.15134
#
# Static dielectric constant tensor:
#      x y z
#    x 1.767070 0.000000 0.000000 
#    y 0.000000 1.756930 0.000000 
#    z 0.000000 0.000000 1.762230 
# 
# From -- ./inp_files/12440.got.cif
#   From: 2010.05.17/outbox.cif.g08.bks.cpg/sg51_7_cif.got.tgz:12440.got - 2010.06.03 11:52:47.
