data_PCOD9404019
_publ_section_title
;
Structure prediction by ZEFSAII (Michael W. Deem and Ramdas Pophale) SiO2 
 PCOD9404019
Probable space group: P M M A
;
_chemical_formula_sum "Si O2"
_cell_formula_units_Z 40
_cell_length_a 8.708777
_cell_length_b 12.870113
_cell_length_c 19.668780
_cell_angle_alpha 90.000000
_cell_angle_beta 90.000000
_cell_angle_gamma 90.000000
_cell_volume 2204.534769
_symmetry_space_group_name_H-M "P M M A"
_symmetry_group_IT_number 51
_symmetry_cell_setting 'orthorhombic'
loop_
_space_group_symop_operation_xyz
x,y,z
1/2-x,-y,z
1/2+x,-y,-z
-x,y,-z
-x,-y,-z
1/2+x,y,-z
1/2-x,y,z
x,-y,z
loop_
_atom_site_type_symbol
_atom_site_label
_atom_site_fract_x
_atom_site_fract_y
_atom_site_fract_z
Si Si1 0.935469 0.700360 0.336312
Si Si2 0.434644 0.000000 0.076207
Si Si3 0.064866 0.500000 0.575479
Si Si4 0.933675 0.879448 0.573605
Si Si5 0.065557 0.772176 0.076396
Si Si6 0.564451 0.620979 0.188445
O O1 0.750000 0.706430 0.337810
O O2 0.982308 0.602686 0.383233
O O3 0.982556 0.675024 0.259247
O O4 0.003721 0.804110 0.368447
O O5 0.480597 0.887312 0.104820
O O6 0.250000 0.000000 0.073601
O O7 0.500000 0.000000 0.000000
O O8 0.250000 0.500000 0.572680
O O9 0.000000 0.500000 0.500000
O O10 0.750000 0.873569 0.570923
O O11 0.000000 0.847433 0.500000
O O12 0.978288 0.000000 0.584782
O O13 0.250000 0.767393 0.073234
O O14 0.002520 0.683515 0.125223
O O15 0.000000 0.762588 0.000000
O O16 0.750000 0.623573 0.185354
O O17 0.518094 0.500000 0.188819
#
# Coordination Sequence:
#
# PCOD9404019 Si02
#       6
#     8   4   4   8   8   8
#     4  10  20  37  58  79 110 147 185 228 277 329
#     4   8  16  32  54  80 110 140 171 218 271 316
#     4  10  20  34  54  82 109 140 179 226 275 322
#     4  10  21  37  57  82 112 146 184 229 278 328
#     4  10  20  36  59  86 114 146 185 228 274 327
#     4  10  21  39  59  79 110 150 187 229 279 327
#
# _framework density 18.144418999999999
#
# number of rings (size 3 to 8) (size 9 to 14) (size 15 to 20)
#    0.000    2.200    1.000    1.800    0.000    6.000 
#    1.800    0.000    0.000    0.000    0.000    0.000 
#    0.000    0.000    0.000    0.000    0.000    0.000 
#
# Total GULP energy -223181.154341 kJ/mol
# GULP energy per Si atom -5579.528859 kJ/mol
# Density = 1.810312 g / cm^3
# Si number density = 18.144419 Si / 1000 Ang^3
#
#
#
# Elastic Constant Matrix: (Units=GPa)
#
#
# Indices 1 2 3 4 5 6 
#
# 1 20.2580 35.9291 32.1202 0.0000 0.0000 0.0000
# 2 35.9291 137.5570 87.6046 0.0000 0.0000 0.0000
# 3 32.1202 87.6046 130.7730 0.0000 0.0000 0.0000
# 4 0.0000 0.0000 0.0000 27.3121 0.0000 0.0000
# 5 0.0000 0.0000 0.0000 0.0000 30.6086 0.0000
# 6 0.0000 0.0000 0.0000 0.0000 0.0000 26.5196
#
#
#
# Elastic Compliance Matrix: (Units=1/GPa)
#
#
# Indices 1 2 3 4 5 6 
#
# 1 0.102719 -0.018770 -0.012656 0.000000 0.000000 0.000000
# 2 -0.018770 0.016109 -0.006181 0.000000 0.000000 0.000000
# 3 -0.012656 -0.006181 0.014896 0.000000 0.000000 0.000000
# 4 0.000000 0.000000 0.000000 0.036614 0.000000 0.000000
# 5 0.000000 0.000000 0.000000 0.000000 0.032671 0.000000
# 6 0.000000 0.000000 0.000000 0.000000 0.000000 0.037708
#
#
# Mechanical properties :
#
#
# Convention : Reuss Voigt Hill
#
# Bulk Modulus (GPa) = 17.09087 66.65508 41.87298
# Shear Modulus (GPa) = 14.90611 25.75034 20.32822
#
# Velocity S-wave (km/s) = 2.86934 3.77130 3.35080
# Velocity P-wave (km/s) = 4.51855 7.46855 6.17238
#
# Compressibility (1/GPa) = 0.05851076
#
# Stress axis : x y z
#
# Youngs Moduli (GPa) = 9.73527 62.07847 67.13194
#
# Poissons Ratio (x) = 1.16518 0.84963
# Poissons Ratio (y) = 0.18273 0.41494
# Poissons Ratio (z) = 0.12321 0.38371
#
# Static dielectric constant tensor:
#      x y z
#    x 1.614820 0.000000 0.000000 
#    y 0.000000 1.638710 0.000000 
#    z 0.000000 0.000000 1.583090 
# 
# From -- ./inp_files/31405.got.cif
#   From: 2010.05.17/outbox.cif.g08.bks.cpg/sg51_16_cif.got.tgz:31405.got - 2010.06.03 11:52:47.
