data_PCOD9404032
_publ_section_title
;
Structure prediction by ZEFSAII (Michael W. Deem and Ramdas Pophale) SiO2 
 PCOD9404032
Probable space group: P M M A
;
_chemical_formula_sum "Si O2"
_cell_formula_units_Z 64
_cell_length_a 22.568086
_cell_length_b 9.207796
_cell_length_c 15.550955
_cell_angle_alpha 90.000000
_cell_angle_beta 90.000000
_cell_angle_gamma 90.000000
_cell_volume 3231.524714
_symmetry_space_group_name_H-M "P M M A"
_symmetry_group_IT_number 51
_symmetry_cell_setting 'orthorhombic'
loop_
_space_group_symop_operation_xyz
x,y,z
1/2-x,-y,z
1/2+x,-y,-z
-x,y,-z
-x,-y,-z
1/2+x,y,-z
1/2-x,y,z
x,-y,z
loop_
_atom_site_type_symbol
_atom_site_label
_atom_site_fract_x
_atom_site_fract_y
_atom_site_fract_z
Si Si1 0.629604 0.836865 0.151851
Si Si2 0.680408 0.828356 0.816002
Si Si3 0.052672 0.676590 0.436424
Si Si4 0.926380 0.327164 0.752458
Si Si5 0.505757 0.834208 0.902064
Si Si6 0.320901 0.335712 0.008323
Si Si7 0.318964 0.334053 0.696686
Si Si8 0.816297 0.325554 0.507943
O O1 0.559890 0.840903 0.136028
O O2 0.644858 0.775127 0.245010
O O3 0.653671 0.000000 0.140836
O O4 0.655706 0.731563 0.079399
O O5 0.750000 0.801639 0.801263
O O6 0.639170 0.740982 0.751034
O O7 0.665385 0.767215 0.910983
O O8 0.669620 0.000000 0.811574
O O9 0.054163 0.500000 0.444192
O O10 0.040685 0.711085 0.336474
O O11 0.120157 0.728001 0.456526
O O12 0.000000 0.727166 0.500000
O O13 0.922833 0.500000 0.758498
O O14 0.957102 0.261126 0.836324
O O15 0.529869 0.000000 0.907037
O O16 0.500000 0.779109 0.000000
O O17 0.250000 0.342109 0.002876
O O18 0.343225 0.500000 0.022663
O O19 0.250000 0.326759 0.723501
O O20 0.339730 0.500000 0.710432
O O21 0.320495 0.304923 0.595163
O O22 0.750000 0.270743 0.535258
O O23 0.815054 0.500000 0.523457
#
# Coordination Sequence:
#
# PCOD9404032 Si02
#       8
#     8   8   8   8   8   8   8   8
#     4  11  22  33  51  78 108 150 197 239 291 351
#     4  10  21  38  60  83 113 154 190 225 280 348
#     4   9  19  34  54  85 122 154 190 242 303 359
#     4  11  23  37  60  92 119 148 190 245 299 345
#     4  10  23  42  59  76 108 155 201 243 289 351
#     4  10  20  34  54  82 115 148 188 242 294 342
#     4   9  18  32  52  79 109 145 189 237 289 344
#     4   8  15  30  53  79 110 151 194 236 289 352
#
# _framework density 19.804894000000001
#
# number of rings (size 3 to 8) (size 9 to 14) (size 15 to 20)
#    0.000    2.250    0.000    3.375    1.750    6.000 
#    0.000    1.250    0.000    3.000    0.000    0.000 
#    0.000    0.000    0.000    0.000    0.000    0.000 
#
# Total GULP energy -357084.374980 kJ/mol
# GULP energy per Si atom -5579.443359 kJ/mol
# Density = 1.975982 g / cm^3
# Si number density = 19.804894 Si / 1000 Ang^3
#
#
#
# Elastic Constant Matrix: (Units=GPa)
#
#
# Indices 1 2 3 4 5 6 
#
# 1 77.8525 26.7039 59.1447 0.0000 0.0000 0.0000
# 2 26.7039 66.0264 42.6767 0.0000 0.0000 0.0000
# 3 59.1447 42.6767 85.1008 0.0000 0.0000 0.0000
# 4 0.0000 0.0000 0.0000 -55.5016 0.0000 0.0000
# 5 0.0000 0.0000 0.0000 0.0000 33.7653 0.0000
# 6 0.0000 0.0000 0.0000 0.0000 0.0000 24.3978
#
#
#
# Elastic Compliance Matrix: (Units=1/GPa)
#
#
# Indices 1 2 3 4 5 6 
#
# 1 0.027359 0.001812 -0.019923 0.000000 0.000000 0.000000
# 2 0.001812 0.022529 -0.012558 0.000000 0.000000 0.000000
# 3 -0.019923 -0.012558 0.031895 0.000000 0.000000 0.000000
# 4 0.000000 0.000000 0.000000 -0.018018 0.000000 0.000000
# 5 0.000000 0.000000 0.000000 0.000000 0.029616 0.000000
# 6 0.000000 0.000000 0.000000 0.000000 0.000000 0.040987
#
#
# Mechanical properties :
#
#
# Convention : Reuss Voigt Hill
#
# Bulk Modulus (GPa) = 48.90943 54.00335 51.45639
# Shear Modulus (GPa) = 24.68883 7.22926 15.95905
#
# Velocity S-wave (km/s) = 3.53456 1.91263 2.84176
# Velocity P-wave (km/s) = 6.43480 5.67489 6.06676
#
# Compressibility (1/GPa) = 0.02044596
#
# Stress axis : x y z
#
# Youngs Moduli (GPa) = 36.55129 44.38698 31.35314
#
# Poissons Ratio (x) = -0.08045 0.62465
# Poissons Ratio (y) = -0.06625 0.39372
# Poissons Ratio (z) = 0.72822 0.55739
#
# Static dielectric constant tensor:
#      x y z
#    x 1.727340 0.000000 0.000000 
#    y 0.000000 1.675040 0.000000 
#    z 0.000000 0.000000 1.691220 
# 
# From -- ./inp_files/26228.got.cif
#   From: 2010.05.17/outbox.cif.g08.bks.cpg/sg51_14_cif.got.tgz:26228.got - 2010.06.03 11:52:47.
