data_PCOD9404689
_publ_section_title
;
Structure prediction by ZEFSAII (Michael W. Deem and Ramdas Pophale) SiO2 
 PCOD9404689
Probable space group: P M M A
;
_chemical_formula_sum "Si O2"
_cell_formula_units_Z 48
_cell_length_a 8.645196
_cell_length_b 29.813754
_cell_length_c 10.470043
_cell_angle_alpha 90.000000
_cell_angle_beta 90.000000
_cell_angle_gamma 90.000000
_cell_volume 2698.609052
_symmetry_space_group_name_H-M "P M M A"
_symmetry_group_IT_number 51
_symmetry_cell_setting 'orthorhombic'
loop_
_space_group_symop_operation_xyz
x,y,z
1/2-x,-y,z
1/2+x,-y,-z
-x,y,-z
-x,-y,-z
1/2+x,y,-z
1/2-x,y,z
x,-y,z
loop_
_atom_site_type_symbol
_atom_site_label
_atom_site_fract_x
_atom_site_fract_y
_atom_site_fract_z
Si Si1 0.563234 0.551675 0.639054
Si Si2 0.563727 0.381884 0.861704
Si Si3 0.434864 0.052890 0.860727
Si Si4 0.064025 0.277670 0.139803
Si Si5 0.434771 0.114625 0.362495
Si Si6 0.935015 0.214794 0.361804
O O1 0.500000 0.564304 0.500000
O O2 0.750000 0.552996 0.635016
O O3 0.516744 0.500000 0.664670
O O4 0.509878 0.585281 0.749513
O O5 0.750000 0.383709 0.866196
O O6 0.520360 0.329928 0.838438
O O7 0.500000 0.395188 0.000000
O O8 0.250000 0.058780 0.859106
O O9 0.510804 0.082071 0.749802
O O10 0.468862 0.000000 0.841802
O O11 0.500000 0.065577 0.000000
O O12 0.250000 0.274223 0.140086
O O13 0.994163 0.246849 0.249861
O O14 0.000000 0.265020 0.000000
O O15 0.500000 0.099387 0.500000
O O16 0.250000 0.116957 0.368407
O O17 0.502011 0.164448 0.340221
O O18 0.750000 0.213940 0.365960
O O19 0.000000 0.229469 0.500000
#
# Coordination Sequence:
#
# PCOD9404689 Si02
#       6
#     8   8   8   8   8   8
#     4   9  18  33  51  73 102 135 172 214 259 308
#     4   9  19  34  52  75 104 136 171 214 260 310
#     4  10  21  38  59  84 114 147 184 226 271 319
#     4  10  20  36  55  78 107 139 177 219 266 317
#     4  11  22  38  59  83 112 145 182 224 270 319
#     4  11  22  38  58  81 109 141 178 220 268 319
#
# _framework density 17.786940999999999
#
# number of rings (size 3 to 8) (size 9 to 14) (size 15 to 20)
#    0.000    2.000    0.000    5.000    0.000    4.333 
#    0.000    5.000    0.000    0.000    0.000    0.000 
#    0.000    0.000    0.000    0.000    0.000    0.000 
#
# Total GULP energy -268065.262470 kJ/mol
# GULP energy per Si atom -5584.692968 kJ/mol
# Density = 1.774646 g / cm^3
# Si number density = 17.786941 Si / 1000 Ang^3
#
#
#
# Elastic Constant Matrix: (Units=GPa)
#
#
# Indices 1 2 3 4 5 6 
#
# 1 96.4502 51.8157 75.3617 0.0000 0.0000 0.0000
# 2 51.8157 83.8932 118.3038 0.0000 0.0000 0.0000
# 3 75.3617 118.3038 206.2751 0.0000 0.0000 0.0000
# 4 0.0000 0.0000 0.0000 42.5903 0.0000 0.0000
# 5 0.0000 0.0000 0.0000 0.0000 37.0591 0.0000
# 6 0.0000 0.0000 0.0000 0.0000 0.0000 28.5784
#
#
#
# Elastic Compliance Matrix: (Units=1/GPa)
#
#
# Indices 1 2 3 4 5 6 
#
# 1 0.015549 -0.008329 -0.000904 0.000000 0.000000 0.000000
# 2 -0.008329 0.066794 -0.035265 0.000000 0.000000 0.000000
# 3 -0.000904 -0.035265 0.025403 0.000000 0.000000 0.000000
# 4 0.000000 0.000000 0.000000 0.023480 0.000000 0.000000
# 5 0.000000 0.000000 0.000000 0.000000 0.026984 0.000000
# 6 0.000000 0.000000 0.000000 0.000000 0.000000 0.034991
#
#
# Mechanical properties :
#
#
# Convention : Reuss Voigt Hill
#
# Bulk Modulus (GPa) = 53.33181 97.50899 75.42040
# Shear Modulus (GPa) = 17.33416 31.05471 24.19443
#
# Velocity S-wave (km/s) = 3.12516 4.18296 3.69214
# Velocity P-wave (km/s) = 6.56284 8.84698 7.78910
#
# Compressibility (1/GPa) = 0.01875054
#
# Stress axis : x y z
#
# Youngs Moduli (GPa) = 64.31359 14.97134 39.36469
#
# Poissons Ratio (x) = 0.12470 0.03557
# Poissons Ratio (y) = 0.53568 1.38820
# Poissons Ratio (z) = 0.05812 0.52797
#
# Static dielectric constant tensor:
#      x y z
#    x 1.597230 0.000000 0.000000 
#    y 0.000000 1.595640 0.000000 
#    z 0.000000 0.000000 1.575580 
# 
# From -- ./inp_files/6003.got.cif
#   From: 2010.05.17/outbox.cif.g08.bks.cpg/sg51_4_cif.got.tgz:6003.got - 2010.06.03 11:52:47.
