data_PCOD9404908
_publ_section_title
;
Structure prediction by ZEFSAII (Michael W. Deem and Ramdas Pophale) SiO2 
 PCOD9404908
Probable space group: P M M A
;
_chemical_formula_sum "Si O2"
_cell_formula_units_Z 64
_cell_length_a 23.483031
_cell_length_b 8.823737
_cell_length_c 16.326757
_cell_angle_alpha 90.000000
_cell_angle_beta 90.000000
_cell_angle_gamma 90.000000
_cell_volume 3383.036126
_symmetry_space_group_name_H-M "P M M A"
_symmetry_group_IT_number 51
_symmetry_cell_setting 'orthorhombic'
loop_
_space_group_symop_operation_xyz
x,y,z
1/2-x,-y,z
1/2+x,-y,-z
-x,y,-z
-x,-y,-z
1/2+x,y,-z
1/2-x,y,z
x,-y,z
loop_
_atom_site_type_symbol
_atom_site_label
_atom_site_fract_x
_atom_site_fract_y
_atom_site_fract_z
Si Si1 0.316917 0.824653 0.661595
Si Si2 0.972252 0.680220 0.110356
Si Si3 0.317670 0.327889 0.492831
Si Si4 0.494282 0.179468 0.405620
Si Si5 0.586895 0.181820 0.957397
Si Si6 0.683142 0.816867 0.830250
Si Si7 0.883006 0.319380 0.674102
Si Si8 0.578444 0.324494 0.287918
O O1 0.250000 0.797180 0.673053
O O2 0.330162 0.783988 0.567030
O O3 0.355434 0.716606 0.716101
O O4 0.328948 0.000000 0.678260
O O5 0.979829 0.500000 0.097843
O O6 0.951164 0.706269 0.201778
O O7 0.032272 0.763166 0.095185
O O8 0.926418 0.742486 0.044940
O O9 0.250000 0.328853 0.481241
O O10 0.335530 0.500000 0.515715
O O11 0.346090 0.288535 0.407321
O O12 0.500000 0.233852 0.500000
O O13 0.444518 0.255661 0.351580
O O14 0.551375 0.220290 0.357591
O O15 0.484090 0.000000 0.407933
O O16 0.645132 0.224239 0.910257
O O17 0.585291 0.000000 0.965548
O O18 0.750000 0.768637 0.832299
O O19 0.648748 0.752538 0.751993
O O20 0.682873 0.000000 0.824855
O O21 0.886982 0.500000 0.686877
O O22 0.569743 0.500000 0.309102
#
# Coordination Sequence:
#
# PCOD9404908 Si02
#       8
#     8   8   8   8   8   8   8   8
#     4  10  21  36  55  79 106 139 179 222 269 320
#     4  10  21  37  59  86 113 141 178 226 278 332
#     4   9  18  33  52  74 103 141 184 228 271 317
#     4  11  24  39  56  81 114 152 192 236 287 338
#     4  10  20  36  60  86 111 143 182 223 274 334
#     4  10  22  39  58  83 117 155 193 235 285 342
#     4  11  22  35  54  81 112 148 191 234 280 336
#     4  11  23  38  58  83 110 143 182 224 272 326
#
# _framework density 18.917919000000001
#
# number of rings (size 3 to 8) (size 9 to 14) (size 15 to 20)
#    0.000    1.750    0.000    4.875    0.000   10.500 
#    0.000    1.875    0.000    2.250    0.000    0.000 
#    0.000    0.000    0.000    0.000    0.000    0.000 
#
# Total GULP energy -357340.269919 kJ/mol
# GULP energy per Si atom -5583.441717 kJ/mol
# Density = 1.887486 g / cm^3
# Si number density = 18.917919 Si / 1000 Ang^3
#
#
#
# Elastic Constant Matrix: (Units=GPa)
#
#
# Indices 1 2 3 4 5 6 
#
# 1 94.8713 20.9739 42.5449 0.0000 0.0000 0.0000
# 2 20.9739 20.4787 14.9139 0.0000 0.0000 0.0000
# 3 42.5449 14.9139 58.6842 0.0000 0.0000 0.0000
# 4 0.0000 0.0000 0.0000 30.4272 0.0000 0.0000
# 5 0.0000 0.0000 0.0000 0.0000 29.6318 0.0000
# 6 0.0000 0.0000 0.0000 0.0000 0.0000 34.0672
#
#
#
# Elastic Compliance Matrix: (Units=1/GPa)
#
#
# Indices 1 2 3 4 5 6 
#
# 1 0.017289 -0.010527 -0.009859 0.000000 0.000000 0.000000
# 2 -0.010527 0.066331 -0.009225 0.000000 0.000000 0.000000
# 3 -0.009859 -0.009225 0.026532 0.000000 0.000000 0.000000
# 4 0.000000 0.000000 0.000000 0.032865 0.000000 0.000000
# 5 0.000000 0.000000 0.000000 0.000000 0.033747 0.000000
# 6 0.000000 0.000000 0.000000 0.000000 0.000000 0.029354
#
#
# Mechanical properties :
#
#
# Convention : Reuss Voigt Hill
#
# Bulk Modulus (GPa) = 19.63480 36.76662 28.20071
# Shear Modulus (GPa) = 17.71046 25.19869 21.45458
#
# Velocity S-wave (km/s) = 3.06302 3.65362 3.37127
# Velocity P-wave (km/s) = 4.78653 6.10537 5.48573
#
# Compressibility (1/GPa) = 0.05092997
#
# Stress axis : x y z
#
# Youngs Moduli (GPa) = 57.83975 15.07583 37.68983
#
# Poissons Ratio (x) = 0.15871 0.37158
# Poissons Ratio (y) = 0.60890 0.34770
# Poissons Ratio (z) = 0.57024 0.13908
#
# Static dielectric constant tensor:
#      x y z
#    x 1.715690 0.000000 0.000000 
#    y 0.000000 1.646130 0.000000 
#    z 0.000000 0.000000 1.641460 
# 
# From -- ./inp_files/26203.got.cif
#   From: 2010.05.17/outbox.cif.g08.bks.cpg/sg51_14_cif.got.tgz:26203.got - 2010.06.03 11:52:47.
