data_PCOD9404650
_publ_section_title
;
Structure prediction by ZEFSAII (Michael W. Deem and Ramdas Pophale) SiO2 
 PCOD9404650
Probable space group: P M M A
;
_chemical_formula_sum "Si O2"
_cell_formula_units_Z 40
_cell_length_a 18.803640
_cell_length_b 11.275748
_cell_length_c 9.679709
_cell_angle_alpha 90.000000
_cell_angle_beta 90.000000
_cell_angle_gamma 90.000000
_cell_volume 2052.341328
_symmetry_space_group_name_H-M "P M M A"
_symmetry_group_IT_number 51
_symmetry_cell_setting 'orthorhombic'
loop_
_space_group_symop_operation_xyz
x,y,z
1/2-x,-y,z
1/2+x,-y,-z
-x,y,-z
-x,-y,-z
1/2+x,y,-z
1/2-x,y,z
x,-y,z
loop_
_atom_site_type_symbol
_atom_site_label
_atom_site_fract_x
_atom_site_fract_y
_atom_site_fract_z
Si Si1 0.557428 0.136192 0.777053
Si Si2 0.015424 0.369564 0.664576
Si Si3 0.329122 0.692002 0.716808
Si Si4 0.327596 0.870262 0.463583
Si Si5 0.830443 0.863866 0.022064
O O1 0.509509 0.251895 0.747978
O O2 0.611036 0.137747 0.647473
O O3 0.526259 0.000000 0.783378
O O4 0.606887 0.152791 0.911489
O O5 0.982670 0.500000 0.699750
O O6 0.098924 0.379260 0.696937
O O7 0.000000 0.350979 0.500000
O O8 0.250000 0.636246 0.722059
O O9 0.330440 0.774933 0.582055
O O10 0.335994 0.773285 0.852389
O O11 0.250000 0.862048 0.394118
O O12 0.332374 0.000000 0.530228
O O13 0.750000 0.850579 0.962203
O O14 0.835443 0.000000 0.071709
#
# Coordination Sequence:
#
# PCOD9404650 Si02
#       5
#     8   8   8   8   8
#     4  10  20  35  59  89 119 153 193 237 288 350
#     4  11  24  42  60  84 119 154 194 248 306 351
#     4  10  20  36  58  83 112 152 199 239 285 349
#     4   9  16  28  51  83 115 147 188 236 281 331
#     4   9  18  34  58  90 127 159 190 238 294 344
#
# _framework density 19.489934999999999
#
# number of rings (size 3 to 8) (size 9 to 14) (size 15 to 20)
#    0.000    2.200    2.000    1.200    0.000    8.000 
#    0.000    4.000    0.000    3.600    0.000    0.000 
#    0.000    0.000    0.000    0.000    0.000    0.000 
#
# Total GULP energy -222760.731933 kJ/mol
# GULP energy per Si atom -5569.018298 kJ/mol
# Density = 1.944557 g / cm^3
# Si number density = 19.489935 Si / 1000 Ang^3
#
#
#
# Elastic Constant Matrix: (Units=GPa)
#
#
# Indices 1 2 3 4 5 6 
#
# 1 100.4708 67.3148 23.2437 0.0000 0.0000 0.0000
# 2 67.3148 120.0135 34.6500 0.0000 0.0000 0.0000
# 3 23.2437 34.6500 64.4960 0.0000 0.0000 0.0000
# 4 0.0000 0.0000 0.0000 15.4682 0.0000 0.0000
# 5 0.0000 0.0000 0.0000 0.0000 23.2863 0.0000
# 6 0.0000 0.0000 0.0000 0.0000 0.0000 3.7021
#
#
#
# Elastic Compliance Matrix: (Units=1/GPa)
#
#
# Indices 1 2 3 4 5 6 
#
# 1 0.016013 -0.008659 -0.001119 0.000000 0.000000 0.000000
# 2 -0.008659 0.014544 -0.004693 0.000000 0.000000 0.000000
# 3 -0.001119 -0.004693 0.018430 0.000000 0.000000 0.000000
# 4 0.000000 0.000000 0.000000 0.064649 0.000000 0.000000
# 5 0.000000 0.000000 0.000000 0.000000 0.042944 0.000000
# 6 0.000000 0.000000 0.000000 0.000000 0.000000 0.270116
#
#
# Mechanical properties :
#
#
# Convention : Reuss Voigt Hill
#
# Bulk Modulus (GPa) = 49.88832 59.48860 54.68846
# Shear Modulus (GPa) = 10.81503 19.14276 14.97890
#
# Velocity S-wave (km/s) = 2.35819 3.13739 2.77527
# Velocity P-wave (km/s) = 5.75042 6.61160 6.19599
#
# Compressibility (1/GPa) = 0.02004477
#
# Stress axis : x y z
#
# Youngs Moduli (GPa) = 62.44815 68.75712 54.26064
#
# Poissons Ratio (x) = 0.59534 0.06073
# Poissons Ratio (y) = 0.54071 0.25465
# Poissons Ratio (z) = 0.06990 0.32269
#
# Static dielectric constant tensor:
#      x y z
#    x 1.740100 0.000000 0.000000 
#    y 0.000000 1.695180 0.000000 
#    z 0.000000 0.000000 1.639020 
# 
# From -- ./inp_files/9269.got.cif
#   From: 2010.05.17/outbox.cif.g08.bks.cpg/sg51_5_cif.got.tgz:9269.got - 2010.06.03 11:52:47.
