data_PCOD9404677
_publ_section_title
;
Structure prediction by ZEFSAII (Michael W. Deem and Ramdas Pophale) SiO2 
 PCOD9404677
Probable space group: P M M A
;
_chemical_formula_sum "Si O2"
_cell_formula_units_Z 48
_cell_length_a 33.173692
_cell_length_b 7.289583
_cell_length_c 9.854283
_cell_angle_alpha 90.000000
_cell_angle_beta 90.000000
_cell_angle_gamma 90.000000
_cell_volume 2382.986181
_symmetry_space_group_name_H-M "P M M A"
_symmetry_group_IT_number 51
_symmetry_cell_setting 'orthorhombic'
loop_
_space_group_symop_operation_xyz
x,y,z
1/2-x,-y,z
1/2+x,-y,-z
-x,y,-z
-x,-y,-z
1/2+x,y,-z
1/2-x,y,z
x,-y,z
loop_
_atom_site_type_symbol
_atom_site_label
_atom_site_fract_x
_atom_site_fract_y
_atom_site_fract_z
Si Si1 0.153345 0.220508 0.668417
Si Si2 0.575606 0.218222 0.149917
Si Si3 0.041850 0.500000 0.417326
Si Si4 0.795459 0.775892 0.083810
Si Si5 0.388536 0.221756 0.405349
Si Si6 0.507833 0.500000 0.159433
Si Si7 0.870711 0.222419 0.902358
O O1 0.112026 0.262961 0.748287
O O2 0.189025 0.283963 0.767033
O O3 0.145758 0.276973 0.514190
O O4 0.156928 0.000000 0.665658
O O5 0.535672 0.324122 0.188362
O O6 0.569556 0.000000 0.151252
O O7 0.592484 0.274402 0.001623
O O8 0.070193 0.675669 0.444037
O O9 0.000000 0.500000 0.500000
O O10 0.029689 0.500000 0.258962
O O11 0.750000 0.717102 0.055782
O O12 0.795723 0.000000 0.083023
O O13 0.829185 0.718218 0.974596
O O14 0.376651 0.276471 0.252663
O O15 0.393457 0.000000 0.410713
O O16 0.500000 0.500000 0.000000
O O17 0.870043 0.000000 0.904279
#
# Coordination Sequence:
#
# PCOD9404677 Si02
#       7
#     8   8   4   8   8   4   8
#     4   8  15  29  50  71  95 134 172 198 238 294
#     4   9  18  34  51  68  95 130 166 203 245 298
#     4  12  26  38  52  78 103 129 168 211 267 314
#     4   8  13  24  46  79 112 134 163 211 252 287
#     4  10  20  36  54  73 101 135 173 211 245 299
#     4  12  24  34  50  76  97 121 164 209 255 306
#     4   8  15  29  50  73 100 138 174 203 249 305
#
# _framework density 20.142792
#
# number of rings (size 3 to 8) (size 9 to 14) (size 15 to 20)
#    0.000    2.833    0.000    4.000    0.000    1.333 
#    0.000    0.833    0.000    5.000    0.000   22.167 
#    0.000    0.000    0.000    0.000    0.000    0.000 
#
# Total GULP energy -267833.893256 kJ/mol
# GULP energy per Si atom -5579.872776 kJ/mol
# Density = 2.009695 g / cm^3
# Si number density = 20.142792 Si / 1000 Ang^3
#
#
#
# Elastic Constant Matrix: (Units=GPa)
#
#
# Indices 1 2 3 4 5 6 
#
# 1 82.4704 20.0630 19.1791 0.0000 0.0000 0.0000
# 2 20.0630 85.9311 9.9882 0.0000 0.0000 0.0000
# 3 19.1791 9.9882 117.0137 0.0000 0.0000 0.0000
# 4 0.0000 0.0000 0.0000 1.2901 0.0000 0.0000
# 5 0.0000 0.0000 0.0000 0.0000 23.4124 0.0000
# 6 0.0000 0.0000 0.0000 0.0000 0.0000 26.2869
#
#
#
# Elastic Compliance Matrix: (Units=1/GPa)
#
#
# Indices 1 2 3 4 5 6 
#
# 1 0.013274 -0.002875 -0.001930 0.000000 0.000000 0.000000
# 2 -0.002875 0.012376 -0.000585 0.000000 0.000000 0.000000
# 3 -0.001930 -0.000585 0.008912 0.000000 0.000000 0.000000
# 4 0.000000 0.000000 0.000000 0.775130 0.000000 0.000000
# 5 0.000000 0.000000 0.000000 0.000000 0.042712 0.000000
# 6 0.000000 0.000000 0.000000 0.000000 0.000000 0.038042
#
#
# Mechanical properties :
#
#
# Convention : Reuss Voigt Hill
#
# Bulk Modulus (GPa) = 42.04854 42.65287 42.35071
# Shear Modulus (GPa) = 5.49961 25.94356 15.72159
#
# Velocity S-wave (km/s) = 1.65416 3.59274 2.79679
# Velocity P-wave (km/s) = 4.95670 6.19932 5.61251
#
# Compressibility (1/GPa) = 0.02378204
#
# Stress axis : x y z
#
# Youngs Moduli (GPa) = 75.33627 80.79855 112.20397
#
# Poissons Ratio (x) = 0.23228 0.21658
# Poissons Ratio (y) = 0.21658 0.06567
# Poissons Ratio (z) = 0.14542 0.04729
#
# Static dielectric constant tensor:
#      x y z
#    x 1.668940 0.000000 0.000000 
#    y 0.000000 1.764590 0.000000 
#    z 0.000000 0.000000 1.733780 
# 
# From -- ./inp_files/12881.got.cif
#   From: 2010.05.17/outbox.cif.g08.bks.cpg/sg51_7_cif.got.tgz:12881.got - 2010.06.03 11:52:47.
