data_PCOD9404142
_publ_section_title
;
Structure prediction by ZEFSAII (Michael W. Deem and Ramdas Pophale) SiO2 
 PCOD9404142
Probable space group: P M M A
;
_chemical_formula_sum "Si O2"
_cell_formula_units_Z 64
_cell_length_a 14.796600
_cell_length_b 8.743634
_cell_length_c 24.946523
_cell_angle_alpha 90.000000
_cell_angle_beta 90.000000
_cell_angle_gamma 90.000000
_cell_volume 3227.482728
_symmetry_space_group_name_H-M "P M M A"
_symmetry_group_IT_number 51
_symmetry_cell_setting 'orthorhombic'
loop_
_space_group_symop_operation_xyz
x,y,z
1/2-x,-y,z
1/2+x,-y,-z
-x,y,-z
-x,-y,-z
1/2+x,y,-z
1/2-x,y,z
x,-y,z
loop_
_atom_site_type_symbol
_atom_site_label
_atom_site_fract_x
_atom_site_fract_y
_atom_site_fract_z
Si Si1 0.961544 0.317851 0.866575
Si Si2 0.456043 0.819812 0.242905
Si Si3 0.994528 0.317113 0.563110
Si Si4 0.852684 0.684505 0.083449
Si Si5 0.142162 0.821748 0.033733
Si Si6 0.850466 0.679581 0.255799
Si Si7 0.645869 0.315889 0.653567
Si Si8 0.650766 0.174890 0.369304
O O1 0.958861 0.500000 0.860186
O O2 0.919360 0.242263 0.813690
O O3 0.908936 0.267778 0.919762
O O4 0.066546 0.271862 0.876799
O O5 0.561262 0.771963 0.239786
O O6 0.410088 0.747777 0.295678
O O7 0.446334 0.000000 0.246182
O O8 0.009074 0.500000 0.569893
O O9 0.904555 0.278865 0.597458
O O10 0.000000 0.285681 0.500000
O O11 0.073579 0.223204 0.590939
O O12 0.750000 0.732008 0.097995
O O13 0.852935 0.500000 0.079941
O O14 0.874734 0.752109 0.024988
O O15 0.250000 0.811508 0.042557
O O16 0.115884 0.000000 0.034595
O O17 0.750000 0.725473 0.235843
O O18 0.862511 0.500000 0.243431
O O19 0.849065 0.709460 0.319582
O O20 0.750000 0.263099 0.654483
O O21 0.645719 0.500000 0.658206
O O22 0.750000 0.181402 0.394776
O O23 0.637465 0.000000 0.349448
#
# Coordination Sequence:
#
# PCOD9404142 Si02
#       8
#     8   8   8   8   8   8   8   8
#     4  11  23  38  59  86 117 156 201 248 298 355
#     4  12  25  40  60  87 120 157 199 251 305 359
#     4  10  21  37  61  92 123 156 197 246 296 351
#     4   9  19  37  60  86 117 154 195 239 291 355
#     4  10  21  37  58  85 118 155 196 246 303 358
#     4  10  20  36  60  86 113 149 191 235 287 350
#     4  10  22  42  65  87 117 160 206 249 295 352
#     4  10  20  34  55  85 119 153 188 231 287 348
#
# _framework density 19.829695000000001
#
# number of rings (size 3 to 8) (size 9 to 14) (size 15 to 20)
#    0.000    1.750    1.250    3.000    0.000    6.750 
#    0.000    2.500    0.000    0.000    0.000    0.000 
#    0.000    0.000    0.000    0.000    0.000    0.000 
#
# Total GULP energy -357317.342217 kJ/mol
# GULP energy per Si atom -5583.083472 kJ/mol
# Density = 1.978456 g / cm^3
# Si number density = 19.829695 Si / 1000 Ang^3
#
#
#
# Elastic Constant Matrix: (Units=GPa)
#
#
# Indices 1 2 3 4 5 6 
#
# 1 88.8569 32.5292 56.6901 0.0000 0.0000 0.0000
# 2 32.5292 30.5972 32.6454 0.0000 0.0000 0.0000
# 3 56.6901 32.6454 117.9199 0.0000 0.0000 0.0000
# 4 0.0000 0.0000 0.0000 152.9245 0.0000 0.0000
# 5 0.0000 0.0000 0.0000 0.0000 3.3920 0.0000
# 6 0.0000 0.0000 0.0000 0.0000 0.0000 23.8149
#
#
#
# Elastic Compliance Matrix: (Units=1/GPa)
#
#
# Indices 1 2 3 4 5 6 
#
# 1 0.020637 -0.016114 -0.005460 0.000000 0.000000 0.000000
# 2 -0.016114 0.058966 -0.008577 0.000000 0.000000 0.000000
# 3 -0.005460 -0.008577 0.013480 0.000000 0.000000 0.000000
# 4 0.000000 0.000000 0.000000 0.006539 0.000000 0.000000
# 5 0.000000 0.000000 0.000000 0.000000 0.294810 0.000000
# 6 0.000000 0.000000 0.000000 0.000000 0.000000 0.041990
#
#
# Mechanical properties :
#
#
# Convention : Reuss Voigt Hill
#
# Bulk Modulus (GPa) = 30.50705 53.45593 41.98149
# Shear Modulus (GPa) = 9.84925 43.72691 26.78808
#
# Velocity S-wave (km/s) = 2.23108 4.70097 3.67946
# Velocity P-wave (km/s) = 4.69626 7.51542 6.26643
#
# Compressibility (1/GPa) = 0.03277931
#
# Stress axis : x y z
#
# Youngs Moduli (GPa) = 48.45734 16.95884 74.18489
#
# Poissons Ratio (x) = 0.27328 0.40505
# Poissons Ratio (y) = 0.78086 0.63632
# Poissons Ratio (z) = 0.26458 0.14546
#
# Static dielectric constant tensor:
#      x y z
#    x 1.728280 0.000000 0.000000 
#    y 0.000000 1.667510 0.000000 
#    z 0.000000 0.000000 1.689290 
# 
# From -- ./inp_files/35696.got.cif
#   From: 2010.05.17/outbox.cif.g08.bks.cpg/sg51_18_cif.got.tgz:35696.got - 2010.06.03 11:52:47.
