data_PCOD9404200
_publ_section_title
;
Structure prediction by ZEFSAII (Michael W. Deem and Ramdas Pophale) SiO2 
 PCOD9404200
Probable space group: P M M A
;
_chemical_formula_sum "Si O2"
_cell_formula_units_Z 48
_cell_length_a 28.037916
_cell_length_b 9.118571
_cell_length_c 9.997417
_cell_angle_alpha 90.000000
_cell_angle_beta 90.000000
_cell_angle_gamma 90.000000
_cell_volume 2555.996893
_symmetry_space_group_name_H-M "P M M A"
_symmetry_group_IT_number 51
_symmetry_cell_setting 'orthorhombic'
loop_
_space_group_symop_operation_xyz
x,y,z
1/2-x,-y,z
1/2+x,-y,-z
-x,y,-z
-x,-y,-z
1/2+x,y,-z
1/2-x,y,z
x,-y,z
loop_
_atom_site_type_symbol
_atom_site_label
_atom_site_fract_x
_atom_site_fract_y
_atom_site_fract_z
Si Si1 0.601653 0.671813 0.466651
Si Si2 0.542270 0.670762 0.199952
Si Si3 0.695840 0.174857 0.397992
Si Si4 0.604563 0.674233 0.939598
Si Si5 0.695795 0.328265 0.112373
Si Si6 0.947442 0.826282 0.705652
O O1 0.604207 0.500000 0.498616
O O2 0.582118 0.686022 0.315272
O O3 0.653429 0.745754 0.476177
O O4 0.564818 0.750527 0.565206
O O5 0.526555 0.500000 0.199911
O O6 0.497967 0.770916 0.238026
O O7 0.565905 0.702085 0.057051
O O8 0.750000 0.211254 0.442242
O O9 0.691809 0.230650 0.244868
O O10 0.689893 0.000000 0.403832
O O11 0.602801 0.500000 0.908397
O O12 0.591468 0.768499 0.811566
O O13 0.655870 0.707883 0.003946
O O14 0.750000 0.315089 0.061610
O O15 0.688100 0.500000 0.151279
O O16 0.946691 0.000000 0.692581
#
# Coordination Sequence:
#
# PCOD9404200 Si02
#       6
#     8   8   8   8   8   8
#     4  11  22  40  63  86 112 151 197 239 283 337
#     4  10  21  39  62  86 110 147 197 243 286 337
#     4  10  20  34  56  88 122 151 182 229 287 340
#     4  10  20  38  60  85 115 152 193 238 285 335
#     4   9  17  33  59  88 114 145 191 237 277 332
#     4  12  26  39  54  83 119 156 191 236 296 350
#
# _framework density 18.779366
#
# number of rings (size 3 to 8) (size 9 to 14) (size 15 to 20)
#    0.000    1.667    1.667    3.500    0.000    7.667 
#    0.000    0.833    0.000    3.000    0.000    0.000 
#    0.000    0.000    0.000    0.000    0.000    0.000 
#
# Total GULP energy -268219.070243 kJ/mol
# GULP energy per Si atom -5587.897297 kJ/mol
# Density = 1.873662 g / cm^3
# Si number density = 18.779366 Si / 1000 Ang^3
#
#
#
# Elastic Constant Matrix: (Units=GPa)
#
#
# Indices 1 2 3 4 5 6 
#
# 1 76.9936 28.2036 -14.5498 0.0000 0.0000 0.0000
# 2 28.2036 71.1677 12.5501 0.0000 0.0000 0.0000
# 3 -14.5498 12.5501 29.0951 0.0000 0.0000 0.0000
# 4 0.0000 0.0000 0.0000 10.0735 0.0000 0.0000
# 5 0.0000 0.0000 0.0000 0.0000 8.0847 0.0000
# 6 0.0000 0.0000 0.0000 0.0000 0.0000 14.6173
#
#
#
# Elastic Compliance Matrix: (Units=1/GPa)
#
#
# Indices 1 2 3 4 5 6 
#
# 1 0.019366 -0.010155 0.014065 0.000000 0.000000 0.000000
# 2 -0.010155 0.020533 -0.013935 0.000000 0.000000 0.000000
# 3 0.014065 -0.013935 0.047414 0.000000 0.000000 0.000000
# 4 0.000000 0.000000 0.000000 0.099270 0.000000 0.000000
# 5 0.000000 0.000000 0.000000 0.000000 0.123691 0.000000
# 6 0.000000 0.000000 0.000000 0.000000 0.000000 0.068412
#
#
# Mechanical properties :
#
#
# Convention : Reuss Voigt Hill
#
# Bulk Modulus (GPa) = 14.86708 25.51825 20.19267
# Shear Modulus (GPa) = 11.87203 16.62526 14.24864
#
# Velocity S-wave (km/s) = 2.51706 2.97862 2.75751
# Velocity P-wave (km/s) = 4.04738 5.04455 4.57323
#
# Compressibility (1/GPa) = 0.06726269
#
# Stress axis : x y z
#
# Youngs Moduli (GPa) = 51.63743 48.70194 21.09062
#
# Poissons Ratio (x) = 0.49456 -0.29663
# Poissons Ratio (y) = 0.52437 0.29390
# Poissons Ratio (z) = -0.72627 0.67867
#
# Static dielectric constant tensor:
#      x y z
#    x 1.670380 0.000000 0.000000 
#    y 0.000000 1.624340 0.000000 
#    z 0.000000 0.000000 1.626330 
# 
# From -- ./inp_files/12797.got.cif
#   From: 2010.05.17/outbox.cif.g08.bks.cpg/sg51_7_cif.got.tgz:12797.got - 2010.06.03 11:52:47.
