data_PCOD9404623
_publ_section_title
;
Structure prediction by ZEFSAII (Michael W. Deem and Ramdas Pophale) SiO2 
 PCOD9404623
Probable space group: P M M A
;
_chemical_formula_sum "Si O2"
_cell_formula_units_Z 56
_cell_length_a 22.224763
_cell_length_b 8.208868
_cell_length_c 14.808427
_cell_angle_alpha 90.000000
_cell_angle_beta 90.000000
_cell_angle_gamma 90.000000
_cell_volume 2701.651581
_symmetry_space_group_name_H-M "P M M A"
_symmetry_group_IT_number 51
_symmetry_cell_setting 'orthorhombic'
loop_
_space_group_symop_operation_xyz
x,y,z
1/2-x,-y,z
1/2+x,-y,-z
-x,y,-z
-x,-y,-z
1/2+x,y,-z
1/2-x,y,z
x,-y,z
loop_
_atom_site_type_symbol
_atom_site_label
_atom_site_fract_x
_atom_site_fract_y
_atom_site_fract_z
Si Si1 0.250000 0.694518 0.569791
Si Si2 0.553073 0.197379 0.272756
Si Si3 0.880200 0.196067 0.451068
Si Si4 0.250000 0.301342 0.777745
Si Si5 0.433470 0.192130 0.369044
Si Si6 0.818884 0.807983 0.933826
Si Si7 0.181494 0.308925 0.266135
Si Si8 0.368711 0.693878 0.885144
O O1 0.250000 0.500000 0.568679
O O2 0.312146 0.754067 0.527655
O O3 0.250000 0.753414 0.674116
O O4 0.599426 0.251547 0.351743
O O5 0.488152 0.255794 0.308359
O O6 0.574551 0.261241 0.176369
O O7 0.553701 0.000000 0.268148
O O8 0.924474 0.257958 0.529647
O O9 0.883292 0.000000 0.450482
O O10 0.250000 0.500000 0.776985
O O11 0.190136 0.246714 0.829498
O O12 0.370132 0.216934 0.319727
O O13 0.446013 0.000000 0.379037
O O14 0.750000 0.767286 0.962971
O O15 0.829819 0.714597 0.840709
O O16 0.821251 0.000000 0.914253
O O17 0.863364 0.766608 0.015156
O O18 0.250000 0.251304 0.283694
O O19 0.178515 0.500000 0.288855
O O20 0.364715 0.500000 0.893289
#
# Coordination Sequence:
#
# PCOD9404623 Si02
#       8
#     4   8   8   4   8   8   8   8
#     4  11  21  35  53  82 119 152 187 235 288 336
#     4  10  21  38  58  83 115 153 195 238 281 335
#     4  10  21  37  58  84 114 152 195 237 285 338
#     4   9  18  31  49  76 115 154 185 223 276 332
#     4  10  22  40  61  82 111 151 195 241 287 335
#     4  10  20  35  58  88 117 148 188 234 285 341
#     4  10  22  40  61  86 115 147 186 237 291 342
#     4  11  20  34  56  84 119 156 189 229 282 341
#
# _framework density 20.728061
#
# number of rings (size 3 to 8) (size 9 to 14) (size 15 to 20)
#    0.000    1.857    2.143    1.929    1.000    4.286 
#    0.000    0.714    0.000    6.857    0.000    0.000 
#    0.000    0.000    0.000    0.000    0.000    0.000 
#
# Total GULP energy -312802.770552 kJ/mol
# GULP energy per Si atom -5585.763760 kJ/mol
# Density = 2.068088 g / cm^3
# Si number density = 20.728061 Si / 1000 Ang^3
#
#
#
# Elastic Constant Matrix: (Units=GPa)
#
#
# Indices 1 2 3 4 5 6 
#
# 1 60.0796 -7.1854 -4.6701 0.0000 0.0000 0.0000
# 2 -7.1854 16.4946 -10.2540 0.0000 0.0000 0.0000
# 3 -4.6701 -10.2540 30.4769 0.0000 0.0000 0.0000
# 4 0.0000 0.0000 0.0000 9.9584 0.0000 0.0000
# 5 0.0000 0.0000 0.0000 0.0000 17.9514 0.0000
# 6 0.0000 0.0000 0.0000 0.0000 0.0000 16.0261
#
#
#
# Elastic Compliance Matrix: (Units=1/GPa)
#
#
# Indices 1 2 3 4 5 6 
#
# 1 0.018697 0.012551 0.007088 0.000000 0.000000 0.000000
# 2 0.012551 0.085085 0.030550 0.000000 0.000000 0.000000
# 3 0.007088 0.030550 0.044177 0.000000 0.000000 0.000000
# 4 0.000000 0.000000 0.000000 0.100418 0.000000 0.000000
# 5 0.000000 0.000000 0.000000 0.000000 0.055706 0.000000
# 6 0.000000 0.000000 0.000000 0.000000 0.000000 0.062398
#
#
# Mechanical properties :
#
#
# Convention : Reuss Voigt Hill
#
# Bulk Modulus (GPa) = 4.02680 6.98133 5.50406
# Shear Modulus (GPa) = 14.33152 17.39788 15.86470
#
# Velocity S-wave (km/s) = 2.63231 2.90028 2.76954
# Velocity P-wave (km/s) = 3.34450 3.81980 3.59002
#
# Compressibility (1/GPa) = 0.24833640
#
# Stress axis : x y z
#
# Youngs Moduli (GPa) = 53.48572 11.75290 22.63641
#
# Poissons Ratio (x) = -0.14751 -0.16044
# Poissons Ratio (y) = -0.67129 -0.69155
# Poissons Ratio (z) = -0.37909 -0.35906
#
# Static dielectric constant tensor:
#      x y z
#    x 1.746500 0.000000 0.000000 
#    y 0.000000 1.716740 0.000000 
#    z 0.000000 0.000000 1.745200 
# 
# From -- ./inp_files/25799.got.cif
#   From: 2010.05.17/outbox.cif.g08.bks.cpg/sg51_13_cif.got.tgz:25799.got - 2010.06.03 11:52:47.
