data_PCOD9404528
_publ_section_title
;
Structure prediction by ZEFSAII (Michael W. Deem and Ramdas Pophale) SiO2 
 PCOD9404528
Probable space group: P M M A
;
_chemical_formula_sum "Si O2"
_cell_formula_units_Z 56
_cell_length_a 9.382416
_cell_length_b 20.488942
_cell_length_c 15.660376
_cell_angle_alpha 90.000000
_cell_angle_beta 90.000000
_cell_angle_gamma 90.000000
_cell_volume 3010.484552
_symmetry_space_group_name_H-M "P M M A"
_symmetry_group_IT_number 51
_symmetry_cell_setting 'orthorhombic'
loop_
_space_group_symop_operation_xyz
x,y,z
1/2-x,-y,z
1/2+x,-y,-z
-x,y,-z
-x,-y,-z
1/2+x,y,-z
1/2-x,y,z
x,-y,z
loop_
_atom_site_type_symbol
_atom_site_label
_atom_site_fract_x
_atom_site_fract_y
_atom_site_fract_z
Si Si1 0.076430 0.702841 0.584856
Si Si2 0.920363 0.335068 0.219924
Si Si3 0.477201 0.156353 0.643232
Si Si4 0.750000 0.926263 0.653529
Si Si5 0.079327 0.928000 0.090619
Si Si6 0.250000 0.927519 0.550115
Si Si7 0.092296 0.189414 0.828521
Si Si8 0.917080 0.421512 0.913143
O O1 0.250000 0.709191 0.573929
O O2 0.052840 0.668509 0.677449
O O3 0.004570 0.774234 0.597648
O O4 0.000000 0.674188 0.500000
O O5 0.750000 0.344734 0.209806
O O6 0.955110 0.264857 0.175927
O O7 0.008882 0.388412 0.168380
O O8 0.614157 0.117002 0.673800
O O9 0.387051 0.110603 0.581921
O O10 0.394000 0.172329 0.728981
O O11 0.750000 0.931105 0.551038
O O12 0.750000 0.000000 0.688231
O O13 0.250000 0.922418 0.082477
O O14 0.014001 0.863962 0.134077
O O15 0.050195 0.000000 0.131987
O O16 0.000000 0.930366 0.000000
O O17 0.250000 0.000000 0.586814
O O18 0.250000 0.184750 0.869143
O O19 0.750000 0.403922 0.918864
O O20 0.926853 0.500000 0.906215
O O21 0.000000 0.402135 0.000000
#
# Coordination Sequence:
#
# PCOD9404528 Si02
#       8
#     8   8   8   4   8   4   8   8
#     4  10  20  35  57  82 110 149 195 244 294 346
#     4   9  20  38  58  86 123 155 195 243 286 341
#     4  11  21  36  50  72 101 135 180 231 284 346
#     4  11  24  34  46  68  97 131 176 231 285 345
#     4  10  22  39  58  79 102 133 179 231 286 352
#     4  11  20  34  50  66  93 133 176 223 283 345
#     4  10  21  39  57  78 108 143 182 231 286 339
#     4  10  21  38  63  96 130 164 198 229 273 336
#
# _framework density 18.601656999999999
#
# number of rings (size 3 to 8) (size 9 to 14) (size 15 to 20)
#    0.000    1.857    1.429    3.429    2.000    5.714 
#    2.571    0.000    0.000    0.429    0.000    0.000 
#    0.000    0.000    0.000    0.000    0.000    0.000 
#
# Total GULP energy -312192.337643 kJ/mol
# GULP energy per Si atom -5574.863172 kJ/mol
# Density = 1.855932 g / cm^3
# Si number density = 18.601657 Si / 1000 Ang^3
#
#
#
# Elastic Constant Matrix: (Units=GPa)
#
#
# Indices 1 2 3 4 5 6 
#
# 1 92.8665 41.9483 35.7764 0.0000 0.0000 0.0000
# 2 41.9483 49.6157 38.3337 0.0000 0.0000 0.0000
# 3 35.7764 38.3337 85.9526 0.0000 0.0000 0.0000
# 4 0.0000 0.0000 0.0000 20.7963 0.0000 0.0000
# 5 0.0000 0.0000 0.0000 0.0000 37.9483 0.0000
# 6 0.0000 0.0000 0.0000 0.0000 0.0000 29.0412
#
#
#
# Elastic Compliance Matrix: (Units=1/GPa)
#
#
# Indices 1 2 3 4 5 6 
#
# 1 0.017483 -0.013974 -0.001045 0.000000 0.000000 0.000000
# 2 -0.013974 0.041920 -0.012879 0.000000 0.000000 0.000000
# 3 -0.001045 -0.012879 0.017813 0.000000 0.000000 0.000000
# 4 0.000000 0.000000 0.000000 0.048086 0.000000 0.000000
# 5 0.000000 0.000000 0.000000 0.000000 0.026352 0.000000
# 6 0.000000 0.000000 0.000000 0.000000 0.000000 0.034434
#
#
# Mechanical properties :
#
#
# Convention : Reuss Voigt Hill
#
# Bulk Modulus (GPa) = 46.68530 51.17241 48.92886
# Shear Modulus (GPa) = 20.07847 25.04891 22.56369
#
# Velocity S-wave (km/s) = 3.28897 3.67358 3.48658
# Velocity P-wave (km/s) = 6.29087 6.75003 6.52449
#
# Compressibility (1/GPa) = 0.02142002
#
# Stress axis : x y z
#
# Youngs Moduli (GPa) = 57.19943 23.85492 56.13801
#
# Poissons Ratio (x) = 0.33334 0.05865
# Poissons Ratio (y) = 0.79929 0.72303
# Poissons Ratio (z) = 0.05976 0.30724
#
# Static dielectric constant tensor:
#      x y z
#    x 1.653190 0.000000 0.000000 
#    y 0.000000 1.653900 0.000000 
#    z 0.000000 0.000000 1.660650 
# 
# From -- ./inp_files/21892.got.cif
#   From: 2010.05.17/outbox.cif.g08.bks.cpg/sg51_11_cif.got.tgz:21892.got - 2010.06.03 11:52:47.
