data_PCOD9404926
_publ_section_title
;
Structure prediction by ZEFSAII (Michael W. Deem and Ramdas Pophale) SiO2 
 PCOD9404926
Probable space group: P M M A
;
_chemical_formula_sum "Si O2"
_cell_formula_units_Z 64
_cell_length_a 7.859636
_cell_length_b 15.252930
_cell_length_c 25.419521
_cell_angle_alpha 90.000000
_cell_angle_beta 90.000000
_cell_angle_gamma 90.000000
_cell_volume 3047.355160
_symmetry_space_group_name_H-M "P M M A"
_symmetry_group_IT_number 51
_symmetry_cell_setting 'orthorhombic'
loop_
_space_group_symop_operation_xyz
x,y,z
1/2-x,-y,z
1/2+x,-y,-z
-x,y,-z
-x,-y,-z
1/2+x,y,-z
1/2-x,y,z
x,-y,z
loop_
_atom_site_type_symbol
_atom_site_label
_atom_site_fract_x
_atom_site_fract_y
_atom_site_fract_z
Si Si1 0.546173 0.285568 0.938716
Si Si2 0.452214 0.401166 0.652868
Si Si3 0.956309 0.903635 0.395360
Si Si4 0.550998 0.598869 0.154195
Si Si5 0.545065 0.720638 0.440957
Si Si6 0.452687 0.095637 0.272414
Si Si7 0.551963 0.284092 0.751071
Si Si8 0.954989 0.093997 0.937906
O O1 0.750000 0.288148 0.933868
O O2 0.470465 0.362450 0.903860
O O3 0.484977 0.189150 0.918639
O O4 0.500000 0.293071 0.000000
O O5 0.250000 0.408972 0.644850
O O6 0.521832 0.500000 0.658055
O O7 0.520892 0.346705 0.603089
O O8 0.475441 0.343828 0.705146
O O9 0.750000 0.902454 0.394384
O O10 0.016400 0.819246 0.427596
O O11 0.017690 0.895712 0.335115
O O12 0.010412 0.000000 0.415156
O O13 0.750000 0.596827 0.167806
O O14 0.483373 0.500000 0.158456
O O15 0.465063 0.665380 0.194423
O O16 0.500000 0.695445 0.500000
O O17 0.750000 0.722627 0.436777
O O18 0.250000 0.092265 0.262192
O O19 0.521229 0.185430 0.247495
O O20 0.523430 0.000000 0.256429
O O21 0.750000 0.275290 0.737602
O O22 0.750000 0.094077 0.933027
O O23 0.017283 0.000000 0.916039
O O24 0.000000 0.093547 0.000000
#
# Coordination Sequence:
#
# PCOD9404926 Si02
#       8
#     8   8   8   8   8   8   8   8
#     4  10  20  36  60  88 119 155 193 234 280 331
#     4  10  21  38  58  79 106 143 184 228 283 340
#     4   9  17  31  52  77 105 140 182 225 270 325
#     4  11  25  43  61  82 111 149 191 236 285 333
#     4  10  21  35  51  75 108 144 184 229 277 331
#     4   9  18  33  55  84 115 145 177 216 268 330
#     4  11  22  37  61  89 114 141 179 228 278 330
#     4   8  14  26  47  77 111 146 183 221 264 315
#
# _framework density 21.001819000000001
#
# number of rings (size 3 to 8) (size 9 to 14) (size 15 to 20)
#    0.000    2.250    1.250    1.500    0.000    5.500 
#    0.000    0.625    0.000    3.750    0.000    0.000 
#    0.000    0.000    0.000    0.000    0.000    0.000 
#
# Total GULP energy -357062.049366 kJ/mol
# GULP energy per Si atom -5579.094521 kJ/mol
# Density = 2.095402 g / cm^3
# Si number density = 21.001819 Si / 1000 Ang^3
#
#
#
# Elastic Constant Matrix: (Units=GPa)
#
#
# Indices 1 2 3 4 5 6 
#
# 1 24.5892 10.5264 -11.0424 0.0000 0.0000 0.0000
# 2 10.5264 161.1777 64.6498 0.0000 0.0000 0.0000
# 3 -11.0424 64.6498 62.4561 0.0000 0.0000 0.0000
# 4 0.0000 0.0000 0.0000 807.5962 0.0000 0.0000
# 5 0.0000 0.0000 0.0000 0.0000 24.0196 0.0000
# 6 0.0000 0.0000 0.0000 0.0000 0.0000 -8.8183
#
#
#
# Elastic Compliance Matrix: (Units=1/GPa)
#
#
# Indices 1 2 3 4 5 6 
#
# 1 0.057070 -0.013294 0.023851 0.000000 0.000000 0.000000
# 2 -0.013294 0.013706 -0.016538 0.000000 0.000000 0.000000
# 3 0.023851 -0.016538 0.037347 0.000000 0.000000 0.000000
# 4 0.000000 0.000000 0.000000 0.001238 0.000000 0.000000
# 5 0.000000 0.000000 0.000000 0.000000 0.041633 0.000000
# 6 0.000000 0.000000 0.000000 0.000000 0.000000 -0.113400
#
#
# Mechanical properties :
#
#
# Convention : Reuss Voigt Hill
#
# Bulk Modulus (GPa) = 10.39912 41.83229 26.11571
# Shear Modulus (GPa) = 61.26717 176.83210 119.04964
#
# Velocity S-wave (km/s) = 5.40700 9.18593 7.53714
# Velocity P-wave (km/s) = 6.62896 11.50956 9.39184
#
# Compressibility (1/GPa) = 0.09616196
#
# Stress axis : x y z
#
# Youngs Moduli (GPa) = 17.52220 72.96032 26.77590
#
# Poissons Ratio (x) = 0.96995 -0.63864
# Poissons Ratio (y) = 0.23294 0.44282
# Poissons Ratio (z) = -0.41793 1.20661
#
# Static dielectric constant tensor:
#      x y z
#    x 1.786930 0.000000 0.000000 
#    y 0.000000 1.817040 0.000000 
#    z 0.000000 0.000000 1.702050 
# 
# From -- ./inp_files/34973.got.cif
#   From: 2010.05.17/outbox.cif.g08.bks.cpg/sg51_18_cif.got.tgz:34973.got - 2010.06.03 11:52:47.
