data_PCOD9404828
_publ_section_title
;
Structure prediction by ZEFSAII (Michael W. Deem and Ramdas Pophale) SiO2 
 PCOD9404828
Probable space group: P M M A
;
_chemical_formula_sum "Si O2"
_cell_formula_units_Z 64
_cell_length_a 24.124587
_cell_length_b 8.812987
_cell_length_c 15.044571
_cell_angle_alpha 90.000000
_cell_angle_beta 90.000000
_cell_angle_gamma 90.000000
_cell_volume 3198.621300
_symmetry_space_group_name_H-M "P M M A"
_symmetry_group_IT_number 51
_symmetry_cell_setting 'orthorhombic'
loop_
_space_group_symop_operation_xyz
x,y,z
1/2-x,-y,z
1/2+x,-y,-z
-x,y,-z
-x,-y,-z
1/2+x,y,-z
1/2-x,y,z
x,-y,z
loop_
_atom_site_type_symbol
_atom_site_label
_atom_site_fract_x
_atom_site_fract_y
_atom_site_fract_z
Si Si1 0.012082 0.171135 0.105935
Si Si2 0.687048 0.320755 0.783112
Si Si3 0.898845 0.319125 0.147688
Si Si4 0.685854 0.681754 0.492126
Si Si5 0.377838 0.320838 0.052336
Si Si6 0.392592 0.179026 0.356732
Si Si7 0.491460 0.321769 0.606286
Si Si8 0.124334 0.819701 0.669216
O O1 0.072703 0.241712 0.106412
O O2 0.963802 0.272291 0.147711
O O3 0.010206 0.000000 0.142130
O O4 0.000000 0.164543 0.000000
O O5 0.750000 0.285966 0.759182
O O6 0.677012 0.500000 0.763566
O O7 0.676235 0.299640 0.888007
O O8 0.645052 0.221316 0.727028
O O9 0.893393 0.500000 0.156908
O O10 0.870369 0.235636 0.229512
O O11 0.876563 0.270540 0.050151
O O12 0.750000 0.720050 0.512667
O O13 0.680022 0.500000 0.497040
O O14 0.642384 0.756002 0.560048
O O15 0.668583 0.740062 0.395071
O O16 0.390928 0.500000 0.049049
O O17 0.452465 0.257641 0.350792
O O18 0.400075 0.000000 0.366465
O O19 0.500000 0.306284 0.500000
O O20 0.484454 0.500000 0.626739
O O21 0.436582 0.234024 0.636361
O O22 0.128722 0.000000 0.662546
#
# Coordination Sequence:
#
# PCOD9404828 Si02
#       8
#     8   8   8   8   8   8   8   8
#     4   9  17  30  50  78 111 146 187 239 298 356
#     4  10  22  41  63  87 119 161 210 260 310 368
#     4  10  20  36  58  84 119 160 202 249 302 364
#     4  11  24  44  68  91 119 160 208 254 301 359
#     4   9  19  36  58  83 112 152 204 254 302 357
#     4  12  25  40  63  94 128 162 201 251 310 372
#     4  11  23  41  66  92 125 166 207 251 306 372
#     4  12  25  40  62  93 130 165 204 254 310 370
#
# _framework density 20.008621000000002
#
# number of rings (size 3 to 8) (size 9 to 14) (size 15 to 20)
#    0.000    1.500    1.250    4.125    1.750    5.750 
#    0.000    0.625    0.000    2.250    0.000    0.000 
#    0.000    0.000    0.000    0.000    0.000    0.000 
#
# Total GULP energy -357771.600887 kJ/mol
# GULP energy per Si atom -5590.181264 kJ/mol
# Density = 1.996308 g / cm^3
# Si number density = 20.008621 Si / 1000 Ang^3
#
#
#
# Elastic Constant Matrix: (Units=GPa)
#
#
# Indices 1 2 3 4 5 6 
#
# 1 48.5388 11.6994 0.9945 0.0000 0.0000 0.0000
# 2 11.6994 55.7674 13.6197 0.0000 0.0000 0.0000
# 3 0.9945 13.6197 72.0701 0.0000 0.0000 0.0000
# 4 0.0000 0.0000 0.0000 18.6092 0.0000 0.0000
# 5 0.0000 0.0000 0.0000 0.0000 22.3211 0.0000
# 6 0.0000 0.0000 0.0000 0.0000 0.0000 -18.3428
#
#
#
# Elastic Compliance Matrix: (Units=1/GPa)
#
#
# Indices 1 2 3 4 5 6 
#
# 1 0.021723 -0.004701 0.000589 0.000000 0.000000 0.000000
# 2 -0.004701 0.019817 -0.003680 0.000000 0.000000 0.000000
# 3 0.000589 -0.003680 0.014563 0.000000 0.000000 0.000000
# 4 0.000000 0.000000 0.000000 0.053737 0.000000 0.000000
# 5 0.000000 0.000000 0.000000 0.000000 0.044801 0.000000
# 6 0.000000 0.000000 0.000000 0.000000 0.000000 -0.054517
#
#
# Mechanical properties :
#
#
# Convention : Reuss Voigt Hill
#
# Bulk Modulus (GPa) = 24.68067 25.44483 25.06275
# Shear Modulus (GPa) = 38.69569 14.52168 26.60869
#
# Velocity S-wave (km/s) = 4.40244 2.69694 3.65068
# Velocity P-wave (km/s) = 6.18092 4.73735 5.50665
#
# Compressibility (1/GPa) = 0.04051754
#
# Stress axis : x y z
#
# Youngs Moduli (GPa) = 46.03394 50.46272 68.66857
#
# Poissons Ratio (x) = 0.23723 -0.04042
# Poissons Ratio (y) = 0.21641 0.25270
# Poissons Ratio (z) = -0.02710 0.18570
#
# Static dielectric constant tensor:
#      x y z
#    x 1.676650 0.000000 0.000000 
#    y 0.000000 1.678560 0.000000 
#    z 0.000000 0.000000 1.747510 
# 
# From -- ./inp_files/26213.got.cif
#   From: 2010.05.17/outbox.cif.g08.bks.cpg/sg51_14_cif.got.tgz:26213.got - 2010.06.03 11:52:47.
