data_PCOD9404325
_publ_section_title
;
Structure prediction by ZEFSAII (Michael W. Deem and Ramdas Pophale) SiO2 
 PCOD9404325
Probable space group: P M M A
;
_chemical_formula_sum "Si O2"
_cell_formula_units_Z 64
_cell_length_a 32.913641
_cell_length_b 7.617476
_cell_length_c 12.180146
_cell_angle_alpha 90.000000
_cell_angle_beta 90.000000
_cell_angle_gamma 90.000000
_cell_volume 3053.792446
_symmetry_space_group_name_H-M "P M M A"
_symmetry_group_IT_number 51
_symmetry_cell_setting 'orthorhombic'
loop_
_space_group_symop_operation_xyz
x,y,z
1/2-x,-y,z
1/2+x,-y,-z
-x,y,-z
-x,-y,-z
1/2+x,y,-z
1/2-x,y,z
x,-y,z
loop_
_atom_site_type_symbol
_atom_site_label
_atom_site_fract_x
_atom_site_fract_y
_atom_site_fract_z
Si Si1 0.391744 0.209026 0.864502
Si Si2 0.127810 0.709076 0.112028
Si Si3 0.454239 0.700701 0.510461
Si Si4 0.016137 0.214650 0.880623
Si Si5 0.204348 0.285684 0.499305
Si Si6 0.125188 0.705432 0.625923
Si Si7 0.205041 0.286087 0.244823
Si Si8 0.445093 0.795527 0.272025
O O1 0.438157 0.274919 0.864562
O O2 0.370466 0.281120 0.756440
O O3 0.392726 0.000000 0.853154
O O4 0.373926 0.250713 0.983497
O O5 0.125984 0.500000 0.125281
O O6 0.168870 0.776027 0.168234
O O7 0.089612 0.781301 0.180040
O O8 0.500000 0.779144 0.500000
O O9 0.460663 0.500000 0.548640
O O10 0.418656 0.781012 0.586665
O O11 0.436460 0.702805 0.386780
O O12 0.986104 0.273255 0.784758
O O13 0.015486 0.000000 0.880261
O O14 0.000000 0.269521 0.000000
O O15 0.250000 0.229179 0.533670
O O16 0.204687 0.500000 0.504409
O O17 0.165496 0.221778 0.567467
O O18 0.198793 0.236525 0.371740
O O19 0.123219 0.500000 0.594519
O O20 0.250000 0.228487 0.210568
O O21 0.204867 0.500000 0.242349
O O22 0.450440 0.000000 0.298820
#
# Coordination Sequence:
#
# PCOD9404325 Si02
#       8
#     8   8   8   8   8   8   8   8
#     4  11  22  37  55  74 103 142 183 222 261 312
#     4  11  21  34  54  81 109 135 171 219 270 316
#     4  10  21  36  53  77 111 143 174 221 277 326
#     4   9  17  33  52  70  97 136 180 219 252 295
#     4   8  14  28  53  81 104 130 169 215 260 308
#     4  10  20  35  54  77 107 140 175 219 270 317
#     4   8  15  30  54  82 108 134 167 211 263 318
#     4  11  21  34  55  79 105 139 180 221 262 315
#
# _framework density 20.957547999999999
#
# number of rings (size 3 to 8) (size 9 to 14) (size 15 to 20)
#    0.000    2.250    1.250    3.375    0.000    2.750 
#    0.000    3.125    0.000    5.625    0.000    3.500 
#    0.000    0.000    0.000    0.000    0.000    0.000 
#
# Total GULP energy -357375.082050 kJ/mol
# GULP energy per Si atom -5583.985657 kJ/mol
# Density = 2.090985 g / cm^3
# Si number density = 20.957548 Si / 1000 Ang^3
#
#
#
# Elastic Constant Matrix: (Units=GPa)
#
#
# Indices 1 2 3 4 5 6 
#
# 1 160.9400 4.7342 66.4499 0.0000 0.0000 0.0000
# 2 4.7342 50.5562 -6.3533 0.0000 0.0000 0.0000
# 3 66.4499 -6.3533 109.1702 0.0000 0.0000 0.0000
# 4 0.0000 0.0000 0.0000 -108.5791 0.0000 0.0000
# 5 0.0000 0.0000 0.0000 0.0000 39.3695 0.0000
# 6 0.0000 0.0000 0.0000 0.0000 0.0000 21.3836
#
#
#
# Elastic Compliance Matrix: (Units=1/GPa)
#
#
# Indices 1 2 3 4 5 6 
#
# 1 0.008402 -0.001440 -0.005198 0.000000 0.000000 0.000000
# 2 -0.001440 0.020172 0.002050 0.000000 0.000000 0.000000
# 3 -0.005198 0.002050 0.012443 0.000000 0.000000 0.000000
# 4 0.000000 0.000000 0.000000 -0.009210 0.000000 0.000000
# 5 0.000000 0.000000 0.000000 0.000000 0.025400 0.000000
# 6 0.000000 0.000000 0.000000 0.000000 0.000000 0.046765
#
#
# Mechanical properties :
#
#
# Convention : Reuss Voigt Hill
#
# Bulk Modulus (GPa) = 31.40432 50.03644 40.72038
# Shear Modulus (GPa) = 40.40001 7.49050 23.94525
#
# Velocity S-wave (km/s) = 4.39533 1.89259 3.38384
# Velocity P-wave (km/s) = 6.38559 5.35750 5.89401
#
# Compressibility (1/GPa) = 0.03184276
#
# Stress axis : x y z
#
# Youngs Moduli (GPa) = 119.01903 49.57248 80.36498
#
# Poissons Ratio (x) = 0.07138 0.41773
# Poissons Ratio (y) = 0.17139 -0.16479
# Poissons Ratio (z) = 0.61866 -0.10165
#
# Static dielectric constant tensor:
#      x y z
#    x 1.766010 0.000000 0.000000 
#    y 0.000000 1.783770 0.000000 
#    z 0.000000 0.000000 1.733310 
# 
# From -- ./inp_files/19582.got.cif
#   From: 2010.05.17/outbox.cif.g08.bks.cpg/sg51_10_cif.got.tgz:19582.got - 2010.06.03 11:52:47.
