data_PCOD9404919
_publ_section_title
;
Structure prediction by ZEFSAII (Michael W. Deem and Ramdas Pophale) SiO2 
 PCOD9404919
Probable space group: P M M A
;
_chemical_formula_sum "Si O2"
_cell_formula_units_Z 64
_cell_length_a 17.976733
_cell_length_b 15.330001
_cell_length_c 12.808775
_cell_angle_alpha 90.000000
_cell_angle_beta 90.000000
_cell_angle_gamma 90.000000
_cell_volume 3529.884930
_symmetry_space_group_name_H-M "P M M A"
_symmetry_group_IT_number 51
_symmetry_cell_setting 'orthorhombic'
loop_
_space_group_symop_operation_xyz
x,y,z
1/2-x,-y,z
1/2+x,-y,-z
-x,y,-z
-x,-y,-z
1/2+x,y,-z
1/2-x,y,z
x,-y,z
loop_
_atom_site_type_symbol
_atom_site_label
_atom_site_fract_x
_atom_site_fract_y
_atom_site_fract_z
Si Si1 0.446269 0.246477 0.400927
Si Si2 0.432606 0.405783 0.917501
Si Si3 0.900440 0.155781 0.896133
Si Si4 0.161952 0.900477 0.882969
Si Si5 0.838564 0.400285 0.668439
Si Si6 0.544707 0.777559 0.194612
Si Si7 0.336988 0.650181 0.096723
Si Si8 0.837287 0.898186 0.672226
O O1 0.500000 0.251204 0.500000
O O2 0.393430 0.331074 0.384999
O O3 0.500796 0.234435 0.301903
O O4 0.389698 0.164400 0.396154
O O5 0.434375 0.500000 0.862226
O O6 0.440159 0.318868 0.850064
O O7 0.500000 0.403804 0.000000
O O8 0.361871 0.399359 0.993412
O O9 0.876283 0.256578 0.903654
O O10 0.862464 0.116171 0.792723
O O11 0.988402 0.164558 0.876689
O O12 0.871967 0.110560 0.000674
O O13 0.250000 0.883372 0.888856
O O14 0.120467 0.832119 0.808288
O O15 0.150340 0.000000 0.848218
O O16 0.750000 0.378970 0.655434
O O17 0.849766 0.500000 0.633574
O O18 0.854844 0.395147 0.793110
O O19 0.250000 0.665127 0.095166
O O20 0.750000 0.874854 0.663209
O O21 0.846271 0.000000 0.646159
#
# Coordination Sequence:
#
# PCOD9404919 Si02
#       8
#     8   8   8   8   8   8   8   8
#     4  11  24  41  61  84 111 145 192 246 300 344
#     4  11  20  32  50  77 115 154 183 211 257 326
#     4  11  19  32  56  88 119 148 183 227 281 338
#     4  11  23  37  55  81 117 160 195 225 269 332
#     4  10  20  36  61  91 120 148 182 231 289 345
#     4  11  22  38  55  80 111 148 194 236 288 333
#     4  11  19  31  54  85 119 151 183 225 273 330
#     4  10  20  36  60  88 116 145 180 232 295 350
#
# _framework density 18.130901999999999
#
# number of rings (size 3 to 8) (size 9 to 14) (size 15 to 20)
#    0.000    1.250    5.000    2.625    0.000    6.750 
#    0.000    1.250    0.000    1.500    0.000    0.000 
#    0.000    0.000    0.000    0.000    0.000    0.000 
#
# Total GULP energy -357190.234928 kJ/mol
# GULP energy per Si atom -5581.097421 kJ/mol
# Density = 1.808963 g / cm^3
# Si number density = 18.130902 Si / 1000 Ang^3
#
#
#
# Elastic Constant Matrix: (Units=GPa)
#
#
# Indices 1 2 3 4 5 6 
#
# 1 103.3423 65.4518 47.8744 0.0000 0.0000 0.0000
# 2 65.4518 123.1877 36.1133 0.0000 0.0000 0.0000
# 3 47.8744 36.1133 61.6670 0.0000 0.0000 0.0000
# 4 0.0000 0.0000 0.0000 10.1167 0.0000 0.0000
# 5 0.0000 0.0000 0.0000 0.0000 27.3730 0.0000
# 6 0.0000 0.0000 0.0000 0.0000 0.0000 25.9776
#
#
#
# Elastic Compliance Matrix: (Units=1/GPa)
#
#
# Indices 1 2 3 4 5 6 
#
# 1 0.019064 -0.006990 -0.010706 0.000000 0.000000 0.000000
# 2 -0.006990 0.012363 -0.001813 0.000000 0.000000 0.000000
# 3 -0.010706 -0.001813 0.025590 0.000000 0.000000 0.000000
# 4 0.000000 0.000000 0.000000 0.098847 0.000000 0.000000
# 5 0.000000 0.000000 0.000000 0.000000 0.036532 0.000000
# 6 0.000000 0.000000 0.000000 0.000000 0.000000 0.038495
#
#
# Mechanical properties :
#
#
# Convention : Reuss Voigt Hill
#
# Bulk Modulus (GPa) = 55.56486 65.23067 60.39777
# Shear Modulus (GPa) = 18.12192 21.94396 20.03294
#
# Velocity S-wave (km/s) = 3.16492 3.48272 3.32762
# Velocity P-wave (km/s) = 6.63842 7.22691 6.93891
#
# Compressibility (1/GPa) = 0.01799699
#
# Stress axis : x y z
#
# Youngs Moduli (GPa) = 52.45606 80.88420 39.07830
#
# Poissons Ratio (x) = 0.56540 0.41838
# Poissons Ratio (y) = 0.36668 0.07087
# Poissons Ratio (z) = 0.56160 0.14668
#
# Static dielectric constant tensor:
#      x y z
#    x 1.721330 0.000000 0.000000 
#    y 0.000000 1.645550 0.000000 
#    z 0.000000 0.000000 1.608770 
# 
# From -- ./inp_files/17566.got.cif
#   From: 2010.05.17/outbox.cif.g08.bks.cpg/sg51_9_cif.got.tgz:17566.got - 2010.06.03 11:52:47.
