data_PCOD9404610
_publ_section_title
;
Structure prediction by ZEFSAII (Michael W. Deem and Ramdas Pophale) SiO2 
 PCOD9404610
Probable space group: P M M A
;
_chemical_formula_sum "Si O2"
_cell_formula_units_Z 32
_cell_length_a 10.348585
_cell_length_b 8.960323
_cell_length_c 19.446277
_cell_angle_alpha 90.000000
_cell_angle_beta 90.000000
_cell_angle_gamma 90.000000
_cell_volume 1803.188397
_symmetry_space_group_name_H-M "P M M A"
_symmetry_group_IT_number 51
_symmetry_cell_setting 'orthorhombic'
loop_
_space_group_symop_operation_xyz
x,y,z
1/2-x,-y,z
1/2+x,-y,-z
-x,y,-z
-x,-y,-z
1/2+x,y,-z
1/2-x,y,z
x,-y,z
loop_
_atom_site_type_symbol
_atom_site_label
_atom_site_fract_x
_atom_site_fract_y
_atom_site_fract_z
Si Si1 0.250000 0.676820 0.066035
Si Si2 0.400232 0.320553 0.440146
Si Si3 0.403557 0.822952 0.293052
Si Si4 0.495288 0.677934 0.843284
Si Si5 0.250000 0.822262 0.917202
O O1 0.250000 0.500000 0.048722
O O2 0.376539 0.707532 0.111457
O O3 0.250000 0.768956 0.996125
O O4 0.500000 0.277818 0.500000
O O5 0.250000 0.284459 0.457056
O O6 0.407776 0.500000 0.431254
O O7 0.433394 0.242371 0.368191
O O8 0.250000 0.796639 0.281569
O O9 0.480263 0.741724 0.232602
O O10 0.426269 0.000000 0.291140
O O11 0.476003 0.500000 0.840673
O O12 0.375292 0.755862 0.879726
O O13 0.250000 0.000000 0.913418
#
# Coordination Sequence:
#
# PCOD9404610 Si02
#       5
#     4   8   8   8   4
#     4  10  22  40  64  88 111 148 199 242 284 344
#     4   9  18  34  56  81 110 146 190 234 278 334
#     4  10  20  35  58  86 116 150 190 237 288 343
#     4  11  22  40  63  86 114 153 198 241 285 342
#     4  12  26  40  56  86 123 154 187 238 300 348
#
# _framework density 17.746343
#
# number of rings (size 3 to 8) (size 9 to 14) (size 15 to 20)
#    0.000    1.750    1.250    3.375    0.000    6.500 
#    2.250    0.000    0.000    0.000    0.000    0.000 
#    0.000    0.000    0.000    0.000    0.000    0.000 
#
# Total GULP energy -178793.972785 kJ/mol
# GULP energy per Si atom -5587.311650 kJ/mol
# Density = 1.770595 g / cm^3
# Si number density = 17.746343 Si / 1000 Ang^3
#
#
#
# Elastic Constant Matrix: (Units=GPa)
#
#
# Indices 1 2 3 4 5 6 
#
# 1 124.1845 78.4052 89.5937 0.0000 0.0000 0.0000
# 2 78.4052 79.5281 88.2404 0.0000 0.0000 0.0000
# 3 89.5937 88.2404 169.6575 0.0000 0.0000 0.0000
# 4 0.0000 0.0000 0.0000 -466.5924 0.0000 0.0000
# 5 0.0000 0.0000 0.0000 0.0000 27.5290 0.0000
# 6 0.0000 0.0000 0.0000 0.0000 0.0000 22.6437
#
#
#
# Elastic Compliance Matrix: (Units=1/GPa)
#
#
# Indices 1 2 3 4 5 6 
#
# 1 0.021371 -0.020210 -0.000774 0.000000 0.000000 0.000000
# 2 -0.020210 0.048845 -0.014732 0.000000 0.000000 0.000000
# 3 -0.000774 -0.014732 0.013965 0.000000 0.000000 0.000000
# 4 0.000000 0.000000 0.000000 -0.002143 0.000000 0.000000
# 5 0.000000 0.000000 0.000000 0.000000 0.036325 0.000000
# 6 0.000000 0.000000 0.000000 0.000000 0.000000 0.044162
#
#
# Mechanical properties :
#
#
# Convention : Reuss Voigt Hill
#
# Bulk Modulus (GPa) = 78.44105 98.42762 88.43434
# Shear Modulus (GPa) = 20.99007 -75.47522 -27.24257
#
# Velocity S-wave (km/s) = 3.44289 -6.52858 -3.92230
# Velocity P-wave (km/s) = 7.75254 1.11614 5.42476
#
# Compressibility (1/GPa) = 0.01274843
#
# Stress axis : x y z
#
# Youngs Moduli (GPa) = 46.79224 20.47298 71.60634
#
# Poissons Ratio (x) = 0.41377 0.05544
# Poissons Ratio (y) = 0.94569 1.05489
# Poissons Ratio (z) = 0.03623 0.30161
#
# Static dielectric constant tensor:
#      x y z
#    x 1.592060 0.000000 0.000000 
#    y 0.000000 1.586200 0.000000 
#    z 0.000000 0.000000 1.569630 
# 
# From -- ./inp_files/22878.got.cif
#   From: 2010.05.17/outbox.cif.g08.bks.cpg/sg51_12_cif.got.tgz:22878.got - 2010.06.03 11:52:47.
