data_PCOD9404615
_publ_section_title
;
Structure prediction by ZEFSAII (Michael W. Deem and Ramdas Pophale) SiO2 
 PCOD9404615
Probable space group: P M M A
;
_chemical_formula_sum "Si O2"
_cell_formula_units_Z 64
_cell_length_a 8.636271
_cell_length_b 24.336508
_cell_length_c 15.966966
_cell_angle_alpha 90.000000
_cell_angle_beta 90.000000
_cell_angle_gamma 90.000000
_cell_volume 3355.883876
_symmetry_space_group_name_H-M "P M M A"
_symmetry_group_IT_number 51
_symmetry_cell_setting 'orthorhombic'
loop_
_space_group_symop_operation_xyz
x,y,z
1/2-x,-y,z
1/2+x,-y,-z
-x,y,-z
-x,-y,-z
1/2+x,y,-z
1/2-x,y,z
x,-y,z
loop_
_atom_site_type_symbol
_atom_site_label
_atom_site_fract_x
_atom_site_fract_y
_atom_site_fract_z
Si Si1 0.435243 0.671821 0.087627
Si Si2 0.060951 0.134286 0.250054
Si Si3 0.937333 0.738846 0.747025
Si Si4 0.935548 0.438012 0.652625
Si Si5 0.933663 0.673533 0.412010
Si Si6 0.564515 0.561876 0.158523
Si Si7 0.063124 0.936318 0.090711
Si Si8 0.436841 0.063690 0.409504
O O1 0.250000 0.670947 0.084796
O O2 0.484301 0.707757 0.167839
O O3 0.497394 0.610335 0.102647
O O4 0.500000 0.693429 0.000000
O O5 0.250000 0.133406 0.249747
O O6 0.013404 0.197684 0.251051
O O7 0.010404 0.102166 0.166660
O O8 0.010606 0.101805 0.333156
O O9 0.750000 0.736810 0.742638
O O10 0.002805 0.707686 0.666538
O O11 0.750000 0.432225 0.650634
O O12 0.976290 0.500000 0.624816
O O13 0.011600 0.389282 0.600895
O O14 0.992760 0.432387 0.748557
O O15 0.750000 0.675738 0.413221
O O16 0.000000 0.694377 0.500000
O O17 0.750000 0.567024 0.164364
O O18 0.527691 0.500000 0.128709
O O19 0.250000 0.934816 0.088217
O O20 0.017175 0.000000 0.105554
O O21 0.000000 0.919562 0.000000
O O22 0.500000 0.080922 0.500000
O O23 0.250000 0.065132 0.411980
O O24 0.483146 0.000000 0.395322
#
# Coordination Sequence:
#
# PCOD9404615 Si02
#       8
#     8   8   8   8   8   8   8   8
#     4  11  23  38  59  82 111 149 191 239 290 345
#     4   9  18  34  57  80 107 147 191 231 276 335
#     4  10  22  41  60  81 111 148 193 243 290 338
#     4  10  20  36  60  89 120 151 184 227 282 342
#     4  12  25  41  63  86 114 151 192 238 287 343
#     4  10  20  35  58  87 117 148 184 229 284 345
#     4   9  17  31  53  82 115 150 188 230 279 334
#     4   9  17  31  53  81 112 145 181 224 274 330
#
# _framework density 19.070982000000001
#
# number of rings (size 3 to 8) (size 9 to 14) (size 15 to 20)
#    0.000    2.000    1.250    2.625    0.000    5.000 
#    0.000    3.125    0.000    3.000    0.000    0.000 
#    0.000    0.000    0.000    0.000    0.000    0.000 
#
# Total GULP energy -357488.517439 kJ/mol
# GULP energy per Si atom -5585.758085 kJ/mol
# Density = 1.902758 g / cm^3
# Si number density = 19.070982 Si / 1000 Ang^3
#
#
#
# Elastic Constant Matrix: (Units=GPa)
#
#
# Indices 1 2 3 4 5 6 
#
# 1 34.9171 34.0151 40.2072 0.0000 0.0000 0.0000
# 2 34.0151 125.9286 103.5958 0.0000 0.0000 0.0000
# 3 40.2072 103.5958 180.1970 0.0000 0.0000 0.0000
# 4 0.0000 0.0000 0.0000 -0.1164 0.0000 0.0000
# 5 0.0000 0.0000 0.0000 0.0000 33.2797 0.0000
# 6 0.0000 0.0000 0.0000 0.0000 0.0000 14.9411
#
#
#
# Elastic Compliance Matrix: (Units=1/GPa)
#
#
# Indices 1 2 3 4 5 6 
#
# 1 0.041398 -0.006799 -0.005329 0.000000 0.000000 0.000000
# 2 -0.006799 0.016183 -0.007787 0.000000 0.000000 0.000000
# 3 -0.005329 -0.007787 0.011215 0.000000 0.000000 0.000000
# 4 0.000000 0.000000 0.000000 -8.592793 0.000000 0.000000
# 5 0.000000 0.000000 0.000000 0.000000 0.030048 0.000000
# 6 0.000000 0.000000 0.000000 0.000000 0.000000 0.066929
#
#
# Mechanical properties :
#
#
# Convention : Reuss Voigt Hill
#
# Bulk Modulus (GPa) = 34.52038 77.40876 55.96457
# Shear Modulus (GPa) = -0.59683 20.50252 9.95284
#
# Velocity S-wave (km/s) = -0.56003 3.28237 2.28696
# Velocity P-wave (km/s) = 4.20976 7.41911 6.03181
#
# Compressibility (1/GPa) = 0.02896839
#
# Stress axis : x y z
#
# Youngs Moduli (GPa) = 24.15571 61.79197 89.16535
#
# Poissons Ratio (x) = 0.42010 0.47512
# Poissons Ratio (y) = 0.16423 0.69432
# Poissons Ratio (z) = 0.12871 0.48117
#
# Static dielectric constant tensor:
#      x y z
#    x 1.644150 0.000000 0.000000 
#    y 0.000000 1.655030 0.000000 
#    z 0.000000 0.000000 1.654990 
# 
# From -- ./inp_files/22329.got.cif
#   From: 2010.05.17/outbox.cif.g08.bks.cpg/sg51_12_cif.got.tgz:22329.got - 2010.06.03 11:52:47.
