data_PCOD9404782
_publ_section_title
;
Structure prediction by ZEFSAII (Michael W. Deem and Ramdas Pophale) SiO2 
 PCOD9404782
Probable space group: P M M A
;
_chemical_formula_sum "Si O2"
_cell_formula_units_Z 64
_cell_length_a 8.694788
_cell_length_b 24.339408
_cell_length_c 15.225613
_cell_angle_alpha 90.000000
_cell_angle_beta 90.000000
_cell_angle_gamma 90.000000
_cell_volume 3222.135464
_symmetry_space_group_name_H-M "P M M A"
_symmetry_group_IT_number 51
_symmetry_cell_setting 'orthorhombic'
loop_
_space_group_symop_operation_xyz
x,y,z
1/2-x,-y,z
1/2+x,-y,-z
-x,y,-z
-x,-y,-z
1/2+x,y,-z
1/2-x,y,z
x,-y,z
loop_
_atom_site_type_symbol
_atom_site_label
_atom_site_fract_x
_atom_site_fract_y
_atom_site_fract_z
Si Si1 0.566089 0.766065 0.095967
Si Si2 0.933134 0.112984 0.904994
Si Si3 0.934663 0.720109 0.402247
Si Si4 0.064951 0.938197 0.735304
Si Si5 0.931729 0.438175 0.225545
Si Si6 0.934516 0.152776 0.403671
Si Si7 0.577847 0.564980 0.586679
Si Si8 0.567695 0.324673 0.774632
O O1 0.750000 0.768819 0.092959
O O2 0.500426 0.826529 0.116616
O O3 0.511972 0.721935 0.166843
O O4 0.500000 0.751235 0.000000
O O5 0.750000 0.116139 0.910027
O O6 0.987750 0.072782 0.828702
O O7 0.000000 0.097396 0.000000
O O8 0.750000 0.712960 0.402237
O O9 0.971895 0.784101 0.380103
O O10 0.000000 0.711044 0.500000
O O11 0.009067 0.683970 0.325422
O O12 0.250000 0.932965 0.745227
O O13 0.011679 0.891595 0.667191
O O14 0.032145 0.000000 0.704057
O O15 0.750000 0.433454 0.210300
O O16 0.981755 0.500000 0.197959
O O17 0.968540 0.433979 0.329311
O O18 0.018880 0.384860 0.189868
O O19 0.750000 0.149496 0.408070
O O20 0.000000 0.141469 0.500000
O O21 0.500000 0.589218 0.500000
O O22 0.750000 0.587173 0.604461
O O23 0.597879 0.500000 0.569538
O O24 0.750000 0.318697 0.777779
#
# Coordination Sequence:
#
# PCOD9404782 Si02
#       8
#     8   8   8   8   8   8   8   8
#     4  11  22  40  65  93 122 150 186 233 288 347
#     4  11  22  38  61  88 118 152 190 234 289 349
#     4  10  20  36  57  83 116 153 196 246 299 353
#     4  10  21  37  56  81 116 158 202 245 290 343
#     4  10  21  37  55  76 105 144 188 230 277 336
#     4   9  19  35  56  80 109 148 192 242 295 344
#     4   9  16  27  44  66  93 128 172 221 269 318
#     4  12  24  38  59  88 119 152 191 236 289 345
#
# _framework density 19.862604999999999
#
# number of rings (size 3 to 8) (size 9 to 14) (size 15 to 20)
#    0.000    1.750    0.000    6.000    0.000    5.500 
#    0.000    2.500    0.000    0.375    0.000    0.000 
#    0.000    0.000    0.000    0.000    0.000    0.000 
#
# Total GULP energy -357587.989491 kJ/mol
# GULP energy per Si atom -5587.312336 kJ/mol
# Density = 1.981740 g / cm^3
# Si number density = 19.862605 Si / 1000 Ang^3
#
#
#
# Elastic Constant Matrix: (Units=GPa)
#
#
# Indices 1 2 3 4 5 6 
#
# 1 95.7954 40.2379 18.2899 0.0000 0.0000 0.0000
# 2 40.2379 106.3110 40.8683 0.0000 0.0000 0.0000
# 3 18.2899 40.8683 40.9197 0.0000 0.0000 0.0000
# 4 0.0000 0.0000 0.0000 -3.6802 0.0000 0.0000
# 5 0.0000 0.0000 0.0000 0.0000 30.1078 0.0000
# 6 0.0000 0.0000 0.0000 0.0000 0.0000 23.6012
#
#
#
# Elastic Compliance Matrix: (Units=1/GPa)
#
#
# Indices 1 2 3 4 5 6 
#
# 1 0.012461 -0.004180 -0.001395 0.000000 0.000000 0.000000
# 2 -0.004180 0.016671 -0.014782 0.000000 0.000000 0.000000
# 3 -0.001395 -0.014782 0.039824 0.000000 0.000000 0.000000
# 4 0.000000 0.000000 0.000000 -0.271727 0.000000 0.000000
# 5 0.000000 0.000000 0.000000 0.000000 0.033214 0.000000
# 6 0.000000 0.000000 0.000000 0.000000 0.000000 0.042371
#
#
# Mechanical properties :
#
#
# Convention : Reuss Voigt Hill
#
# Bulk Modulus (GPa) = 35.40644 49.09091 42.24868
# Shear Modulus (GPa) = -64.88566 19.58110 -22.65228
#
# Velocity S-wave (km/s) = -5.72173 3.14320 -3.38072
# Velocity P-wave (km/s) = 5.07804 6.15969 2.46529
#
# Compressibility (1/GPa) = 0.02824345
#
# Stress axis : x y z
#
# Youngs Moduli (GPa) = 80.24991 59.98476 25.11020
#
# Poissons Ratio (x) = 0.25075 0.03502
# Poissons Ratio (y) = 0.33547 0.37117
# Poissons Ratio (z) = 0.11193 0.88667
#
# Static dielectric constant tensor:
#      x y z
#    x 1.677720 0.000000 0.000000 
#    y 0.000000 1.748600 0.000000 
#    z 0.000000 0.000000 1.680830 
# 
# From -- ./inp_files/22287.got.cif
#   From: 2010.05.17/outbox.cif.g08.bks.cpg/sg51_12_cif.got.tgz:22287.got - 2010.06.03 11:52:47.
