data_PCOD9404186
_publ_section_title
;
Structure prediction by ZEFSAII (Michael W. Deem and Ramdas Pophale) SiO2 
 PCOD9404186
Probable space group: P M M A
;
_chemical_formula_sum "Si O2"
_cell_formula_units_Z 64
_cell_length_a 32.318286
_cell_length_b 9.702157
_cell_length_c 10.132691
_cell_angle_alpha 90.000000
_cell_angle_beta 90.000000
_cell_angle_gamma 90.000000
_cell_volume 3177.177051
_symmetry_space_group_name_H-M "P M M A"
_symmetry_group_IT_number 51
_symmetry_cell_setting 'orthorhombic'
loop_
_space_group_symop_operation_xyz
x,y,z
1/2-x,-y,z
1/2+x,-y,-z
-x,y,-z
-x,-y,-z
1/2+x,y,-z
1/2-x,y,z
x,-y,z
loop_
_atom_site_type_symbol
_atom_site_label
_atom_site_fract_x
_atom_site_fract_y
_atom_site_fract_z
Si Si1 0.487948 0.661251 0.652195
Si Si2 0.538785 0.660975 0.912031
Si Si3 0.795909 0.339626 0.510215
Si Si4 0.113862 0.156491 0.121628
Si Si5 0.408039 0.837474 0.698503
Si Si6 0.669371 0.337945 0.213930
Si Si7 0.132216 0.153455 0.412733
Si Si8 0.295826 0.837296 0.015936
O O1 0.500000 0.692929 0.500000
O O2 0.474142 0.500000 0.654142
O O3 0.524788 0.672123 0.758793
O O4 0.451715 0.760610 0.703287
O O5 0.545313 0.500000 0.941957
O O6 0.580458 0.743228 0.940832
O O7 0.500000 0.709106 0.000000
O O8 0.750000 0.283011 0.529894
O O9 0.796051 0.500000 0.545596
O O10 0.808594 0.330172 0.356363
O O11 0.831059 0.261352 0.588114
O O12 0.106943 0.162531 0.278735
O O13 0.106872 0.000000 0.075961
O O14 0.162383 0.187701 0.099253
O O15 0.372681 0.752065 0.775508
O O16 0.394448 0.828673 0.544274
O O17 0.409142 0.000000 0.734361
O O18 0.661753 0.500000 0.185092
O O19 0.698219 0.263483 0.107689
O O20 0.150715 0.000000 0.418532
O O21 0.250000 0.814603 0.076197
O O22 0.297287 0.000000 0.977610
#
# Coordination Sequence:
#
# PCOD9404186 Si02
#       8
#     8   8   8   8   8   8   8   8
#     4  10  21  37  58  85 118 157 200 243 295 356
#     4  10  23  41  60  86 119 155 197 245 297 349
#     4   9  18  32  51  78 110 143 183 233 285 339
#     4  10  22  40  61  84 114 153 196 237 286 343
#     4  10  20  34  56  86 117 148 190 240 294 349
#     4  10  20  35  56  80 111 149 191 239 292 349
#     4   9  19  35  54  80 112 147 186 230 282 344
#     4  10  22  39  58  83 116 152 193 242 292 344
#
# _framework density 20.143668999999999
#
# number of rings (size 3 to 8) (size 9 to 14) (size 15 to 20)
#    0.000    2.250    0.000    1.875    1.750    4.500 
#    0.000    1.250    0.000    0.000    0.000    0.000 
#    0.000    0.000    0.000    0.000    0.000    0.000 
#
# Total GULP energy -357143.248143 kJ/mol
# GULP energy per Si atom -5580.363252 kJ/mol
# Density = 2.009782 g / cm^3
# Si number density = 20.143669 Si / 1000 Ang^3
#
#
#
# Elastic Constant Matrix: (Units=GPa)
#
#
# Indices 1 2 3 4 5 6 
#
# 1 120.2741 67.4063 10.7178 0.0000 0.0000 0.0000
# 2 67.4063 74.6417 14.3708 0.0000 0.0000 0.0000
# 3 10.7178 14.3708 53.4580 0.0000 0.0000 0.0000
# 4 0.0000 0.0000 0.0000 17.7300 0.0000 0.0000
# 5 0.0000 0.0000 0.0000 0.0000 10.8479 0.0000
# 6 0.0000 0.0000 0.0000 0.0000 0.0000 39.2166
#
#
#
# Elastic Compliance Matrix: (Units=1/GPa)
#
#
# Indices 1 2 3 4 5 6 
#
# 1 0.016863 -0.015373 0.000752 0.000000 0.000000 0.000000
# 2 -0.015373 0.028144 -0.004484 0.000000 0.000000 0.000000
# 3 0.000752 -0.004484 0.019761 0.000000 0.000000 0.000000
# 4 0.000000 0.000000 0.000000 0.056401 0.000000 0.000000
# 5 0.000000 0.000000 0.000000 0.000000 0.092183 0.000000
# 6 0.000000 0.000000 0.000000 0.000000 0.000000 0.025499
#
#
# Mechanical properties :
#
#
# Convention : Reuss Voigt Hill
#
# Bulk Modulus (GPa) = 37.65392 48.15152 42.90272
# Shear Modulus (GPa) = 17.48776 23.95084 20.71930
#
# Velocity S-wave (km/s) = 2.94964 3.45193 3.21062
# Velocity P-wave (km/s) = 5.50761 6.31219 5.92357
#
# Compressibility (1/GPa) = 0.02655766
#
# Stress axis : x y z
#
# Youngs Moduli (GPa) = 59.30094 35.53202 50.60524
#
# Poissons Ratio (x) = 0.54624 -0.03805
# Poissons Ratio (y) = 0.91165 0.22689
# Poissons Ratio (z) = -0.04458 0.15931
#
# Static dielectric constant tensor:
#      x y z
#    x 1.703530 0.000000 0.000000 
#    y 0.000000 1.694970 0.000000 
#    z 0.000000 0.000000 1.742980 
# 
# From -- ./inp_files/19504.got.cif
#   From: 2010.05.17/outbox.cif.g08.bks.cpg/sg51_10_cif.got.tgz:19504.got - 2010.06.03 11:52:47.
