data_PCOD9404175
_publ_section_title
;
Structure prediction by ZEFSAII (Michael W. Deem and Ramdas Pophale) SiO2 
 PCOD9404175
Probable space group: P M M A
;
_chemical_formula_sum "Si O2"
_cell_formula_units_Z 32
_cell_length_a 15.307368
_cell_length_b 11.100431
_cell_length_c 8.871743
_cell_angle_alpha 90.000000
_cell_angle_beta 90.000000
_cell_angle_gamma 90.000000
_cell_volume 1507.472219
_symmetry_space_group_name_H-M "P M M A"
_symmetry_group_IT_number 51
_symmetry_cell_setting 'orthorhombic'
loop_
_space_group_symop_operation_xyz
x,y,z
1/2-x,-y,z
1/2+x,-y,-z
-x,y,-z
-x,-y,-z
1/2+x,y,-z
1/2-x,y,z
x,-y,z
loop_
_atom_site_type_symbol
_atom_site_label
_atom_site_fract_x
_atom_site_fract_y
_atom_site_fract_z
Si Si1 0.096657 0.631890 0.428251
Si Si2 0.401357 0.130221 0.566231
Si Si3 0.096052 0.132524 0.926659
Si Si4 0.149527 0.366614 0.098162
O O1 0.137313 0.500000 0.455587
O O2 0.140841 0.749925 0.497989
O O3 0.091798 0.648089 0.248120
O O4 0.000000 0.627306 0.500000
O O5 0.500000 0.126943 0.500000
O O6 0.407068 0.139641 0.746211
O O7 0.360941 0.000000 0.528112
O O8 0.135459 0.000000 0.964835
O O9 0.139340 0.253043 0.990271
O O10 0.000000 0.132227 0.000000
O O11 0.250000 0.368679 0.150426
O O12 0.130426 0.500000 0.031359
#
# Coordination Sequence:
#
# PCOD9404175 Si02
#       4
#     8   8   8   8
#     4   9  17  31  53  79 106 141 187 233 278 334
#     4   9  17  30  50  77 107 136 172 222 274 324
#     4  10  20  34  56  85 113 145 188 234 280 339
#     4  10  22  39  57  81 115 153 194 241 293 348
#
# _framework density 21.227589999999999
#
# number of rings (size 3 to 8) (size 9 to 14) (size 15 to 20)
#    0.000    2.500    0.000    3.000    0.000    5.000 
#    0.000    1.250    0.000    4.500    0.000    0.000 
#    0.000    0.000    0.000    0.000    0.000    0.000 
#
# Total GULP energy -178338.745687 kJ/mol
# GULP energy per Si atom -5573.085803 kJ/mol
# Density = 2.117928 g / cm^3
# Si number density = 21.227590 Si / 1000 Ang^3
#
#
#
# Elastic Constant Matrix: (Units=GPa)
#
#
# Indices 1 2 3 4 5 6 
#
# 1 42.4026 13.9151 9.6089 0.0000 0.0000 0.0000
# 2 13.9151 267.4202 83.8161 0.0000 0.0000 0.0000
# 3 9.6089 83.8161 83.6042 0.0000 0.0000 0.0000
# 4 0.0000 0.0000 0.0000 94.9887 0.0000 0.0000
# 5 0.0000 0.0000 0.0000 0.0000 2.9024 0.0000
# 6 0.0000 0.0000 0.0000 0.0000 0.0000 5.8136
#
#
#
# Elastic Compliance Matrix: (Units=1/GPa)
#
#
# Indices 1 2 3 4 5 6 
#
# 1 0.024273 -0.000567 -0.002222 0.000000 0.000000 0.000000
# 2 -0.000567 0.005466 -0.005415 0.000000 0.000000 0.000000
# 3 -0.002222 -0.005415 0.017645 0.000000 0.000000 0.000000
# 4 0.000000 0.000000 0.000000 0.010528 0.000000 0.000000
# 5 0.000000 0.000000 0.000000 0.000000 0.344548 0.000000
# 6 0.000000 0.000000 0.000000 0.000000 0.000000 0.172010
#
#
# Mechanical properties :
#
#
# Convention : Reuss Voigt Hill
#
# Bulk Modulus (GPa) = 32.28126 67.56746 49.92436
# Shear Modulus (GPa) = 8.31668 39.81338 24.06503
#
# Velocity S-wave (km/s) = 1.98151 4.33546 3.37065
# Velocity P-wave (km/s) = 4.52497 7.54723 6.22238
#
# Compressibility (1/GPa) = 0.03097773
#
# Stress axis : x y z
#
# Youngs Moduli (GPa) = 41.19820 182.94767 56.67347
#
# Poissons Ratio (x) = 0.10368 0.12591
# Poissons Ratio (y) = 0.02335 0.30687
# Poissons Ratio (z) = 0.09153 0.99062
#
# Static dielectric constant tensor:
#      x y z
#    x 1.708920 0.000000 0.000000 
#    y 0.000000 1.878850 0.000000 
#    z 0.000000 0.000000 1.713540 
# 
# From -- ./inp_files/7459.got.cif
#   From: 2010.05.17/outbox.cif.g08.bks.cpg/sg51_4_cif.got.tgz:7459.got - 2010.06.03 11:52:47.
