data_PCOD9404486
_publ_section_title
;
Structure prediction by ZEFSAII (Michael W. Deem and Ramdas Pophale) SiO2 
 PCOD9404486
Probable space group: P M M A
;
_chemical_formula_sum "Si O2"
_cell_formula_units_Z 40
_cell_length_a 20.415271
_cell_length_b 9.859668
_cell_length_c 11.552329
_cell_angle_alpha 90.000000
_cell_angle_beta 90.000000
_cell_angle_gamma 90.000000
_cell_volume 2325.342822
_symmetry_space_group_name_H-M "P M M A"
_symmetry_group_IT_number 51
_symmetry_cell_setting 'orthorhombic'
loop_
_space_group_symop_operation_xyz
x,y,z
1/2-x,-y,z
1/2+x,-y,-z
-x,y,-z
-x,-y,-z
1/2+x,y,-z
1/2-x,y,z
x,-y,z
loop_
_atom_site_type_symbol
_atom_site_label
_atom_site_fract_x
_atom_site_fract_y
_atom_site_fract_z
Si Si1 0.874475 0.839967 0.222905
Si Si2 0.881056 0.341406 0.755868
Si Si3 0.750000 0.158762 0.384948
Si Si4 0.671867 0.337760 0.011006
Si Si5 0.750000 0.345867 0.605756
Si Si6 0.508263 0.161448 0.635937
O O1 0.813915 0.813149 0.308602
O O2 0.863117 0.746749 0.111609
O O3 0.941176 0.815349 0.293299
O O4 0.872562 0.000000 0.191000
O O5 0.901358 0.500000 0.751597
O O6 0.814056 0.328423 0.683857
O O7 0.935195 0.246835 0.697872
O O8 0.862497 0.308117 0.888240
O O9 0.750000 0.244531 0.500156
O O10 0.750000 0.000000 0.414136
O O11 0.750000 0.305413 0.006471
O O12 0.666913 0.500000 0.031158
O O13 0.750000 0.500000 0.560968
O O14 0.500000 0.197767 0.500000
O O15 0.522916 0.000000 0.639878
#
# Coordination Sequence:
#
# PCOD9404486 Si02
#       6
#     8   8   4   8   4   8
#     4  10  21  37  58  83 113 148 189 235 279 332
#     4  10  21  38  59  83 113 149 189 234 282 334
#     4  10  20  35  56  82 110 145 189 234 281 332
#     4  10  20  37  60  84 114 149 187 234 285 337
#     4  10  20  35  56  82 110 143 187 236 281 328
#     4  10  22  40  59  82 116 154 189 231 284 339
#
# _framework density 17.201765000000002
#
# number of rings (size 3 to 8) (size 9 to 14) (size 15 to 20)
#    0.000    2.000    2.000    1.200    0.000    6.000 
#    0.000    4.000    0.000    0.000    0.000    0.000 
#    0.000    0.000    0.000    0.000    0.000    0.000 
#
# Total GULP energy -223283.678134 kJ/mol
# GULP energy per Si atom -5582.091953 kJ/mol
# Density = 1.716261 g / cm^3
# Si number density = 17.201765 Si / 1000 Ang^3
#
#
#
# Elastic Constant Matrix: (Units=GPa)
#
#
# Indices 1 2 3 4 5 6 
#
# 1 109.2103 59.3952 64.9439 0.0000 0.0000 0.0000
# 2 59.3952 62.5862 95.5628 0.0000 0.0000 0.0000
# 3 64.9439 95.5628 173.3044 0.0000 0.0000 0.0000
# 4 0.0000 0.0000 0.0000 42.3766 0.0000 0.0000
# 5 0.0000 0.0000 0.0000 0.0000 13.1861 0.0000
# 6 0.0000 0.0000 0.0000 0.0000 0.0000 31.0904
#
#
#
# Elastic Compliance Matrix: (Units=1/GPa)
#
#
# Indices 1 2 3 4 5 6 
#
# 1 0.034914 -0.083246 0.032819 0.000000 0.000000 0.000000
# 2 -0.083246 0.299581 -0.133998 0.000000 0.000000 0.000000
# 3 0.032819 -0.133998 0.067360 0.000000 0.000000 0.000000
# 4 0.000000 0.000000 0.000000 0.023598 0.000000 0.000000
# 5 0.000000 0.000000 0.000000 0.000000 0.075837 0.000000
# 6 0.000000 0.000000 0.000000 0.000000 0.000000 0.032164
#
#
# Mechanical properties :
#
#
# Convention : Reuss Voigt Hill
#
# Bulk Modulus (GPa) = 30.29750 87.21163 58.75457
# Shear Modulus (GPa) = 5.47461 25.67723 15.57592
#
# Velocity S-wave (km/s) = 1.78592 3.86775 3.01239
# Velocity P-wave (km/s) = 4.68016 8.41162 6.80659
#
# Compressibility (1/GPa) = 0.03300602
#
# Stress axis : x y z
#
# Youngs Moduli (GPa) = 28.64170 3.33799 14.84555
#
# Poissons Ratio (x) = 0.27787 -0.48722
# Poissons Ratio (y) = 2.38430 1.98928
# Poissons Ratio (z) = -0.94000 0.44729
#
# Static dielectric constant tensor:
#      x y z
#    x 1.570460 0.000000 0.000000 
#    y 0.000000 1.555550 0.000000 
#    z 0.000000 0.000000 1.557340 
# 
# From -- ./inp_files/17967.got.cif
#   From: 2010.05.17/outbox.cif.g08.bks.cpg/sg51_9_cif.got.tgz:17967.got - 2010.06.03 11:52:47.
