data_PCOD9404729
_publ_section_title
;
Structure prediction by ZEFSAII (Michael W. Deem and Ramdas Pophale) SiO2 
 PCOD9404729
Probable space group: P M M A
;
_chemical_formula_sum "Si O2"
_cell_formula_units_Z 52
_cell_length_a 8.796542
_cell_length_b 14.767759
_cell_length_c 20.747241
_cell_angle_alpha 90.000000
_cell_angle_beta 90.000000
_cell_angle_gamma 90.000000
_cell_volume 2695.174747
_symmetry_space_group_name_H-M "P M M A"
_symmetry_group_IT_number 51
_symmetry_cell_setting 'orthorhombic'
loop_
_space_group_symop_operation_xyz
x,y,z
1/2-x,-y,z
1/2+x,-y,-z
-x,y,-z
-x,-y,-z
1/2+x,y,-z
1/2-x,y,z
x,-y,z
loop_
_atom_site_type_symbol
_atom_site_label
_atom_site_fract_x
_atom_site_fract_y
_atom_site_fract_z
Si Si1 0.932119 0.698720 0.571652
Si Si2 0.430627 0.294696 0.932784
Si Si3 0.431771 0.500000 0.429043
Si Si4 0.932576 0.392773 0.806168
Si Si5 0.575415 0.101538 0.913613
Si Si6 0.074190 0.263848 0.698995
Si Si7 0.580355 0.897217 0.758962
O O1 0.750000 0.705450 0.567668
O O2 0.976260 0.597233 0.597108
O O3 0.000000 0.711748 0.500000
O O4 0.000127 0.756099 0.629291
O O5 0.250000 0.305039 0.932222
O O6 0.500435 0.344509 0.870114
O O7 0.475255 0.188128 0.930733
O O8 0.500000 0.330955 0.000000
O O9 0.250000 0.500000 0.432173
O O10 0.500000 0.500000 0.500000
O O11 0.750000 0.384201 0.807551
O O12 0.970647 0.500000 0.804594
O O13 0.993635 0.340268 0.743069
O O14 0.750000 0.113975 0.937122
O O15 0.582812 0.101468 0.836136
O O16 0.522778 0.000000 0.931636
O O17 0.250000 0.286732 0.691441
O O18 0.047671 0.171188 0.737424
O O19 0.750000 0.865692 0.737961
O O20 0.558626 0.000000 0.736282
#
# Coordination Sequence:
#
# PCOD9404729 Si02
#       7
#     8   8   4   8   8   8   8
#     4  10  20  36  56  82 117 159 203 247 297 353
#     4  12  25  41  63  89 120 158 198 245 298 357
#     4   8  16  30  50  74 104 144 189 232 281 336
#     4  11  25  45  66  87 116 155 201 252 301 348
#     4   9  18  35  60  88 120 156 194 240 295 354
#     4  12  24  37  59  92 125 159 197 243 296 354
#     4   9  18  35  61  89 118 155 196 241 294 351
#
# _framework density 19.29374
#
# number of rings (size 3 to 8) (size 9 to 14) (size 15 to 20)
#    0.000    1.692    1.538    4.615    1.077    3.077 
#    0.000    1.538    0.000    0.462    0.000    0.000 
#    0.000    0.000    0.000    0.000    0.000    0.000 
#
# Total GULP energy -290070.920515 kJ/mol
# GULP energy per Si atom -5578.286933 kJ/mol
# Density = 1.924983 g / cm^3
# Si number density = 19.293740 Si / 1000 Ang^3
#
#
#
# Elastic Constant Matrix: (Units=GPa)
#
#
# Indices 1 2 3 4 5 6 
#
# 1 99.1761 36.9243 51.0764 0.0000 0.0000 0.0000
# 2 36.9243 69.5806 33.6499 0.0000 0.0000 0.0000
# 3 51.0764 33.6499 128.2132 0.0000 0.0000 0.0000
# 4 0.0000 0.0000 0.0000 -7.0361 0.0000 0.0000
# 5 0.0000 0.0000 0.0000 0.0000 30.4023 0.0000
# 6 0.0000 0.0000 0.0000 0.0000 0.0000 2.4371
#
#
#
# Elastic Compliance Matrix: (Units=1/GPa)
#
#
# Indices 1 2 3 4 5 6 
#
# 1 0.014342 -0.005553 -0.004256 0.000000 0.000000 0.000000
# 2 -0.005553 0.018611 -0.002672 0.000000 0.000000 0.000000
# 3 -0.004256 -0.002672 0.010196 0.000000 0.000000 0.000000
# 4 0.000000 0.000000 0.000000 -0.142125 0.000000 0.000000
# 5 0.000000 0.000000 0.000000 0.000000 0.032892 0.000000
# 6 0.000000 0.000000 0.000000 0.000000 0.000000 0.410328
#
#
# Mechanical properties :
#
#
# Convention : Reuss Voigt Hill
#
# Bulk Modulus (GPa) = 54.98454 60.03014 57.50734
# Shear Modulus (GPa) = 13.32371 16.84861 15.08616
#
# Velocity S-wave (km/s) = 2.63072 2.95832 2.79932
# Velocity P-wave (km/s) = 6.14720 6.54601 6.34974
#
# Compressibility (1/GPa) = 0.01818693
#
# Stress axis : x y z
#
# Youngs Moduli (GPa) = 69.72325 53.73201 98.07310
#
# Poissons Ratio (x) = 0.29836 0.41743
# Poissons Ratio (y) = 0.38715 0.26209
# Poissons Ratio (z) = 0.29676 0.14360
#
# Static dielectric constant tensor:
#      x y z
#    x 1.674900 0.000000 0.000000 
#    y 0.000000 1.712620 0.000000 
#    z 0.000000 0.000000 1.666820 
# 
# From -- ./inp_files/31782.got.cif
#   From: 2010.05.17/outbox.cif.g08.bks.cpg/sg51_16_cif.got.tgz:31782.got - 2010.06.03 11:52:47.
