data_PCOD9404998
_publ_section_title
;
Structure prediction by ZEFSAII (Michael W. Deem and Ramdas Pophale) SiO2 
 PCOD9404998
Probable space group: P M M A
;
_chemical_formula_sum "Si O2"
_cell_formula_units_Z 58
_cell_length_a 18.454437
_cell_length_b 10.437640
_cell_length_c 17.609393
_cell_angle_alpha 90.000000
_cell_angle_beta 90.000000
_cell_angle_gamma 90.000000
_cell_volume 3391.934836
_symmetry_space_group_name_H-M "P M M A"
_symmetry_group_IT_number 51
_symmetry_cell_setting 'orthorhombic'
loop_
_space_group_symop_operation_xyz
x,y,z
1/2-x,-y,z
1/2+x,-y,-z
-x,y,-z
-x,-y,-z
1/2+x,y,-z
1/2-x,y,z
x,-y,z
loop_
_atom_site_type_symbol
_atom_site_label
_atom_site_fract_x
_atom_site_fract_y
_atom_site_fract_z
Si Si1 0.080539 0.854275 0.465068
Si Si2 0.836784 0.643137 0.440603
Si Si3 0.872458 0.216426 0.293570
Si Si4 0.167882 0.655520 0.027470
Si Si5 0.387613 0.349694 0.863239
Si Si6 0.440845 0.650551 0.161948
Si Si7 0.250000 0.000000 0.683007
Si Si8 0.041071 0.853947 0.290902
O O1 0.130790 0.750541 0.504610
O O2 0.073880 0.837174 0.374776
O O3 0.000000 0.842360 0.500000
O O4 0.105663 0.000000 0.481100
O O5 0.750000 0.650636 0.439842
O O6 0.858442 0.500000 0.464273
O O7 0.865498 0.672432 0.356162
O O8 0.860427 0.270856 0.209077
O O9 0.954075 0.162301 0.297154
O O10 0.813470 0.111187 0.314385
O O11 0.250000 0.697156 0.043383
O O12 0.167117 0.500000 0.025371
O O13 0.111616 0.690500 0.093231
O O14 0.143298 0.697198 0.943560
O O15 0.368504 0.500000 0.854043
O O16 0.475128 0.341457 0.863656
O O17 0.427100 0.500000 0.180730
O O18 0.432185 0.745811 0.232719
O O19 0.056344 0.000000 0.265480
#
# Coordination Sequence:
#
# PCOD9404998 Si02
#       8
#     8   8   8   8   8   8   2   8
#     4  10  21  37  60  82 107 143 189 230 270 327
#     4  11  24  38  54  82 118 148 180 225 280 333
#     4  11  21  35  54  79 110 147 183 216 264 330
#     4   9  17  30  52  80 106 139 182 227 275 324
#     4   9  18  32  53  79 109 140 177 225 273 322
#     4   9  18  33  55  80 107 140 182 225 274 325
#     4  12  24  32  54  78 114 160 182 212 268 336
#     4  10  20  37  58  80 106 137 183 227 267 322
#
# _framework density 17.099385000000002
#
# number of rings (size 3 to 8) (size 9 to 14) (size 15 to 20)
#    0.000    2.069    2.759    0.828    1.931    3.310 
#    0.000    0.690    1.517    4.552    0.000    0.000 
#    0.000    0.000    0.000    0.000    0.000    0.000 
#
# Total GULP energy -323028.147371 kJ/mol
# GULP energy per Si atom -5569.450817 kJ/mol
# Density = 1.706047 g / cm^3
# Si number density = 17.099385 Si / 1000 Ang^3
#
#
#
# Elastic Constant Matrix: (Units=GPa)
#
#
# Indices 1 2 3 4 5 6 
#
# 1 24.9127 27.3697 23.8661 0.0000 0.0000 0.0000
# 2 27.3697 90.9407 48.9447 0.0000 0.0000 0.0000
# 3 23.8661 48.9447 83.5170 0.0000 0.0000 0.0000
# 4 0.0000 0.0000 0.0000 197.0754 0.0000 0.0000
# 5 0.0000 0.0000 0.0000 0.0000 7.6935 0.0000
# 6 0.0000 0.0000 0.0000 0.0000 0.0000 29.5081
#
#
#
# Elastic Compliance Matrix: (Units=1/GPa)
#
#
# Indices 1 2 3 4 5 6 
#
# 1 0.065721 -0.014128 -0.010501 0.000000 0.000000 0.000000
# 2 -0.014128 0.019099 -0.007156 0.000000 0.000000 0.000000
# 3 -0.010501 -0.007156 0.019168 0.000000 0.000000 0.000000
# 4 0.000000 0.000000 0.000000 0.005074 0.000000 0.000000
# 5 0.000000 0.000000 0.000000 0.000000 0.129979 0.000000
# 6 0.000000 0.000000 0.000000 0.000000 0.000000 0.033889
#
#
# Mechanical properties :
#
#
# Convention : Reuss Voigt Hill
#
# Bulk Modulus (GPa) = 24.74077 44.41458 34.57768
# Shear Modulus (GPa) = 14.28675 53.46807 33.87741
#
# Velocity S-wave (km/s) = 2.89366 5.59794 4.45590
# Velocity P-wave (km/s) = 5.06602 8.23488 6.83659
#
# Compressibility (1/GPa) = 0.04041912
#
# Stress axis : x y z
#
# Youngs Moduli (GPa) = 15.21574 52.35752 52.16987
#
# Poissons Ratio (x) = 0.73970 0.54785
# Poissons Ratio (y) = 0.21497 0.37332
# Poissons Ratio (z) = 0.15978 0.37467
#
# Static dielectric constant tensor:
#      x y z
#    x 1.568270 0.000000 0.000000 
#    y 0.000000 1.584540 0.000000 
#    z 0.000000 0.000000 1.567170 
# 
# From -- ./inp_files/30213.got.cif
#   From: 2010.05.17/outbox.cif.g08.bks.cpg/sg51_16_cif.got.tgz:30213.got - 2010.06.03 11:52:47.
