data_PCOD9404648
_publ_section_title
;
Structure prediction by ZEFSAII (Michael W. Deem and Ramdas Pophale) SiO2 
 PCOD9404648
Probable space group: P M M A
;
_chemical_formula_sum "Si O2"
_cell_formula_units_Z 48
_cell_length_a 9.442342
_cell_length_b 19.038762
_cell_length_c 14.089325
_cell_angle_alpha 90.000000
_cell_angle_beta 90.000000
_cell_angle_gamma 90.000000
_cell_volume 2532.845029
_symmetry_space_group_name_H-M "P M M A"
_symmetry_group_IT_number 51
_symmetry_cell_setting 'orthorhombic'
loop_
_space_group_symop_operation_xyz
x,y,z
1/2-x,-y,z
1/2+x,-y,-z
-x,y,-z
-x,-y,-z
1/2+x,y,-z
1/2-x,y,z
x,-y,z
loop_
_atom_site_type_symbol
_atom_site_label
_atom_site_fract_x
_atom_site_fract_y
_atom_site_fract_z
Si Si1 0.750000 0.915504 0.153115
Si Si2 0.084704 0.417088 0.796263
Si Si3 0.968642 0.157270 0.793523
Si Si4 0.914775 0.200953 0.588357
Si Si5 0.419815 0.348847 0.592334
Si Si6 0.920047 0.700959 0.901877
Si Si7 0.250000 0.916327 0.069901
O O1 0.618159 0.879347 0.202072
O O2 0.750000 0.000000 0.160228
O O3 0.750000 0.896756 0.040687
O O4 0.250000 0.400306 0.819356
O O5 0.064428 0.500000 0.807700
O O6 0.061724 0.394429 0.686999
O O7 0.980361 0.371676 0.860842
O O8 0.916146 0.157485 0.685619
O O9 0.962272 0.237473 0.828965
O O10 0.879910 0.115150 0.872044
O O11 0.750000 0.215045 0.564457
O O12 0.000000 0.167709 0.500000
O O13 0.002200 0.273490 0.606315
O O14 0.500000 0.379395 0.500000
O O15 0.250000 0.341375 0.577096
O O16 0.750000 0.700611 0.912687
O O17 0.000000 0.715994 0.000000
O O18 0.250000 0.000000 0.074654
#
# Coordination Sequence:
#
# PCOD9404648 Si02
#       7
#     4   8   8   8   8   8   4
#     4  11  26  42  67 101 136 172 210 251 315 389
#     4  10  23  42  62  87 124 168 211 261 318 373
#     4  12  24  40  67  98 131 169 213 263 313 375
#     4  11  22  38  62  94 126 163 212 265 317 372
#     4  10  20  35  59  88 122 160 203 258 315 374
#     4  12  25  41  64  94 124 163 213 262 314 376
#     4  11  22  44  67  97 136 172 206 255 317 375
#
# _framework density 18.951021999999998
#
# number of rings (size 3 to 8) (size 9 to 14) (size 15 to 20)
#    0.000    1.000    3.333    4.500    4.667    3.000 
#    0.000    0.000    0.000    3.000    0.000    0.000 
#    0.000    0.000    0.000    0.000    0.000    0.000 
#
# Total GULP energy -268030.127099 kJ/mol
# GULP energy per Si atom -5583.960981 kJ/mol
# Density = 1.890789 g / cm^3
# Si number density = 18.951022 Si / 1000 Ang^3
#
#
#
# Elastic Constant Matrix: (Units=GPa)
#
#
# Indices 1 2 3 4 5 6 
#
# 1 149.1302 33.6510 36.6222 0.0000 0.0000 0.0000
# 2 33.6510 48.8458 21.6648 0.0000 0.0000 0.0000
# 3 36.6222 21.6648 109.9005 0.0000 0.0000 0.0000
# 4 0.0000 0.0000 0.0000 30.8655 0.0000 0.0000
# 5 0.0000 0.0000 0.0000 0.0000 32.6065 0.0000
# 6 0.0000 0.0000 0.0000 0.0000 0.0000 31.7988
#
#
#
# Elastic Compliance Matrix: (Units=1/GPa)
#
#
# Indices 1 2 3 4 5 6 
#
# 1 0.008247 -0.004890 -0.001784 0.000000 0.000000 0.000000
# 2 -0.004890 0.025334 -0.003364 0.000000 0.000000 0.000000
# 3 -0.001784 -0.003364 0.010357 0.000000 0.000000 0.000000
# 4 0.000000 0.000000 0.000000 0.032399 0.000000 0.000000
# 5 0.000000 0.000000 0.000000 0.000000 0.030669 0.000000
# 6 0.000000 0.000000 0.000000 0.000000 0.000000 0.031448
#
#
# Mechanical properties :
#
#
# Convention : Reuss Voigt Hill
#
# Bulk Modulus (GPa) = 41.91109 54.63914 48.27512
# Shear Modulus (GPa) = 30.03284 33.45006 31.74145
#
# Velocity S-wave (km/s) = 3.98522 4.20584 4.09702
# Velocity P-wave (km/s) = 6.58327 7.24430 6.92168
#
# Compressibility (1/GPa) = 0.02386003
#
# Stress axis : x y z
#
# Youngs Moduli (GPa) = 121.25348 39.47280 96.55371
#
# Poissons Ratio (x) = 0.19303 0.17227
# Poissons Ratio (y) = 0.59297 0.32485
# Poissons Ratio (z) = 0.21634 0.13281
#
# Static dielectric constant tensor:
#      x y z
#    x 1.604600 0.000000 0.000000 
#    y 0.000000 1.651150 0.000000 
#    z 0.000000 0.000000 1.665920 
# 
# From -- ./inp_files/21141.got.cif
#   From: 2010.05.17/outbox.cif.g08.bks.cpg/sg51_11_cif.got.tgz:21141.got - 2010.06.03 11:52:47.
