data_PCOD9404519
_publ_section_title
;
Structure prediction by ZEFSAII (Michael W. Deem and Ramdas Pophale) SiO2 
 PCOD9404519
Probable space group: P M M A
;
_chemical_formula_sum "Si O2"
_cell_formula_units_Z 48
_cell_length_a 9.178514
_cell_length_b 9.186050
_cell_length_c 32.128797
_cell_angle_alpha 90.000000
_cell_angle_beta 90.000000
_cell_angle_gamma 90.000000
_cell_volume 2708.916660
_symmetry_space_group_name_H-M "P M M A"
_symmetry_group_IT_number 51
_symmetry_cell_setting 'orthorhombic'
loop_
_space_group_symop_operation_xyz
x,y,z
1/2-x,-y,z
1/2+x,-y,-z
-x,y,-z
-x,-y,-z
1/2+x,y,-z
1/2-x,y,z
x,-y,z
loop_
_atom_site_type_symbol
_atom_site_label
_atom_site_fract_x
_atom_site_fract_y
_atom_site_fract_z
Si Si1 0.574349 0.673093 0.366337
Si Si2 0.575023 0.672222 0.211382
Si Si3 0.923269 0.827283 0.710948
Si Si4 0.418341 0.677254 0.541133
Si Si5 0.424516 0.327892 0.957206
Si Si6 0.927381 0.167236 0.126636
O O1 0.750000 0.691096 0.363884
O O2 0.545715 0.500000 0.361481
O O3 0.495642 0.760987 0.330349
O O4 0.526607 0.719398 0.412972
O O5 0.750000 0.692613 0.215929
O O6 0.546666 0.500000 0.211476
O O7 0.494676 0.749761 0.249300
O O8 0.529506 0.742537 0.167412
O O9 0.750000 0.802365 0.710420
O O10 0.949948 0.000000 0.713066
O O11 0.500000 0.729329 0.500000
O O12 0.250000 0.719967 0.538301
O O13 0.423097 0.500000 0.540928
O O14 0.250000 0.310989 0.961168
O O15 0.454232 0.500000 0.951242
O O16 0.474675 0.240870 0.916499
O O17 0.500000 0.280674 0.000000
O O18 0.750000 0.168826 0.126010
O O19 0.974732 0.000000 0.129600
#
# Coordination Sequence:
#
# PCOD9404519 Si02
#       6
#     8   8   8   8   8   8
#     4   9  18  33  53  77 103 132 170 212 250 295
#     4  10  20  35  57  81 101 126 165 209 251 300
#     4  11  24  38  51  72 103 135 167 206 253 303
#     4   8  14  25  43  70 102 131 161 201 247 293
#     4   9  17  30  48  70  97 129 166 207 248 291
#     4   9  17  30  50  75 101 130 165 204 246 294
#
# _framework density 17.719260999999999
#
# number of rings (size 3 to 8) (size 9 to 14) (size 15 to 20)
#    0.000    2.667    0.000    3.000    0.000    7.667 
#    0.000    2.500    0.000    3.500    0.000    0.000 
#    0.000    0.000    0.000    0.000    0.000    0.000 
#
# Total GULP energy -267684.412267 kJ/mol
# GULP energy per Si atom -5576.758589 kJ/mol
# Density = 1.767893 g / cm^3
# Si number density = 17.719261 Si / 1000 Ang^3
#
#
#
# Elastic Constant Matrix: (Units=GPa)
#
#
# Indices 1 2 3 4 5 6 
#
# 1 33.8648 51.7871 69.1133 0.0000 0.0000 0.0000
# 2 51.7871 94.3702 100.1517 0.0000 0.0000 0.0000
# 3 69.1133 100.1517 226.5542 0.0000 0.0000 0.0000
# 4 0.0000 0.0000 0.0000 -14.5928 0.0000 0.0000
# 5 0.0000 0.0000 0.0000 0.0000 31.0106 0.0000
# 6 0.0000 0.0000 0.0000 0.0000 0.0000 19.9384
#
#
#
# Elastic Compliance Matrix: (Units=1/GPa)
#
#
# Indices 1 2 3 4 5 6 
#
# 1 0.264540 -0.112131 -0.031132 0.000000 0.000000 0.000000
# 2 -0.112131 0.067490 0.004372 0.000000 0.000000 0.000000
# 3 -0.031132 0.004372 0.011979 0.000000 0.000000 0.000000
# 4 0.000000 0.000000 0.000000 -0.068527 0.000000 0.000000
# 5 0.000000 0.000000 0.000000 0.000000 0.032247 0.000000
# 6 0.000000 0.000000 0.000000 0.000000 0.000000 0.050154
#
#
# Mechanical properties :
#
#
# Convention : Reuss Voigt Hill
#
# Bulk Modulus (GPa) = 15.09972 88.54372 51.82172
# Shear Modulus (GPa) = 7.60178 16.18705 11.89442
#
# Velocity S-wave (km/s) = 2.07351 3.02574 2.59370
# Velocity P-wave (km/s) = 3.77793 7.89212 6.18702
#
# Compressibility (1/GPa) = 0.06622640
#
# Stress axis : x y z
#
# Youngs Moduli (GPa) = 3.78015 14.81692 83.48216
#
# Poissons Ratio (x) = 1.66143 2.59898
# Poissons Ratio (y) = 0.42387 -0.36496
# Poissons Ratio (z) = 0.11768 -0.06478
#
# Static dielectric constant tensor:
#      x y z
#    x 1.592690 0.000000 0.000000 
#    y 0.000000 1.589000 0.000000 
#    z 0.000000 0.000000 1.596900 
# 
# From -- ./inp_files/37028.got.cif
#   From: 2010.05.17/outbox.cif.g08.bks.cpg/sg51_19_cif.got.tgz:37028.got - 2010.06.03 11:52:47.
