data_PCOD9404780
_publ_section_title
;
Structure prediction by ZEFSAII (Michael W. Deem and Ramdas Pophale) SiO2 
 PCOD9404780
Probable space group: P M M A
;
_chemical_formula_sum "Si O2"
_cell_formula_units_Z 56
_cell_length_a 8.751412
_cell_length_b 19.918721
_cell_length_c 16.298481
_cell_angle_alpha 90.000000
_cell_angle_beta 90.000000
_cell_angle_gamma 90.000000
_cell_volume 2841.101237
_symmetry_space_group_name_H-M "P M M A"
_symmetry_group_IT_number 51
_symmetry_cell_setting 'orthorhombic'
loop_
_space_group_symop_operation_xyz
x,y,z
1/2-x,-y,z
1/2+x,-y,-z
-x,y,-z
-x,-y,-z
1/2+x,y,-z
1/2-x,y,z
x,-y,z
loop_
_atom_site_type_symbol
_atom_site_label
_atom_site_fract_x
_atom_site_fract_y
_atom_site_fract_z
Si Si1 0.067355 0.074059 0.591594
Si Si2 0.567388 0.790835 0.658199
Si Si3 0.066581 0.420735 0.745511
Si Si4 0.066871 0.782726 0.154066
Si Si5 0.933259 0.347680 0.586148
Si Si6 0.434440 0.927085 0.091681
Si Si7 0.067877 0.651089 0.914175
O O1 0.250000 0.076585 0.587164
O O2 0.000000 0.079008 0.500000
O O3 0.007593 0.137880 0.640565
O O4 0.022361 0.000000 0.624446
O O5 0.750000 0.799093 0.650513
O O6 0.534762 0.768098 0.750899
O O7 0.517846 0.730174 0.599527
O O8 0.250000 0.410748 0.739386
O O9 0.035912 0.500000 0.747092
O O10 0.015776 0.387925 0.831942
O O11 0.990472 0.387810 0.665715
O O12 0.250000 0.777694 0.140809
O O13 0.018016 0.859278 0.136969
O O14 0.983717 0.728069 0.098892
O O15 0.750000 0.349774 0.583794
O O16 0.000000 0.372768 0.500000
O O17 0.250000 0.926397 0.088443
O O18 0.481062 0.000000 0.127226
O O19 0.500000 0.923924 0.000000
O O20 0.250000 0.646912 0.918373
O O21 0.000000 0.625704 0.000000
#
# Coordination Sequence:
#
# PCOD9404780 Si02
#       7
#     8   8   8   8   8   8   8
#     4  10  21  36  54  78 110 150 198 250 303 360
#     4  10  21  36  57  85 116 152 196 250 304 360
#     4  10  23  44  67  93 125 160 201 248 299 358
#     4  10  20  36  57  83 115 150 197 250 297 355
#     4  11  23  40  64  94 126 162 204 248 302 362
#     4   9  18  32  50  73 104 144 189 238 290 342
#     4  11  23  39  63  92 124 162 201 247 300 357
#
# _framework density 19.710666
#
# number of rings (size 3 to 8) (size 9 to 14) (size 15 to 20)
#    0.000    1.857    1.429    2.143    0.000    7.429 
#    0.000    1.429    0.000    1.714    0.000    0.000 
#    0.000    0.000    0.000    0.000    0.000    0.000 
#
# Total GULP energy -312685.562713 kJ/mol
# GULP energy per Si atom -5583.670763 kJ/mol
# Density = 1.966580 g / cm^3
# Si number density = 19.710666 Si / 1000 Ang^3
#
#
#
# Elastic Constant Matrix: (Units=GPa)
#
#
# Indices 1 2 3 4 5 6 
#
# 1 26.4328 32.6702 40.9250 0.0000 0.0000 0.0000
# 2 32.6702 102.0528 59.8253 0.0000 0.0000 0.0000
# 3 40.9250 59.8253 130.7352 0.0000 0.0000 0.0000
# 4 0.0000 0.0000 0.0000 13.0618 0.0000 0.0000
# 5 0.0000 0.0000 0.0000 0.0000 30.9172 0.0000
# 6 0.0000 0.0000 0.0000 0.0000 0.0000 25.3217
#
#
#
# Elastic Compliance Matrix: (Units=1/GPa)
#
#
# Indices 1 2 3 4 5 6 
#
# 1 0.090756 -0.016945 -0.020656 0.000000 0.000000 0.000000
# 2 -0.016945 0.016555 -0.002271 0.000000 0.000000 0.000000
# 3 -0.020656 -0.002271 0.015154 0.000000 0.000000 0.000000
# 4 0.000000 0.000000 0.000000 0.076559 0.000000 0.000000
# 5 0.000000 0.000000 0.000000 0.000000 0.032344 0.000000
# 6 0.000000 0.000000 0.000000 0.000000 0.000000 0.039492
#
#
# Mechanical properties :
#
#
# Convention : Reuss Voigt Hill
#
# Bulk Modulus (GPa) = 23.40762 58.45130 40.92946
# Shear Modulus (GPa) = 13.70447 22.24684 17.97566
#
# Velocity S-wave (km/s) = 2.63968 3.36321 3.02317
# Velocity P-wave (km/s) = 4.60347 6.69333 5.74424
#
# Compressibility (1/GPa) = 0.04272114
#
# Stress axis : x y z
#
# Youngs Moduli (GPa) = 11.01859 60.40517 65.98738
#
# Poissons Ratio (x) = 1.02356 1.36302
# Poissons Ratio (y) = 0.18671 0.14987
# Poissons Ratio (z) = 0.22760 0.13719
#
# Static dielectric constant tensor:
#      x y z
#    x 1.662290 0.000000 0.000000 
#    y 0.000000 1.705590 0.000000 
#    z 0.000000 0.000000 1.683270 
# 
# From -- ./inp_files/21832.got.cif
#   From: 2010.05.17/outbox.cif.g08.bks.cpg/sg51_11_cif.got.tgz:21832.got - 2010.06.03 11:52:47.
