data_PCOD9404243
_publ_section_title
;
Structure prediction by ZEFSAII (Michael W. Deem and Ramdas Pophale) SiO2 
 PCOD9404243
Probable space group: P M M A
;
_chemical_formula_sum "Si O2"
_cell_formula_units_Z 40
_cell_length_a 8.550840
_cell_length_b 26.771459
_cell_length_c 9.980019
_cell_angle_alpha 90.000000
_cell_angle_beta 90.000000
_cell_angle_gamma 90.000000
_cell_volume 2284.610605
_symmetry_space_group_name_H-M "P M M A"
_symmetry_group_IT_number 51
_symmetry_cell_setting 'orthorhombic'
loop_
_space_group_symop_operation_xyz
x,y,z
1/2-x,-y,z
1/2+x,-y,-z
-x,y,-z
-x,-y,-z
1/2+x,y,-z
1/2-x,y,z
x,-y,z
loop_
_atom_site_type_symbol
_atom_site_label
_atom_site_fract_x
_atom_site_fract_y
_atom_site_fract_z
Si Si1 0.062517 0.557352 0.649594
Si Si2 0.936269 0.640225 0.850400
Si Si3 0.439196 0.163117 0.651853
Si Si4 0.061933 0.748953 0.849876
Si Si5 0.561092 0.946388 0.347273
O O1 0.250000 0.561190 0.649922
O O2 0.019977 0.500000 0.684904
O O3 0.000000 0.566757 0.500000
O O4 0.992112 0.596941 0.751833
O O5 0.750000 0.642498 0.854742
O O6 0.001500 0.694378 0.807502
O O7 0.000000 0.630963 0.000000
O O8 0.500000 0.168846 0.500000
O O9 0.250000 0.163988 0.647029
O O10 0.490626 0.207782 0.748328
O O11 0.488292 0.108015 0.705876
O O12 0.250000 0.747994 0.853420
O O13 0.000000 0.758142 0.000000
O O14 0.500000 0.946654 0.500000
O O15 0.750000 0.946508 0.348421
O O16 0.510121 0.000000 0.286411
#
# Coordination Sequence:
#
# PCOD9404243 Si02
#       5
#     8   8   8   8   8
#     4  10  21  38  59  83 111 141 172 207 250 299
#     4  11  22  37  57  79 104 135 173 214 256 301
#     4   9  18  30  47  72  98 125 160 203 247 295
#     4  10  20  35  52  71  98 131 169 208 250 300
#     4   8  13  23  40  63  91 121 153 192 240 290
#
# _framework density 17.508451999999998
#
# number of rings (size 3 to 8) (size 9 to 14) (size 15 to 20)
#    0.000    2.400    0.000    4.200    0.000    4.000 
#    0.000    2.000    0.000    0.600    0.000    0.000 
#    0.000    0.000    0.000    0.000    0.000    0.800 
#
# Total GULP energy -222946.452297 kJ/mol
# GULP energy per Si atom -5573.661307 kJ/mol
# Density = 1.746860 g / cm^3
# Si number density = 17.508452 Si / 1000 Ang^3
#
#
#
# Elastic Constant Matrix: (Units=GPa)
#
#
# Indices 1 2 3 4 5 6 
#
# 1 58.2090 49.9830 26.4618 0.0000 0.0000 0.0000
# 2 49.9830 205.7032 103.3860 0.0000 0.0000 0.0000
# 3 26.4618 103.3860 66.0009 0.0000 0.0000 0.0000
# 4 0.0000 0.0000 0.0000 -46.3913 0.0000 0.0000
# 5 0.0000 0.0000 0.0000 0.0000 26.7584 0.0000
# 6 0.0000 0.0000 0.0000 0.0000 0.0000 -12.4542
#
#
#
# Elastic Compliance Matrix: (Units=1/GPa)
#
#
# Indices 1 2 3 4 5 6 
#
# 1 0.021769 -0.004245 -0.002079 0.000000 0.000000 0.000000
# 2 -0.004245 0.023682 -0.035394 0.000000 0.000000 0.000000
# 3 -0.002079 -0.035394 0.071427 0.000000 0.000000 0.000000
# 4 0.000000 0.000000 0.000000 -0.021556 0.000000 0.000000
# 5 0.000000 0.000000 0.000000 0.000000 0.037371 0.000000
# 6 0.000000 0.000000 0.000000 0.000000 0.000000 -0.080294
#
#
# Mechanical properties :
#
#
# Convention : Reuss Voigt Hill
#
# Bulk Modulus (GPa) = 29.90150 76.61941 53.26046
# Shear Modulus (GPa) = 34.01771 3.58808 18.80290
#
# Velocity S-wave (km/s) = 4.41265 1.43311 3.28065
# Velocity P-wave (km/s) = 6.56334 6.82604 6.69597
#
# Compressibility (1/GPa) = 0.03344314
#
# Stress axis : x y z
#
# Youngs Moduli (GPa) = 45.93589 42.22658 14.00031
#
# Poissons Ratio (x) = 0.17925 0.02910
# Poissons Ratio (y) = 0.19500 0.49553
# Poissons Ratio (z) = 0.09548 1.49457
#
# Static dielectric constant tensor:
#      x y z
#    x 1.587820 0.000000 0.000000 
#    y 0.000000 1.638780 0.000000 
#    z 0.000000 0.000000 1.553530 
# 
# From -- ./inp_files/5486.got.cif
#   From: 2010.05.17/outbox.cif.g08.bks.cpg/sg51_3_cif.got.tgz:5486.got - 2010.06.03 11:52:47.
