data_PCOD9404045
_publ_section_title
;
Structure prediction by ZEFSAII (Michael W. Deem and Ramdas Pophale) SiO2 
 PCOD9404045
Probable space group: P M M A
;
_chemical_formula_sum "Si O2"
_cell_formula_units_Z 56
_cell_length_a 9.609204
_cell_length_b 14.245374
_cell_length_c 21.006793
_cell_angle_alpha 90.000000
_cell_angle_beta 90.000000
_cell_angle_gamma 90.000000
_cell_volume 2875.550673
_symmetry_space_group_name_H-M "P M M A"
_symmetry_group_IT_number 51
_symmetry_cell_setting 'orthorhombic'
loop_
_space_group_symop_operation_xyz
x,y,z
1/2-x,-y,z
1/2+x,-y,-z
-x,y,-z
-x,-y,-z
1/2+x,y,-z
1/2-x,y,z
x,-y,z
loop_
_atom_site_type_symbol
_atom_site_label
_atom_site_fract_x
_atom_site_fract_y
_atom_site_fract_z
Si Si1 0.902122 0.609039 0.736804
Si Si2 0.083678 0.110460 0.813668
Si Si3 0.970484 0.709440 0.864171
Si Si4 0.750000 0.388596 0.951036
Si Si5 0.087115 0.611016 0.616559
Si Si6 0.591044 0.888910 0.688290
Si Si7 0.750000 0.608421 0.103683
Si Si8 0.914829 0.772840 0.558698
O O1 0.750000 0.620576 0.704480
O O2 0.911271 0.500000 0.757717
O O3 0.906554 0.675032 0.797637
O O4 0.025233 0.626568 0.687408
O O5 0.250000 0.127631 0.815246
O O6 0.001710 0.180023 0.860935
O O7 0.019740 0.130793 0.743737
O O8 0.060395 0.000000 0.826735
O O9 0.879544 0.666711 0.920911
O O10 0.116954 0.658568 0.868860
O O11 0.750000 0.500000 0.932717
O O12 0.750000 0.384874 0.027019
O O13 0.250000 0.636523 0.612352
O O14 0.073690 0.500000 0.603249
O O15 0.990265 0.673893 0.572148
O O16 0.750000 0.868935 0.710719
O O17 0.568387 0.831819 0.623717
O O18 0.583564 0.000000 0.674623
O O19 0.750000 0.500000 0.121400
O O20 0.750000 0.764209 0.545435
O O21 0.000000 0.816825 0.500000
#
# Coordination Sequence:
#
# PCOD9404045 Si02
#       8
#     8   8   8   4   8   8   4   8
#     4  10  20  34  54  83 119 152 186 236 300 363
#     4  10  22  40  61  90 123 155 196 250 307 359
#     4  12  22  37  62  89 118 163 204 249 301 357
#     4  11  24  42  61  87 127 165 201 246 296 360
#     4  10  22  38  56  80 112 150 195 246 295 346
#     4   9  20  39  63  90 119 150 189 240 298 356
#     4  11  24  40  61  89 123 163 207 248 294 354
#     4  11  23  38  58  82 114 154 196 240 288 350
#
# _framework density 19.474530000000001
#
# number of rings (size 3 to 8) (size 9 to 14) (size 15 to 20)
#    0.000    1.571    1.429    3.429    2.000    6.000 
#    0.000    0.000    0.000    2.571    0.000    0.000 
#    0.000    0.000    0.000    0.000    0.000    0.000 
#
# Total GULP energy -312773.988197 kJ/mol
# GULP energy per Si atom -5585.249789 kJ/mol
# Density = 1.943021 g / cm^3
# Si number density = 19.474530 Si / 1000 Ang^3
#
#
#
# Elastic Constant Matrix: (Units=GPa)
#
#
# Indices 1 2 3 4 5 6 
#
# 1 117.5985 42.8571 19.6723 0.0000 0.0000 0.0000
# 2 42.8571 94.2980 33.4235 0.0000 0.0000 0.0000
# 3 19.6723 33.4235 33.8863 0.0000 0.0000 0.0000
# 4 0.0000 0.0000 0.0000 20.9389 0.0000 0.0000
# 5 0.0000 0.0000 0.0000 0.0000 37.1209 0.0000
# 6 0.0000 0.0000 0.0000 0.0000 0.0000 29.3258
#
#
#
# Elastic Compliance Matrix: (Units=1/GPa)
#
#
# Indices 1 2 3 4 5 6 
#
# 1 0.010287 -0.003934 -0.002092 0.000000 0.000000 0.000000
# 2 -0.003934 0.017809 -0.015282 0.000000 0.000000 0.000000
# 3 -0.002092 -0.015282 0.045798 0.000000 0.000000 0.000000
# 4 0.000000 0.000000 0.000000 0.047758 0.000000 0.000000
# 5 0.000000 0.000000 0.000000 0.000000 0.026939 0.000000
# 6 0.000000 0.000000 0.000000 0.000000 0.000000 0.034100
#
#
# Mechanical properties :
#
#
# Convention : Reuss Voigt Hill
#
# Bulk Modulus (GPa) = 31.97065 48.63205 40.30135
# Shear Modulus (GPa) = 21.21034 27.46576 24.33805
#
# Velocity S-wave (km/s) = 3.30378 3.75953 3.53900
# Velocity P-wave (km/s) = 5.56826 6.62357 6.11871
#
# Compressibility (1/GPa) = 0.03127869
#
# Stress axis : x y z
#
# Youngs Moduli (GPa) = 97.20917 56.15034 21.83479
#
# Poissons Ratio (x) = 0.22089 0.04568
# Poissons Ratio (y) = 0.38241 0.33369
# Poissons Ratio (z) = 0.20335 0.85811
#
# Static dielectric constant tensor:
#      x y z
#    x 1.644650 0.000000 0.000000 
#    y 0.000000 1.699570 0.000000 
#    z 0.000000 0.000000 1.668190 
# 
# From -- ./inp_files/32147.got.cif
#   From: 2010.05.17/outbox.cif.g08.bks.cpg/sg51_17_cif.got.tgz:32147.got - 2010.06.03 11:52:47.
