data_PCOD9404251
_publ_section_title
;
Structure prediction by ZEFSAII (Michael W. Deem and Ramdas Pophale) SiO2 
 PCOD9404251
Probable space group: P M M A
;
_chemical_formula_sum "Si O2"
_cell_formula_units_Z 44
_cell_length_a 8.553705
_cell_length_b 15.907254
_cell_length_c 17.952022
_cell_angle_alpha 90.000000
_cell_angle_beta 90.000000
_cell_angle_gamma 90.000000
_cell_volume 2442.659073
_symmetry_space_group_name_H-M "P M M A"
_symmetry_group_IT_number 51
_symmetry_cell_setting 'orthorhombic'
loop_
_space_group_symop_operation_xyz
x,y,z
1/2-x,-y,z
1/2+x,-y,-z
-x,y,-z
-x,-y,-z
1/2+x,y,-z
1/2-x,y,z
x,-y,z
loop_
_atom_site_type_symbol
_atom_site_label
_atom_site_fract_x
_atom_site_fract_y
_atom_site_fract_z
Si Si1 0.439355 0.406513 0.237726
Si Si2 0.067502 0.824440 0.134498
Si Si3 0.560315 0.905193 0.583968
Si Si4 0.565823 0.236835 0.696079
Si Si5 0.563940 0.000000 0.083433
Si Si6 0.934340 0.346549 0.079637
O O1 0.250000 0.402304 0.237812
O O2 0.487737 0.500000 0.260569
O O3 0.498811 0.330983 0.290779
O O4 0.491801 0.389668 0.152701
O O5 0.250000 0.820355 0.112839
O O6 0.056260 0.803328 0.221848
O O7 0.000340 0.915918 0.120794
O O8 0.976350 0.752046 0.090205
O O9 0.500000 0.894544 0.500000
O O10 0.750000 0.903527 0.584097
O O11 0.501254 0.829670 0.636596
O O12 0.514226 0.000000 0.609159
O O13 0.750000 0.246422 0.677731
O O14 0.750000 0.000000 0.083834
O O15 0.500000 0.000000 0.000000
O O16 0.750000 0.358819 0.081064
O O17 0.000000 0.375493 0.000000
#
# Coordination Sequence:
#
# PCOD9404251 Si02
#       6
#     8   8   8   8   4   8
#     4   9  18  34  54  75  98 127 169 217 261 309
#     4  10  20  35  53  72  95 129 173 216 259 307
#     4   9  17  30  50  76 106 136 167 201 242 297
#     4   8  16  31  53  76  98 129 168 205 250 304
#     4  12  24  36  48  68  97 132 173 216 261 306
#     4  11  21  34  51  71  99 131 167 212 263 314
#
# _framework density 18.013155999999999
#
# number of rings (size 3 to 8) (size 9 to 14) (size 15 to 20)
#    0.000    2.364    0.000    4.636    1.273    0.727 
#    0.000    4.545    0.000    0.545    0.000    0.000 
#    0.000    0.000    0.000    0.000    0.000    0.000 
#
# Total GULP energy -245381.486263 kJ/mol
# GULP energy per Si atom -5576.851961 kJ/mol
# Density = 1.797216 g / cm^3
# Si number density = 18.013156 Si / 1000 Ang^3
#
#
#
# Elastic Constant Matrix: (Units=GPa)
#
#
# Indices 1 2 3 4 5 6 
#
# 1 20.9317 16.3266 9.8421 0.0000 0.0000 0.0000
# 2 16.3266 159.5744 54.5335 0.0000 0.0000 0.0000
# 3 9.8421 54.5335 60.8775 0.0000 0.0000 0.0000
# 4 0.0000 0.0000 0.0000 17.8942 0.0000 0.0000
# 5 0.0000 0.0000 0.0000 0.0000 21.6254 0.0000
# 6 0.0000 0.0000 0.0000 0.0000 0.0000 16.9225
#
#
#
# Elastic Compliance Matrix: (Units=1/GPa)
#
#
# Indices 1 2 3 4 5 6 
#
# 1 0.053103 -0.003602 -0.005359 0.000000 0.000000 0.000000
# 2 -0.003602 0.009276 -0.007727 0.000000 0.000000 0.000000
# 3 -0.005359 -0.007727 0.024214 0.000000 0.000000 0.000000
# 4 0.000000 0.000000 0.000000 0.055884 0.000000 0.000000
# 5 0.000000 0.000000 0.000000 0.000000 0.046242 0.000000
# 6 0.000000 0.000000 0.000000 0.000000 0.000000 0.059093
#
#
# Mechanical properties :
#
#
# Convention : Reuss Voigt Hill
#
# Bulk Modulus (GPa) = 18.79038 44.75422 31.77230
# Shear Modulus (GPa) = 16.72648 22.00051 19.36350
#
# Velocity S-wave (km/s) = 3.05055 3.49858 3.28222
# Velocity P-wave (km/s) = 4.78142 6.42023 5.66045
#
# Compressibility (1/GPa) = 0.05321873
#
# Stress axis : x y z
#
# Youngs Moduli (GPa) = 18.83116 107.80761 41.29771
#
# Poissons Ratio (x) = 0.38831 0.22130
# Poissons Ratio (y) = 0.06783 0.31910
# Poissons Ratio (z) = 0.10091 0.83301
#
# Static dielectric constant tensor:
#      x y z
#    x 1.607860 0.000000 0.000000 
#    y 0.000000 1.655770 0.000000 
#    z 0.000000 0.000000 1.588790 
# 
# From -- ./inp_files/27427.got.cif
#   From: 2010.05.17/outbox.cif.g08.bks.cpg/sg51_14_cif.got.tgz:27427.got - 2010.06.03 11:52:47.
