data_PCOD9404491
_publ_section_title
;
Structure prediction by ZEFSAII (Michael W. Deem and Ramdas Pophale) SiO2 
 PCOD9404491
Probable space group: P M M A
;
_chemical_formula_sum "Si O2"
_cell_formula_units_Z 64
_cell_length_a 28.802356
_cell_length_b 12.779520
_cell_length_c 9.344234
_cell_angle_alpha 90.000000
_cell_angle_beta 90.000000
_cell_angle_gamma 90.000000
_cell_volume 3439.428310
_symmetry_space_group_name_H-M "P M M A"
_symmetry_group_IT_number 51
_symmetry_cell_setting 'orthorhombic'
loop_
_space_group_symop_operation_xyz
x,y,z
1/2-x,-y,z
1/2+x,-y,-z
-x,y,-z
-x,-y,-z
1/2+x,y,-z
1/2-x,y,z
x,-y,z
loop_
_atom_site_type_symbol
_atom_site_label
_atom_site_fract_x
_atom_site_fract_y
_atom_site_fract_z
Si Si1 0.956416 0.751256 0.589815
Si Si2 0.528927 0.380068 0.866597
Si Si3 0.198488 0.247941 0.274601
Si Si4 0.897799 0.713164 0.042018
Si Si5 0.393116 0.123869 0.193627
Si Si6 0.301842 0.381545 0.553743
Si Si7 0.595591 0.623320 0.342150
Si Si8 0.802527 0.621870 0.998240
O O1 0.975061 0.676003 0.715938
O O2 0.926499 0.835164 0.678794
O O3 0.925674 0.681964 0.479948
O O4 0.000000 0.793853 0.500000
O O5 0.515549 0.500000 0.850937
O O6 0.581477 0.368892 0.925949
O O7 0.500000 0.333182 0.000000
O O8 0.250000 0.201002 0.257300
O O9 0.157555 0.169987 0.232650
O O10 0.193891 0.294139 0.432425
O O11 0.196500 0.348047 0.169313
O O12 0.906784 0.821572 0.958369
O O13 0.842979 0.694576 0.057671
O O14 0.918079 0.684147 0.196820
O O15 0.393497 0.000000 0.183481
O O16 0.250000 0.371096 0.619706
O O17 0.303031 0.500000 0.492235
O O18 0.348254 0.374461 0.646558
O O19 0.582199 0.500000 0.337029
O O20 0.750000 0.643688 0.047329
O O21 0.812445 0.500000 0.024605
#
# Coordination Sequence:
#
# PCOD9404491 Si02
#       8
#     8   8   8   8   8   8   8   8
#     4  11  23  38  58  84 114 144 184 235 287 342
#     4  10  20  35  56  82 113 150 184 220 272 338
#     4   9  16  30  53  81 110 142 181 230 279 328
#     4  10  21  35  53  77 111 149 187 230 272 324
#     4  10  22  41  60  80 105 142 195 246 288 326
#     4   9  17  29  49  81 122 160 186 214 265 337
#     4  11  21  34  55  87 123 156 184 217 273 343
#     4   9  16  26  45  75 110 147 183 216 258 321
#
# _framework density 18.607742999999999
#
# number of rings (size 3 to 8) (size 9 to 14) (size 15 to 20)
#    0.000    2.125    1.250    2.625    0.000    4.500 
#    0.000    1.875    0.000   12.750    0.000    0.000 
#    0.000    0.000    0.000    0.000    0.000    0.000 
#
# Total GULP energy -356618.895951 kJ/mol
# GULP energy per Si atom -5572.170249 kJ/mol
# Density = 1.856539 g / cm^3
# Si number density = 18.607743 Si / 1000 Ang^3
#
#
#
# Elastic Constant Matrix: (Units=GPa)
#
#
# Indices 1 2 3 4 5 6 
#
# 1 82.2445 31.5354 31.8772 0.0000 0.0000 0.0000
# 2 31.5354 104.5465 55.3304 0.0000 0.0000 0.0000
# 3 31.8772 55.3304 116.9258 0.0000 0.0000 0.0000
# 4 0.0000 0.0000 0.0000 12.8515 0.0000 0.0000
# 5 0.0000 0.0000 0.0000 0.0000 15.4680 0.0000
# 6 0.0000 0.0000 0.0000 0.0000 0.0000 8.5205
#
#
#
# Elastic Compliance Matrix: (Units=1/GPa)
#
#
# Indices 1 2 3 4 5 6 
#
# 1 0.014265 -0.002995 -0.002472 0.000000 0.000000 0.000000
# 2 -0.002995 0.013390 -0.005520 0.000000 0.000000 0.000000
# 3 -0.002472 -0.005520 0.011838 0.000000 0.000000 0.000000
# 4 0.000000 0.000000 0.000000 0.077812 0.000000 0.000000
# 5 0.000000 0.000000 0.000000 0.000000 0.064650 0.000000
# 6 0.000000 0.000000 0.000000 0.000000 0.000000 0.117364
#
#
# Mechanical properties :
#
#
# Convention : Reuss Voigt Hill
#
# Bulk Modulus (GPa) = 57.07587 60.13365 58.60476
# Shear Modulus (GPa) = 15.28439 19.69959 17.49199
#
# Velocity S-wave (km/s) = 2.86912 3.25726 3.06933
# Velocity P-wave (km/s) = 6.45876 6.82151 6.64261
#
# Compressibility (1/GPa) = 0.01752054
#
# Stress axis : x y z
#
# Youngs Moduli (GPa) = 70.10035 74.68425 84.47130
#
# Poissons Ratio (x) = 0.22366 0.20881
# Poissons Ratio (y) = 0.20993 0.46626
# Poissons Ratio (z) = 0.17329 0.41223
#
# Static dielectric constant tensor:
#      x y z
#    x 1.743060 0.000000 0.000000 
#    y 0.000000 1.586470 0.000000 
#    z 0.000000 0.000000 1.659340 
# 
# From -- ./inp_files/13191.got.cif
#   From: 2010.05.17/outbox.cif.g08.bks.cpg/sg51_7_cif.got.tgz:13191.got - 2010.06.03 11:52:47.
