data_PCOD9404209
_publ_section_title
;
Structure prediction by ZEFSAII (Michael W. Deem and Ramdas Pophale) SiO2 
 PCOD9404209
Probable space group: P M M A
;
_chemical_formula_sum "Si O2"
_cell_formula_units_Z 64
_cell_length_a 9.386514
_cell_length_b 14.676343
_cell_length_c 24.332121
_cell_angle_alpha 90.000000
_cell_angle_beta 90.000000
_cell_angle_gamma 90.000000
_cell_volume 3351.985666
_symmetry_space_group_name_H-M "P M M A"
_symmetry_group_IT_number 51
_symmetry_cell_setting 'orthorhombic'
loop_
_space_group_symop_operation_xyz
x,y,z
1/2-x,-y,z
1/2+x,-y,-z
-x,y,-z
-x,-y,-z
1/2+x,y,-z
1/2-x,y,z
x,-y,z
loop_
_atom_site_type_symbol
_atom_site_label
_atom_site_fract_x
_atom_site_fract_y
_atom_site_fract_z
Si Si1 0.579308 0.104291 0.941458
Si Si2 0.591794 0.141507 0.449907
Si Si3 0.413994 0.233348 0.859716
Si Si4 0.906447 0.891370 0.655783
Si Si5 0.414154 0.390557 0.334080
Si Si6 0.412691 0.358234 0.553089
Si Si7 0.079716 0.391687 0.777669
Si Si8 0.592237 0.892095 0.246534
O O1 0.750000 0.113926 0.947257
O O2 0.514537 0.184861 0.904137
O O3 0.553155 0.000000 0.919523
O O4 0.500000 0.108331 0.000000
O O5 0.500000 0.104606 0.500000
O O6 0.750000 0.104167 0.449637
O O7 0.512158 0.125405 0.393496
O O8 0.600581 0.250225 0.456369
O O9 0.250000 0.242902 0.880198
O O10 0.457916 0.328331 0.830121
O O11 0.411289 0.162071 0.809494
O O12 0.750000 0.854913 0.643776
O O13 0.973451 0.856707 0.712033
O O14 0.896957 0.000000 0.662154
O O15 0.250000 0.357533 0.336158
O O16 0.408700 0.500000 0.332003
O O17 0.501350 0.368843 0.389770
O O18 0.495732 0.363678 0.277805
O O19 0.500000 0.394341 0.500000
O O20 0.250000 0.393961 0.556886
O O21 0.250000 0.378681 0.768319
O O22 0.055683 0.500000 0.787356
O O23 0.750000 0.880005 0.271946
O O24 0.573685 0.000000 0.236851
#
# Coordination Sequence:
#
# PCOD9404209 Si02
#       8
#     8   8   8   8   8   8   8   8
#     4  10  21  37  59  89 126 164 199 237 281 330
#     4  10  21  36  53  71  92 121 161 208 259 317
#     4  10  20  34  57  86 115 153 197 236 281 332
#     4  10  21  35  50  70  97 129 165 209 262 317
#     4  10  21  36  54  77 105 137 174 219 274 335
#     4  10  21  36  54  75  99 128 166 214 270 335
#     4   9  19  36  56  81 115 153 194 240 287 336
#     4   9  18  32  49  73 107 142 177 221 270 324
#
# _framework density 19.093160999999998
#
# number of rings (size 3 to 8) (size 9 to 14) (size 15 to 20)
#    0.000    2.250    0.000    2.250    1.750    5.750 
#    0.000    1.250    0.000    0.375    0.000    0.000 
#    0.000    0.000    0.000    0.000    0.000    0.000 
#
# Total GULP energy -357029.011987 kJ/mol
# GULP energy per Si atom -5578.578312 kJ/mol
# Density = 1.904970 g / cm^3
# Si number density = 19.093161 Si / 1000 Ang^3
#
#
#
# Elastic Constant Matrix: (Units=GPa)
#
#
# Indices 1 2 3 4 5 6 
#
# 1 137.5440 41.8703 64.0095 0.0000 0.0000 0.0000
# 2 41.8703 94.2991 37.6009 0.0000 0.0000 0.0000
# 3 64.0095 37.6009 90.6296 0.0000 0.0000 0.0000
# 4 0.0000 0.0000 0.0000 30.9878 0.0000 0.0000
# 5 0.0000 0.0000 0.0000 0.0000 36.8746 0.0000
# 6 0.0000 0.0000 0.0000 0.0000 0.0000 18.3643
#
#
#
# Elastic Compliance Matrix: (Units=1/GPa)
#
#
# Indices 1 2 3 4 5 6 
#
# 1 0.011191 -0.002178 -0.007001 0.000000 0.000000 0.000000
# 2 -0.002178 0.013130 -0.003910 0.000000 0.000000 0.000000
# 3 -0.007001 -0.003910 0.017600 0.000000 0.000000 0.000000
# 4 0.000000 0.000000 0.000000 0.032271 0.000000 0.000000
# 5 0.000000 0.000000 0.000000 0.000000 0.027119 0.000000
# 6 0.000000 0.000000 0.000000 0.000000 0.000000 0.054453
#
#
# Mechanical properties :
#
#
# Convention : Reuss Voigt Hill
#
# Bulk Modulus (GPa) = 63.50729 67.71489 65.61109
# Shear Modulus (GPa) = 26.71088 29.17812 27.94450
#
# Velocity S-wave (km/s) = 3.74435 3.91346 3.82984
# Velocity P-wave (km/s) = 7.21301 7.48082 7.34814
#
# Compressibility (1/GPa) = 0.01574622
#
# Stress axis : x y z
#
# Youngs Moduli (GPa) = 89.35576 76.15923 56.81708
#
# Poissons Ratio (x) = 0.16585 0.39775
# Poissons Ratio (y) = 0.19458 0.22213
# Poissons Ratio (z) = 0.62555 0.29775
#
# Static dielectric constant tensor:
#      x y z
#    x 1.686090 0.000000 0.000000 
#    y 0.000000 1.713770 0.000000 
#    z 0.000000 0.000000 1.628410 
# 
# From -- ./inp_files/34867.got.cif
#   From: 2010.05.17/outbox.cif.g08.bks.cpg/sg51_18_cif.got.tgz:34867.got - 2010.06.03 11:52:47.
