data_PCOD9404344
_publ_section_title
;
Structure prediction by ZEFSAII (Michael W. Deem and Ramdas Pophale) SiO2 
 PCOD9404344
Probable space group: P M M A
;
_chemical_formula_sum "Si O2"
_cell_formula_units_Z 64
_cell_length_a 14.568027
_cell_length_b 8.961444
_cell_length_c 26.167125
_cell_angle_alpha 90.000000
_cell_angle_beta 90.000000
_cell_angle_gamma 90.000000
_cell_volume 3416.132774
_symmetry_space_group_name_H-M "P M M A"
_symmetry_group_IT_number 51
_symmetry_cell_setting 'orthorhombic'
loop_
_space_group_symop_operation_xyz
x,y,z
1/2-x,-y,z
1/2+x,-y,-z
-x,y,-z
-x,-y,-z
1/2+x,y,-z
1/2-x,y,z
x,-y,z
loop_
_atom_site_type_symbol
_atom_site_label
_atom_site_fract_x
_atom_site_fract_y
_atom_site_fract_z
Si Si1 0.900875 0.165713 0.419668
Si Si2 0.043496 0.818754 0.076385
Si Si3 0.044250 0.678379 0.279463
Si Si4 0.607483 0.832971 0.620488
Si Si5 0.855085 0.181832 0.028125
Si Si6 0.145737 0.334199 0.481578
Si Si7 0.351113 0.181270 0.689911
Si Si8 0.358676 0.819683 0.181473
O O1 0.904692 0.256646 0.471563
O O2 0.849449 0.227782 0.370011
O O3 0.002536 0.153197 0.397607
O O4 0.864814 0.000000 0.431868
O O5 0.089613 0.773252 0.129374
O O6 0.937803 0.771145 0.066224
O O7 0.042436 0.000000 0.076000
O O8 0.106931 0.774988 0.028064
O O9 0.040515 0.500000 0.279939
O O10 0.103089 0.737620 0.328013
O O11 0.092750 0.741133 0.229057
O O12 0.940598 0.744578 0.285012
O O13 0.649495 0.753932 0.571376
O O14 0.642969 0.000000 0.629783
O O15 0.750000 0.232566 0.037206
O O16 0.852735 0.000000 0.029388
O O17 0.250000 0.343075 0.500708
O O18 0.109818 0.500000 0.471514
O O19 0.250000 0.214853 0.712183
O O20 0.362830 0.000000 0.690479
O O21 0.250000 0.785836 0.178913
O O22 0.367311 0.000000 0.186687
#
# Coordination Sequence:
#
# PCOD9404344 Si02
#       8
#     8   8   8   8   8   8   8   8
#     4   9  18  33  53  76  99 125 160 199 242 299
#     4   8  14  24  41  69 104 140 179 222 267 320
#     4  11  23  38  56  78 105 135 171 220 273 323
#     4  10  21  38  57  73  93 126 167 209 255 309
#     4   8  12  20  38  68 107 144 175 215 270 321
#     4  11  23  34  46  71 104 132 160 198 247 306
#     4   9  18  35  59  83 107 136 171 212 257 311
#     4  10  20  35  55  76 101 138 184 229 271 319
#
# _framework density 18.734635999999998
#
# number of rings (size 3 to 8) (size 9 to 14) (size 15 to 20)
#    0.000    2.500    0.000    4.500    0.000    8.000 
#    0.000    0.625    0.000    2.250    0.000    1.750 
#    0.000    1.000    0.000    0.000    0.000    0.000 
#
# Total GULP energy -356580.636897 kJ/mol
# GULP energy per Si atom -5571.572452 kJ/mol
# Density = 1.869199 g / cm^3
# Si number density = 18.734636 Si / 1000 Ang^3
#
#
#
# Elastic Constant Matrix: (Units=GPa)
#
#
# Indices 1 2 3 4 5 6 
#
# 1 137.2235 35.0001 71.0553 0.0000 0.0000 0.0000
# 2 35.0001 63.3385 50.7458 0.0000 0.0000 0.0000
# 3 71.0553 50.7458 142.2422 0.0000 0.0000 0.0000
# 4 0.0000 0.0000 0.0000 -17.9260 0.0000 0.0000
# 5 0.0000 0.0000 0.0000 0.0000 17.4896 0.0000
# 6 0.0000 0.0000 0.0000 0.0000 0.0000 11.5407
#
#
#
# Elastic Compliance Matrix: (Units=1/GPa)
#
#
# Indices 1 2 3 4 5 6 
#
# 1 0.010033 -0.002141 -0.004248 0.000000 0.000000 0.000000
# 2 -0.002141 0.022564 -0.006980 0.000000 0.000000 0.000000
# 3 -0.004248 -0.006980 0.011643 0.000000 0.000000 0.000000
# 4 0.000000 0.000000 0.000000 -0.055785 0.000000 0.000000
# 5 0.000000 0.000000 0.000000 0.000000 0.057177 0.000000
# 6 0.000000 0.000000 0.000000 0.000000 0.000000 0.086650
#
#
# Mechanical properties :
#
#
# Convention : Reuss Voigt Hill
#
# Bulk Modulus (GPa) = 57.13958 72.93407 65.03683
# Shear Modulus (GPa) = 30.32989 14.62104 22.47547
#
# Velocity S-wave (km/s) = 4.02795 2.79665 3.46739
# Velocity P-wave (km/s) = 7.22483 7.03156 7.12885
#
# Compressibility (1/GPa) = 0.01750100
#
# Stress axis : x y z
#
# Youngs Moduli (GPa) = 99.66981 44.31909 85.89035
#
# Poissons Ratio (x) = 0.09487 0.36489
# Poissons Ratio (y) = 0.21335 0.59955
# Poissons Ratio (z) = 0.42342 0.30937
#
# Static dielectric constant tensor:
#      x y z
#    x 1.709930 0.000000 0.000000 
#    y 0.000000 1.657110 0.000000 
#    z 0.000000 0.000000 1.624790 
# 
# From -- ./inp_files/35711.got.cif
#   From: 2010.05.17/outbox.cif.g08.bks.cpg/sg51_18_cif.got.tgz:35711.got - 2010.06.03 11:52:47.
