data_PCOD9404758
_publ_section_title
;
Structure prediction by ZEFSAII (Michael W. Deem and Ramdas Pophale) SiO2 
 PCOD9404758
Probable space group: P M M A
;
_chemical_formula_sum "Si O2"
_cell_formula_units_Z 64
_cell_length_a 25.810704
_cell_length_b 9.075421
_cell_length_c 14.744363
_cell_angle_alpha 90.000000
_cell_angle_beta 90.000000
_cell_angle_gamma 90.000000
_cell_volume 3453.763897
_symmetry_space_group_name_H-M "P M M A"
_symmetry_group_IT_number 51
_symmetry_cell_setting 'orthorhombic'
loop_
_space_group_symop_operation_xyz
x,y,z
1/2-x,-y,z
1/2+x,-y,-z
-x,y,-z
-x,-y,-z
1/2+x,y,-z
1/2-x,y,z
x,-y,z
loop_
_atom_site_type_symbol
_atom_site_label
_atom_site_fract_x
_atom_site_fract_y
_atom_site_fract_z
Si Si1 0.188979 0.675526 0.785765
Si Si2 0.687988 0.826507 0.404080
Si Si3 0.358573 0.676087 0.419740
Si Si4 0.309154 0.322551 0.228696
Si Si5 0.479647 0.676343 0.401254
Si Si6 0.599304 0.177498 0.883200
Si Si7 0.493572 0.822637 0.781639
Si Si8 0.895889 0.177461 0.094216
O O1 0.250000 0.707716 0.799185
O O2 0.182395 0.500000 0.783017
O O3 0.173341 0.745066 0.689012
O O4 0.154322 0.746283 0.863740
O O5 0.750000 0.806703 0.416283
O O6 0.659496 0.759021 0.490545
O O7 0.677377 0.000000 0.395570
O O8 0.354094 0.500000 0.434861
O O9 0.324179 0.715610 0.332361
O O10 0.418360 0.708738 0.396921
O O11 0.250000 0.279418 0.209290
O O12 0.313149 0.500000 0.221183
O O13 0.350736 0.248909 0.163019
O O14 0.500000 0.722274 0.500000
O O15 0.486451 0.500000 0.393641
O O16 0.508047 0.753496 0.317905
O O17 0.547277 0.222910 0.830040
O O18 0.602983 0.000000 0.877031
O O19 0.595763 0.216462 0.989202
O O20 0.445299 0.780311 0.844646
O O21 0.493725 0.000000 0.774489
O O22 0.890367 0.000000 0.099457
#
# Coordination Sequence:
#
# PCOD9404758 Si02
#       8
#     8   8   8   8   8   8   8   8
#     4  10  22  40  60  84 116 153 192 236 286 341
#     4  10  21  36  56  83 114 148 187 233 282 336
#     4  10  20  36  57  81 115 156 193 233 286 344
#     4  10  21  37  58  84 116 155 198 242 289 344
#     4  10  22  38  57  85 119 153 187 232 287 341
#     4  10  21  39  61  85 116 151 190 239 293 346
#     4  10  21  39  62  87 115 150 191 237 286 344
#     4  10  22  39  61  88 115 149 191 237 291 348
#
# _framework density 18.530508999999999
#
# number of rings (size 3 to 8) (size 9 to 14) (size 15 to 20)
#    0.000    2.000    1.250    1.500    1.750    6.500 
#    0.000    2.500    0.000    2.250    0.000    0.000 
#    0.000    0.000    0.000    0.000    0.000    0.000 
#
# Total GULP energy -357532.874933 kJ/mol
# GULP energy per Si atom -5586.451171 kJ/mol
# Density = 1.848833 g / cm^3
# Si number density = 18.530509 Si / 1000 Ang^3
#
#
#
# Elastic Constant Matrix: (Units=GPa)
#
#
# Indices 1 2 3 4 5 6 
#
# 1 82.6846 31.1643 54.8198 0.0000 0.0000 0.0000
# 2 31.1643 18.5949 36.6180 0.0000 0.0000 0.0000
# 3 54.8198 36.6180 141.6473 0.0000 0.0000 0.0000
# 4 0.0000 0.0000 0.0000 -149.3304 0.0000 0.0000
# 5 0.0000 0.0000 0.0000 0.0000 1.8372 0.0000
# 6 0.0000 0.0000 0.0000 0.0000 0.0000 24.9577
#
#
#
# Elastic Compliance Matrix: (Units=1/GPa)
#
#
# Indices 1 2 3 4 5 6 
#
# 1 0.033515 -0.062387 0.003157 0.000000 0.000000 0.000000
# 2 -0.062387 0.225676 -0.034196 0.000000 0.000000 0.000000
# 3 0.003157 -0.034196 0.014678 0.000000 0.000000 0.000000
# 4 0.000000 0.000000 0.000000 -0.006697 0.000000 0.000000
# 5 0.000000 0.000000 0.000000 0.000000 0.544320 0.000000
# 6 0.000000 0.000000 0.000000 0.000000 0.000000 0.040068
#
#
# Mechanical properties :
#
#
# Convention : Reuss Voigt Hill
#
# Bulk Modulus (GPa) = 11.49191 54.23680 32.86436
# Shear Modulus (GPa) = 4.68420 -16.48547 -5.90063
#
# Velocity S-wave (km/s) = 1.59164 -2.98592 -1.78639
# Velocity P-wave (km/s) = 3.09723 4.17670 3.67680
#
# Compressibility (1/GPa) = 0.08701775
#
# Stress axis : x y z
#
# Youngs Moduli (GPa) = 29.83745 4.43113 68.12842
#
# Poissons Ratio (x) = 0.27644 -0.21509
# Poissons Ratio (y) = 1.86146 2.32973
# Poissons Ratio (z) = -0.09420 0.15153
#
# Static dielectric constant tensor:
#      x y z
#    x 1.629220 0.000000 0.000000 
#    y 0.000000 1.619240 0.000000 
#    z 0.000000 0.000000 1.608400 
# 
# From -- ./inp_files/26280.got.cif
#   From: 2010.05.17/outbox.cif.g08.bks.cpg/sg51_14_cif.got.tgz:26280.got - 2010.06.03 11:52:47.
