data_PCOD9404525
_publ_section_title
;
Structure prediction by ZEFSAII (Michael W. Deem and Ramdas Pophale) SiO2 
 PCOD9404525
Probable space group: P M M A
;
_chemical_formula_sum "Si O2"
_cell_formula_units_Z 48
_cell_length_a 9.350183
_cell_length_b 7.780749
_cell_length_c 32.026838
_cell_angle_alpha 90.000000
_cell_angle_beta 90.000000
_cell_angle_gamma 90.000000
_cell_volume 2329.998168
_symmetry_space_group_name_H-M "P M M A"
_symmetry_group_IT_number 51
_symmetry_cell_setting 'orthorhombic'
loop_
_space_group_symop_operation_xyz
x,y,z
1/2-x,-y,z
1/2+x,-y,-z
-x,y,-z
-x,-y,-z
1/2+x,y,-z
1/2-x,y,z
x,-y,z
loop_
_atom_site_type_symbol
_atom_site_label
_atom_site_fract_x
_atom_site_fract_y
_atom_site_fract_z
Si Si1 0.585383 0.289296 0.287158
Si Si2 0.087183 0.794940 0.877306
Si Si3 0.087215 0.706544 0.205743
Si Si4 0.085927 0.293584 0.368305
Si Si5 0.912546 0.294063 0.960109
Si Si6 0.086994 0.206946 0.460133
O O1 0.750000 0.234746 0.284581
O O2 0.584957 0.500000 0.287065
O O3 0.494990 0.231402 0.247027
O O4 0.509852 0.232048 0.329929
O O5 0.250000 0.726219 0.877475
O O6 0.003092 0.745177 0.835520
O O7 0.999146 0.738300 0.917838
O O8 0.095009 0.000000 0.878448
O O9 0.250000 0.772269 0.202977
O O10 0.095511 0.500000 0.209238
O O11 0.250000 0.228314 0.365346
O O12 0.092281 0.500000 0.365208
O O13 0.028278 0.250768 0.414333
O O14 0.750000 0.226726 0.958118
O O15 0.902606 0.500000 0.965000
O O16 0.000000 0.226004 0.000000
O O17 0.250000 0.272000 0.461583
O O18 0.000000 0.271486 0.500000
O O19 0.091159 0.000000 0.462818
#
# Coordination Sequence:
#
# PCOD9404525 Si02
#       6
#     8   8   8   8   8   8
#     4   9  17  30  50  76 103 131 165 207 254 302
#     4  11  24  39  55  79 112 147 181 219 265 314
#     4  10  20  35  57  82 106 137 178 219 260 310
#     4   9  17  30  48  70  96 125 159 201 247 295
#     4  10  21  38  61  87 112 141 180 223 266 314
#     4   9  18  32  48  66  91 124 160 197 240 292
#
# _framework density 20.600874000000001
#
# number of rings (size 3 to 8) (size 9 to 14) (size 15 to 20)
#    0.000    2.333    0.000    2.500    0.000    8.667 
#    0.000    0.833    0.000    3.000    0.000    0.000 
#    0.000    0.000    0.000    0.000    0.000    0.000 
#
# Total GULP energy -268067.516604 kJ/mol
# GULP energy per Si atom -5584.739929 kJ/mol
# Density = 2.055399 g / cm^3
# Si number density = 20.600874 Si / 1000 Ang^3
#
#
#
# Elastic Constant Matrix: (Units=GPa)
#
#
# Indices 1 2 3 4 5 6 
#
# 1 191.3849 8.4111 134.5405 0.0000 0.0000 0.0000
# 2 8.4111 26.8716 -0.7569 0.0000 0.0000 0.0000
# 3 134.5405 -0.7569 235.6275 0.0000 0.0000 0.0000
# 4 0.0000 0.0000 0.0000 68.8264 0.0000 0.0000
# 5 0.0000 0.0000 0.0000 0.0000 44.0103 0.0000
# 6 0.0000 0.0000 0.0000 0.0000 0.0000 410.8336
#
#
#
# Elastic Compliance Matrix: (Units=1/GPa)
#
#
# Indices 1 2 3 4 5 6 
#
# 1 0.008956 -0.002948 -0.005123 0.000000 0.000000 0.000000
# 2 -0.002948 0.038188 0.001806 0.000000 0.000000 0.000000
# 3 -0.005123 0.001806 0.007175 0.000000 0.000000 0.000000
# 4 0.000000 0.000000 0.000000 0.014529 0.000000 0.000000
# 5 0.000000 0.000000 0.000000 0.000000 0.022722 0.000000
# 6 0.000000 0.000000 0.000000 0.000000 0.000000 0.002434
#
#
# Mechanical properties :
#
#
# Convention : Reuss Voigt Hill
#
# Bulk Modulus (GPa) = 23.93014 82.03039 52.98027
# Shear Modulus (GPa) = 41.50602 125.51335 83.50968
#
# Velocity S-wave (km/s) = 4.49349 7.81399 6.37377
# Velocity P-wave (km/s) = 6.20993 11.01438 8.94091
#
# Compressibility (1/GPa) = 0.04178830
#
# Stress axis : x y z
#
# Youngs Moduli (GPa) = 111.65336 26.18657 139.36917
#
# Poissons Ratio (x) = 0.07719 0.71404
# Poissons Ratio (y) = 0.32912 -0.25167
# Poissons Ratio (z) = 0.57205 -0.04729
#
# Static dielectric constant tensor:
#      x y z
#    x 1.728140 0.000000 0.000000 
#    y 0.000000 1.755940 0.000000 
#    z 0.000000 0.000000 1.698740 
# 
# From -- ./inp_files/36882.got.cif
#   From: 2010.05.17/outbox.cif.g08.bks.cpg/sg51_19_cif.got.tgz:36882.got - 2010.06.03 11:52:47.
