data_PCOD9404929
_publ_section_title
;
Structure prediction by ZEFSAII (Michael W. Deem and Ramdas Pophale) SiO2 
 PCOD9404929
Probable space group: P M M A
;
_chemical_formula_sum "Si O2"
_cell_formula_units_Z 48
_cell_length_a 17.127944
_cell_length_b 16.729451
_cell_length_c 7.904634
_cell_angle_alpha 90.000000
_cell_angle_beta 90.000000
_cell_angle_gamma 90.000000
_cell_volume 2265.002520
_symmetry_space_group_name_H-M "P M M A"
_symmetry_group_IT_number 51
_symmetry_cell_setting 'orthorhombic'
loop_
_space_group_symop_operation_xyz
x,y,z
1/2-x,-y,z
1/2+x,-y,-z
-x,y,-z
-x,-y,-z
1/2+x,y,-z
1/2-x,y,z
x,-y,z
loop_
_atom_site_type_symbol
_atom_site_label
_atom_site_fract_x
_atom_site_fract_y
_atom_site_fract_z
Si Si1 0.435798 0.852833 0.115135
Si Si2 0.660372 0.000000 0.520478
Si Si3 0.156361 0.707944 0.276687
Si Si4 0.656361 0.707243 0.328922
Si Si5 0.338665 0.000000 0.070045
Si Si6 0.059393 0.859483 0.635945
Si Si7 0.345115 0.408838 0.974803
O O1 0.383198 0.790054 0.214884
O O2 0.496184 0.898431 0.238966
O O3 0.383046 0.918701 0.023320
O O4 0.500000 0.808672 0.000000
O O5 0.661961 0.000000 0.724262
O O6 0.615129 0.076601 0.450438
O O7 0.750000 0.000000 0.462749
O O8 0.250000 0.718224 0.263596
O O9 0.139698 0.688881 0.473182
O O10 0.132122 0.639683 0.143518
O O11 0.750000 0.718513 0.314063
O O12 0.612110 0.789436 0.288790
O O13 0.632578 0.640102 0.193783
O O14 0.250000 0.000000 0.008334
O O15 0.000000 0.821105 0.500000
O O16 0.250000 0.411035 0.975171
O O17 0.373165 0.500000 0.974055
#
# Coordination Sequence:
#
# PCOD9404929 Si02
#       7
#     8   4   8   8   4   8   8
#     4  12  24  38  57  86 117 158 197 245 298 353
#     4  11  22  38  61  87 118 157 201 250 296 343
#     4  10  20  37  60  87 119 156 200 245 297 357
#     4  10  20  36  60  89 119 158 202 245 299 357
#     4  11  22  39  59  82 116 155 201 246 292 347
#     4  12  21  37  59  85 118 153 199 245 289 349
#     4   9  19  36  60  91 122 151 193 251 304 355
#
# _framework density 21.192028000000001
#
# number of rings (size 3 to 8) (size 9 to 14) (size 15 to 20)
#    0.000    1.333    3.333    3.000    0.000    3.333 
#    0.000    6.667    0.000    5.000    0.000    0.000 
#    0.000    0.000    0.000    0.000    0.000    0.000 
#
# Total GULP energy -268009.321659 kJ/mol
# GULP energy per Si atom -5583.527535 kJ/mol
# Density = 2.114379 g / cm^3
# Si number density = 21.192028 Si / 1000 Ang^3
#
#
#
# Elastic Constant Matrix: (Units=GPa)
#
#
# Indices 1 2 3 4 5 6 
#
# 1 83.5906 50.9998 42.9383 0.0000 0.0000 0.0000
# 2 50.9998 149.2836 55.2624 0.0000 0.0000 0.0000
# 3 42.9383 55.2624 92.0500 0.0000 0.0000 0.0000
# 4 0.0000 0.0000 0.0000 29.5491 0.0000 0.0000
# 5 0.0000 0.0000 0.0000 0.0000 28.5456 0.0000
# 6 0.0000 0.0000 0.0000 0.0000 0.0000 -12.4181
#
#
#
# Elastic Compliance Matrix: (Units=1/GPa)
#
#
# Indices 1 2 3 4 5 6 
#
# 1 0.017217 -0.003740 -0.005786 0.000000 0.000000 0.000000
# 2 -0.003740 0.009425 -0.003914 0.000000 0.000000 0.000000
# 3 -0.005786 -0.003914 0.015912 0.000000 0.000000 0.000000
# 4 0.000000 0.000000 0.000000 0.033842 0.000000 0.000000
# 5 0.000000 0.000000 0.000000 0.000000 0.035032 0.000000
# 6 0.000000 0.000000 0.000000 0.000000 0.000000 -0.080527
#
#
# Mechanical properties :
#
#
# Convention : Reuss Voigt Hill
#
# Bulk Modulus (GPa) = 63.79573 69.25835 66.52704
# Shear Modulus (GPa) = 79.35882 20.85022 50.10452
#
# Velocity S-wave (km/s) = 6.12607 3.14007 4.86769
# Velocity P-wave (km/s) = 8.95586 6.77488 7.94060
#
# Compressibility (1/GPa) = 0.01567503
#
# Stress axis : x y z
#
# Youngs Moduli (GPa) = 58.08245 106.09853 62.84475
#
# Poissons Ratio (x) = 0.39681 0.36361
# Poissons Ratio (y) = 0.21723 0.24596
# Poissons Ratio (z) = 0.33605 0.41525
#
# Static dielectric constant tensor:
#      x y z
#    x 1.731610 0.000000 0.000000 
#    y 0.000000 1.727730 0.000000 
#    z 0.000000 0.000000 1.885740 
# 
# From -- ./inp_files/9670.got.cif
#   From: 2010.05.17/outbox.cif.g08.bks.cpg/sg51_5_cif.got.tgz:9670.got - 2010.06.03 11:52:47.
