data_PCOD9404272
_publ_section_title
;
Structure prediction by ZEFSAII (Michael W. Deem and Ramdas Pophale) SiO2 
 PCOD9404272
Probable space group: P M M A
;
_chemical_formula_sum "Si O2"
_cell_formula_units_Z 52
_cell_length_a 7.775435
_cell_length_b 20.475172
_cell_length_c 15.737594
_cell_angle_alpha 90.000000
_cell_angle_beta 90.000000
_cell_angle_gamma 90.000000
_cell_volume 2505.477985
_symmetry_space_group_name_H-M "P M M A"
_symmetry_group_IT_number 51
_symmetry_cell_setting 'orthorhombic'
loop_
_space_group_symop_operation_xyz
x,y,z
1/2-x,-y,z
1/2+x,-y,-z
-x,y,-z
-x,-y,-z
1/2+x,y,-z
1/2-x,y,z
x,-y,z
loop_
_atom_site_type_symbol
_atom_site_label
_atom_site_fract_x
_atom_site_fract_y
_atom_site_fract_z
Si Si1 0.544621 0.000000 0.596825
Si Si2 0.960872 0.315359 0.773449
Si Si3 0.957039 0.425526 0.903791
Si Si4 0.456923 0.790303 0.089810
Si Si5 0.947423 0.926012 0.867645
Si Si6 0.547123 0.738852 0.599492
Si Si7 0.054402 0.127358 0.691392
O O1 0.500000 0.000000 0.500000
O O2 0.459176 0.064355 0.633299
O O3 0.750000 0.000000 0.613472
O O4 0.750000 0.315980 0.772682
O O5 0.018221 0.377169 0.829530
O O6 0.013687 0.251876 0.829105
O O7 0.020927 0.308448 0.675648
O O8 0.750000 0.426708 0.898290
O O9 0.020942 0.500000 0.893790
O O10 0.000000 0.404143 0.000000
O O11 0.250000 0.794612 0.096125
O O12 0.533051 0.863756 0.087452
O O13 0.500000 0.757652 0.000000
O O14 0.750000 0.931975 0.896840
O O15 0.946681 0.896735 0.772410
O O16 0.021121 0.000000 0.871008
O O17 0.500000 0.731392 0.500000
O O18 0.750000 0.731011 0.600503
O O19 0.505416 0.810547 0.637184
O O20 0.250000 0.138272 0.719187
#
# Coordination Sequence:
#
# PCOD9404272 Si02
#       7
#     4   8   8   8   8   8   8
#     4  12  24  38  54  74 101 134 173 220 280 342
#     4   9  18  34  56  79 110 148 183 221 273 327
#     4   9  17  31  54  86 120 153 187 222 265 321
#     4  10  20  35  53  77 104 139 181 224 273 326
#     4  10  20  36  56  73  98 141 182 221 277 335
#     4  11  22  39  58  78 106 142 182 226 276 328
#     4  12  23  36  54  79 104 131 175 227 280 334
#
# _framework density 20.754522000000001
#
# number of rings (size 3 to 8) (size 9 to 14) (size 15 to 20)
#    0.000    1.692    2.308    3.462    0.000    0.923 
#    0.000    1.538    0.000    0.462    0.000    0.000 
#    0.000    0.000    0.000    0.000    0.000    0.154 
#
# Total GULP energy -289933.142859 kJ/mol
# GULP energy per Si atom -5575.637363 kJ/mol
# Density = 2.070728 g / cm^3
# Si number density = 20.754522 Si / 1000 Ang^3
#
#
#
# Elastic Constant Matrix: (Units=GPa)
#
#
# Indices 1 2 3 4 5 6 
#
# 1 46.8381 4.7533 8.5039 0.0000 0.0000 0.0000
# 2 4.7533 129.3021 72.2711 0.0000 0.0000 0.0000
# 3 8.5039 72.2711 158.8642 0.0000 0.0000 0.0000
# 4 0.0000 0.0000 0.0000 34.4129 0.0000 0.0000
# 5 0.0000 0.0000 0.0000 0.0000 19.5627 0.0000
# 6 0.0000 0.0000 0.0000 0.0000 0.0000 -8.2789
#
#
#
# Elastic Compliance Matrix: (Units=1/GPa)
#
#
# Indices 1 2 3 4 5 6 
#
# 1 0.021563 -0.000198 -0.001064 0.000000 0.000000 0.000000
# 2 -0.000198 0.010373 -0.004708 0.000000 0.000000 0.000000
# 3 -0.001064 -0.004708 0.008494 0.000000 0.000000 0.000000
# 4 0.000000 0.000000 0.000000 0.029059 0.000000 0.000000
# 5 0.000000 0.000000 0.000000 0.000000 0.051118 0.000000
# 6 0.000000 0.000000 0.000000 0.000000 0.000000 -0.120789
#
#
# Mechanical properties :
#
#
# Convention : Reuss Voigt Hill
#
# Bulk Modulus (GPa) = 35.10121 56.22899 45.66510
# Shear Modulus (GPa) = 235.25207 25.77107 130.51157
#
# Velocity S-wave (km/s) = 10.65814 3.52761 7.93851
# Velocity P-wave (km/s) = 12.97730 6.61387 10.29936
#
# Compressibility (1/GPa) = 0.02848905
#
# Stress axis : x y z
#
# Youngs Moduli (GPa) = 46.37476 96.40730 117.73685
#
# Poissons Ratio (x) = 0.01907 0.12530
# Poissons Ratio (y) = 0.00917 0.55433
# Poissons Ratio (z) = 0.04936 0.45390
#
# Static dielectric constant tensor:
#      x y z
#    x 1.781890 0.000000 0.000000 
#    y 0.000000 1.772920 0.000000 
#    z 0.000000 0.000000 1.830980 
# 
# From -- ./inp_files/21591.got.cif
#   From: 2010.05.17/outbox.cif.g08.bks.cpg/sg51_11_cif.got.tgz:21591.got - 2010.06.03 11:52:47.
