data_PCOD9404658
_publ_section_title
;
Structure prediction by ZEFSAII (Michael W. Deem and Ramdas Pophale) SiO2 
 PCOD9404658
Probable space group: P M M A
;
_chemical_formula_sum "Si O2"
_cell_formula_units_Z 56
_cell_length_a 15.069722
_cell_length_b 14.063805
_cell_length_c 12.401919
_cell_angle_alpha 90.000000
_cell_angle_beta 90.000000
_cell_angle_gamma 90.000000
_cell_volume 2628.433340
_symmetry_space_group_name_H-M "P M M A"
_symmetry_group_IT_number 51
_symmetry_cell_setting 'orthorhombic'
loop_
_space_group_symop_operation_xyz
x,y,z
1/2-x,-y,z
1/2+x,-y,-z
-x,y,-z
-x,-y,-z
1/2+x,y,-z
1/2-x,y,z
x,-y,z
loop_
_atom_site_type_symbol
_atom_site_label
_atom_site_fract_x
_atom_site_fract_y
_atom_site_fract_z
Si Si1 0.648988 0.611844 0.365363
Si Si2 0.853470 0.384072 0.949247
Si Si3 0.851068 0.109063 0.713306
Si Si4 0.650868 0.113350 0.282445
Si Si5 0.894558 0.778659 0.500454
Si Si6 0.499457 0.115172 0.879318
Si Si7 0.965620 0.615497 0.161668
O O1 0.750000 0.627033 0.324617
O O2 0.638259 0.500000 0.384613
O O3 0.636424 0.672569 0.473114
O O4 0.576998 0.643359 0.276153
O O5 0.750000 0.351725 0.935576
O O6 0.849981 0.500000 0.945568
O O7 0.932688 0.355178 0.865447
O O8 0.897416 0.358445 0.065158
O O9 0.750000 0.108966 0.748495
O O10 0.862111 0.176853 0.611354
O O11 0.912841 0.135816 0.812252
O O12 0.875147 0.000000 0.680172
O O13 0.750000 0.130779 0.243283
O O14 0.638754 0.160381 0.398528
O O15 0.581279 0.148391 0.194540
O O16 0.638490 0.000000 0.295883
O O17 0.000000 0.782374 0.500000
O O18 0.492017 0.000000 0.886279
O O19 0.500000 0.152874 0.000000
O O20 0.966720 0.500000 0.161616
#
# Coordination Sequence:
#
# PCOD9404658 Si02
#       7
#     8   8   8   8   8   8   8
#     4  10  21  37  57  81 112 151 199 254 310 372
#     4   8  12  20  41  74 108 140 178 231 297 366
#     4  10  20  35  59  93 131 167 202 244 298 361
#     4  10  20  35  59  92 127 162 203 249 296 354
#     4  12  23  37  60  86 119 159 203 257 311 360
#     4   9  18  33  55  88 128 167 205 242 290 358
#     4   8  14  25  44  73 105 140 186 236 291 357
#
# _framework density 21.305468000000001
#
# number of rings (size 3 to 8) (size 9 to 14) (size 15 to 20)
#    0.000    2.429    1.429    3.000    0.000    4.286 
#    0.000    2.857    3.143    2.571    0.000    2.000 
#    0.000    1.714    0.000    6.000    0.000    0.286 
#
# Total GULP energy -312807.730717 kJ/mol
# GULP energy per Si atom -5585.852334 kJ/mol
# Density = 2.125698 g / cm^3
# Si number density = 21.305468 Si / 1000 Ang^3
#
#
#
# Elastic Constant Matrix: (Units=GPa)
#
#
# Indices 1 2 3 4 5 6 
#
# 1 147.4803 31.7596 42.4976 0.0000 0.0000 0.0000
# 2 31.7596 86.0878 39.6724 0.0000 0.0000 0.0000
# 3 42.4976 39.6724 111.8266 0.0000 0.0000 0.0000
# 4 0.0000 0.0000 0.0000 6.3694 0.0000 0.0000
# 5 0.0000 0.0000 0.0000 0.0000 -153.9509 0.0000
# 6 0.0000 0.0000 0.0000 0.0000 0.0000 10.0790
#
#
#
# Elastic Compliance Matrix: (Units=1/GPa)
#
#
# Indices 1 2 3 4 5 6 
#
# 1 0.007845 -0.001817 -0.002337 0.000000 0.000000 0.000000
# 2 -0.001817 0.014307 -0.004385 0.000000 0.000000 0.000000
# 3 -0.002337 -0.004385 0.011386 0.000000 0.000000 0.000000
# 4 0.000000 0.000000 0.000000 0.157001 0.000000 0.000000
# 5 0.000000 0.000000 0.000000 0.000000 -0.006496 0.000000
# 6 0.000000 0.000000 0.000000 0.000000 0.000000 0.099216
#
#
# Mechanical properties :
#
#
# Convention : Reuss Voigt Hill
#
# Bulk Modulus (GPa) = 60.75225 63.69489 62.22357
# Shear Modulus (GPa) = 16.34921 -12.06949 2.13986
#
# Velocity S-wave (km/s) = 2.77315 -2.38270 1.00327
# Velocity P-wave (km/s) = 6.23142 4.73194 5.53271
#
# Compressibility (1/GPa) = 0.01646029
#
# Stress axis : x y z
#
# Youngs Moduli (GPa) = 127.46510 69.89416 87.82628
#
# Poissons Ratio (x) = 0.12703 0.20522
# Poissons Ratio (y) = 0.23166 0.38513
# Poissons Ratio (z) = 0.29785 0.30649
#
# Static dielectric constant tensor:
#      x y z
#    x 1.764160 0.000000 0.000000 
#    y 0.000000 1.822070 0.000000 
#    z 0.000000 0.000000 1.731910 
# 
# From -- ./inp_files/16570.got.cif
#   From: 2010.05.17/outbox.cif.g08.bks.cpg/sg51_9_cif.got.tgz:16570.got - 2010.06.03 11:52:47.
