data_PCOD9404836
_publ_section_title
;
Structure prediction by ZEFSAII (Michael W. Deem and Ramdas Pophale) SiO2 
 PCOD9404836
Probable space group: P M M A
;
_chemical_formula_sum "Si O2"
_cell_formula_units_Z 64
_cell_length_a 31.585566
_cell_length_b 7.742657
_cell_length_c 12.232991
_cell_angle_alpha 90.000000
_cell_angle_beta 90.000000
_cell_angle_gamma 90.000000
_cell_volume 2991.653839
_symmetry_space_group_name_H-M "P M M A"
_symmetry_group_IT_number 51
_symmetry_cell_setting 'orthorhombic'
loop_
_space_group_symop_operation_xyz
x,y,z
1/2-x,-y,z
1/2+x,-y,-z
-x,y,-z
-x,-y,-z
1/2+x,y,-z
1/2-x,y,z
x,-y,z
loop_
_atom_site_type_symbol
_atom_site_label
_atom_site_fract_x
_atom_site_fract_y
_atom_site_fract_z
Si Si1 0.543000 0.798412 0.951943
Si Si2 0.814891 0.299687 0.746315
Si Si3 0.548371 0.208592 0.505374
Si Si4 0.796905 0.711071 0.501429
Si Si5 0.587806 0.210694 0.736558
Si Si6 0.704098 0.799386 0.987635
Si Si7 0.118999 0.700899 0.894365
Si Si8 0.374692 0.294318 0.648183
O O1 0.559236 0.726554 0.836960
O O2 0.533971 0.000000 0.929450
O O3 0.500000 0.720578 0.000000
O O4 0.581618 0.787710 0.036899
O O5 0.802099 0.500000 0.752695
O O6 0.801152 0.230952 0.627661
O O7 0.865468 0.284189 0.748515
O O8 0.798721 0.211789 0.856213
O O9 0.500000 0.270647 0.500000
O O10 0.568541 0.261247 0.620665
O O11 0.580462 0.264948 0.410725
O O12 0.547291 0.000000 0.502505
O O13 0.750000 0.757921 0.460174
O O14 0.799143 0.500000 0.504570
O O15 0.836116 0.773149 0.427526
O O16 0.590937 0.000000 0.740508
O O17 0.750000 0.727647 0.021590
O O18 0.702289 0.000000 0.018848
O O19 0.663203 0.713412 0.040937
O O20 0.107030 0.500000 0.885782
O O21 0.124507 0.773352 0.772018
O O22 0.367683 0.500000 0.656037
#
# Coordination Sequence:
#
# PCOD9404836 Si02
#       8
#     8   8   8   8   8   8   8   8
#     4  10  22  39  62  87 116 157 197 239 293 351
#     4  11  20  34  60  90 120 152 190 236 290 345
#     4  10  22  38  60  88 118 154 196 241 288 345
#     4   9  18  34  57  84 114 149 187 228 280 340
#     4  10  20  36  58  87 120 152 194 241 291 345
#     4  11  24  41  61  86 119 157 195 240 295 353
#     4  11  24  40  60  87 118 154 198 248 296 348
#     4  10  22  40  59  84 117 152 194 242 292 343
#
# _framework density 21.392851
#
# number of rings (size 3 to 8) (size 9 to 14) (size 15 to 20)
#    0.000    1.750    2.500    1.500    1.750    3.500 
#    0.000    1.250    0.000    1.125    0.000    0.000 
#    0.000    0.000    0.000    0.000    0.000    0.000 
#
# Total GULP energy -357594.409770 kJ/mol
# GULP energy per Si atom -5587.412653 kJ/mol
# Density = 2.134416 g / cm^3
# Si number density = 21.392851 Si / 1000 Ang^3
#
#
#
# Elastic Constant Matrix: (Units=GPa)
#
#
# Indices 1 2 3 4 5 6 
#
# 1 117.5359 -15.4969 24.7534 0.0000 0.0000 0.0000
# 2 -15.4969 30.3805 -9.1094 0.0000 0.0000 0.0000
# 3 24.7534 -9.1094 110.7752 0.0000 0.0000 0.0000
# 4 0.0000 0.0000 0.0000 -17.6052 0.0000 0.0000
# 5 0.0000 0.0000 0.0000 0.0000 31.0723 0.0000
# 6 0.0000 0.0000 0.0000 0.0000 0.0000 56.5626
#
#
#
# Elastic Compliance Matrix: (Units=1/GPa)
#
#
# Indices 1 2 3 4 5 6 
#
# 1 0.009444 0.004290 -0.001757 0.000000 0.000000 0.000000
# 2 0.004290 0.035697 0.001977 0.000000 0.000000 0.000000
# 3 -0.001757 0.001977 0.009583 0.000000 0.000000 0.000000
# 4 0.000000 0.000000 0.000000 -0.056801 0.000000 0.000000
# 5 0.000000 0.000000 0.000000 0.000000 0.032183 0.000000
# 6 0.000000 0.000000 0.000000 0.000000 0.000000 0.017680
#
#
# Mechanical properties :
#
#
# Convention : Reuss Voigt Hill
#
# Bulk Modulus (GPa) = 15.68810 28.77620 22.23215
# Shear Modulus (GPa) = 83.31550 31.24225 57.27888
#
# Velocity S-wave (km/s) = 6.24740 3.82567 5.18005
# Velocity P-wave (km/s) = 7.70645 5.74412 6.79648
#
# Compressibility (1/GPa) = 0.06374256
#
# Stress axis : x y z
#
# Youngs Moduli (GPa) = 105.88925 28.01355 104.35615
#
# Poissons Ratio (x) = -0.12019 0.18340
# Poissons Ratio (y) = -0.45429 -0.20629
# Poissons Ratio (z) = 0.18610 -0.05538
#
# Static dielectric constant tensor:
#      x y z
#    x 1.754940 0.000000 0.000000 
#    y 0.000000 1.786000 0.000000 
#    z 0.000000 0.000000 1.757280 
# 
# From -- ./inp_files/19440.got.cif
#   From: 2010.05.17/outbox.cif.g08.bks.cpg/sg51_10_cif.got.tgz:19440.got - 2010.06.03 11:52:47.
