data_PCOD9404976
_publ_section_title
;
Structure prediction by ZEFSAII (Michael W. Deem and Ramdas Pophale) SiO2 
 PCOD9404976
Probable space group: P M M A
;
_chemical_formula_sum "Si O2"
_cell_formula_units_Z 40
_cell_length_a 16.749984
_cell_length_b 9.098204
_cell_length_c 14.271506
_cell_angle_alpha 90.000000
_cell_angle_beta 90.000000
_cell_angle_gamma 90.000000
_cell_volume 2174.902895
_symmetry_space_group_name_H-M "P M M A"
_symmetry_group_IT_number 51
_symmetry_cell_setting 'orthorhombic'
loop_
_space_group_symop_operation_xyz
x,y,z
1/2-x,-y,z
1/2+x,-y,-z
-x,y,-z
-x,-y,-z
1/2+x,y,-z
1/2-x,y,z
x,-y,z
loop_
_atom_site_type_symbol
_atom_site_label
_atom_site_fract_x
_atom_site_fract_y
_atom_site_fract_z
Si Si1 0.340158 0.328848 0.611316
Si Si2 0.410427 0.326787 0.141153
Si Si3 0.936147 0.174601 0.227973
Si Si4 0.750000 0.825615 0.542589
Si Si5 0.250000 0.329483 0.261293
Si Si6 0.342997 0.174859 0.962607
O O1 0.250000 0.321138 0.654584
O O2 0.358977 0.500000 0.596278
O O3 0.401840 0.251771 0.679730
O O4 0.325364 0.244763 0.513299
O O5 0.428260 0.500000 0.135804
O O6 0.480727 0.242805 0.194262
O O7 0.328198 0.306823 0.198340
O O8 0.395165 0.261227 0.038289
O O9 0.943074 0.000000 0.242301
O O10 0.874977 0.200083 0.141883
O O11 0.750000 0.774448 0.648992
O O12 0.750000 0.000000 0.532713
O O13 0.250000 0.500000 0.293586
O O14 0.250000 0.216704 0.970711
O O15 0.349711 0.000000 0.981585
#
# Coordination Sequence:
#
# PCOD9404976 Si02
#       6
#     8   8   8   4   4   8
#     4   9  19  36  59  87 118 151 186 230 284 341
#     4  11  23  39  58  82 115 154 197 242 287 342
#     4  11  22  36  57  87 121 156 192 238 288 338
#     4  10  20  36  63  90 113 146 187 236 288 346
#     4  10  22  42  61  80 109 150 193 238 294 346
#     4  10  21  37  57  83 117 156 194 234 284 339
#
# _framework density 18.391624
#
# number of rings (size 3 to 8) (size 9 to 14) (size 15 to 20)
#    0.600    1.200    1.000    3.600    0.000    6.400 
#    0.000    1.000    0.000    6.000    0.000    0.000 
#    0.000    0.000    0.000    0.000    0.000    0.000 
#
# Total GULP energy -223268.957215 kJ/mol
# GULP energy per Si atom -5581.723930 kJ/mol
# Density = 1.834976 g / cm^3
# Si number density = 18.391624 Si / 1000 Ang^3
#
#
#
# Elastic Constant Matrix: (Units=GPa)
#
#
# Indices 1 2 3 4 5 6 
#
# 1 37.6790 17.1689 -15.3673 0.0000 0.0000 0.0000
# 2 17.1689 91.3718 38.9763 0.0000 0.0000 0.0000
# 3 -15.3673 38.9763 48.9792 0.0000 0.0000 0.0000
# 4 0.0000 0.0000 0.0000 36.9368 0.0000 0.0000
# 5 0.0000 0.0000 0.0000 0.0000 -23.2742 0.0000
# 6 0.0000 0.0000 0.0000 0.0000 0.0000 29.9243
#
#
#
# Elastic Compliance Matrix: (Units=1/GPa)
#
#
# Indices 1 2 3 4 5 6 
#
# 1 0.053942 -0.026274 0.037832 0.000000 0.000000 0.000000
# 2 -0.026274 0.029366 -0.031612 0.000000 0.000000 0.000000
# 3 0.037832 -0.031612 0.057442 0.000000 0.000000 0.000000
# 4 0.000000 0.000000 0.000000 0.027073 0.000000 0.000000
# 5 0.000000 0.000000 0.000000 0.000000 -0.042966 0.000000
# 6 0.000000 0.000000 0.000000 0.000000 0.000000 0.033418
#
#
# Mechanical properties :
#
#
# Convention : Reuss Voigt Hill
#
# Bulk Modulus (GPa) = 9.93612 28.84290 19.38951
# Shear Modulus (GPa) = 21.55828 17.86752 19.71290
#
# Velocity S-wave (km/s) = 3.42742 3.12028 3.27745
# Velocity P-wave (km/s) = 4.59100 5.35707 4.98876
#
# Compressibility (1/GPa) = 0.10064291
#
# Stress axis : x y z
#
# Youngs Moduli (GPa) = 18.53857 34.05323 17.40872
#
# Poissons Ratio (x) = 0.89470 -0.65861
# Poissons Ratio (y) = 0.48708 0.55032
# Poissons Ratio (z) = -0.70135 1.07649
#
# Static dielectric constant tensor:
#      x y z
#    x 1.625480 0.000000 0.000000 
#    y 0.000000 1.615580 0.000000 
#    z 0.000000 0.000000 1.603600 
# 
# From -- ./inp_files/23824.got.cif
#   From: 2010.05.17/outbox.cif.g08.bks.cpg/sg51_12_cif.got.tgz:23824.got - 2010.06.03 11:52:47.
