data_PCOD9404361
_publ_section_title
;
Structure prediction by ZEFSAII (Michael W. Deem and Ramdas Pophale) SiO2 
 PCOD9404361
Probable space group: P M M A
;
_chemical_formula_sum "Si O2"
_cell_formula_units_Z 56
_cell_length_a 8.808940
_cell_length_b 20.602968
_cell_length_c 15.849018
_cell_angle_alpha 90.000000
_cell_angle_beta 90.000000
_cell_angle_gamma 90.000000
_cell_volume 2876.443173
_symmetry_space_group_name_H-M "P M M A"
_symmetry_group_IT_number 51
_symmetry_cell_setting 'orthorhombic'
loop_
_space_group_symop_operation_xyz
x,y,z
1/2-x,-y,z
1/2+x,-y,-z
-x,y,-z
-x,-y,-z
1/2+x,y,-z
1/2-x,y,z
x,-y,z
loop_
_atom_site_type_symbol
_atom_site_label
_atom_site_fract_x
_atom_site_fract_y
_atom_site_fract_z
Si Si1 0.069516 0.194537 0.088318
Si Si2 0.923719 0.427120 0.609808
Si Si3 0.075409 0.664964 0.920826
Si Si4 0.069591 0.711835 0.588371
Si Si5 0.432556 0.925768 0.408946
Si Si6 0.582986 0.573621 0.811224
Si Si7 0.433755 0.187508 0.281083
O O1 0.250000 0.186823 0.082974
O O2 0.020298 0.174591 0.183441
O O3 0.021278 0.269917 0.088599
O O4 0.000000 0.167376 0.000000
O O5 0.750000 0.418651 0.577517
O O6 0.977739 0.500000 0.587069
O O7 0.913768 0.427666 0.710898
O O8 0.023104 0.364225 0.589887
O O9 0.250000 0.680765 0.934595
O O10 0.048763 0.620000 0.841441
O O11 0.000000 0.628752 0.000000
O O12 0.250000 0.719028 0.587528
O O13 0.000000 0.738304 0.500000
O O14 0.002229 0.750112 0.669662
O O15 0.500000 0.908816 0.500000
O O16 0.250000 0.924360 0.414908
O O17 0.476976 0.874226 0.338151
O O18 0.478711 0.000000 0.389095
O O19 0.750000 0.597513 0.840256
O O20 0.563141 0.500000 0.841366
O O21 0.250000 0.195226 0.281103
#
# Coordination Sequence:
#
# PCOD9404361 Si02
#       7
#     8   8   8   8   8   8   8
#     4  10  20  35  55  78 106 140 179 223 270 321
#     4   9  19  37  58  76  98 133 176 222 273 329
#     4  11  21  32  47  67  93 125 163 210 265 323
#     4  12  25  38  55  80 111 146 184 230 280 333
#     4   9  18  34  57  86 119 154 191 228 270 324
#     4   9  18  33  51  69  91 121 158 204 261 323
#     4  10  21  37  58  84 115 150 186 229 280 330
#
# _framework density 19.468489000000002
#
# number of rings (size 3 to 8) (size 9 to 14) (size 15 to 20)
#    0.000    2.000    0.000    6.000    0.000    8.000 
#    0.000    1.429    0.000    0.429    0.000    0.000 
#    0.000    0.000    0.000    0.000    0.000    0.571 
#
# Total GULP energy -312271.567206 kJ/mol
# GULP energy per Si atom -5576.277986 kJ/mol
# Density = 1.942418 g / cm^3
# Si number density = 19.468489 Si / 1000 Ang^3
#
#
#
# Elastic Constant Matrix: (Units=GPa)
#
#
# Indices 1 2 3 4 5 6 
#
# 1 46.8405 26.6205 37.8242 0.0000 0.0000 0.0000
# 2 26.6205 76.2060 57.0802 0.0000 0.0000 0.0000
# 3 37.8242 57.0802 146.3215 0.0000 0.0000 0.0000
# 4 0.0000 0.0000 0.0000 23.8574 0.0000 0.0000
# 5 0.0000 0.0000 0.0000 0.0000 31.0237 0.0000
# 6 0.0000 0.0000 0.0000 0.0000 0.0000 7.5403
#
#
#
# Elastic Compliance Matrix: (Units=1/GPa)
#
#
# Indices 1 2 3 4 5 6 
#
# 1 0.029025 -0.006385 -0.005012 0.000000 0.000000 0.000000
# 2 -0.006385 0.019944 -0.006130 0.000000 0.000000 0.000000
# 3 -0.005012 -0.006130 0.010521 0.000000 0.000000 0.000000
# 4 0.000000 0.000000 0.000000 0.041916 0.000000 0.000000
# 5 0.000000 0.000000 0.000000 0.000000 0.032233 0.000000
# 6 0.000000 0.000000 0.000000 0.000000 0.000000 0.132621
#
#
# Mechanical properties :
#
#
# Convention : Reuss Voigt Hill
#
# Bulk Modulus (GPa) = 40.92208 56.93532 48.92870
# Shear Modulus (GPa) = 16.15719 22.34048 19.24884
#
# Velocity S-wave (km/s) = 2.88395 3.39118 3.14780
# Velocity P-wave (km/s) = 5.67052 6.68145 6.19664
#
# Compressibility (1/GPa) = 0.02443668
#
# Stress axis : x y z
#
# Youngs Moduli (GPa) = 34.45287 50.14048 95.04654
#
# Poissons Ratio (x) = 0.32014 0.47640
# Poissons Ratio (y) = 0.21997 0.58261
# Poissons Ratio (z) = 0.17269 0.30735
#
# Static dielectric constant tensor:
#      x y z
#    x 1.687860 0.000000 0.000000 
#    y 0.000000 1.671900 0.000000 
#    z 0.000000 0.000000 1.778890 
# 
# From -- ./inp_files/21850.got.cif
#   From: 2010.05.17/outbox.cif.g08.bks.cpg/sg51_11_cif.got.tgz:21850.got - 2010.06.03 11:52:47.
