data_PCOD9404038
_publ_section_title
;
Structure prediction by ZEFSAII (Michael W. Deem and Ramdas Pophale) SiO2 
 PCOD9404038
Probable space group: P M M A
;
_chemical_formula_sum "Si O2"
_cell_formula_units_Z 56
_cell_length_a 8.203451
_cell_length_b 14.663507
_cell_length_c 22.041952
_cell_angle_alpha 90.000000
_cell_angle_beta 90.000000
_cell_angle_gamma 90.000000
_cell_volume 2651.456409
_symmetry_space_group_name_H-M "P M M A"
_symmetry_group_IT_number 51
_symmetry_cell_setting 'orthorhombic'
loop_
_space_group_symop_operation_xyz
x,y,z
1/2-x,-y,z
1/2+x,-y,-z
-x,y,-z
-x,-y,-z
1/2+x,y,-z
1/2-x,y,z
x,-y,z
loop_
_atom_site_type_symbol
_atom_site_label
_atom_site_fract_x
_atom_site_fract_y
_atom_site_fract_z
Si Si1 0.942593 0.896551 0.241994
Si Si2 0.446580 0.904629 0.069288
Si Si3 0.943701 0.704043 0.802055
Si Si4 0.946812 0.301652 0.932098
Si Si5 0.945642 0.396792 0.318561
Si Si6 0.444836 0.283836 0.565289
Si Si7 0.444026 0.897065 0.378262
O O1 0.750000 0.896048 0.229513
O O2 0.020993 0.812835 0.205649
O O3 0.971248 0.878417 0.313497
O O4 0.007141 0.000000 0.232087
O O5 0.250000 0.902635 0.075502
O O6 0.506119 0.802364 0.079462
O O7 0.505234 0.000000 0.099369
O O8 0.500000 0.914086 0.000000
O O9 0.750000 0.694322 0.799845
O O10 0.998012 0.658629 0.866450
O O11 0.016548 0.655449 0.743473
O O12 0.750000 0.303013 0.934168
O O13 0.000000 0.331499 0.000000
O O14 0.750000 0.400409 0.324152
O O15 0.008999 0.500000 0.316704
O O16 0.007373 0.342612 0.377603
O O17 0.500000 0.319123 0.500000
O O18 0.250000 0.282923 0.567076
O O19 0.506669 0.181069 0.575489
O O20 0.250000 0.893943 0.368302
O O21 0.488328 0.000000 0.397323
#
# Coordination Sequence:
#
# PCOD9404038 Si02
#       7
#     8   8   8   8   8   8   8
#     4  10  20  34  54  82 117 159 205 249 295 349
#     4   8  13  23  39  59  89 131 176 219 263 313
#     4  11  22  36  59  89 120 154 197 247 300 356
#     4   9  19  33  50  77 110 147 189 236 291 352
#     4  10  23  44  67  90 117 152 196 244 298 362
#     4  11  23  39  62  91 125 163 201 245 295 350
#     4  10  20  35  57  86 122 163 206 251 296 343
#
# _framework density 21.120467000000001
#
# number of rings (size 3 to 8) (size 9 to 14) (size 15 to 20)
#    0.000    2.143    1.429    1.714    0.000    4.857 
#    0.000    1.429    0.000    7.286    0.000    0.000 
#    0.000    0.000    0.000    0.000    0.000    0.000 
#
# Total GULP energy -312072.973700 kJ/mol
# GULP energy per Si atom -5572.731673 kJ/mol
# Density = 2.107240 g / cm^3
# Si number density = 21.120467 Si / 1000 Ang^3
#
#
#
# Elastic Constant Matrix: (Units=GPa)
#
#
# Indices 1 2 3 4 5 6 
#
# 1 19.1064 6.5319 4.6714 0.0000 0.0000 0.0000
# 2 6.5319 64.0523 44.5339 0.0000 0.0000 0.0000
# 3 4.6714 44.5339 166.7355 0.0000 0.0000 0.0000
# 4 0.0000 0.0000 0.0000 -1.0302 0.0000 0.0000
# 5 0.0000 0.0000 0.0000 0.0000 19.4127 0.0000
# 6 0.0000 0.0000 0.0000 0.0000 0.0000 8.4515
#
#
#
# Elastic Compliance Matrix: (Units=1/GPa)
#
#
# Indices 1 2 3 4 5 6 
#
# 1 0.054229 -0.005494 -0.000052 0.000000 0.000000 0.000000
# 2 -0.005494 0.019729 -0.005116 0.000000 0.000000 0.000000
# 3 -0.000052 -0.005116 0.007365 0.000000 0.000000 0.000000
# 4 0.000000 0.000000 0.000000 -0.970725 0.000000 0.000000
# 5 0.000000 0.000000 0.000000 0.000000 0.051513 0.000000
# 6 0.000000 0.000000 0.000000 0.000000 0.000000 0.118322
#
#
# Mechanical properties :
#
#
# Convention : Reuss Voigt Hill
#
# Bulk Modulus (GPa) = 16.66647 40.15207 28.40927
# Shear Modulus (GPa) = -7.37199 18.31061 5.46931
#
# Velocity S-wave (km/s) = -1.87030 2.94761 1.61096
# Velocity P-wave (km/s) = 1.80118 5.53505 4.11589
#
# Compressibility (1/GPa) = 0.06000070
#
# Stress axis : x y z
#
# Youngs Moduli (GPa) = 18.44022 50.68611 135.77134
#
# Poissons Ratio (x) = 0.27847 0.00705
# Poissons Ratio (y) = 0.10131 0.69456
# Poissons Ratio (z) = 0.00096 0.25929
#
# Static dielectric constant tensor:
#      x y z
#    x 1.746460 0.000000 0.000000 
#    y 0.000000 1.910260 0.000000 
#    z 0.000000 0.000000 1.791100 
# 
# From -- ./inp_files/32018.got.cif
#   From: 2010.05.17/outbox.cif.g08.bks.cpg/sg51_17_cif.got.tgz:32018.got - 2010.06.03 11:52:47.
