data_PCOD9404020
_publ_section_title
;
Structure prediction by ZEFSAII (Michael W. Deem and Ramdas Pophale) SiO2 
 PCOD9404020
Probable space group: P M M A
;
_chemical_formula_sum "Si O2"
_cell_formula_units_Z 44
_cell_length_a 8.958411
_cell_length_b 17.412662
_cell_length_c 15.629766
_cell_angle_alpha 90.000000
_cell_angle_beta 90.000000
_cell_angle_gamma 90.000000
_cell_volume 2438.083804
_symmetry_space_group_name_H-M "P M M A"
_symmetry_group_IT_number 51
_symmetry_cell_setting 'orthorhombic'
loop_
_space_group_symop_operation_xyz
x,y,z
1/2-x,-y,z
1/2+x,-y,-z
-x,y,-z
-x,-y,-z
1/2+x,y,-z
1/2-x,y,z
x,-y,z
loop_
_atom_site_type_symbol
_atom_site_label
_atom_site_fract_x
_atom_site_fract_y
_atom_site_fract_z
Si Si1 0.922907 0.882929 0.088276
Si Si2 0.579279 0.695897 0.085164
Si Si3 0.572702 0.588991 0.593237
Si Si4 0.930798 0.703505 0.271976
Si Si5 0.070312 0.871991 0.267119
Si Si6 0.570997 0.000000 0.594028
O O1 0.750000 0.906435 0.091497
O O2 0.925235 0.789356 0.085438
O O3 0.007307 0.902999 0.176230
O O4 0.000000 0.908957 0.000000
O O5 0.750000 0.671931 0.080623
O O6 0.519007 0.673840 0.178061
O O7 0.500000 0.668442 0.000000
O O8 0.500000 0.597536 0.500000
O O9 0.750000 0.604124 0.589508
O O10 0.551538 0.500000 0.619592
O O11 0.491930 0.646844 0.656878
O O12 0.750000 0.708321 0.272474
O O13 0.998573 0.788514 0.282070
O O14 0.250000 0.866672 0.260820
O O15 0.031448 0.927010 0.346514
O O16 0.500000 0.000000 0.500000
O O17 0.750000 0.000000 0.583903
#
# Coordination Sequence:
#
# PCOD9404020 Si02
#       6
#     8   8   8   8   8   4
#     4   9  16  28  48  76 106 138 173 213 263 316
#     4   8  15  26  43  70 103 136 171 209 250 298
#     4  10  21  37  57  81 108 139 174 215 267 322
#     4  10  20  34  54  82 111 141 178 218 262 314
#     4  10  20  36  55  78 107 139 179 225 268 316
#     4  10  24  42  59  76  99 136 179 224 276 324
#
# _framework density 18.046959000000001
#
# number of rings (size 3 to 8) (size 9 to 14) (size 15 to 20)
#    0.000    2.545    0.000    3.273    0.000    8.364 
#    0.000    2.273    0.000    0.545    0.000    0.000 
#    0.000    0.000    0.000    0.000    0.000    0.000 
#
# Total GULP energy -245399.122301 kJ/mol
# GULP energy per Si atom -5577.252780 kJ/mol
# Density = 1.800588 g / cm^3
# Si number density = 18.046959 Si / 1000 Ang^3
#
#
#
# Elastic Constant Matrix: (Units=GPa)
#
#
# Indices 1 2 3 4 5 6 
#
# 1 95.8455 46.8303 77.6668 0.0000 0.0000 0.0000
# 2 46.8303 68.4901 77.0902 0.0000 0.0000 0.0000
# 3 77.6668 77.0902 181.2599 0.0000 0.0000 0.0000
# 4 0.0000 0.0000 0.0000 -526.1161 0.0000 0.0000
# 5 0.0000 0.0000 0.0000 0.0000 39.6334 0.0000
# 6 0.0000 0.0000 0.0000 0.0000 0.0000 -5.4780
#
#
#
# Elastic Compliance Matrix: (Units=1/GPa)
#
#
# Indices 1 2 3 4 5 6 
#
# 1 0.017472 -0.006753 -0.004615 0.000000 0.000000 0.000000
# 2 -0.006753 0.030618 -0.010129 0.000000 0.000000 0.000000
# 3 -0.004615 -0.010129 0.011802 0.000000 0.000000 0.000000
# 4 0.000000 0.000000 0.000000 -0.001901 0.000000 0.000000
# 5 0.000000 0.000000 0.000000 0.000000 0.025231 0.000000
# 6 0.000000 0.000000 0.000000 0.000000 0.000000 -0.182549
#
#
# Mechanical properties :
#
#
# Convention : Reuss Voigt Hill
#
# Bulk Modulus (GPa) = 59.16926 83.19668 71.18297
# Shear Modulus (GPa) = -98.61725 -88.79161 -93.70443
#
# Velocity S-wave (km/s) = -7.40023 -7.02190 -7.21355
# Velocity P-wave (km/s) = 6.33723 4.42071 5.46366
#
# Compressibility (1/GPa) = 0.01690067
#
# Stress axis : x y z
#
# Youngs Moduli (GPa) = 57.23387 32.66038 84.73158
#
# Poissons Ratio (x) = 0.22054 0.39101
# Poissons Ratio (y) = 0.38647 0.85821
# Poissons Ratio (z) = 0.26412 0.33080
#
# Static dielectric constant tensor:
#      x y z
#    x 1.610710 0.000000 0.000000 
#    y 0.000000 1.613010 0.000000 
#    z 0.000000 0.000000 1.616550 
# 
# From -- ./inp_files/20923.got.cif
#   From: 2010.05.17/outbox.cif.g08.bks.cpg/sg51_11_cif.got.tgz:20923.got - 2010.06.03 11:52:47.
