data_PCOD9404337
_publ_section_title
;
Structure prediction by ZEFSAII (Michael W. Deem and Ramdas Pophale) SiO2 
 PCOD9404337
Probable space group: P M M A
;
_chemical_formula_sum "Si O2"
_cell_formula_units_Z 40
_cell_length_a 8.717278
_cell_length_b 12.101266
_cell_length_c 20.864669
_cell_angle_alpha 90.000000
_cell_angle_beta 90.000000
_cell_angle_gamma 90.000000
_cell_volume 2201.016017
_symmetry_space_group_name_H-M "P M M A"
_symmetry_group_IT_number 51
_symmetry_cell_setting 'orthorhombic'
loop_
_space_group_symop_operation_xyz
x,y,z
1/2-x,-y,z
1/2+x,-y,-z
-x,y,-z
-x,-y,-z
1/2+x,y,-z
1/2-x,y,z
x,-y,z
loop_
_atom_site_type_symbol
_atom_site_label
_atom_site_fract_x
_atom_site_fract_y
_atom_site_fract_z
Si Si1 0.434828 0.263802 0.431318
Si Si2 0.432634 0.732109 0.813091
Si Si3 0.566304 0.871333 0.929512
Si Si4 0.563482 0.500000 0.622054
Si Si5 0.065554 0.500000 0.228044
Si Si6 0.565125 0.129526 0.694994
O O1 0.500000 0.231487 0.500000
O O2 0.250000 0.264851 0.434758
O O3 0.487644 0.387752 0.412404
O O4 0.478030 0.182802 0.373224
O O5 0.250000 0.726087 0.815110
O O6 0.495488 0.792363 0.876235
O O7 0.502427 0.610406 0.804376
O O8 0.486474 0.803860 0.752041
O O9 0.750000 0.860362 0.930145
O O10 0.529666 0.000000 0.914217
O O11 0.500000 0.848192 0.000000
O O12 0.750000 0.500000 0.621273
O O13 0.518311 0.500000 0.696740
O O14 0.250000 0.500000 0.226138
O O15 0.750000 0.141878 0.702096
O O16 0.528630 0.000000 0.697594
#
# Coordination Sequence:
#
# PCOD9404337 Si02
#       6
#     8   8   8   4   4   8
#     4  10  20  35  54  80 110 146 190 242 299 356
#     4  12  24  38  59  91 124 153 193 245 296 348
#     4  10  21  39  64  93 125 163 203 241 286 340
#     4   9  17  34  58  79 104 142 189 238 292 349
#     4  11  21  40  65  85 113 155 198 241 292 351
#     4  10  21  38  59  81 110 154 203 244 290 353
#
# _framework density 18.173424000000001
#
# number of rings (size 3 to 8) (size 9 to 14) (size 15 to 20)
#    0.000    1.600    2.000    3.600    0.000    5.200 
#    0.000    0.500    0.000    0.000    0.000    0.000 
#    0.000    0.000    0.000    0.000    0.000    0.000 
#
# Total GULP energy -223554.350230 kJ/mol
# GULP energy per Si atom -5588.858756 kJ/mol
# Density = 1.813206 g / cm^3
# Si number density = 18.173424 Si / 1000 Ang^3
#
#
#
# Elastic Constant Matrix: (Units=GPa)
#
#
# Indices 1 2 3 4 5 6 
#
# 1 63.1206 64.0073 60.8036 0.0000 0.0000 0.0000
# 2 64.0073 143.3885 94.8255 0.0000 0.0000 0.0000
# 3 60.8036 94.8255 155.8814 0.0000 0.0000 0.0000
# 4 0.0000 0.0000 0.0000 -67.4166 0.0000 0.0000
# 5 0.0000 0.0000 0.0000 0.0000 33.5205 0.0000
# 6 0.0000 0.0000 0.0000 0.0000 0.0000 -73.1260
#
#
#
# Elastic Compliance Matrix: (Units=1/GPa)
#
#
# Indices 1 2 3 4 5 6 
#
# 1 0.032378 -0.010208 -0.006420 0.000000 0.000000 0.000000
# 2 -0.010208 0.014886 -0.005074 0.000000 0.000000 0.000000
# 3 -0.006420 -0.005074 0.012006 0.000000 0.000000 0.000000
# 4 0.000000 0.000000 0.000000 -0.014833 0.000000 0.000000
# 5 0.000000 0.000000 0.000000 0.000000 0.029832 0.000000
# 6 0.000000 0.000000 0.000000 0.000000 0.000000 -0.013675
#
#
# Mechanical properties :
#
#
# Convention : Reuss Voigt Hill
#
# Bulk Modulus (GPa) = 63.02375 89.07370 76.04872
# Shear Modulus (GPa) = 45.75142 -11.88747 16.93197
#
# Velocity S-wave (km/s) = 5.02290 -2.56034 3.05567
# Velocity P-wave (km/s) = 8.27005 6.35446 7.37472
#
# Compressibility (1/GPa) = 0.01586703
#
# Stress axis : x y z
#
# Youngs Moduli (GPa) = 30.88514 67.17686 83.29260
#
# Poissons Ratio (x) = 0.68571 0.53474
# Poissons Ratio (y) = 0.31526 0.42262
# Poissons Ratio (z) = 0.19828 0.34085
#
# Static dielectric constant tensor:
#      x y z
#    x 1.610830 0.000000 0.000000 
#    y 0.000000 1.607800 0.000000 
#    z 0.000000 0.000000 1.591990 
# 
# From -- ./inp_files/31470.got.cif
#   From: 2010.05.17/outbox.cif.g08.bks.cpg/sg51_16_cif.got.tgz:31470.got - 2010.06.03 11:52:47.
