data_PCOD9404433
_publ_section_title
;
Structure prediction by ZEFSAII (Michael W. Deem and Ramdas Pophale) SiO2 
 PCOD9404433
Probable space group: P M M A
;
_chemical_formula_sum "Si O2"
_cell_formula_units_Z 40
_cell_length_a 18.655131
_cell_length_b 8.906151
_cell_length_c 13.315891
_cell_angle_alpha 90.000000
_cell_angle_beta 90.000000
_cell_angle_gamma 90.000000
_cell_volume 2212.374218
_symmetry_space_group_name_H-M "P M M A"
_symmetry_group_IT_number 51
_symmetry_cell_setting 'orthorhombic'
loop_
_space_group_symop_operation_xyz
x,y,z
1/2-x,-y,z
1/2+x,-y,-z
-x,y,-z
-x,-y,-z
1/2+x,y,-z
1/2-x,y,z
x,-y,z
loop_
_atom_site_type_symbol
_atom_site_label
_atom_site_fract_x
_atom_site_fract_y
_atom_site_fract_z
Si Si1 0.662730 0.172894 0.513601
Si Si2 0.424595 0.319320 0.891362
Si Si3 0.417577 0.178934 0.098679
Si Si4 0.666075 0.679697 0.305798
Si Si5 0.336454 0.673230 0.279982
O O1 0.750000 0.178044 0.512594
O O2 0.639501 0.241092 0.407253
O O3 0.639813 0.266421 0.611043
O O4 0.640956 0.000000 0.523438
O O5 0.429809 0.500000 0.899861
O O6 0.503449 0.247872 0.882969
O O7 0.378597 0.281730 0.793114
O O8 0.392020 0.252031 0.993783
O O9 0.368456 0.227591 0.191176
O O10 0.421766 0.000000 0.089052
O O11 0.750000 0.718148 0.291122
O O12 0.661949 0.500000 0.320407
O O13 0.250000 0.680064 0.277177
O O14 0.358300 0.500000 0.266693
#
# Coordination Sequence:
#
# PCOD9404433 Si02
#       5
#     8   8   8   8   8
#     4   9  17  30  50  77 108 138 167 205 256 308
#     4  10  20  36  56  76 103 140 179 215 255 309
#     4  11  22  36  54  76 105 138 173 216 265 313
#     4   9  18  33  54  79 105 135 172 212 253 301
#     4  10  20  35  56  79 104 136 174 214 256 307
#
# _framework density 18.080124000000001
#
# number of rings (size 3 to 8) (size 9 to 14) (size 15 to 20)
#    0.000    2.200    0.000    4.800    0.000    6.000 
#    0.000    3.000    0.000    6.000    0.000    0.000 
#    0.000    0.000    0.000    0.000    0.000    0.000 
#
# Total GULP energy -223237.248608 kJ/mol
# GULP energy per Si atom -5580.931215 kJ/mol
# Density = 1.803897 g / cm^3
# Si number density = 18.080124 Si / 1000 Ang^3
#
#
#
# Elastic Constant Matrix: (Units=GPa)
#
#
# Indices 1 2 3 4 5 6 
#
# 1 14.9695 23.7051 32.5785 0.0000 0.0000 0.0000
# 2 23.7051 107.5328 68.3582 0.0000 0.0000 0.0000
# 3 32.5785 68.3582 152.4199 0.0000 0.0000 0.0000
# 4 0.0000 0.0000 0.0000 -7.7715 0.0000 0.0000
# 5 0.0000 0.0000 0.0000 0.0000 320.0869 0.0000
# 6 0.0000 0.0000 0.0000 0.0000 0.0000 18.1794
#
#
#
# Elastic Compliance Matrix: (Units=1/GPa)
#
#
# Indices 1 2 3 4 5 6 
#
# 1 0.144293 -0.017069 -0.023186 0.000000 0.000000 0.000000
# 2 -0.017069 0.015027 -0.003091 0.000000 0.000000 0.000000
# 3 -0.023186 -0.003091 0.012903 0.000000 0.000000 0.000000
# 4 0.000000 0.000000 0.000000 -0.128675 0.000000 0.000000
# 5 0.000000 0.000000 0.000000 0.000000 0.003124 0.000000
# 6 0.000000 0.000000 0.000000 0.000000 0.000000 0.055007
#
#
# Mechanical properties :
#
#
# Convention : Reuss Voigt Hill
#
# Bulk Modulus (GPa) = 11.69180 58.24510 34.96845
# Shear Modulus (GPa) = 23.05403 76.11767 49.58585
#
# Velocity S-wave (km/s) = 3.57473 6.49551 5.24263
# Velocity P-wave (km/s) = 4.84964 9.40959 7.48530
#
# Compressibility (1/GPa) = 0.08553000
#
# Stress axis : x y z
#
# Youngs Moduli (GPa) = 6.93036 66.54528 77.50161
#
# Poissons Ratio (x) = 1.13589 1.79695
# Poissons Ratio (y) = 0.11830 0.23957
# Poissons Ratio (z) = 0.16069 0.20570
#
# Static dielectric constant tensor:
#      x y z
#    x 1.608750 0.000000 0.000000 
#    y 0.000000 1.606990 0.000000 
#    z 0.000000 0.000000 1.610820 
# 
# From -- ./inp_files/17093.got.cif
#   From: 2010.05.17/outbox.cif.g08.bks.cpg/sg51_9_cif.got.tgz:17093.got - 2010.06.03 11:52:47.
