data_PCOD9404936
_publ_section_title
;
Structure prediction by ZEFSAII (Michael W. Deem and Ramdas Pophale) SiO2 
 PCOD9404936
Probable space group: P M M A
;
_chemical_formula_sum "Si O2"
_cell_formula_units_Z 64
_cell_length_a 8.834543
_cell_length_b 24.095517
_cell_length_c 15.788073
_cell_angle_alpha 90.000000
_cell_angle_beta 90.000000
_cell_angle_gamma 90.000000
_cell_volume 3360.852586
_symmetry_space_group_name_H-M "P M M A"
_symmetry_group_IT_number 51
_symmetry_cell_setting 'orthorhombic'
loop_
_space_group_symop_operation_xyz
x,y,z
1/2-x,-y,z
1/2+x,-y,-z
-x,y,-z
-x,-y,-z
1/2+x,y,-z
1/2-x,y,z
x,-y,z
loop_
_atom_site_type_symbol
_atom_site_label
_atom_site_fract_x
_atom_site_fract_y
_atom_site_fract_z
Si Si1 0.069829 0.630180 0.088200
Si Si2 0.068173 0.135581 0.409810
Si Si3 0.067332 0.064770 0.246363
Si Si4 0.430609 0.375093 0.409346
Si Si5 0.930651 0.743529 0.148846
Si Si6 0.431492 0.254654 0.335712
Si Si7 0.428753 0.433933 0.753183
Si Si8 0.430905 0.132257 0.909721
O O1 0.250000 0.628198 0.085060
O O2 0.014505 0.693220 0.102866
O O3 0.009147 0.595365 0.167713
O O4 0.000000 0.609610 0.000000
O O5 0.250000 0.133238 0.415484
O O6 0.020284 0.096048 0.332500
O O7 0.025816 0.198740 0.385172
O O8 0.000000 0.120066 0.500000
O O9 0.250000 0.069316 0.240279
O O10 0.995591 0.095132 0.165983
O O11 0.027361 0.000000 0.248865
O O12 0.500000 0.389622 0.500000
O O13 0.250000 0.382450 0.410457
O O14 0.462827 0.310427 0.387932
O O15 0.501770 0.410456 0.333454
O O16 0.750000 0.735464 0.142963
O O17 0.969810 0.803455 0.110229
O O18 0.982621 0.743138 0.246570
O O19 0.250000 0.252665 0.318963
O O20 0.250000 0.421028 0.755941
O O21 0.448209 0.500000 0.757476
O O22 0.250000 0.127630 0.912176
O O23 0.500000 0.116326 0.000000
#
# Coordination Sequence:
#
# PCOD9404936 Si02
#       8
#     8   8   8   8   8   8   8   8
#     4  12  25  42  66  95 128 165 205 250 305 366
#     4  10  21  37  59  88 123 160 201 248 302 362
#     4  10  22  41  63  86 117 160 206 254 306 360
#     4  11  23  39  63  94 126 165 208 253 310 370
#     4  11  22  37  62  94 126 161 200 246 305 368
#     4  10  20  36  60  90 123 163 200 246 307 365
#     4  11  25  45  67  92 124 163 209 261 312 363
#     4  11  24  40  62  92 122 159 200 247 305 363
#
# _framework density 19.042786
#
# number of rings (size 3 to 8) (size 9 to 14) (size 15 to 20)
#    0.000    1.250    2.500    3.375    0.000    6.250 
#    0.000    0.000    0.000    0.000    0.000    0.000 
#    0.000    0.000    0.000    0.000    0.000    0.000 
#
# Total GULP energy -357972.110216 kJ/mol
# GULP energy per Si atom -5593.314222 kJ/mol
# Density = 1.899944 g / cm^3
# Si number density = 19.042786 Si / 1000 Ang^3
#
#
#
# Elastic Constant Matrix: (Units=GPa)
#
#
# Indices 1 2 3 4 5 6 
#
# 1 73.8023 60.6925 68.2622 0.0000 0.0000 0.0000
# 2 60.6925 99.8793 64.6264 0.0000 0.0000 0.0000
# 3 68.2622 64.6264 191.4274 0.0000 0.0000 0.0000
# 4 0.0000 0.0000 0.0000 -27.6605 0.0000 0.0000
# 5 0.0000 0.0000 0.0000 0.0000 34.6067 0.0000
# 6 0.0000 0.0000 0.0000 0.0000 0.0000 28.5610
#
#
#
# Elastic Compliance Matrix: (Units=1/GPa)
#
#
# Indices 1 2 3 4 5 6 
#
# 1 0.031945 -0.015406 -0.006190 0.000000 0.000000 0.000000
# 2 -0.015406 0.020240 -0.001339 0.000000 0.000000 0.000000
# 3 -0.006190 -0.001339 0.007884 0.000000 0.000000 0.000000
# 4 0.000000 0.000000 0.000000 -0.036153 0.000000 0.000000
# 5 0.000000 0.000000 0.000000 0.000000 0.028896 0.000000
# 6 0.000000 0.000000 0.000000 0.000000 0.000000 0.035013
#
#
# Mechanical properties :
#
#
# Convention : Reuss Voigt Hill
#
# Bulk Modulus (GPa) = 70.43701 83.58568 77.01134
# Shear Modulus (GPa) = 36.11964 18.53662 27.32813
#
# Velocity S-wave (km/s) = 4.35991 3.12335 3.79237
# Velocity P-wave (km/s) = 7.90026 7.54957 7.72691
#
# Compressibility (1/GPa) = 0.01419708
#
# Stress axis : x y z
#
# Youngs Moduli (GPa) = 31.30415 49.40606 126.84699
#
# Poissons Ratio (x) = 0.76115 0.78521
# Poissons Ratio (y) = 0.48227 0.16991
# Poissons Ratio (z) = 0.19378 0.06618
#
# Static dielectric constant tensor:
#      x y z
#    x 1.639150 0.000000 0.000000 
#    y 0.000000 1.651140 0.000000 
#    z 0.000000 0.000000 1.629090 
# 
# From -- ./inp_files/22372.got.cif
#   From: 2010.05.17/outbox.cif.g08.bks.cpg/sg51_12_cif.got.tgz:22372.got - 2010.06.03 11:52:47.
