data_PCOD9404913
_publ_section_title
;
Structure prediction by ZEFSAII (Michael W. Deem and Ramdas Pophale) SiO2 
 PCOD9404913
Probable space group: P M M A
;
_chemical_formula_sum "Si O2"
_cell_formula_units_Z 56
_cell_length_a 21.580765
_cell_length_b 7.727637
_cell_length_c 15.559590
_cell_angle_alpha 90.000000
_cell_angle_beta 90.000000
_cell_angle_gamma 90.000000
_cell_volume 2594.846655
_symmetry_space_group_name_H-M "P M M A"
_symmetry_group_IT_number 51
_symmetry_cell_setting 'orthorhombic'
loop_
_space_group_symop_operation_xyz
x,y,z
1/2-x,-y,z
1/2+x,-y,-z
-x,y,-z
-x,-y,-z
1/2+x,y,-z
1/2-x,y,z
x,-y,z
loop_
_atom_site_type_symbol
_atom_site_label
_atom_site_fract_x
_atom_site_fract_y
_atom_site_fract_z
Si Si1 0.554227 0.296632 0.563752
Si Si2 0.680671 0.697947 0.928474
Si Si3 0.956198 0.701878 0.921744
Si Si4 0.630425 0.789224 0.296546
Si Si5 0.178549 0.802723 0.880141
Si Si6 0.317601 0.790244 0.526548
Si Si7 0.003749 0.798433 0.263966
O O1 0.500000 0.224113 0.500000
O O2 0.542487 0.500000 0.572003
O O3 0.621706 0.268156 0.523617
O O4 0.553299 0.223862 0.660653
O O5 0.750000 0.773444 0.908229
O O6 0.681716 0.500000 0.896109
O O7 0.613399 0.778662 0.906681
O O8 0.676455 0.700251 0.031956
O O9 0.945896 0.500000 0.944622
O O10 0.987159 0.710745 0.827989
O O11 0.000000 0.771988 0.000000
O O12 0.644915 0.725297 0.201387
O O13 0.672739 0.732013 0.374684
O O14 0.559387 0.741851 0.311245
O O15 0.636398 0.000000 0.292749
O O16 0.250000 0.815137 0.853932
O O17 0.156172 0.000000 0.897554
O O18 0.250000 0.733220 0.494712
O O19 0.318326 0.000000 0.525962
O O20 0.997457 0.000000 0.242919
#
# Coordination Sequence:
#
# PCOD9404913 Si02
#       7
#     8   8   8   8   8   8   8
#     4  11  23  40  61  85 116 156 198 241 289 347
#     4   9  18  33  51  71 100 142 186 227 278 335
#     4  10  21  37  56  81 115 151 188 237 293 350
#     4   9  17  30  50  79 112 144 179 225 285 348
#     4   9  16  27  46  73 105 140 178 221 274 339
#     4  10  20  36  60  87 117 153 192 239 294 351
#     4  11  22  36  59  86 112 148 195 245 293 349
#
# _framework density 21.581236000000001
#
# number of rings (size 3 to 8) (size 9 to 14) (size 15 to 20)
#    0.000    2.143    1.429    2.143    0.000    3.429 
#    0.000    2.143    0.000    4.286    0.000    0.000 
#    0.000    0.000    0.000    0.000    0.000    0.000 
#
# Total GULP energy -312060.689995 kJ/mol
# GULP energy per Si atom -5572.512321 kJ/mol
# Density = 2.153212 g / cm^3
# Si number density = 21.581236 Si / 1000 Ang^3
#
#
#
# Elastic Constant Matrix: (Units=GPa)
#
#
# Indices 1 2 3 4 5 6 
#
# 1 113.0346 4.1898 29.4544 0.0000 0.0000 0.0000
# 2 4.1898 39.4418 -6.1748 0.0000 0.0000 0.0000
# 3 29.4544 -6.1748 73.8132 0.0000 0.0000 0.0000
# 4 0.0000 0.0000 0.0000 18.8285 0.0000 0.0000
# 5 0.0000 0.0000 0.0000 0.0000 35.2571 0.0000
# 6 0.0000 0.0000 0.0000 0.0000 0.0000 6.0823
#
#
#
# Elastic Compliance Matrix: (Units=1/GPa)
#
#
# Indices 1 2 3 4 5 6 
#
# 1 0.009986 -0.001707 -0.004127 0.000000 0.000000 0.000000
# 2 -0.001707 0.025982 0.002855 0.000000 0.000000 0.000000
# 3 -0.004127 0.002855 0.015434 0.000000 0.000000 0.000000
# 4 0.000000 0.000000 0.000000 0.053111 0.000000 0.000000
# 5 0.000000 0.000000 0.000000 0.000000 0.028363 0.000000
# 6 0.000000 0.000000 0.000000 0.000000 0.000000 0.164412
#
#
# Mechanical properties :
#
#
# Convention : Reuss Voigt Hill
#
# Bulk Modulus (GPa) = 22.00619 31.24759 26.62689
# Shear Modulus (GPa) = 15.70379 25.28826 20.49603
#
# Velocity S-wave (km/s) = 2.70044 3.42683 3.08509
# Velocity P-wave (km/s) = 4.46567 5.49254 5.00551
#
# Compressibility (1/GPa) = 0.04544175
#
# Stress axis : x y z
#
# Youngs Moduli (GPa) = 100.14375 38.48813 64.79395
#
# Poissons Ratio (x) = 0.06570 0.26743
# Poissons Ratio (y) = 0.17094 -0.18496
# Poissons Ratio (z) = 0.41334 -0.10987
#
# Static dielectric constant tensor:
#      x y z
#    x 1.886720 0.000000 0.000000 
#    y 0.000000 1.823400 0.000000 
#    z 0.000000 0.000000 1.754990 
# 
# From -- ./inp_files/25757.got.cif
#   From: 2010.05.17/outbox.cif.g08.bks.cpg/sg51_13_cif.got.tgz:25757.got - 2010.06.03 11:52:47.
