data_PCOD9404511
_publ_section_title
;
Structure prediction by ZEFSAII (Michael W. Deem and Ramdas Pophale) SiO2 
 PCOD9404511
Probable space group: P M M A
;
_chemical_formula_sum "Si O2"
_cell_formula_units_Z 56
_cell_length_a 11.174262
_cell_length_b 14.515195
_cell_length_c 15.644292
_cell_angle_alpha 90.000000
_cell_angle_beta 90.000000
_cell_angle_gamma 90.000000
_cell_volume 2537.450845
_symmetry_space_group_name_H-M "P M M A"
_symmetry_group_IT_number 51
_symmetry_cell_setting 'orthorhombic'
loop_
_space_group_symop_operation_xyz
x,y,z
1/2-x,-y,z
1/2+x,-y,-z
-x,y,-z
-x,-y,-z
1/2+x,y,-z
1/2-x,y,z
x,-y,z
loop_
_atom_site_type_symbol
_atom_site_label
_atom_site_fract_x
_atom_site_fract_y
_atom_site_fract_z
Si Si1 0.120069 0.638997 0.046837
Si Si2 0.383001 0.898714 0.397100
Si Si3 0.118129 0.605379 0.247304
Si Si4 0.473511 0.898948 0.777063
Si Si5 0.121072 0.280883 0.719036
Si Si6 0.621961 0.721182 0.481424
Si Si7 0.385723 0.861299 0.056620
O O1 0.250000 0.612446 0.008962
O O2 0.118233 0.606248 0.144386
O O3 0.116587 0.750342 0.049647
O O4 0.000000 0.607695 0.000000
O O5 0.250000 0.894613 0.359000
O O6 0.471888 0.894681 0.317988
O O7 0.388366 0.814502 0.462700
O O8 0.394528 0.000000 0.438907
O O9 0.250000 0.643343 0.273890
O O10 0.109741 0.500000 0.277289
O O11 0.000828 0.661910 0.272097
O O12 0.390872 0.809002 0.779015
O O13 0.577591 0.887388 0.847024
O O14 0.417580 0.000000 0.789141
O O15 0.250000 0.326898 0.738556
O O16 0.125503 0.256006 0.618689
O O17 0.500000 0.666684 0.500000
O O18 0.750000 0.676868 0.503224
O O19 0.250000 0.892645 0.035211
O O20 0.500000 0.892859 0.000000
#
# Coordination Sequence:
#
# PCOD9404511 Si02
#       7
#     8   8   8   8   8   8   8
#     4   9  18  34  58  90 124 157 196 250 314 380
#     4   9  18  32  54  85 119 156 203 258 312 370
#     4  10  22  42  68  95 123 162 211 257 310 381
#     4  11  22  37  60  89 124 168 217 261 307 367
#     4  11  24  40  60  92 131 166 205 256 314 372
#     4  10  20  35  56  85 119 159 200 243 303 373
#     4  10  21  38  59  86 121 165 215 267 316 368
#
# _framework density 22.069392000000001
#
# number of rings (size 3 to 8) (size 9 to 14) (size 15 to 20)
#    0.000    2.000    2.857    0.429    0.000    5.143 
#    0.000    1.429    0.000    0.429    0.000    0.000 
#    0.000    0.000    0.000    0.000    0.000    0.000 
#
# Total GULP energy -312256.758624 kJ/mol
# GULP energy per Si atom -5576.013547 kJ/mol
# Density = 2.201916 g / cm^3
# Si number density = 22.069392 Si / 1000 Ang^3
#
#
#
# Elastic Constant Matrix: (Units=GPa)
#
#
# Indices 1 2 3 4 5 6 
#
# 1 219.0767 47.2708 42.3043 0.0000 0.0000 0.0000
# 2 47.2708 73.3733 8.4320 0.0000 0.0000 0.0000
# 3 42.3043 8.4320 57.2983 0.0000 0.0000 0.0000
# 4 0.0000 0.0000 0.0000 2.0636 0.0000 0.0000
# 5 0.0000 0.0000 0.0000 0.0000 30.0522 0.0000
# 6 0.0000 0.0000 0.0000 0.0000 0.0000 -8.7829
#
#
#
# Elastic Compliance Matrix: (Units=1/GPa)
#
#
# Indices 1 2 3 4 5 6 
#
# 1 0.006080 -0.003459 -0.003980 0.000000 0.000000 0.000000
# 2 -0.003459 0.015832 0.000224 0.000000 0.000000 0.000000
# 3 -0.003980 0.000224 0.020358 0.000000 0.000000 0.000000
# 4 0.000000 0.000000 0.000000 0.484594 0.000000 0.000000
# 5 0.000000 0.000000 0.000000 0.000000 0.033275 0.000000
# 6 0.000000 0.000000 0.000000 0.000000 0.000000 -0.113858
#
#
# Mechanical properties :
#
#
# Convention : Reuss Voigt Hill
#
# Bulk Modulus (GPa) = 35.91973 60.64030 48.28002
# Shear Modulus (GPa) = 10.63853 21.44933 16.04393
#
# Velocity S-wave (km/s) = 2.19794 3.12092 2.69918
# Velocity P-wave (km/s) = 4.76995 6.36582 5.62477
#
# Compressibility (1/GPa) = 0.02783985
#
# Stress axis : x y z
#
# Youngs Moduli (GPa) = 164.48679 63.16369 49.12156
#
# Poissons Ratio (x) = 0.21851 0.19548
# Poissons Ratio (y) = 0.56903 -0.01102
# Poissons Ratio (z) = 0.65458 -0.01417
#
# Static dielectric constant tensor:
#      x y z
#    x 1.891430 0.000000 0.000000 
#    y 0.000000 1.828870 0.000000 
#    z 0.000000 0.000000 1.786020 
# 
# From -- ./inp_files/23319.got.cif
#   From: 2010.05.17/outbox.cif.g08.bks.cpg/sg51_12_cif.got.tgz:23319.got - 2010.06.03 11:52:47.
