data_PCOD9404524
_publ_section_title
;
Structure prediction by ZEFSAII (Michael W. Deem and Ramdas Pophale) SiO2 
 PCOD9404524
Probable space group: P M M A
;
_chemical_formula_sum "Si O2"
_cell_formula_units_Z 64
_cell_length_a 7.867564
_cell_length_b 15.955176
_cell_length_c 25.101439
_cell_angle_alpha 90.000000
_cell_angle_beta 90.000000
_cell_angle_gamma 90.000000
_cell_volume 3150.942680
_symmetry_space_group_name_H-M "P M M A"
_symmetry_group_IT_number 51
_symmetry_cell_setting 'orthorhombic'
loop_
_space_group_symop_operation_xyz
x,y,z
1/2-x,-y,z
1/2+x,-y,-z
-x,y,-z
-x,-y,-z
1/2+x,y,-z
1/2-x,y,z
x,-y,z
loop_
_atom_site_type_symbol
_atom_site_label
_atom_site_fract_x
_atom_site_fract_y
_atom_site_fract_z
Si Si1 0.044826 0.590511 0.562925
Si Si2 0.953807 0.231638 0.855490
Si Si3 0.952682 0.094842 0.648906
Si Si4 0.954640 0.772644 0.733924
Si Si5 0.050403 0.410560 0.137877
Si Si6 0.047780 0.905262 0.940898
Si Si7 0.453156 0.226434 0.562013
Si Si8 0.546612 0.409390 0.261426
O O1 0.250000 0.590396 0.568807
O O2 0.982802 0.500000 0.584172
O O3 0.982588 0.681740 0.581968
O O4 0.000000 0.590294 0.500000
O O5 0.750000 0.240795 0.851207
O O6 0.017702 0.219370 0.794981
O O7 0.021733 0.320397 0.878420
O O8 0.988910 0.155781 0.894566
O O9 0.750000 0.088364 0.656780
O O10 0.021526 0.153420 0.696523
O O11 0.980527 0.148821 0.595825
O O12 0.021002 0.000000 0.647014
O O13 0.750000 0.778090 0.734918
O O14 0.998200 0.679249 0.713291
O O15 0.250000 0.412514 0.123899
O O16 0.974117 0.500000 0.120483
O O17 0.034436 0.408379 0.202310
O O18 0.250000 0.909541 0.938277
O O19 0.977948 0.000000 0.935054
O O20 0.000000 0.874908 0.000000
O O21 0.500000 0.218647 0.500000
O O22 0.250000 0.227069 0.566538
O O23 0.750000 0.409096 0.255671
O O24 0.499286 0.500000 0.285955
#
# Coordination Sequence:
#
# PCOD9404524 Si02
#       8
#     8   8   8   8   8   8   8   8
#     4   8  14  26  46  73 103 132 160 192 235 289
#     4   9  17  30  52  80 105 133 169 208 252 303
#     4  10  22  40  58  75  99 132 171 217 264 307
#     4   9  19  35  54  76 103 137 174 209 252 307
#     4   8  14  26  45  70 101 137 174 208 245 294
#     4  10  21  36  53  74 101 133 169 212 261 308
#     4  10  20  35  57  82 106 134 169 209 253 303
#     4   9  16  26  44  72 104 136 169 207 250 294
#
# _framework density 20.311381999999998
#
# number of rings (size 3 to 8) (size 9 to 14) (size 15 to 20)
#    0.000    2.875    0.000    1.875    0.000    5.500 
#    0.000    1.875    0.000    2.625    0.000    0.000 
#    0.000    0.000    0.000    0.000    0.000    0.000 
#
# Total GULP energy -356544.511130 kJ/mol
# GULP energy per Si atom -5571.007986 kJ/mol
# Density = 2.026515 g / cm^3
# Si number density = 20.311382 Si / 1000 Ang^3
#
#
#
# Elastic Constant Matrix: (Units=GPa)
#
#
# Indices 1 2 3 4 5 6 
#
# 1 25.4909 8.0925 -2.1412 0.0000 0.0000 0.0000
# 2 8.0925 212.0411 74.0024 0.0000 0.0000 0.0000
# 3 -2.1412 74.0024 79.6380 0.0000 0.0000 0.0000
# 4 0.0000 0.0000 0.0000 78.5662 0.0000 0.0000
# 5 0.0000 0.0000 0.0000 0.0000 8.8818 0.0000
# 6 0.0000 0.0000 0.0000 0.0000 0.0000 15.3948
#
#
#
# Elastic Compliance Matrix: (Units=1/GPa)
#
#
# Indices 1 2 3 4 5 6 
#
# 1 0.040447 -0.002846 0.003732 0.000000 0.000000 0.000000
# 2 -0.002846 0.007180 -0.006748 0.000000 0.000000 0.000000
# 3 0.003732 -0.006748 0.018928 0.000000 0.000000 0.000000
# 4 0.000000 0.000000 0.000000 0.012728 0.000000 0.000000
# 5 0.000000 0.000000 0.000000 0.000000 0.112589 0.000000
# 6 0.000000 0.000000 0.000000 0.000000 0.000000 0.064957
#
#
# Mechanical properties :
#
#
# Convention : Reuss Voigt Hill
#
# Bulk Modulus (GPa) = 18.23815 53.00858 35.62336
# Shear Modulus (GPa) = 17.43191 36.38298 26.90744
#
# Velocity S-wave (km/s) = 2.93274 4.23692 3.64366
# Velocity P-wave (km/s) = 4.52402 7.07743 5.93956
#
# Compressibility (1/GPa) = 0.05483013
#
# Stress axis : x y z
#
# Youngs Moduli (GPa) = 24.72383 139.27875 52.83201
#
# Poissons Ratio (x) = 0.39641 -0.19718
# Poissons Ratio (y) = 0.07037 0.35653
# Poissons Ratio (z) = -0.09228 0.93989
#
# Static dielectric constant tensor:
#      x y z
#    x 1.745400 0.000000 0.000000 
#    y 0.000000 1.793020 0.000000 
#    z 0.000000 0.000000 1.700870 
# 
# From -- ./inp_files/34970.got.cif
#   From: 2010.05.17/outbox.cif.g08.bks.cpg/sg51_18_cif.got.tgz:34970.got - 2010.06.03 11:52:47.
