data_PCOD9404030
_publ_section_title
;
Structure prediction by ZEFSAII (Michael W. Deem and Ramdas Pophale) SiO2 
 PCOD9404030
Probable space group: P M M A
;
_chemical_formula_sum "Si O2"
_cell_formula_units_Z 64
_cell_length_a 22.736505
_cell_length_b 9.038778
_cell_length_c 17.763321
_cell_angle_alpha 90.000000
_cell_angle_beta 90.000000
_cell_angle_gamma 90.000000
_cell_volume 3650.544028
_symmetry_space_group_name_H-M "P M M A"
_symmetry_group_IT_number 51
_symmetry_cell_setting 'orthorhombic'
loop_
_space_group_symop_operation_xyz
x,y,z
1/2-x,-y,z
1/2+x,-y,-z
-x,y,-z
-x,-y,-z
1/2+x,y,-z
1/2-x,y,z
x,-y,z
loop_
_atom_site_type_symbol
_atom_site_label
_atom_site_fract_x
_atom_site_fract_y
_atom_site_fract_z
Si Si1 0.916365 0.675585 0.818140
Si Si2 0.947770 0.176618 0.665103
Si Si3 0.986500 0.170352 0.087967
Si Si4 0.085905 0.177156 0.644645
Si Si5 0.682738 0.675609 0.938106
Si Si6 0.429227 0.330289 0.489138
Si Si7 0.346562 0.172927 0.904196
Si Si8 0.316195 0.676452 0.749940
O O1 0.913603 0.500000 0.805841
O O2 0.917605 0.759215 0.739190
O O3 0.863199 0.719907 0.873627
O O4 0.975745 0.720117 0.861809
O O5 0.920791 0.248776 0.590049
O O6 0.018103 0.212765 0.667467
O O7 0.943071 0.000000 0.661424
O O8 0.917285 0.184576 0.100834
O O9 0.003678 0.000000 0.105876
O O10 0.000000 0.195348 0.000000
O O11 0.095138 0.243411 0.561231
O O12 0.133058 0.246254 0.701312
O O13 0.091182 0.000000 0.643944
O O14 0.750000 0.697137 0.913756
O O15 0.673885 0.500000 0.952805
O O16 0.671994 0.762746 0.015291
O O17 0.500000 0.332482 0.500000
O O18 0.408610 0.500000 0.487651
O O19 0.320389 0.263714 0.835025
O O20 0.330605 0.000000 0.898527
O O21 0.250000 0.708703 0.721408
O O22 0.324688 0.500000 0.749070
#
# Coordination Sequence:
#
# PCOD9404030 Si02
#       8
#     8   8   8   8   8   8   8   8
#     4  11  22  34  53  79 105 137 179 221 265 319
#     4  10  20  34  54  82 115 144 173 216 272 325
#     4  10  20  35  52  74 107 139 168 213 272 325
#     4  10  20  35  56  82 111 144 178 215 265 321
#     4  10  22  39  55  72  99 136 177 222 269 313
#     4   9  17  31  54  83 113 142 172 208 253 311
#     4  11  22  36  56  79 103 136 178 222 268 320
#     4  11  24  39  54  75 107 146 185 227 272 317
#
# _framework density 17.531634
#
# number of rings (size 3 to 8) (size 9 to 14) (size 15 to 20)
#    0.000    1.750    1.250    3.375    0.000   10.500 
#    0.000    0.000    0.000    0.750    0.000    1.750 
#    0.000    0.000    0.000    0.000    0.000    0.000 
#
# Total GULP energy -357469.097683 kJ/mol
# GULP energy per Si atom -5585.454651 kJ/mol
# Density = 1.749173 g / cm^3
# Si number density = 17.531634 Si / 1000 Ang^3
#
#
#
# Elastic Constant Matrix: (Units=GPa)
#
#
# Indices 1 2 3 4 5 6 
#
# 1 57.6681 35.6973 44.7117 0.0000 0.0000 0.0000
# 2 35.6973 73.2422 56.7421 0.0000 0.0000 0.0000
# 3 44.7117 56.7421 124.4805 0.0000 0.0000 0.0000
# 4 0.0000 0.0000 0.0000 30.4385 0.0000 0.0000
# 5 0.0000 0.0000 0.0000 0.0000 8.6104 0.0000
# 6 0.0000 0.0000 0.0000 0.0000 0.0000 23.3878
#
#
#
# Elastic Compliance Matrix: (Units=1/GPa)
#
#
# Indices 1 2 3 4 5 6 
#
# 1 0.027280 -0.008819 -0.005779 0.000000 0.000000 0.000000
# 2 -0.008819 0.023958 -0.007753 0.000000 0.000000 0.000000
# 3 -0.005779 -0.007753 0.013643 0.000000 0.000000 0.000000
# 4 0.000000 0.000000 0.000000 0.032853 0.000000 0.000000
# 5 0.000000 0.000000 0.000000 0.000000 0.116139 0.000000
# 6 0.000000 0.000000 0.000000 0.000000 0.000000 0.042757
#
#
# Mechanical properties :
#
#
# Convention : Reuss Voigt Hill
#
# Bulk Modulus (GPa) = 49.55510 58.85476 54.20493
# Shear Modulus (GPa) = 16.23063 20.36997 18.30030
#
# Velocity S-wave (km/s) = 3.04598 3.41236 3.23436
# Velocity P-wave (km/s) = 6.37951 7.01207 6.70325
#
# Compressibility (1/GPa) = 0.02017956
#
# Stress axis : x y z
#
# Youngs Moduli (GPa) = 36.65673 41.73934 73.29704
#
# Poissons Ratio (x) = 0.36811 0.42355
# Poissons Ratio (y) = 0.32328 0.56828
# Poissons Ratio (z) = 0.21182 0.32361
#
# Static dielectric constant tensor:
#      x y z
#    x 1.582220 0.000000 0.000000 
#    y 0.000000 1.592160 0.000000 
#    z 0.000000 0.000000 1.577490 
# 
# From -- ./inp_files/30528.got.cif
#   From: 2010.05.17/outbox.cif.g08.bks.cpg/sg51_16_cif.got.tgz:30528.got - 2010.06.03 11:52:47.
