data_PCOD9404196
_publ_section_title
;
Structure prediction by ZEFSAII (Michael W. Deem and Ramdas Pophale) SiO2 
 PCOD9404196
Probable space group: P M M A
;
_chemical_formula_sum "Si O2"
_cell_formula_units_Z 40
_cell_length_a 15.138066
_cell_length_b 9.124101
_cell_length_c 14.523215
_cell_angle_alpha 90.000000
_cell_angle_beta 90.000000
_cell_angle_gamma 90.000000
_cell_volume 2005.964510
_symmetry_space_group_name_H-M "P M M A"
_symmetry_group_IT_number 51
_symmetry_cell_setting 'orthorhombic'
loop_
_space_group_symop_operation_xyz
x,y,z
1/2-x,-y,z
1/2+x,-y,-z
-x,y,-z
-x,-y,-z
1/2+x,y,-z
1/2-x,y,z
x,-y,z
loop_
_atom_site_type_symbol
_atom_site_label
_atom_site_fract_x
_atom_site_fract_y
_atom_site_fract_z
Si Si1 0.644617 0.176055 0.754390
Si Si2 0.493183 0.674077 0.107942
Si Si3 0.643618 0.166863 0.210617
Si Si4 0.150801 0.338286 0.619569
Si Si5 0.415372 0.327443 0.432888
O O1 0.750000 0.214336 0.759853
O O2 0.585314 0.244834 0.836352
O O3 0.604025 0.236363 0.658062
O O4 0.637987 0.000000 0.756917
O O5 0.480738 0.500000 0.118580
O O6 0.587035 0.723049 0.149955
O O7 0.500000 0.710008 0.000000
O O8 0.750000 0.174547 0.197324
O O9 0.615654 0.212102 0.314796
O O10 0.617164 0.000000 0.192012
O O11 0.250000 0.355061 0.653350
O O12 0.107480 0.500000 0.630574
O O13 0.155795 0.302890 0.512590
O O14 0.500000 0.297284 0.500000
O O15 0.415040 0.500000 0.408560
#
# Coordination Sequence:
#
# PCOD9404196 Si02
#       5
#     8   8   8   8   8
#     4  11  25  43  64  93 129 169 212 261 320 383
#     4  11  25  44  66  90 116 153 204 260 316 376
#     4  10  21  37  60  91 125 159 195 244 309 374
#     4   9  17  30  50  78 114 155 195 234 278 334
#     4  10  20  34  56  87 122 162 207 251 296 351
#
# _framework density 19.940531
#
# number of rings (size 3 to 8) (size 9 to 14) (size 15 to 20)
#    0.000    1.800    0.000    3.600    0.000    8.800 
#    0.000    6.000    0.000    0.000    0.000    0.000 
#    0.000    0.000    0.000    0.000    0.000    0.000 
#
# Total GULP energy -222791.507539 kJ/mol
# GULP energy per Si atom -5569.787688 kJ/mol
# Density = 1.989515 g / cm^3
# Si number density = 19.940531 Si / 1000 Ang^3
#
#
#
# Elastic Constant Matrix: (Units=GPa)
#
#
# Indices 1 2 3 4 5 6 
#
# 1 104.9753 41.1399 48.9604 0.0000 0.0000 0.0000
# 2 41.1399 71.8793 67.7206 0.0000 0.0000 0.0000
# 3 48.9604 67.7206 136.9513 0.0000 0.0000 0.0000
# 4 0.0000 0.0000 0.0000 -80.7664 0.0000 0.0000
# 5 0.0000 0.0000 0.0000 0.0000 19.8368 0.0000
# 6 0.0000 0.0000 0.0000 0.0000 0.0000 28.6792
#
#
#
# Elastic Compliance Matrix: (Units=1/GPa)
#
#
# Indices 1 2 3 4 5 6 
#
# 1 0.012499 -0.005512 -0.001743 0.000000 0.000000 0.000000
# 2 -0.005512 0.028477 -0.012111 0.000000 0.000000 0.000000
# 3 -0.001743 -0.012111 0.013914 0.000000 0.000000 0.000000
# 4 0.000000 0.000000 0.000000 -0.012381 0.000000 0.000000
# 5 0.000000 0.000000 0.000000 0.000000 0.050411 0.000000
# 6 0.000000 0.000000 0.000000 0.000000 0.000000 0.034868
#
#
# Mechanical properties :
#
#
# Convention : Reuss Voigt Hill
#
# Bulk Modulus (GPa) = 61.88721 69.93866 65.91293
# Shear Modulus (GPa) = 29.08562 3.94892 16.51727
#
# Velocity S-wave (km/s) = 3.82333 1.40878 2.88119
# Velocity P-wave (km/s) = 7.11293 6.14784 6.64792
#
# Compressibility (1/GPa) = 0.01615843
#
# Stress axis : x y z
#
# Youngs Moduli (GPa) = 80.00645 35.11579 71.87103
#
# Poissons Ratio (x) = 0.19354 0.12527
# Poissons Ratio (y) = 0.44096 0.87044
# Poissons Ratio (z) = 0.13945 0.42529
#
# Static dielectric constant tensor:
#      x y z
#    x 2.313400 0.000000 0.000000 
#    y 0.000000 1.710510 0.000000 
#    z 0.000000 0.000000 1.697820 
# 
# From -- ./inp_files/23688.got.cif
#   From: 2010.05.17/outbox.cif.g08.bks.cpg/sg51_12_cif.got.tgz:23688.got - 2010.06.03 11:52:47.
