data_PCOD9404539
_publ_section_title
;
Structure prediction by ZEFSAII (Michael W. Deem and Ramdas Pophale) SiO2 
 PCOD9404539
Probable space group: P M M A
;
_chemical_formula_sum "Si O2"
_cell_formula_units_Z 48
_cell_length_a 28.843713
_cell_length_b 7.545636
_cell_length_c 10.012638
_cell_angle_alpha 90.000000
_cell_angle_beta 90.000000
_cell_angle_gamma 90.000000
_cell_volume 2179.192179
_symmetry_space_group_name_H-M "P M M A"
_symmetry_group_IT_number 51
_symmetry_cell_setting 'orthorhombic'
loop_
_space_group_symop_operation_xyz
x,y,z
1/2-x,-y,z
1/2+x,-y,-z
-x,y,-z
-x,-y,-z
1/2+x,y,-z
1/2-x,y,z
x,-y,z
loop_
_atom_site_type_symbol
_atom_site_label
_atom_site_fract_x
_atom_site_fract_y
_atom_site_fract_z
Si Si1 0.303245 0.785508 0.814749
Si Si2 0.854697 0.785665 0.452304
Si Si3 0.457656 0.788781 0.589564
Si Si4 0.957563 0.285955 0.094456
Si Si5 0.134073 0.701971 0.053332
Si Si6 0.802392 0.290463 0.720137
O O1 0.250000 0.737469 0.795582
O O2 0.333480 0.729247 0.688612
O O3 0.324703 0.703841 0.946571
O O4 0.305996 0.000000 0.826420
O O5 0.907590 0.720492 0.459304
O O6 0.821240 0.728401 0.570941
O O7 0.855237 0.000000 0.453317
O O8 0.500000 0.717770 0.500000
O O9 0.462133 0.763372 0.749576
O O10 0.456646 0.000000 0.568499
O O11 0.956356 0.500000 0.094429
O O12 0.910219 0.219541 0.023955
O O13 0.000000 0.228933 0.000000
O O14 0.120350 0.500000 0.088498
O O15 0.157629 0.786502 0.183426
O O16 0.750000 0.218438 0.735742
O O17 0.799659 0.500000 0.751500
#
# Coordination Sequence:
#
# PCOD9404539 Si02
#       6
#     8   8   8   8   8   8
#     4  10  20  35  57  83 110 144 187 234 283 335
#     4  10  21  38  58  82 115 149 187 234 282 336
#     4  10  22  40  61  87 116 148 188 234 284 339
#     4  10  22  39  60  88 117 148 188 234 284 339
#     4  10  21  38  58  82 115 150 188 233 281 336
#     4  10  22  38  56  82 115 151 192 235 280 333
#
# _framework density 22.026510999999999
#
# number of rings (size 3 to 8) (size 9 to 14) (size 15 to 20)
#    0.000    2.000    1.667    1.000    2.333    4.667 
#    0.000    0.000    0.000    0.000    0.000    0.000 
#    0.000    0.000    0.000    0.000    0.000    0.000 
#
# Total GULP energy -268076.158196 kJ/mol
# GULP energy per Si atom -5584.919962 kJ/mol
# Density = 2.197638 g / cm^3
# Si number density = 22.026511 Si / 1000 Ang^3
#
#
#
# Elastic Constant Matrix: (Units=GPa)
#
#
# Indices 1 2 3 4 5 6 
#
# 1 107.1601 3.0728 -6.4413 0.0000 0.0000 0.0000
# 2 3.0728 51.3357 -13.1645 0.0000 0.0000 0.0000
# 3 -6.4413 -13.1645 60.3061 0.0000 0.0000 0.0000
# 4 0.0000 0.0000 0.0000 28.4699 0.0000 0.0000
# 5 0.0000 0.0000 0.0000 0.0000 43.6729 0.0000
# 6 0.0000 0.0000 0.0000 0.0000 0.0000 13.1274
#
#
#
# Elastic Compliance Matrix: (Units=1/GPa)
#
#
# Indices 1 2 3 4 5 6 
#
# 1 0.009397 -0.000323 0.000933 0.000000 0.000000 0.000000
# 2 -0.000323 0.020646 0.004472 0.000000 0.000000 0.000000
# 3 0.000933 0.004472 0.017658 0.000000 0.000000 0.000000
# 4 0.000000 0.000000 0.000000 0.035125 0.000000 0.000000
# 5 0.000000 0.000000 0.000000 0.000000 0.022898 0.000000
# 6 0.000000 0.000000 0.000000 0.000000 0.000000 0.076177
#
#
# Mechanical properties :
#
#
# Convention : Reuss Voigt Hill
#
# Bulk Modulus (GPa) = 17.28138 20.63732 18.95935
# Shear Modulus (GPa) = 26.17471 32.74302 29.45886
#
# Velocity S-wave (km/s) = 3.45095 3.85973 3.66105
# Velocity P-wave (km/s) = 4.87253 5.40861 5.14755
#
# Compressibility (1/GPa) = 0.05786574
#
# Stress axis : x y z
#
# Youngs Moduli (GPa) = 106.41474 48.43584 56.63148
#
# Poissons Ratio (x) = 0.01565 -0.05285
# Poissons Ratio (y) = 0.03439 -0.25328
# Poissons Ratio (z) = -0.09930 -0.21662
#
# Static dielectric constant tensor:
#      x y z
#    x 1.810560 0.000000 0.000000 
#    y 0.000000 1.839820 0.000000 
#    z 0.000000 0.000000 1.745270 
# 
# From -- ./inp_files/12742.got.cif
#   From: 2010.05.17/outbox.cif.g08.bks.cpg/sg51_7_cif.got.tgz:12742.got - 2010.06.03 11:52:47.
