data_PCOD9404905
_publ_section_title
;
Structure prediction by ZEFSAII (Michael W. Deem and Ramdas Pophale) SiO2 
 PCOD9404905
Probable space group: P M M A
;
_chemical_formula_sum "Si O2"
_cell_formula_units_Z 64
_cell_length_a 19.558397
_cell_length_b 7.786592
_cell_length_c 19.917158
_cell_angle_alpha 90.000000
_cell_angle_beta 90.000000
_cell_angle_gamma 90.000000
_cell_volume 3033.248874
_symmetry_space_group_name_H-M "P M M A"
_symmetry_group_IT_number 51
_symmetry_cell_setting 'orthorhombic'
loop_
_space_group_symop_operation_xyz
x,y,z
1/2-x,-y,z
1/2+x,-y,-z
-x,y,-z
-x,-y,-z
1/2+x,y,-z
1/2-x,y,z
x,-y,z
loop_
_atom_site_type_symbol
_atom_site_label
_atom_site_fract_x
_atom_site_fract_y
_atom_site_fract_z
Si Si1 0.173919 0.208020 0.782089
Si Si2 0.393782 0.700801 0.283702
Si Si3 0.069164 0.790412 0.537961
Si Si4 0.827257 0.792972 0.573983
Si Si5 0.671950 0.798438 0.854579
Si Si6 0.565751 0.193738 0.962884
Si Si7 0.172820 0.299635 0.936714
Si Si8 0.450810 0.791903 0.690364
O O1 0.250000 0.258679 0.757894
O O2 0.165746 0.274158 0.857466
O O3 0.111302 0.267311 0.736891
O O4 0.172472 0.000000 0.783974
O O5 0.383082 0.500000 0.275064
O O6 0.365870 0.752497 0.356866
O O7 0.352794 0.786246 0.222439
O O8 0.474657 0.739252 0.283610
O O9 0.131546 0.731085 0.491414
O O10 0.063618 0.731724 0.614466
O O11 0.000000 0.741796 0.500000
O O12 0.071764 0.000000 0.539714
O O13 0.750000 0.727227 0.576347
O O14 0.824995 0.000000 0.569435
O O15 0.750000 0.728657 0.862597
O O16 0.610245 0.726403 0.901603
O O17 0.675668 0.000000 0.872726
O O18 0.544221 0.000000 0.941557
O O19 0.500000 0.276516 0.000000
O O20 0.620465 0.188668 0.022232
O O21 0.250000 0.252132 0.955355
O O22 0.162249 0.500000 0.952856
O O23 0.450601 0.000000 0.689488
#
# Coordination Sequence:
#
# PCOD9404905 Si02
#       8
#     8   8   8   8   8   8   8   8
#     4   9  19  35  57  85 114 147 189 236 282 332
#     4  12  25  38  56  84 118 154 194 240 287 340
#     4   9  16  31  56  83 109 141 183 231 282 333
#     4  10  20  36  60  87 114 148 192 239 289 346
#     4  10  22  41  63  85 114 153 194 237 288 345
#     4  10  22  39  61  90 118 146 186 236 287 338
#     4  10  21  37  58  83 115 154 189 224 272 332
#     4  10  20  36  60  84 115 153 191 236 288 345
#
# _framework density 21.099488999999998
#
# number of rings (size 3 to 8) (size 9 to 14) (size 15 to 20)
#    0.000    2.000    1.250    2.250    1.750    5.000 
#    0.000    3.750    0.000    0.000    0.000    1.750 
#    0.000    0.000    0.000    0.000    0.000    0.000 
#
# Total GULP energy -357255.477814 kJ/mol
# GULP energy per Si atom -5582.116841 kJ/mol
# Density = 2.105147 g / cm^3
# Si number density = 21.099489 Si / 1000 Ang^3
#
#
#
# Elastic Constant Matrix: (Units=GPa)
#
#
# Indices 1 2 3 4 5 6 
#
# 1 118.7160 8.4438 56.9758 0.0000 0.0000 0.0000
# 2 8.4438 31.6716 -0.8078 0.0000 0.0000 0.0000
# 3 56.9758 -0.8078 72.1257 0.0000 0.0000 0.0000
# 4 0.0000 0.0000 0.0000 -46.5937 0.0000 0.0000
# 5 0.0000 0.0000 0.0000 0.0000 35.9314 0.0000
# 6 0.0000 0.0000 0.0000 0.0000 0.0000 -9.4647
#
#
#
# Elastic Compliance Matrix: (Units=1/GPa)
#
#
# Indices 1 2 3 4 5 6 
#
# 1 0.014064 -0.004034 -0.011155 0.000000 0.000000 0.000000
# 2 -0.004034 0.032740 0.003553 0.000000 0.000000 0.000000
# 3 -0.011155 0.003553 0.022717 0.000000 0.000000 0.000000
# 4 0.000000 0.000000 0.000000 -0.021462 0.000000 0.000000
# 5 0.000000 0.000000 0.000000 0.000000 0.027831 0.000000
# 6 0.000000 0.000000 0.000000 0.000000 0.000000 -0.105655
#
#
# Mechanical properties :
#
#
# Convention : Reuss Voigt Hill
#
# Bulk Modulus (GPa) = 21.62200 39.08187 30.35193
# Shear Modulus (GPa) = 560.38093 6.50134 283.44113
#
# Velocity S-wave (km/s) = 16.31461 1.75726 11.60290
# Velocity P-wave (km/s) = 19.10912 4.76237 13.92549
#
# Compressibility (1/GPa) = 0.04624919
#
# Stress axis : x y z
#
# Youngs Moduli (GPa) = 71.10281 30.54349 44.02080
#
# Poissons Ratio (x) = 0.12322 0.49106
# Poissons Ratio (y) = 0.28683 -0.15642
# Poissons Ratio (z) = 0.79316 -0.10853
#
# Static dielectric constant tensor:
#      x y z
#    x 1.716080 0.000000 0.000000 
#    y 0.000000 1.807590 0.000000 
#    z 0.000000 0.000000 1.739930 
# 
# From -- ./inp_files/33828.got.cif
#   From: 2010.05.17/outbox.cif.g08.bks.cpg/sg51_17_cif.got.tgz:33828.got - 2010.06.03 11:52:47.
