data_PCOD9404575
_publ_section_title
;
Structure prediction by ZEFSAII (Michael W. Deem and Ramdas Pophale) SiO2 
 PCOD9404575
Probable space group: P M M A
;
_chemical_formula_sum "Si O2"
_cell_formula_units_Z 48
_cell_length_a 28.669539
_cell_length_b 8.956525
_cell_length_c 10.453091
_cell_angle_alpha 90.000000
_cell_angle_beta 90.000000
_cell_angle_gamma 90.000000
_cell_volume 2684.138882
_symmetry_space_group_name_H-M "P M M A"
_symmetry_group_IT_number 51
_symmetry_cell_setting 'orthorhombic'
loop_
_space_group_symop_operation_xyz
x,y,z
1/2-x,-y,z
1/2+x,-y,-z
-x,y,-z
-x,-y,-z
1/2+x,y,-z
1/2-x,y,z
x,-y,z
loop_
_atom_site_type_symbol
_atom_site_label
_atom_site_fract_x
_atom_site_fract_y
_atom_site_fract_z
Si Si1 0.196086 0.677908 0.640096
Si Si2 0.554547 0.178266 0.512779
Si Si3 0.892010 0.321797 0.749636
Si Si4 0.554330 0.320252 0.010969
Si Si5 0.803806 0.822257 0.640084
Si Si6 0.392006 0.178234 0.751522
O O1 0.250000 0.707139 0.675893
O O2 0.189484 0.500000 0.631268
O O3 0.188653 0.750043 0.499917
O O4 0.158762 0.748469 0.735660
O O5 0.500000 0.213978 0.500000
O O6 0.577947 0.264209 0.629653
O O7 0.580437 0.212778 0.380036
O O8 0.559043 0.000000 0.535623
O O9 0.887287 0.500000 0.743220
O O10 0.841460 0.246739 0.735305
O O11 0.918482 0.282670 0.880447
O O12 0.555960 0.500000 0.027558
O O13 0.579427 0.243424 0.130107
O O14 0.500000 0.276675 0.000000
O O15 0.750000 0.793154 0.676481
O O16 0.810484 0.000000 0.629554
O O17 0.388005 0.000000 0.762151
#
# Coordination Sequence:
#
# PCOD9404575 Si02
#       6
#     8   8   8   8   8   8
#     4  10  20  35  58  87 118 152 189 234 288 344
#     4  10  21  36  55  82 115 148 188 240 291 343
#     4  11  22  36  58  86 113 150 194 238 292 345
#     4  10  23  42  60  81 115 158 200 242 290 346
#     4  10  20  35  57  85 117 151 187 233 289 346
#     4  11  22  36  58  87 116 153 194 237 291 345
#
# _framework density 17.882830999999999
#
# number of rings (size 3 to 8) (size 9 to 14) (size 15 to 20)
#    0.000    1.667    1.667    3.000    0.000    4.667 
#    0.000    0.833    0.000    1.000    0.000    0.000 
#    0.000    0.000    0.000    0.000    0.000    0.000 
#
# Total GULP energy -268207.628520 kJ/mol
# GULP energy per Si atom -5587.658928 kJ/mol
# Density = 1.784213 g / cm^3
# Si number density = 17.882831 Si / 1000 Ang^3
#
#
#
# Elastic Constant Matrix: (Units=GPa)
#
#
# Indices 1 2 3 4 5 6 
#
# 1 170.4394 73.7117 86.6348 0.0000 0.0000 0.0000
# 2 73.7117 64.0977 68.1445 0.0000 0.0000 0.0000
# 3 86.6348 68.1445 119.7141 0.0000 0.0000 0.0000
# 4 0.0000 0.0000 0.0000 2.0863 0.0000 0.0000
# 5 0.0000 0.0000 0.0000 0.0000 33.8259 0.0000
# 6 0.0000 0.0000 0.0000 0.0000 0.0000 32.3331
#
#
#
# Elastic Compliance Matrix: (Units=1/GPa)
#
#
# Indices 1 2 3 4 5 6 
#
# 1 0.011873 -0.011445 -0.002077 0.000000 0.000000 0.000000
# 2 -0.011445 0.050547 -0.020490 0.000000 0.000000 0.000000
# 3 -0.002077 -0.020490 0.021520 0.000000 0.000000 0.000000
# 4 0.000000 0.000000 0.000000 0.479321 0.000000 0.000000
# 5 0.000000 0.000000 0.000000 0.000000 0.029563 0.000000
# 6 0.000000 0.000000 0.000000 0.000000 0.000000 0.030928
#
#
# Mechanical properties :
#
#
# Convention : Reuss Voigt Hill
#
# Bulk Modulus (GPa) = 62.83495 90.13705 76.48600
# Shear Modulus (GPa) = 7.17277 22.03307 14.60292
#
# Velocity S-wave (km/s) = 2.00492 3.51391 2.86070
# Velocity P-wave (km/s) = 6.36969 8.18395 7.33314
#
# Compressibility (1/GPa) = 0.01591471
#
# Stress axis : x y z
#
# Youngs Moduli (GPa) = 84.22508 19.78376 46.46910
#
# Poissons Ratio (x) = 0.22643 0.09652
# Poissons Ratio (y) = 0.96399 0.95213
# Poissons Ratio (z) = 0.17495 0.40536
#
# Static dielectric constant tensor:
#      x y z
#    x 1.619820 0.000000 0.000000 
#    y 0.000000 1.595530 0.000000 
#    z 0.000000 0.000000 1.570720 
# 
# From -- ./inp_files/12759.got.cif
#   From: 2010.05.17/outbox.cif.g08.bks.cpg/sg51_7_cif.got.tgz:12759.got - 2010.06.03 11:52:47.
