data_PCOD9404657
_publ_section_title
;
Structure prediction by ZEFSAII (Michael W. Deem and Ramdas Pophale) SiO2 
 PCOD9404657
Probable space group: P M M A
;
_chemical_formula_sum "Si O2"
_cell_formula_units_Z 40
_cell_length_a 8.832749
_cell_length_b 14.504999
_cell_length_c 15.882450
_cell_angle_alpha 90.000000
_cell_angle_beta 90.000000
_cell_angle_gamma 90.000000
_cell_volume 2034.843856
_symmetry_space_group_name_H-M "P M M A"
_symmetry_group_IT_number 51
_symmetry_cell_setting 'orthorhombic'
loop_
_space_group_symop_operation_xyz
x,y,z
1/2-x,-y,z
1/2+x,-y,-z
-x,y,-z
-x,-y,-z
1/2+x,y,-z
1/2-x,y,z
x,-y,z
loop_
_atom_site_type_symbol
_atom_site_label
_atom_site_fract_x
_atom_site_fract_y
_atom_site_fract_z
Si Si1 0.569931 0.895005 0.646615
Si Si2 0.430730 0.295147 0.911054
Si Si3 0.069628 0.896916 0.831626
Si Si4 0.070350 0.289901 0.586831
Si Si5 0.071694 0.609917 0.252112
O O1 0.750000 0.880825 0.638419
O O2 0.521291 0.886749 0.744570
O O3 0.481030 0.816166 0.597903
O O4 0.533738 0.000000 0.620418
O O5 0.250000 0.305307 0.912693
O O6 0.467366 0.187485 0.892435
O O7 0.498199 0.351499 0.833087
O O8 0.500000 0.323552 0.000000
O O9 0.250000 0.890708 0.812138
O O10 0.040411 0.000000 0.865342
O O11 0.250000 0.296213 0.584571
O O12 0.000000 0.326050 0.500000
O O13 0.006190 0.343309 0.667561
O O14 0.250000 0.632653 0.252878
O O15 0.054465 0.500000 0.256014
#
# Coordination Sequence:
#
# PCOD9404657 Si02
#       5
#     8   8   8   8   8
#     4  10  20  35  59  91 127 168 211 255 305 363
#     4  11  23  39  63  94 128 169 211 259 311 369
#     4   9  18  34  57  87 124 167 211 253 303 363
#     4  12  25  42  66  95 128 167 208 256 309 371
#     4  11  25  46  70  94 123 159 203 261 322 380
#
# _framework density 19.657527999999999
#
# number of rings (size 3 to 8) (size 9 to 14) (size 15 to 20)
#    0.000    1.400    2.000    3.600    0.000    5.200 
#    0.000    0.000    0.000    0.000    0.000    0.000 
#    0.000    0.000    0.000    0.000    0.000    0.000 
#
# Total GULP energy -223664.934506 kJ/mol
# GULP energy per Si atom -5591.623363 kJ/mol
# Density = 1.961279 g / cm^3
# Si number density = 19.657528 Si / 1000 Ang^3
#
#
#
# Elastic Constant Matrix: (Units=GPa)
#
#
# Indices 1 2 3 4 5 6 
#
# 1 121.5405 67.6143 79.6349 0.0000 0.0000 0.0000
# 2 67.6143 75.7062 61.8864 0.0000 0.0000 0.0000
# 3 79.6349 61.8864 164.6114 0.0000 0.0000 0.0000
# 4 0.0000 0.0000 0.0000 -6.0018 0.0000 0.0000
# 5 0.0000 0.0000 0.0000 0.0000 33.6078 0.0000
# 6 0.0000 0.0000 0.0000 0.0000 0.0000 25.9477
#
#
#
# Elastic Compliance Matrix: (Units=1/GPa)
#
#
# Indices 1 2 3 4 5 6 
#
# 1 0.017874 -0.012841 -0.003819 0.000000 0.000000 0.000000
# 2 -0.012841 0.028295 -0.004425 0.000000 0.000000 0.000000
# 3 -0.003819 -0.004425 0.009586 0.000000 0.000000 0.000000
# 4 0.000000 0.000000 0.000000 -0.166616 0.000000 0.000000
# 5 0.000000 0.000000 0.000000 0.000000 0.029755 0.000000
# 6 0.000000 0.000000 0.000000 0.000000 0.000000 0.038539
#
#
# Mechanical properties :
#
#
# Convention : Reuss Voigt Hill
#
# Bulk Modulus (GPa) = 73.61839 86.68106 80.14972
# Shear Modulus (GPa) = 1209.60814 20.89225 615.25020
#
# Velocity S-wave (km/s) = 24.83298 3.26362 17.71056
# Velocity P-wave (km/s) = 29.32179 7.64153 21.42616
#
# Compressibility (1/GPa) = 0.01358356
#
# Stress axis : x y z
#
# Youngs Moduli (GPa) = 55.94745 35.34137 104.31580
#
# Poissons Ratio (x) = 0.45384 0.39840
# Poissons Ratio (y) = 0.71845 0.46164
# Poissons Ratio (z) = 0.21367 0.15640
#
# Static dielectric constant tensor:
#      x y z
#    x 1.654280 0.000000 0.000000 
#    y 0.000000 1.697120 0.000000 
#    z 0.000000 0.000000 1.663300 
# 
# From -- ./inp_files/20481.got.cif
#   From: 2010.05.17/outbox.cif.g08.bks.cpg/sg51_11_cif.got.tgz:20481.got - 2010.06.03 11:52:47.
