data_PCOD9404799
_publ_section_title
;
Structure prediction by ZEFSAII (Michael W. Deem and Ramdas Pophale) SiO2 
 PCOD9404799
Probable space group: P M M A
;
_chemical_formula_sum "Si O2"
_cell_formula_units_Z 64
_cell_length_a 15.046719
_cell_length_b 21.468452
_cell_length_c 9.178634
_cell_angle_alpha 90.000000
_cell_angle_beta 90.000000
_cell_angle_gamma 90.000000
_cell_volume 2964.971980
_symmetry_space_group_name_H-M "P M M A"
_symmetry_group_IT_number 51
_symmetry_cell_setting 'orthorhombic'
loop_
_space_group_symop_operation_xyz
x,y,z
1/2-x,-y,z
1/2+x,-y,-z
-x,y,-z
-x,-y,-z
1/2+x,y,-z
1/2-x,y,z
x,-y,z
loop_
_atom_site_type_symbol
_atom_site_label
_atom_site_fract_x
_atom_site_fract_y
_atom_site_fract_z
Si Si1 0.898525 0.431555 0.944329
Si Si2 0.858747 0.187975 0.586855
Si Si3 0.857408 0.570026 0.609568
Si Si4 0.358057 0.686948 0.589401
Si Si5 0.906997 0.689833 0.082475
Si Si6 0.642077 0.070575 0.396401
Si Si7 0.150747 0.192862 0.091130
Si Si8 0.599896 0.930585 0.060946
O O1 0.857475 0.500000 0.971523
O O2 0.896259 0.420977 0.770960
O O3 0.856521 0.371618 0.022790
O O4 0.000000 0.436306 0.000000
O O5 0.750000 0.184070 0.588598
O O6 0.880604 0.250515 0.499106
O O7 0.887508 0.125016 0.504968
O O8 0.896020 0.192600 0.751414
O O9 0.750000 0.572314 0.624587
O O10 0.881021 0.500000 0.558468
O O11 0.882539 0.625522 0.501921
O O12 0.250000 0.686688 0.611746
O O13 0.405183 0.687134 0.744875
O O14 0.876604 0.757168 0.028375
O O15 0.000000 0.684811 0.000000
O O16 0.750000 0.073404 0.383612
O O17 0.604267 0.080115 0.234106
O O18 0.619454 0.000000 0.444923
O O19 0.250000 0.212085 0.127145
O O20 0.147807 0.124722 0.022683
O O21 0.636897 0.000000 0.034621
O O22 0.500000 0.929546 0.000000
#
# Coordination Sequence:
#
# PCOD9404799 Si02
#       8
#     8   8   8   8   8   8   8   8
#     4   9  19  37  58  82 116 155 192 232 286 351
#     4   9  19  34  53  78 105 136 178 228 278 330
#     4   9  18  34  58  87 117 150 192 244 295 342
#     4  10  20  36  58  81 109 147 190 237 291 349
#     4  11  23  38  56  82 116 151 192 239 289 347
#     4   9  17  32  54  77 104 141 182 223 271 331
#     4  11  22  37  59  84 111 145 188 238 289 342
#     4  10  21  37  56  81 114 148 183 227 280 338
#
# _framework density 21.585363999999998
#
# number of rings (size 3 to 8) (size 9 to 14) (size 15 to 20)
#    0.000    2.250    0.000    2.625    0.000    4.750 
#    0.000    8.750    0.000    9.000    0.000    0.000 
#    0.000    0.000    0.000    0.000    0.000    0.000 
#
# Total GULP energy -357253.742586 kJ/mol
# GULP energy per Si atom -5582.089728 kJ/mol
# Density = 2.153623 g / cm^3
# Si number density = 21.585364 Si / 1000 Ang^3
#
#
#
# Elastic Constant Matrix: (Units=GPa)
#
#
# Indices 1 2 3 4 5 6 
#
# 1 37.3419 5.7549 8.8985 0.0000 0.0000 0.0000
# 2 5.7549 167.3045 104.1399 0.0000 0.0000 0.0000
# 3 8.8985 104.1399 151.2386 0.0000 0.0000 0.0000
# 4 0.0000 0.0000 0.0000 31.5768 0.0000 0.0000
# 5 0.0000 0.0000 0.0000 0.0000 29.7352 0.0000
# 6 0.0000 0.0000 0.0000 0.0000 0.0000 -6.1274
#
#
#
# Elastic Compliance Matrix: (Units=1/GPa)
#
#
# Indices 1 2 3 4 5 6 
#
# 1 0.027161 0.000106 -0.001671 0.000000 0.000000 0.000000
# 2 0.000106 0.010461 -0.007210 0.000000 0.000000 0.000000
# 3 -0.001671 -0.007210 0.011675 0.000000 0.000000 0.000000
# 4 0.000000 0.000000 0.000000 0.031669 0.000000 0.000000
# 5 0.000000 0.000000 0.000000 0.000000 0.033630 0.000000
# 6 0.000000 0.000000 0.000000 0.000000 0.000000 -0.163201
#
#
# Mechanical properties :
#
#
# Convention : Reuss Voigt Hill
#
# Bulk Modulus (GPa) = 31.49817 65.94130 48.71973
# Shear Modulus (GPa) = -244.22204 26.84304 -108.68950
#
# Velocity S-wave (km/s) = -10.64838 3.53026 -7.10371
# Velocity P-wave (km/s) = 11.68589 6.87258 6.68310
#
# Compressibility (1/GPa) = 0.03174788
#
# Stress axis : x y z
#
# Youngs Moduli (GPa) = 36.81692 95.59201 85.65502
#
# Poissons Ratio (x) = -0.01012 0.14313
# Poissons Ratio (y) = -0.00390 0.61753
# Poissons Ratio (z) = 0.06152 0.68918
#
# Static dielectric constant tensor:
#      x y z
#    x 1.794900 0.000000 0.000000 
#    y 0.000000 1.836910 0.000000 
#    z 0.000000 0.000000 1.758150 
# 
# From -- ./inp_files/10004.got.cif
#   From: 2010.05.17/outbox.cif.g08.bks.cpg/sg51_6_cif.got.tgz:10004.got - 2010.06.03 11:52:47.
