data_PCOD9404037
_publ_section_title
;
Structure prediction by ZEFSAII (Michael W. Deem and Ramdas Pophale) SiO2 
 PCOD9404037
Probable space group: P M M A
;
_chemical_formula_sum "Si O2"
_cell_formula_units_Z 48
_cell_length_a 8.675200
_cell_length_b 10.148945
_cell_length_c 29.857335
_cell_angle_alpha 90.000000
_cell_angle_beta 90.000000
_cell_angle_gamma 90.000000
_cell_volume 2628.763014
_symmetry_space_group_name_H-M "P M M A"
_symmetry_group_IT_number 51
_symmetry_cell_setting 'orthorhombic'
loop_
_space_group_symop_operation_xyz
x,y,z
1/2-x,-y,z
1/2+x,-y,-z
-x,y,-z
-x,-y,-z
1/2+x,y,-z
1/2-x,y,z
x,-y,z
loop_
_atom_site_type_symbol
_atom_site_label
_atom_site_fract_x
_atom_site_fract_y
_atom_site_fract_z
Si Si1 0.065139 0.345131 0.194964
Si Si2 0.434263 0.256357 0.895284
Si Si3 0.436801 0.846198 0.375970
Si Si4 0.564558 0.000000 0.049904
Si Si5 0.564912 0.649801 0.449867
Si Si6 0.562300 0.349038 0.702909
Si Si7 0.432920 0.500000 0.049940
O O1 0.250000 0.329608 0.192380
O O2 0.031306 0.500000 0.186645
O O3 0.016194 0.317086 0.246024
O O4 0.987318 0.261797 0.156085
O O5 0.250000 0.268291 0.896967
O O6 0.482826 0.126320 0.921599
O O7 0.509374 0.375529 0.922206
O O8 0.250000 0.845439 0.377055
O O9 0.498031 0.762568 0.417987
O O10 0.487028 0.761186 0.332490
O O11 0.485524 0.000000 0.375421
O O12 0.750000 0.000000 0.046745
O O13 0.500000 0.000000 0.000000
O O14 0.500000 0.664904 0.500000
O O15 0.750000 0.657638 0.450671
O O16 0.522118 0.500000 0.434651
O O17 0.750000 0.351420 0.702520
O O18 0.512557 0.500000 0.692226
O O19 0.250000 0.500000 0.047254
O O20 0.500000 0.500000 0.000000
#
# Coordination Sequence:
#
# PCOD9404037 Si02
#       7
#     8   8   8   4   8   8   4
#     4   9  17  32  55  83 112 142 182 229 274 323
#     4  11  22  38  58  82 112 146 182 225 275 328
#     4  10  20  34  54  82 116 152 189 230 278 332
#     4  10  24  42  58  78 108 144 184 224 267 326
#     4  10  21  37  58  83 110 144 189 238 285 337
#     4   8  15  30  53  78 107 145 186 229 272 318
#     4  12  24  38  58  86 114 142 180 226 273 328
#
# _framework density 18.259540000000001
#
# number of rings (size 3 to 8) (size 9 to 14) (size 15 to 20)
#    0.000    2.167    0.833    3.750    0.000    5.000 
#    1.500    0.833    0.000    1.000    0.000    0.000 
#    0.000    0.000    0.000    0.000    0.000    0.000 
#
# Total GULP energy -267875.302803 kJ/mol
# GULP energy per Si atom -5580.735475 kJ/mol
# Density = 1.821798 g / cm^3
# Si number density = 18.259540 Si / 1000 Ang^3
#
#
#
# Elastic Constant Matrix: (Units=GPa)
#
#
# Indices 1 2 3 4 5 6 
#
# 1 25.3914 43.0560 32.1616 0.0000 0.0000 0.0000
# 2 43.0560 177.5916 108.8907 0.0000 0.0000 0.0000
# 3 32.1616 108.8907 153.9491 0.0000 0.0000 0.0000
# 4 0.0000 0.0000 0.0000 37.5010 0.0000 0.0000
# 5 0.0000 0.0000 0.0000 0.0000 27.9345 0.0000
# 6 0.0000 0.0000 0.0000 0.0000 0.0000 45.4461
#
#
#
# Elastic Compliance Matrix: (Units=1/GPa)
#
#
# Indices 1 2 3 4 5 6 
#
# 1 0.068625 -0.013857 -0.004535 0.000000 0.000000 0.000000
# 2 -0.013857 0.012741 -0.006117 0.000000 0.000000 0.000000
# 3 -0.004535 -0.006117 0.011770 0.000000 0.000000 0.000000
# 4 0.000000 0.000000 0.000000 0.026666 0.000000 0.000000
# 5 0.000000 0.000000 0.000000 0.000000 0.035798 0.000000
# 6 0.000000 0.000000 0.000000 0.000000 0.000000 0.022004
#
#
# Mechanical properties :
#
#
# Convention : Reuss Voigt Hill
#
# Bulk Modulus (GPa) = 22.66684 80.57207 51.61946
# Shear Modulus (GPa) = 20.71864 33.69790 27.20827
#
# Velocity S-wave (km/s) = 3.37215 4.30058 3.86435
# Velocity P-wave (km/s) = 5.25381 8.29951 6.94566
#
# Compressibility (1/GPa) = 0.04411730
#
# Stress axis : x y z
#
# Youngs Moduli (GPa) = 14.57196 78.48566 84.96233
#
# Poissons Ratio (x) = 1.08756 0.38533
# Poissons Ratio (y) = 0.20192 0.51973
# Poissons Ratio (z) = 0.06609 0.48011
#
# Static dielectric constant tensor:
#      x y z
#    x 1.618460 0.000000 0.000000 
#    y 0.000000 1.603800 0.000000 
#    z 0.000000 0.000000 1.616540 
# 
# From -- ./inp_files/37212.got.cif
#   From: 2010.05.17/outbox.cif.g08.bks.cpg/sg51_19_cif.got.tgz:37212.got - 2010.06.03 11:52:47.
