data_PCOD9404363
_publ_section_title
;
Structure prediction by ZEFSAII (Michael W. Deem and Ramdas Pophale) SiO2 
 PCOD9404363
Probable space group: P M M A
;
_chemical_formula_sum "Si O2"
_cell_formula_units_Z 64
_cell_length_a 24.290172
_cell_length_b 9.293562
_cell_length_c 15.173998
_cell_angle_alpha 90.000000
_cell_angle_beta 90.000000
_cell_angle_gamma 90.000000
_cell_volume 3425.411987
_symmetry_space_group_name_H-M "P M M A"
_symmetry_group_IT_number 51
_symmetry_cell_setting 'orthorhombic'
loop_
_space_group_symop_operation_xyz
x,y,z
1/2-x,-y,z
1/2+x,-y,-z
-x,y,-z
-x,-y,-z
1/2+x,y,-z
1/2-x,y,z
x,-y,z
loop_
_atom_site_type_symbol
_atom_site_label
_atom_site_fract_x
_atom_site_fract_y
_atom_site_fract_z
Si Si1 0.123720 0.670920 0.444874
Si Si2 0.374921 0.671739 0.832805
Si Si3 0.391496 0.826956 0.148197
Si Si4 0.312478 0.169770 0.309076
Si Si5 0.998191 0.329571 0.105179
Si Si6 0.186703 0.173239 0.985427
Si Si7 0.091615 0.671221 0.643740
Si Si8 0.483749 0.162701 0.396501
O O1 0.122363 0.500000 0.434529
O O2 0.175361 0.740620 0.396592
O O3 0.118796 0.703416 0.549112
O O4 0.071007 0.742776 0.397343
O O5 0.368518 0.500000 0.846351
O O6 0.437599 0.710192 0.860636
O O7 0.333165 0.755673 0.894853
O O8 0.371273 0.702286 0.728656
O O9 0.354861 0.788148 0.232634
O O10 0.451233 0.755438 0.147633
O O11 0.397118 0.000000 0.146314
O O12 0.356144 0.783023 0.061971
O O13 0.250000 0.189660 0.278063
O O14 0.320280 0.000000 0.327445
O O15 0.005568 0.500000 0.121271
O O16 0.000000 0.304913 0.000000
O O17 0.250000 0.212021 0.006445
O O18 0.184260 0.000000 0.978811
O O19 0.078729 0.500000 0.645033
O O20 0.034812 0.759198 0.649401
O O21 0.500000 0.154310 0.500000
O O22 0.474433 0.000000 0.363957
#
# Coordination Sequence:
#
# PCOD9404363 Si02
#       8
#     8   8   8   8   8   8   8   8
#     4  10  20  35  55  78 107 142 186 232 274 325
#     4  10  21  37  56  81 116 153 187 224 274 333
#     4  10  21  37  59  84 111 145 184 226 279 342
#     4  10  22  40  59  81 111 146 187 236 289 344
#     4  10  20  35  55  83 118 149 180 226 279 331
#     4  10  21  38  59  82 109 143 184 230 276 325
#     4   9  19  35  54  78 110 149 186 224 273 326
#     4   9  17  30  50  77 107 139 177 221 269 324
#
# _framework density 18.683883000000002
#
# number of rings (size 3 to 8) (size 9 to 14) (size 15 to 20)
#    0.000    2.250    1.250    1.125    1.750    5.750 
#    0.000    0.625    0.000    6.000    0.000    0.000 
#    0.000    0.000    0.000    0.000    0.000    0.000 
#
# Total GULP energy -357260.310967 kJ/mol
# GULP energy per Si atom -5582.192359 kJ/mol
# Density = 1.864136 g / cm^3
# Si number density = 18.683883 Si / 1000 Ang^3
#
#
#
# Elastic Constant Matrix: (Units=GPa)
#
#
# Indices 1 2 3 4 5 6 
#
# 1 59.0949 18.6608 11.5843 0.0000 0.0000 0.0000
# 2 18.6608 24.8277 24.2426 0.0000 0.0000 0.0000
# 3 11.5843 24.2426 70.6239 0.0000 0.0000 0.0000
# 4 0.0000 0.0000 0.0000 24.1171 0.0000 0.0000
# 5 0.0000 0.0000 0.0000 0.0000 25.5080 0.0000
# 6 0.0000 0.0000 0.0000 0.0000 0.0000 10.7600
#
#
#
# Elastic Compliance Matrix: (Units=1/GPa)
#
#
# Indices 1 2 3 4 5 6 
#
# 1 0.022660 -0.020159 0.003203 0.000000 0.000000 0.000000
# 2 -0.020159 0.078518 -0.023646 0.000000 0.000000 0.000000
# 3 0.003203 -0.023646 0.021751 0.000000 0.000000 0.000000
# 4 0.000000 0.000000 0.000000 0.041464 0.000000 0.000000
# 5 0.000000 0.000000 0.000000 0.000000 0.039203 0.000000
# 6 0.000000 0.000000 0.000000 0.000000 0.000000 0.092937
#
#
# Mechanical properties :
#
#
# Convention : Reuss Voigt Hill
#
# Bulk Modulus (GPa) = 23.96630 29.28020 26.62325
# Shear Modulus (GPa) = 12.76669 18.74762 15.75715
#
# Velocity S-wave (km/s) = 2.61684 3.17110 2.90721
# Velocity P-wave (km/s) = 4.68887 5.39567 5.05464
#
# Compressibility (1/GPa) = 0.04172525
#
# Stress axis : x y z
#
# Youngs Moduli (GPa) = 44.13107 12.73596 45.97527
#
# Poissons Ratio (x) = 0.25674 -0.14726
# Poissons Ratio (y) = 0.88963 1.08712
# Poissons Ratio (z) = -0.14135 0.30115
#
# Static dielectric constant tensor:
#      x y z
#    x 1.627580 0.000000 0.000000 
#    y 0.000000 1.626190 0.000000 
#    z 0.000000 0.000000 1.665030 
# 
# From -- ./inp_files/26173.got.cif
#   From: 2010.05.17/outbox.cif.g08.bks.cpg/sg51_14_cif.got.tgz:26173.got - 2010.06.03 11:52:47.
