data_PCOD9404321
_publ_section_title
;
Structure prediction by ZEFSAII (Michael W. Deem and Ramdas Pophale) SiO2 
 PCOD9404321
Probable space group: P M M A
;
_chemical_formula_sum "Si O2"
_cell_formula_units_Z 64
_cell_length_a 8.622522
_cell_length_b 20.016909
_cell_length_c 21.028711
_cell_angle_alpha 90.000000
_cell_angle_beta 90.000000
_cell_angle_gamma 90.000000
_cell_volume 3629.476413
_symmetry_space_group_name_H-M "P M M A"
_symmetry_group_IT_number 51
_symmetry_cell_setting 'orthorhombic'
loop_
_space_group_symop_operation_xyz
x,y,z
1/2-x,-y,z
1/2+x,-y,-z
-x,y,-z
-x,-y,-z
1/2+x,y,-z
1/2-x,y,z
x,-y,z
loop_
_atom_site_type_symbol
_atom_site_label
_atom_site_fract_x
_atom_site_fract_y
_atom_site_fract_z
Si Si1 0.935336 0.421789 0.677128
Si Si2 0.063407 0.822472 0.430808
Si Si3 0.437070 0.076904 0.319927
Si Si4 0.062856 0.422280 0.815444
Si Si5 0.937119 0.328275 0.068884
Si Si6 0.565240 0.674034 0.430964
Si Si7 0.562747 0.173849 0.068869
Si Si8 0.437241 0.077096 0.818127
O O1 0.750000 0.415802 0.673034
O O2 0.977248 0.500000 0.668356
O O3 0.990949 0.402443 0.747816
O O4 0.012455 0.376426 0.623609
O O5 0.250000 0.820637 0.433066
O O6 0.013389 0.873710 0.376011
O O7 0.000000 0.842599 0.500000
O O8 0.001576 0.747978 0.417826
O O9 0.250000 0.077886 0.317647
O O10 0.500475 0.097279 0.250994
O O11 0.486194 0.000000 0.331548
O O12 0.250000 0.417942 0.810393
O O13 0.022723 0.500000 0.827383
O O14 0.011751 0.375625 0.873569
O O15 0.750000 0.330127 0.066738
O O16 0.984705 0.251055 0.079593
O O17 0.000000 0.349260 0.000000
O O18 0.500000 0.653261 0.500000
O O19 0.750000 0.677689 0.434388
O O20 0.750000 0.172119 0.067058
O O21 0.509970 0.125729 0.125574
O O22 0.500000 0.152998 0.000000
O O23 0.250000 0.078850 0.816351
O O24 0.484793 0.000000 0.829499
#
# Coordination Sequence:
#
# PCOD9404321 Si02
#       8
#     8   8   8   8   8   8   8   8
#     4  10  21  37  56  79 107 137 171 212 257 306
#     4  10  20  35  54  77 106 137 172 213 255 302
#     4   9  19  35  53  75 104 136 170 210 255 303
#     4   9  18  33  51  72 100 133 168 206 250 300
#     4   9  18  32  49  70  97 129 164 205 251 300
#     4  11  22  37  57  79 106 138 173 213 256 304
#     4   9  18  32  48  68  95 125 160 201 246 296
#     4   9  18  32  49  70  97 128 163 204 248 297
#
# _framework density 17.633396999999999
#
# number of rings (size 3 to 8) (size 9 to 14) (size 15 to 20)
#    0.000    2.500    0.000    2.625    0.000    4.750 
#    0.000    1.250    0.000    0.000    0.000    0.000 
#    0.000    0.000    0.000    0.000    0.000    0.000 
#
# Total GULP energy -357083.214195 kJ/mol
# GULP energy per Si atom -5579.425222 kJ/mol
# Density = 1.759326 g / cm^3
# Si number density = 17.633397 Si / 1000 Ang^3
#
#
#
# Elastic Constant Matrix: (Units=GPa)
#
#
# Indices 1 2 3 4 5 6 
#
# 1 35.0245 32.6618 45.7377 0.0000 0.0000 0.0000
# 2 32.6618 87.9236 118.5588 0.0000 0.0000 0.0000
# 3 45.7377 118.5588 197.6928 0.0000 0.0000 0.0000
# 4 0.0000 0.0000 0.0000 44.1345 0.0000 0.0000
# 5 0.0000 0.0000 0.0000 0.0000 34.8560 0.0000
# 6 0.0000 0.0000 0.0000 0.0000 0.0000 -24.2086
#
#
#
# Elastic Compliance Matrix: (Units=1/GPa)
#
#
# Indices 1 2 3 4 5 6 
#
# 1 0.043830 -0.013633 -0.001965 0.000000 0.000000 0.000000
# 2 -0.013633 0.063685 -0.035038 0.000000 0.000000 0.000000
# 3 -0.001965 -0.035038 0.026526 0.000000 0.000000 0.000000
# 4 0.000000 0.000000 0.000000 0.022658 0.000000 0.000000
# 5 0.000000 0.000000 0.000000 0.000000 0.028689 0.000000
# 6 0.000000 0.000000 0.000000 0.000000 0.000000 -0.041308
#
#
# Mechanical properties :
#
#
# Convention : Reuss Voigt Hill
#
# Bulk Modulus (GPa) = 30.51667 79.39528 54.95597
# Shear Modulus (GPa) = 19.51025 19.20187 19.35606
#
# Velocity S-wave (km/s) = 3.32992 3.30350 3.31674
# Velocity P-wave (km/s) = 5.66818 7.72490 6.77504
#
# Compressibility (1/GPa) = 0.03276898
#
# Stress axis : x y z
#
# Youngs Moduli (GPa) = 22.81527 15.70236 37.69904
#
# Poissons Ratio (x) = 0.21407 0.07407
# Poissons Ratio (y) = 0.31104 1.32092
# Poissons Ratio (z) = 0.04483 0.55019
#
# Static dielectric constant tensor:
#      x y z
#    x 1.594810 0.000000 0.000000 
#    y 0.000000 1.595660 0.000000 
#    z 0.000000 0.000000 1.570960 
# 
# From -- ./inp_files/32597.got.cif
#   From: 2010.05.17/outbox.cif.g08.bks.cpg/sg51_17_cif.got.tgz:32597.got - 2010.06.03 11:52:47.
