data_PCOD9404681
_publ_section_title
;
Structure prediction by ZEFSAII (Michael W. Deem and Ramdas Pophale) SiO2 
 PCOD9404681
Probable space group: P M M A
;
_chemical_formula_sum "Si O2"
_cell_formula_units_Z 64
_cell_length_a 7.446989
_cell_length_b 26.060763
_cell_length_c 15.238397
_cell_angle_alpha 90.000000
_cell_angle_beta 90.000000
_cell_angle_gamma 90.000000
_cell_volume 2957.379942
_symmetry_space_group_name_H-M "P M M A"
_symmetry_group_IT_number 51
_symmetry_cell_setting 'orthorhombic'
loop_
_space_group_symop_operation_xyz
x,y,z
1/2-x,-y,z
1/2+x,-y,-z
-x,y,-z
-x,-y,-z
1/2+x,y,-z
1/2-x,y,z
x,-y,z
loop_
_atom_site_type_symbol
_atom_site_label
_atom_site_fract_x
_atom_site_fract_y
_atom_site_fract_z
Si Si1 0.035237 0.580855 0.596346
Si Si2 0.030554 0.444097 0.791702
Si Si3 0.535971 0.302657 0.405430
Si Si4 0.035229 0.342708 0.896224
Si Si5 0.464299 0.057703 0.901285
Si Si6 0.464643 0.057651 0.602891
Si Si7 0.469782 0.250514 0.773131
Si Si8 0.969975 0.133902 0.248292
O O1 0.250000 0.581593 0.603291
O O2 0.973030 0.558636 0.689326
O O3 0.964385 0.639296 0.593217
O O4 0.000000 0.557795 0.500000
O O5 0.250000 0.442835 0.792518
O O6 0.976504 0.500000 0.827615
O O7 0.969332 0.394102 0.845859
O O8 0.500000 0.278165 0.500000
O O9 0.750000 0.306555 0.396328
O O10 0.471476 0.273444 0.320314
O O11 0.250000 0.343044 0.884859
O O12 0.970944 0.290417 0.848532
O O13 0.000000 0.343828 0.000000
O O14 0.250000 0.054742 0.889847
O O15 0.530646 0.096852 0.829580
O O16 0.536556 0.000000 0.891445
O O17 0.500000 0.075079 0.000000
O O18 0.500000 0.065472 0.500000
O O19 0.250000 0.055630 0.615029
O O20 0.528691 0.104770 0.662833
O O21 0.532443 0.000000 0.626805
O O22 0.250000 0.249986 0.775809
O O23 0.529024 0.191584 0.772613
O O24 0.750000 0.135742 0.250357
#
# Coordination Sequence:
#
# PCOD9404681 Si02
#       8
#     8   8   8   8   8   8   8   8
#     4   9  16  28  47  71  97 126 157 188 225 271
#     4   9  17  31  52  74  97 128 163 195 232 286
#     4   9  16  28  47  69  92 121 154 187 223 267
#     4  10  20  36  55  73  94 123 160 201 243 288
#     4   9  17  30  48  69  92 118 150 189 233 279
#     4   9  17  30  48  70  97 129 165 202 238 278
#     4   9  17  31  50  70  94 125 160 193 232 284
#     4   9  17  29  48  71  93 123 161 196 230 278
#
# _framework density 21.640778000000001
#
# number of rings (size 3 to 8) (size 9 to 14) (size 15 to 20)
#    0.000    2.875    1.250    0.375    0.000    3.000 
#    0.000    1.875    0.000    5.250    0.000    0.000 
#    0.000    0.000    0.000    0.000    0.000    0.000 
#
# Total GULP energy -356963.793981 kJ/mol
# GULP energy per Si atom -5577.559281 kJ/mol
# Density = 2.159152 g / cm^3
# Si number density = 21.640778 Si / 1000 Ang^3
#
#
#
# Elastic Constant Matrix: (Units=GPa)
#
#
# Indices 1 2 3 4 5 6 
#
# 1 64.6652 6.8639 -3.5886 0.0000 0.0000 0.0000
# 2 6.8639 164.3381 116.1587 0.0000 0.0000 0.0000
# 3 -3.5886 116.1587 168.2285 0.0000 0.0000 0.0000
# 4 0.0000 0.0000 0.0000 -4.4466 0.0000 0.0000
# 5 0.0000 0.0000 0.0000 0.0000 21.7759 0.0000
# 6 0.0000 0.0000 0.0000 0.0000 0.0000 -0.3409
#
#
#
# Elastic Compliance Matrix: (Units=1/GPa)
#
#
# Indices 1 2 3 4 5 6 
#
# 1 0.015735 -0.001747 0.001542 0.000000 0.000000 0.000000
# 2 -0.001747 0.012080 -0.008378 0.000000 0.000000 0.000000
# 3 0.001542 -0.008378 0.011762 0.000000 0.000000 0.000000
# 4 0.000000 0.000000 0.000000 -0.224892 0.000000 0.000000
# 5 0.000000 0.000000 0.000000 0.000000 0.045922 0.000000
# 6 0.000000 0.000000 0.000000 0.000000 0.000000 -2.933096
#
#
# Mechanical properties :
#
#
# Convention : Reuss Voigt Hill
#
# Bulk Modulus (GPa) = 44.62149 70.67776 57.64963
# Shear Modulus (GPa) = -1.64050 21.91753 10.13851
#
# Velocity S-wave (km/s) = -0.87161 3.18589 2.16681
# Velocity P-wave (km/s) = 4.43294 6.80173 5.74084
#
# Compressibility (1/GPa) = 0.02241072
#
# Stress axis : x y z
#
# Youngs Moduli (GPa) = 63.55133 82.78139 85.01772
#
# Poissons Ratio (x) = 0.14464 -0.13110
# Poissons Ratio (y) = 0.11104 0.71230
# Poissons Ratio (z) = -0.09800 0.69357
#
# Static dielectric constant tensor:
#      x y z
#    x 1.822780 0.000000 0.000000 
#    y 0.000000 1.790360 0.000000 
#    z 0.000000 0.000000 1.761960 
# 
# From -- ./inp_files/15701.got.cif
#   From: 2010.05.17/outbox.cif.g08.bks.cpg/sg51_8_cif.got.tgz:15701.got - 2010.06.03 11:52:47.
