data_PCOD9404202
_publ_section_title
;
Structure prediction by ZEFSAII (Michael W. Deem and Ramdas Pophale) SiO2 
 PCOD9404202
Probable space group: P M M A
;
_chemical_formula_sum "Si O2"
_cell_formula_units_Z 56
_cell_length_a 22.127702
_cell_length_b 8.690107
_cell_length_c 14.923964
_cell_angle_alpha 90.000000
_cell_angle_beta 90.000000
_cell_angle_gamma 90.000000
_cell_volume 2869.760349
_symmetry_space_group_name_H-M "P M M A"
_symmetry_group_IT_number 51
_symmetry_cell_setting 'orthorhombic'
loop_
_space_group_symop_operation_xyz
x,y,z
1/2-x,-y,z
1/2+x,-y,-z
-x,y,-z
-x,-y,-z
1/2+x,y,-z
1/2-x,y,z
x,-y,z
loop_
_atom_site_type_symbol
_atom_site_label
_atom_site_fract_x
_atom_site_fract_y
_atom_site_fract_z
Si Si1 0.681381 0.314585 0.242544
Si Si2 0.430371 0.315482 0.633053
Si Si3 0.128516 0.315448 0.129048
Si Si4 0.750000 0.315548 0.561162
Si Si5 0.378262 0.816158 0.459964
Si Si6 0.180019 0.184085 0.954291
Si Si7 0.250000 0.686604 0.231127
Si Si8 0.948595 0.815561 0.717711
O O1 0.750000 0.268948 0.267821
O O2 0.680464 0.500000 0.234354
O O3 0.630700 0.271040 0.313862
O O4 0.667453 0.243113 0.145634
O O5 0.434076 0.500000 0.628260
O O6 0.424294 0.246963 0.533920
O O7 0.487501 0.250128 0.685967
O O8 0.126448 0.500000 0.129176
O O9 0.136104 0.255131 0.028439
O O10 0.189762 0.262575 0.180273
O O11 0.073883 0.250345 0.187880
O O12 0.750000 0.500000 0.555441
O O13 0.812155 0.252591 0.521365
O O14 0.750000 0.265472 0.665641
O O15 0.401060 0.770122 0.360837
O O16 0.376143 0.000000 0.463967
O O17 0.250000 0.230652 0.974546
O O18 0.176815 0.000000 0.957132
O O19 0.250000 0.500000 0.230420
O O20 0.950826 0.000000 0.721386
#
# Coordination Sequence:
#
# PCOD9404202 Si02
#       8
#     8   8   8   4   8   8   4   8
#     4   9  20  40  63  87 115 148 191 246 299 347
#     4  11  24  41  64  88 113 154 205 250 294 350
#     4  11  20  35  59  88 120 157 199 241 289 349
#     4  11  21  37  59  88 121 154 197 247 292 346
#     4  11  24  40  59  87 122 160 198 242 299 354
#     4  10  20  34  56  89 123 155 191 235 294 358
#     4   9  18  31  53  84 117 152 191 239 290 338
#     4  11  24  41  59  84 122 162 198 243 295 353
#
# _framework density 19.513824
#
# number of rings (size 3 to 8) (size 9 to 14) (size 15 to 20)
#    0.000    1.571    2.143    2.786    1.000    5.143 
#    0.000    0.714    0.000    4.286    0.000    0.000 
#    0.000    0.000    0.000    0.000    0.000    0.000 
#
# Total GULP energy -313011.180539 kJ/mol
# GULP energy per Si atom -5589.485367 kJ/mol
# Density = 1.946941 g / cm^3
# Si number density = 19.513824 Si / 1000 Ang^3
#
#
#
# Elastic Constant Matrix: (Units=GPa)
#
#
# Indices 1 2 3 4 5 6 
#
# 1 76.2343 24.8557 18.0679 0.0000 0.0000 0.0000
# 2 24.8557 43.6290 22.9631 0.0000 0.0000 0.0000
# 3 18.0679 22.9631 65.3601 0.0000 0.0000 0.0000
# 4 0.0000 0.0000 0.0000 26.8284 0.0000 0.0000
# 5 0.0000 0.0000 0.0000 0.0000 25.7792 0.0000
# 6 0.0000 0.0000 0.0000 0.0000 0.0000 28.3604
#
#
#
# Elastic Compliance Matrix: (Units=1/GPa)
#
#
# Indices 1 2 3 4 5 6 
#
# 1 0.016232 -0.008448 -0.001519 0.000000 0.000000 0.000000
# 2 -0.008448 0.032517 -0.009089 0.000000 0.000000 0.000000
# 3 -0.001519 -0.009089 0.018913 0.000000 0.000000 0.000000
# 4 0.000000 0.000000 0.000000 0.037274 0.000000 0.000000
# 5 0.000000 0.000000 0.000000 0.000000 0.038791 0.000000
# 6 0.000000 0.000000 0.000000 0.000000 0.000000 0.035260
#
#
# Mechanical properties :
#
#
# Convention : Reuss Voigt Hill
#
# Bulk Modulus (GPa) = 33.84081 35.22188 34.53134
# Shear Modulus (GPa) = 22.03134 24.14936 23.09035
#
# Velocity S-wave (km/s) = 3.36372 3.52170 3.44362
# Velocity P-wave (km/s) = 5.69788 5.88433 5.79186
#
# Compressibility (1/GPa) = 0.02955012
#
# Stress axis : x y z
#
# Youngs Moduli (GPa) = 61.60726 30.75303 52.87355
#
# Poissons Ratio (x) = 0.25980 0.08032
# Poissons Ratio (y) = 0.52045 0.48057
# Poissons Ratio (z) = 0.09359 0.27951
#
# Static dielectric constant tensor:
#      x y z
#    x 1.686030 0.000000 0.000000 
#    y 0.000000 1.647440 0.000000 
#    z 0.000000 0.000000 1.664450 
# 
# From -- ./inp_files/25925.got.cif
#   From: 2010.05.17/outbox.cif.g08.bks.cpg/sg51_13_cif.got.tgz:25925.got - 2010.06.03 11:52:47.
