data_PCOD9404102
_publ_section_title
;
Structure prediction by ZEFSAII (Michael W. Deem and Ramdas Pophale) SiO2 
 PCOD9404102
Probable space group: P M M A
;
_chemical_formula_sum "Si O2"
_cell_formula_units_Z 52
_cell_length_a 8.647573
_cell_length_b 23.498983
_cell_length_c 14.527975
_cell_angle_alpha 90.000000
_cell_angle_beta 90.000000
_cell_angle_gamma 90.000000
_cell_volume 2952.217755
_symmetry_space_group_name_H-M "P M M A"
_symmetry_group_IT_number 51
_symmetry_cell_setting 'orthorhombic'
loop_
_space_group_symop_operation_xyz
x,y,z
1/2-x,-y,z
1/2+x,-y,-z
-x,y,-z
-x,-y,-z
1/2+x,y,-z
1/2-x,y,z
x,-y,z
loop_
_atom_site_type_symbol
_atom_site_label
_atom_site_fract_x
_atom_site_fract_y
_atom_site_fract_z
Si Si1 0.563539 0.064534 0.601397
Si Si2 0.934812 0.390769 0.709920
Si Si3 0.565193 0.779471 0.099682
Si Si4 0.564923 0.355139 0.099988
Si Si5 0.935235 0.718807 0.396805
Si Si6 0.935764 0.825954 0.714164
Si Si7 0.435127 0.500000 0.603549
O O1 0.500000 0.078410 0.500000
O O2 0.750000 0.064749 0.596811
O O3 0.517010 0.112814 0.673619
O O4 0.513342 0.000000 0.624446
O O5 0.750000 0.391691 0.704865
O O6 0.989546 0.388574 0.815693
O O7 0.998589 0.333984 0.661045
O O8 0.004199 0.444584 0.656859
O O9 0.750000 0.784978 0.101237
O O10 0.528197 0.712225 0.113272
O O11 0.491349 0.814644 0.182423
O O12 0.500000 0.795824 0.000000
O O13 0.750000 0.361259 0.101885
O O14 0.500000 0.371566 0.000000
O O15 0.750000 0.716151 0.397306
O O16 0.000000 0.716090 0.500000
O O17 0.990561 0.776767 0.348717
O O18 0.750000 0.821242 0.709663
O O19 0.250000 0.500000 0.600912
O O20 0.500000 0.500000 0.500000
#
# Coordination Sequence:
#
# PCOD9404102 Si02
#       7
#     8   8   8   8   8   8   4
#     4   9  19  35  54  78 110 150 193 235 281 336
#     4  12  24  41  63  88 117 152 193 237 285 341
#     4  10  20  34  55  82 116 150 187 231 283 342
#     4  10  20  36  59  88 119 154 189 233 286 342
#     4  12  24  38  55  81 115 150 187 234 288 340
#     4  11  21  34  55  83 114 148 187 234 287 341
#     4  12  26  46  67  88 117 154 198 240 284 342
#
# _framework density 17.613875
#
# number of rings (size 3 to 8) (size 9 to 14) (size 15 to 20)
#    0.000    1.231    1.538    5.769    0.000    3.692 
#    0.000    0.385    0.000    0.462    0.000    0.000 
#    0.000    0.000    0.000    0.000    0.000    0.000 
#
# Total GULP energy -290720.539867 kJ/mol
# GULP energy per Si atom -5590.779613 kJ/mol
# Density = 1.757379 g / cm^3
# Si number density = 17.613875 Si / 1000 Ang^3
#
#
#
# Elastic Constant Matrix: (Units=GPa)
#
#
# Indices 1 2 3 4 5 6 
#
# 1 113.1235 52.2379 69.3203 0.0000 0.0000 0.0000
# 2 52.2379 105.2336 83.1825 0.0000 0.0000 0.0000
# 3 69.3203 83.1825 176.7628 0.0000 0.0000 0.0000
# 4 0.0000 0.0000 0.0000 26.9134 0.0000 0.0000
# 5 0.0000 0.0000 0.0000 0.0000 36.5456 0.0000
# 6 0.0000 0.0000 0.0000 0.0000 0.0000 2.1614
#
#
#
# Elastic Compliance Matrix: (Units=1/GPa)
#
#
# Indices 1 2 3 4 5 6 
#
# 1 0.012482 -0.003705 -0.003151 0.000000 0.000000 0.000000
# 2 -0.003705 0.016231 -0.006185 0.000000 0.000000 0.000000
# 3 -0.003151 -0.006185 0.009804 0.000000 0.000000 0.000000
# 4 0.000000 0.000000 0.000000 0.037156 0.000000 0.000000
# 5 0.000000 0.000000 0.000000 0.000000 0.027363 0.000000
# 6 0.000000 0.000000 0.000000 0.000000 0.000000 0.462664
#
#
# Mechanical properties :
#
#
# Convention : Reuss Voigt Hill
#
# Bulk Modulus (GPa) = 80.42729 89.40015 84.91372
# Shear Modulus (GPa) = 8.39028 25.81603 17.10316
#
# Velocity S-wave (km/s) = 2.18490 3.83255 3.11948
# Velocity P-wave (km/s) = 7.21980 8.39347 7.82866
#
# Compressibility (1/GPa) = 0.01243359
#
# Stress axis : x y z
#
# Youngs Moduli (GPa) = 80.11583 61.61116 102.00077
#
# Poissons Ratio (x) = 0.22826 0.32146
# Poissons Ratio (y) = 0.29682 0.63089
# Poissons Ratio (z) = 0.25249 0.38107
#
# Static dielectric constant tensor:
#      x y z
#    x 1.586750 0.000000 0.000000 
#    y 0.000000 1.587780 0.000000 
#    z 0.000000 0.000000 1.584860 
# 
# From -- ./inp_files/21500.got.cif
#   From: 2010.05.17/outbox.cif.g08.bks.cpg/sg51_11_cif.got.tgz:21500.got - 2010.06.03 11:52:47.
