data_PCOD9404356
_publ_section_title
;
Structure prediction by ZEFSAII (Michael W. Deem and Ramdas Pophale) SiO2 
 PCOD9404356
Probable space group: P M M A
;
_chemical_formula_sum "Si O2"
_cell_formula_units_Z 32
_cell_length_a 16.493131
_cell_length_b 9.519010
_cell_length_c 11.499669
_cell_angle_alpha 90.000000
_cell_angle_beta 90.000000
_cell_angle_gamma 90.000000
_cell_volume 1805.428241
_symmetry_space_group_name_H-M "P M M A"
_symmetry_group_IT_number 51
_symmetry_cell_setting 'orthorhombic'
loop_
_space_group_symop_operation_xyz
x,y,z
1/2-x,-y,z
1/2+x,-y,-z
-x,y,-z
-x,-y,-z
1/2+x,y,-z
1/2-x,y,z
x,-y,z
loop_
_atom_site_type_symbol
_atom_site_label
_atom_site_fract_x
_atom_site_fract_y
_atom_site_fract_z
Si Si1 0.423679 0.169792 0.083836
Si Si2 0.939924 0.337710 0.678881
Si Si3 0.250000 0.167719 0.706672
Si Si4 0.250000 0.829731 0.975354
Si Si5 0.380527 0.662367 0.569320
O O1 0.433228 0.239434 0.209890
O O2 0.424493 0.000000 0.093134
O O3 0.500000 0.208284 0.000000
O O4 0.335466 0.213602 0.033151
O O5 0.923136 0.500000 0.711408
O O6 0.884506 0.300856 0.567474
O O7 0.030162 0.333105 0.625211
O O8 0.250000 0.213325 0.840877
O O9 0.173806 0.232055 0.640720
O O10 0.250000 0.000000 0.702953
O O11 0.250000 0.000000 0.978610
O O12 0.352686 0.500000 0.578387
#
# Coordination Sequence:
#
# PCOD9404356 Si02
#       5
#     8   8   4   4   8
#     4  10  20  35  55  77 107 145 178 219 272 315
#     4   9  19  36  56  77 103 138 178 216 261 320
#     4  11  21  34  55  80 104 135 178 219 258 315
#     4   9  20  36  51  74 108 141 176 217 266 325
#     4   9  19  36  55  76 106 139 169 214 272 317
#
# _framework density 17.724326000000001
#
# number of rings (size 3 to 8) (size 9 to 14) (size 15 to 20)
#    0.000    2.500    0.000    3.375    0.000    5.500 
#    0.000    8.125    0.000    0.000    0.000    0.000 
#    0.000    0.000    0.000    0.000    0.000    0.000 
#
# Total GULP energy -178392.377197 kJ/mol
# GULP energy per Si atom -5574.761787 kJ/mol
# Density = 1.768398 g / cm^3
# Si number density = 17.724326 Si / 1000 Ang^3
#
#
#
# Elastic Constant Matrix: (Units=GPa)
#
#
# Indices 1 2 3 4 5 6 
#
# 1 93.8892 32.4032 65.8983 0.0000 0.0000 0.0000
# 2 32.4032 46.9581 67.9890 0.0000 0.0000 0.0000
# 3 65.8983 67.9890 168.8187 0.0000 0.0000 0.0000
# 4 0.0000 0.0000 0.0000 35.7869 0.0000 0.0000
# 5 0.0000 0.0000 0.0000 0.0000 25.1306 0.0000
# 6 0.0000 0.0000 0.0000 0.0000 0.0000 11.8798
#
#
#
# Elastic Compliance Matrix: (Units=1/GPa)
#
#
# Indices 1 2 3 4 5 6 
#
# 1 0.015058 -0.004510 -0.004061 0.000000 0.000000 0.000000
# 2 -0.004510 0.052432 -0.019356 0.000000 0.000000 0.000000
# 3 -0.004061 -0.019356 0.015304 0.000000 0.000000 0.000000
# 4 0.000000 0.000000 0.000000 0.027943 0.000000 0.000000
# 5 0.000000 0.000000 0.000000 0.000000 0.039792 0.000000
# 6 0.000000 0.000000 0.000000 0.000000 0.000000 0.084176
#
#
# Mechanical properties :
#
#
# Convention : Reuss Voigt Hill
#
# Bulk Modulus (GPa) = 37.12008 71.36079 54.24044
# Shear Modulus (GPa) = 16.69221 24.11783 20.40502
#
# Velocity S-wave (km/s) = 3.07215 3.69279 3.39668
# Velocity P-wave (km/s) = 5.79419 7.65057 6.78616
#
# Compressibility (1/GPa) = 0.02693959
#
# Stress axis : x y z
#
# Youngs Moduli (GPa) = 66.40945 19.07221 65.34212
#
# Poissons Ratio (x) = 0.08602 0.26538
# Poissons Ratio (y) = 0.29953 1.26474
# Poissons Ratio (z) = 0.26972 0.36915
#
# Static dielectric constant tensor:
#      x y z
#    x 1.673910 0.000000 0.000000 
#    y 0.000000 1.577500 0.000000 
#    z 0.000000 0.000000 1.577570 
# 
# From -- ./inp_files/9204.got.cif
#   From: 2010.05.17/outbox.cif.g08.bks.cpg/sg51_5_cif.got.tgz:9204.got - 2010.06.03 11:52:47.
