data_PCOD9404247
_publ_section_title
;
Structure prediction by ZEFSAII (Michael W. Deem and Ramdas Pophale) SiO2 
 PCOD9404247
Probable space group: P M M A
;
_chemical_formula_sum "Si O2"
_cell_formula_units_Z 64
_cell_length_a 13.542995
_cell_length_b 22.794918
_cell_length_c 10.074473
_cell_angle_alpha 90.000000
_cell_angle_beta 90.000000
_cell_angle_gamma 90.000000
_cell_volume 3110.105274
_symmetry_space_group_name_H-M "P M M A"
_symmetry_group_IT_number 51
_symmetry_cell_setting 'orthorhombic'
loop_
_space_group_symop_operation_xyz
x,y,z
1/2-x,-y,z
1/2+x,-y,-z
-x,y,-z
-x,-y,-z
1/2+x,y,-z
1/2-x,y,z
x,-y,z
loop_
_atom_site_type_symbol
_atom_site_label
_atom_site_fract_x
_atom_site_fract_y
_atom_site_fract_z
Si Si1 0.370671 0.933702 0.183416
Si Si2 0.355997 0.569851 0.085349
Si Si3 0.369109 0.147046 0.417167
Si Si4 0.036701 0.321113 0.650069
Si Si5 0.868235 0.803893 0.307694
Si Si6 0.133325 0.743600 0.217991
Si Si7 0.368985 0.830432 0.986176
Si Si8 0.570833 0.430718 0.201861
O O1 0.250000 0.934297 0.184161
O O2 0.402771 0.906723 0.325115
O O3 0.399094 0.888082 0.068048
O O4 0.405201 0.000000 0.163173
O O5 0.250000 0.592956 0.133489
O O6 0.347303 0.500000 0.070649
O O7 0.377603 0.589751 0.934935
O O8 0.453725 0.574411 0.172589
O O9 0.250000 0.140318 0.427651
O O10 0.405180 0.158393 0.566633
O O11 0.383638 0.205752 0.329080
O O12 0.103779 0.263690 0.669340
O O13 0.000000 0.323814 0.500000
O O14 0.941646 0.307316 0.743485
O O15 0.090126 0.381722 0.688273
O O16 0.750000 0.808380 0.305933
O O17 0.905519 0.824705 0.163983
O O18 0.250000 0.729161 0.221228
O O19 0.109839 0.773437 0.076512
O O20 0.250000 0.832930 0.980338
O O21 0.593285 0.500000 0.228590
#
# Coordination Sequence:
#
# PCOD9404247 Si02
#       8
#     8   8   8   8   8   8   8   8
#     4   8  13  24  46  77 109 144 185 217 254 322
#     4   8  15  33  59  79 100 136 172 205 258 321
#     4   8  14  28  49  69 100 140 174 218 265 307
#     4  12  24  35  54  78 100 141 190 219 269 333
#     4  10  20  35  52  76 109 139 178 231 278 318
#     4   9  18  35  54  75 103 135 178 225 268 321
#     4   8  16  30  50  76 108 142 171 221 284 315
#     4   9  20  36  53  80 112 135 170 224 270 325
#
# _framework density 20.578081999999998
#
# number of rings (size 3 to 8) (size 9 to 14) (size 15 to 20)
#    0.000    3.000    1.250    2.250    0.000    3.750 
#    0.000    1.875    0.000    3.750    0.000   19.250 
#    0.000    0.000    0.000    0.000    0.000    0.125 
#
# Total GULP energy -356897.805519 kJ/mol
# GULP energy per Si atom -5576.528211 kJ/mol
# Density = 2.053125 g / cm^3
# Si number density = 20.578082 Si / 1000 Ang^3
#
#
#
# Elastic Constant Matrix: (Units=GPa)
#
#
# Indices 1 2 3 4 5 6 
#
# 1 49.1890 -14.7615 -9.9608 0.0000 0.0000 0.0000
# 2 -14.7615 108.4285 56.9180 0.0000 0.0000 0.0000
# 3 -9.9608 56.9180 141.9738 0.0000 0.0000 0.0000
# 4 0.0000 0.0000 0.0000 19.9227 0.0000 0.0000
# 5 0.0000 0.0000 0.0000 0.0000 9.6237 0.0000
# 6 0.0000 0.0000 0.0000 0.0000 0.0000 16.2296
#
#
#
# Elastic Compliance Matrix: (Units=1/GPa)
#
#
# Indices 1 2 3 4 5 6 
#
# 1 0.021215 0.002669 0.000419 0.000000 0.000000 0.000000
# 2 0.002669 0.012017 -0.004630 0.000000 0.000000 0.000000
# 3 0.000419 -0.004630 0.008929 0.000000 0.000000 0.000000
# 4 0.000000 0.000000 0.000000 0.050194 0.000000 0.000000
# 5 0.000000 0.000000 0.000000 0.000000 0.103910 0.000000
# 6 0.000000 0.000000 0.000000 0.000000 0.000000 0.061616
#
#
# Mechanical properties :
#
#
# Convention : Reuss Voigt Hill
#
# Bulk Modulus (GPa) = 25.59191 40.44253 33.01722
# Shear Modulus (GPa) = 18.24867 26.98157 22.61512
#
# Velocity S-wave (km/s) = 2.98115 3.62495 3.31870
# Velocity P-wave (km/s) = 4.93084 6.10051 5.54659
#
# Compressibility (1/GPa) = 0.03907484
#
# Stress axis : x y z
#
# Youngs Moduli (GPa) = 47.13572 83.21855 111.99178
#
# Poissons Ratio (x) = -0.22207 -0.04688
# Poissons Ratio (y) = -0.12578 0.51855
# Poissons Ratio (z) = -0.01973 0.38532
#
# Static dielectric constant tensor:
#      x y z
#    x 1.841690 0.000000 0.000000 
#    y 0.000000 1.714420 0.000000 
#    z 0.000000 0.000000 1.734440 
# 
# From -- ./inp_files/8761.got.cif
#   From: 2010.05.17/outbox.cif.g08.bks.cpg/sg51_5_cif.got.tgz:8761.got - 2010.06.03 11:52:47.
