data_PCOD9404371
_publ_section_title
;
Structure prediction by ZEFSAII (Michael W. Deem and Ramdas Pophale) SiO2 
 PCOD9404371
Probable space group: P M M A
;
_chemical_formula_sum "Si O2"
_cell_formula_units_Z 48
_cell_length_a 8.396244
_cell_length_b 32.315607
_cell_length_c 9.739328
_cell_angle_alpha 90.000000
_cell_angle_beta 90.000000
_cell_angle_gamma 90.000000
_cell_volume 2642.569153
_symmetry_space_group_name_H-M "P M M A"
_symmetry_group_IT_number 51
_symmetry_cell_setting 'orthorhombic'
loop_
_space_group_symop_operation_xyz
x,y,z
1/2-x,-y,z
1/2+x,-y,-z
-x,y,-z
-x,-y,-z
1/2+x,y,-z
1/2-x,y,z
x,-y,z
loop_
_atom_site_type_symbol
_atom_site_label
_atom_site_fract_x
_atom_site_fract_y
_atom_site_fract_z
Si Si1 0.440452 0.454051 0.844653
Si Si2 0.942383 0.044385 0.657837
Si Si3 0.440295 0.619121 0.346435
Si Si4 0.442773 0.864826 0.342757
Si Si5 0.557533 0.287414 0.654514
Si Si6 0.557238 0.211873 0.843960
O O1 0.250000 0.453576 0.844218
O O2 0.493739 0.500000 0.796450
O O3 0.500963 0.416593 0.753166
O O4 0.500000 0.449195 0.000000
O O5 0.750000 0.044312 0.660144
O O6 0.994652 0.089494 0.710277
O O7 0.000000 0.044099 0.500000
O O8 0.996086 0.000000 0.719204
O O9 0.500000 0.610903 0.500000
O O10 0.250000 0.619346 0.345845
O O11 0.495319 0.665820 0.309533
O O12 0.500000 0.859351 0.500000
O O13 0.250000 0.864197 0.345972
O O14 0.496861 0.828017 0.243820
O O15 0.500000 0.278051 0.500000
O O16 0.750000 0.286944 0.652639
O O17 0.503378 0.252976 0.762501
O O18 0.750000 0.211766 0.844315
O O19 0.500000 0.210936 0.000000
#
# Coordination Sequence:
#
# PCOD9404371 Si02
#       6
#     8   8   8   8   8   8
#     4  10  21  37  56  78 105 138 174 210 249 293
#     4   8  13  22  38  62  90 117 147 187 234 280
#     4  10  20  35  55  79 106 134 166 205 249 296
#     4   9  17  29  47  70  94 122 157 196 238 286
#     4   9  19  35  54  76 100 127 161 201 244 292
#     4  10  21  35  49  69  97 127 162 200 239 286
#
# _framework density 18.164141999999998
#
# number of rings (size 3 to 8) (size 9 to 14) (size 15 to 20)
#    0.000    2.667    0.000    1.500    0.000    4.000 
#    0.000    1.667    0.000    0.500    0.000    0.000 
#    0.000    0.000    0.000    0.000    0.000    0.000 
#
# Total GULP energy -267482.683456 kJ/mol
# GULP energy per Si atom -5572.555905 kJ/mol
# Density = 1.812280 g / cm^3
# Si number density = 18.164142 Si / 1000 Ang^3
#
#
#
# Elastic Constant Matrix: (Units=GPa)
#
#
# Indices 1 2 3 4 5 6 
#
# 1 14.2225 28.7655 14.7009 0.0000 0.0000 0.0000
# 2 28.7655 209.2725 117.1476 0.0000 0.0000 0.0000
# 3 14.7009 117.1476 98.4315 0.0000 0.0000 0.0000
# 4 0.0000 0.0000 0.0000 -10.0996 0.0000 0.0000
# 5 0.0000 0.0000 0.0000 0.0000 30.0573 0.0000
# 6 0.0000 0.0000 0.0000 0.0000 0.0000 40.4946
#
#
#
# Elastic Compliance Matrix: (Units=1/GPa)
#
#
# Indices 1 2 3 4 5 6 
#
# 1 0.097955 -0.015804 0.004179 0.000000 0.000000 0.000000
# 2 -0.015804 0.016866 -0.017713 0.000000 0.000000 0.000000
# 3 0.004179 -0.017713 0.030616 0.000000 0.000000 0.000000
# 4 0.000000 0.000000 0.000000 -0.099014 0.000000 0.000000
# 5 0.000000 0.000000 0.000000 0.000000 0.033270 0.000000
# 6 0.000000 0.000000 0.000000 0.000000 0.000000 0.024695
#
#
# Mechanical properties :
#
#
# Convention : Reuss Voigt Hill
#
# Bulk Modulus (GPa) = 11.52577 71.46159 41.49368
# Shear Modulus (GPa) = 26.04395 22.84464 24.44430
#
# Velocity S-wave (km/s) = 3.79068 3.55022 3.67242
# Velocity P-wave (km/s) = 5.05154 7.49887 6.39340
#
# Compressibility (1/GPa) = 0.08676213
#
# Stress axis : x y z
#
# Youngs Moduli (GPa) = 10.20875 59.29071 32.66280
#
# Poissons Ratio (x) = 0.93701 -0.13649
# Poissons Ratio (y) = 0.16134 0.57855
# Poissons Ratio (z) = -0.04266 1.05020
#
# Static dielectric constant tensor:
#      x y z
#    x 1.630090 0.000000 0.000000 
#    y 0.000000 1.684170 0.000000 
#    z 0.000000 0.000000 1.568290 
# 
# From -- ./inp_files/6009.got.cif
#   From: 2010.05.17/outbox.cif.g08.bks.cpg/sg51_4_cif.got.tgz:6009.got - 2010.06.03 11:52:47.
