data_PCOD9404351
_publ_section_title
;
Structure prediction by ZEFSAII (Michael W. Deem and Ramdas Pophale) SiO2 
 PCOD9404351
Probable space group: P M M A
;
_chemical_formula_sum "Si O2"
_cell_formula_units_Z 64
_cell_length_a 9.071302
_cell_length_b 15.231654
_cell_length_c 24.088668
_cell_angle_alpha 90.000000
_cell_angle_beta 90.000000
_cell_angle_gamma 90.000000
_cell_volume 3328.353742
_symmetry_space_group_name_H-M "P M M A"
_symmetry_group_IT_number 51
_symmetry_cell_setting 'orthorhombic'
loop_
_space_group_symop_operation_xyz
x,y,z
1/2-x,-y,z
1/2+x,-y,-z
-x,y,-z
-x,-y,-z
1/2+x,y,-z
1/2-x,y,z
x,-y,z
loop_
_atom_site_type_symbol
_atom_site_label
_atom_site_fract_x
_atom_site_fract_y
_atom_site_fract_z
Si Si1 0.922207 0.101238 0.053542
Si Si2 0.416273 0.605402 0.944355
Si Si3 0.572643 0.102329 0.560543
Si Si4 0.572429 0.599871 0.702984
Si Si5 0.088581 0.160261 0.154563
Si Si6 0.925120 0.769758 0.349317
Si Si7 0.579711 0.901558 0.726409
Si Si8 0.081932 0.637159 0.172009
O O1 0.750000 0.100598 0.044668
O O2 0.966009 0.150362 0.108814
O O3 0.974117 0.000000 0.060200
O O4 0.000000 0.140072 0.000000
O O5 0.250000 0.641467 0.943091
O O6 0.407445 0.500000 0.950269
O O7 0.494942 0.619874 0.884997
O O8 0.500000 0.637668 0.000000
O O9 0.500000 0.112437 0.500000
O O10 0.750000 0.112320 0.558526
O O11 0.502764 0.175910 0.600732
O O12 0.543015 0.000000 0.577577
O O13 0.750000 0.615573 0.702789
O O14 0.545718 0.500000 0.683375
O O15 0.494187 0.675055 0.666572
O O16 0.525230 0.604171 0.768267
O O17 0.250000 0.143029 0.128777
O O18 0.069605 0.098996 0.207316
O O19 0.088617 0.258175 0.177785
O O20 0.750000 0.763115 0.357946
O O21 0.965821 0.832727 0.297708
O O22 0.750000 0.876416 0.712166
O O23 0.554978 0.000000 0.705750
O O24 0.250000 0.604281 0.164784
#
# Coordination Sequence:
#
# PCOD9404351 Si02
#       8
#     8   8   8   8   8   8   8   8
#     4  10  21  36  53  72  96 130 176 227 280 343
#     4  10  21  36  54  76 102 133 173 224 286 358
#     4  10  21  39  65  97 135 177 219 260 302 352
#     4  10  21  40  65  88 115 157 208 259 310 366
#     4  10  20  35  55  77 104 137 178 229 284 345
#     4  12  24  37  58  90 130 168 206 253 300 354
#     4  10  20  36  58  82 113 155 199 243 292 348
#     4  10  20  36  58  81 107 140 183 236 295 360
#
# _framework density 19.228725000000001
#
# number of rings (size 3 to 8) (size 9 to 14) (size 15 to 20)
#    0.000    1.750    1.250    3.375    0.000    7.250 
#    0.000    0.000    0.000    0.375    0.000    0.000 
#    0.000    0.000    0.000    0.000    0.000    0.000 
#
# Total GULP energy -357169.050668 kJ/mol
# GULP energy per Si atom -5580.766417 kJ/mol
# Density = 1.918496 g / cm^3
# Si number density = 19.228725 Si / 1000 Ang^3
#
#
#
# Elastic Constant Matrix: (Units=GPa)
#
#
# Indices 1 2 3 4 5 6 
#
# 1 100.6070 49.4642 57.9005 0.0000 0.0000 0.0000
# 2 49.4642 114.8738 48.9395 0.0000 0.0000 0.0000
# 3 57.9005 48.9395 105.5704 0.0000 0.0000 0.0000
# 4 0.0000 0.0000 0.0000 20.6549 0.0000 0.0000
# 5 0.0000 0.0000 0.0000 0.0000 31.0784 0.0000
# 6 0.0000 0.0000 0.0000 0.0000 0.0000 22.0985
#
#
#
# Elastic Compliance Matrix: (Units=1/GPa)
#
#
# Indices 1 2 3 4 5 6 
#
# 1 0.015798 -0.003877 -0.006867 0.000000 0.000000 0.000000
# 2 -0.003877 0.011799 -0.003343 0.000000 0.000000 0.000000
# 3 -0.006867 -0.003343 0.014789 0.000000 0.000000 0.000000
# 4 0.000000 0.000000 0.000000 0.048415 0.000000 0.000000
# 5 0.000000 0.000000 0.000000 0.000000 0.032177 0.000000
# 6 0.000000 0.000000 0.000000 0.000000 0.000000 0.045252
#
#
# Mechanical properties :
#
#
# Convention : Reuss Voigt Hill
#
# Bulk Modulus (GPa) = 70.37041 70.40663 70.38852
# Shear Modulus (GPa) = 24.85824 25.74949 25.30387
#
# Velocity S-wave (km/s) = 3.59941 3.66336 3.63153
# Velocity P-wave (km/s) = 7.34508 7.38840 7.36677
#
# Compressibility (1/GPa) = 0.01421052
#
# Stress axis : x y z
#
# Youngs Moduli (GPa) = 63.29940 84.75326 67.61963
#
# Poissons Ratio (x) = 0.32858 0.46436
# Poissons Ratio (y) = 0.24541 0.22608
# Poissons Ratio (z) = 0.43469 0.28336
#
# Static dielectric constant tensor:
#      x y z
#    x 1.674530 0.000000 0.000000 
#    y 0.000000 1.710430 0.000000 
#    z 0.000000 0.000000 1.672000 
# 
# From -- ./inp_files/34965.got.cif
#   From: 2010.05.17/outbox.cif.g08.bks.cpg/sg51_18_cif.got.tgz:34965.got - 2010.06.03 11:52:47.
