data_PCOD9404793
_publ_section_title
;
Structure prediction by ZEFSAII (Michael W. Deem and Ramdas Pophale) SiO2 
 PCOD9404793
Probable space group: P M M A
;
_chemical_formula_sum "Si O2"
_cell_formula_units_Z 64
_cell_length_a 14.690156
_cell_length_b 7.603640
_cell_length_c 26.930749
_cell_angle_alpha 90.000000
_cell_angle_beta 90.000000
_cell_angle_gamma 90.000000
_cell_volume 3008.128516
_symmetry_space_group_name_H-M "P M M A"
_symmetry_group_IT_number 51
_symmetry_cell_setting 'orthorhombic'
loop_
_space_group_symop_operation_xyz
x,y,z
1/2-x,-y,z
1/2+x,-y,-z
-x,y,-z
-x,-y,-z
1/2+x,y,-z
1/2-x,y,z
x,-y,z
loop_
_atom_site_type_symbol
_atom_site_label
_atom_site_fract_x
_atom_site_fract_y
_atom_site_fract_z
Si Si1 0.646927 0.211216 0.861453
Si Si2 0.149878 0.288121 0.873069
Si Si3 0.966173 0.789622 0.574042
Si Si4 0.146095 0.215048 0.522407
Si Si5 0.350930 0.708683 0.330615
Si Si6 0.456745 0.206532 0.234747
Si Si7 0.510064 0.288790 0.944031
Si Si8 0.348921 0.202726 0.758203
O O1 0.750000 0.277597 0.856973
O O2 0.582454 0.280747 0.816883
O O3 0.602575 0.249899 0.914640
O O4 0.650044 0.000000 0.855782
O O5 0.250000 0.253289 0.894493
O O6 0.141254 0.500000 0.866794
O O7 0.147051 0.207779 0.818278
O O8 0.070754 0.222604 0.908570
O O9 0.896926 0.729303 0.530615
O O10 0.924069 0.748644 0.627028
O O11 0.068887 0.728229 0.562012
O O12 0.969445 0.000000 0.569476
O O13 0.250000 0.275360 0.529388
O O14 0.149002 0.000000 0.522830
O O15 0.250000 0.775170 0.344379
O O16 0.346413 0.500000 0.325737
O O17 0.382556 0.779871 0.277659
O O18 0.552790 0.283083 0.254545
O O19 0.475024 0.000000 0.225853
O O20 0.500695 0.500000 0.946281
O O21 0.500000 0.221556 0.000000
O O22 0.250000 0.281591 0.744346
O O23 0.346839 0.000000 0.740705
#
# Coordination Sequence:
#
# PCOD9404793 Si02
#       8
#     8   8   8   8   8   8   8   8
#     4  10  21  37  56  79 106 135 171 216 264 313
#     4   9  17  30  49  72  98 128 162 201 245 295
#     4   9  17  31  54  81 108 143 184 224 268 315
#     4   8  14  27  51  83 113 141 180 227 269 313
#     4  11  24  38  52  75 107 141 179 224 270 315
#     4  10  20  36  58  80 104 136 174 216 261 313
#     4  10  21  35  52  76 105 138 173 208 250 306
#     4   9  17  31  54  81 102 122 156 203 253 303
#
# _framework density 21.275687000000001
#
# number of rings (size 3 to 8) (size 9 to 14) (size 15 to 20)
#    0.000    2.500    1.250    1.875    0.000    4.000 
#    0.000    3.125    0.000    6.375    0.000    0.000 
#    0.000    0.000    0.000    0.000    0.000    0.000 
#
# Total GULP energy -356969.696673 kJ/mol
# GULP energy per Si atom -5577.651511 kJ/mol
# Density = 2.122726 g / cm^3
# Si number density = 21.275687 Si / 1000 Ang^3
#
#
#
# Elastic Constant Matrix: (Units=GPa)
#
#
# Indices 1 2 3 4 5 6 
#
# 1 152.8649 7.6407 32.9207 0.0000 0.0000 0.0000
# 2 7.6407 44.8044 -6.1331 0.0000 0.0000 0.0000
# 3 32.9207 -6.1331 73.6439 0.0000 0.0000 0.0000
# 4 0.0000 0.0000 0.0000-1431.1613 0.0000 0.0000
# 5 0.0000 0.0000 0.0000 0.0000 34.5030 0.0000
# 6 0.0000 0.0000 0.0000 0.0000 0.0000 7.6959
#
#
#
# Elastic Compliance Matrix: (Units=1/GPa)
#
#
# Indices 1 2 3 4 5 6 
#
# 1 0.007368 -0.001727 -0.003438 0.000000 0.000000 0.000000
# 2 -0.001727 0.022981 0.002686 0.000000 0.000000 0.000000
# 3 -0.003438 0.002686 0.015339 0.000000 0.000000 0.000000
# 4 0.000000 0.000000 0.000000 -0.000699 0.000000 0.000000
# 5 0.000000 0.000000 0.000000 0.000000 0.028983 0.000000
# 6 0.000000 0.000000 0.000000 0.000000 0.000000 0.129939
#
#
# Mechanical properties :
#
#
# Convention : Reuss Voigt Hill
#
# Bulk Modulus (GPa) = 24.55110 37.79666 31.17388
# Shear Modulus (GPa) = 22.47723 -262.00016 -119.76146
#
# Velocity S-wave (km/s) = 3.25387 -11.10913 -7.51083
# Velocity P-wave (km/s) = 5.06769 12.11390 7.78026
#
# Compressibility (1/GPa) = 0.04073137
#
# Stress axis : x y z
#
# Youngs Moduli (GPa) = 135.71489 43.51339 65.19213
#
# Poissons Ratio (x) = 0.07515 0.22411
# Poissons Ratio (y) = 0.23440 -0.17510
# Poissons Ratio (z) = 0.46655 -0.11688
#
# Static dielectric constant tensor:
#      x y z
#    x 1.830940 0.000000 0.000000 
#    y 0.000000 1.799410 0.000000 
#    z 0.000000 0.000000 1.726720 
# 
# From -- ./inp_files/35739.got.cif
#   From: 2010.05.17/outbox.cif.g08.bks.cpg/sg51_18_cif.got.tgz:35739.got - 2010.06.03 11:52:47.
