data_PCOD9404290
_publ_section_title
;
Structure prediction by ZEFSAII (Michael W. Deem and Ramdas Pophale) SiO2 
 PCOD9404290
Probable space group: P M M A
;
_chemical_formula_sum "Si O2"
_cell_formula_units_Z 52
_cell_length_a 9.294782
_cell_length_b 19.929312
_cell_length_c 15.272268
_cell_angle_alpha 90.000000
_cell_angle_beta 90.000000
_cell_angle_gamma 90.000000
_cell_volume 2829.013703
_symmetry_space_group_name_H-M "P M M A"
_symmetry_group_IT_number 51
_symmetry_cell_setting 'orthorhombic'
loop_
_space_group_symop_operation_xyz
x,y,z
1/2-x,-y,z
1/2+x,-y,-z
-x,y,-z
-x,-y,-z
1/2+x,y,-z
1/2-x,y,z
x,-y,z
loop_
_atom_site_type_symbol
_atom_site_label
_atom_site_fract_x
_atom_site_fract_y
_atom_site_fract_z
Si Si1 0.582623 0.000000 0.588829
Si Si2 0.922817 0.313301 0.762012
Si Si3 0.921833 0.421749 0.909451
Si Si4 0.413420 0.781774 0.082814
Si Si5 0.915101 0.921966 0.845523
Si Si6 0.079167 0.736521 0.594569
Si Si7 0.083642 0.115899 0.680037
O O1 0.500000 0.000000 0.500000
O O2 0.528279 0.065733 0.636652
O O3 0.750000 0.000000 0.577198
O O4 0.750000 0.312082 0.745543
O O5 0.958011 0.375846 0.825637
O O6 0.960557 0.249318 0.824157
O O7 0.005871 0.309259 0.670017
O O8 0.750000 0.416080 0.922424
O O9 0.956246 0.500000 0.892453
O O10 0.000000 0.402516 0.000000
O O11 0.250000 0.758610 0.072986
O O12 0.414101 0.862641 0.083936
O O13 0.500000 0.757045 0.000000
O O14 0.750000 0.919817 0.807692
O O15 0.038090 0.895818 0.780174
O O16 0.939368 0.000000 0.870311
O O17 0.250000 0.722743 0.584608
O O18 0.065626 0.811378 0.636338
O O19 0.000000 0.732967 0.500000
O O20 0.250000 0.095952 0.667022
#
# Coordination Sequence:
#
# PCOD9404290 Si02
#       7
#     4   8   8   8   8   8   8
#     4  12  24  36  52  74 101 134 173 224 282 344
#     4  10  20  36  58  83 115 152 188 231 280 330
#     4   9  18  33  56  89 126 161 194 229 274 328
#     4  10  21  35  53  78 107 142 186 231 279 332
#     4  10  20  35  54  74 100 140 183 227 282 337
#     4  11  24  39  58  83 111 144 185 233 283 337
#     4  11  22  36  54  78 103 133 177 227 283 341
#
# _framework density 18.380963999999999
#
# number of rings (size 3 to 8) (size 9 to 14) (size 15 to 20)
#    0.000    1.692    2.308    2.538    0.000    5.231 
#    0.000    0.000    0.000    0.462    0.000    0.000 
#    0.000    0.000    0.000    0.000    0.000    0.000 
#
# Total GULP energy -289761.540956 kJ/mol
# GULP energy per Si atom -5572.337326 kJ/mol
# Density = 1.833913 g / cm^3
# Si number density = 18.380964 Si / 1000 Ang^3
#
#
#
# Elastic Constant Matrix: (Units=GPa)
#
#
# Indices 1 2 3 4 5 6 
#
# 1 102.3724 37.4720 66.4406 0.0000 0.0000 0.0000
# 2 37.4720 103.2605 36.8870 0.0000 0.0000 0.0000
# 3 66.4406 36.8870 102.0150 0.0000 0.0000 0.0000
# 4 0.0000 0.0000 0.0000 26.4493 0.0000 0.0000
# 5 0.0000 0.0000 0.0000 0.0000 36.8094 0.0000
# 6 0.0000 0.0000 0.0000 0.0000 0.0000 26.8377
#
#
#
# Elastic Compliance Matrix: (Units=1/GPa)
#
#
# Indices 1 2 3 4 5 6 
#
# 1 0.017516 -0.002620 -0.010461 0.000000 0.000000 0.000000
# 2 -0.002620 0.011512 -0.002457 0.000000 0.000000 0.000000
# 3 -0.010461 -0.002457 0.017504 0.000000 0.000000 0.000000
# 4 0.000000 0.000000 0.000000 0.037808 0.000000 0.000000
# 5 0.000000 0.000000 0.000000 0.000000 0.027167 0.000000
# 6 0.000000 0.000000 0.000000 0.000000 0.000000 0.037261
#
#
# Mechanical properties :
#
#
# Convention : Reuss Voigt Hill
#
# Bulk Modulus (GPa) = 64.69006 65.47188 65.08097
# Shear Modulus (GPa) = 27.02767 29.14250 28.08508
#
# Velocity S-wave (km/s) = 3.83876 3.98612 3.91313
# Velocity P-wave (km/s) = 7.41071 7.54203 7.47666
#
# Compressibility (1/GPa) = 0.01545832
#
# Stress axis : x y z
#
# Youngs Moduli (GPa) = 57.08962 86.86267 57.13065
#
# Poissons Ratio (x) = 0.22755 0.59764
# Poissons Ratio (y) = 0.14955 0.14035
# Poissons Ratio (z) = 0.59721 0.21339
#
# Static dielectric constant tensor:
#      x y z
#    x 1.628580 0.000000 0.000000 
#    y 0.000000 1.646790 0.000000 
#    z 0.000000 0.000000 1.611140 
# 
# From -- ./inp_files/21590.got.cif
#   From: 2010.05.17/outbox.cif.g08.bks.cpg/sg51_11_cif.got.tgz:21590.got - 2010.06.03 11:52:47.
