data_PCOD9404923
_publ_section_title
;
Structure prediction by ZEFSAII (Michael W. Deem and Ramdas Pophale) SiO2 
 PCOD9404923
Probable space group: P M M A
;
_chemical_formula_sum "Si O2"
_cell_formula_units_Z 40
_cell_length_a 16.024792
_cell_length_b 13.388500
_cell_length_c 10.267182
_cell_angle_alpha 90.000000
_cell_angle_beta 90.000000
_cell_angle_gamma 90.000000
_cell_volume 2202.802621
_symmetry_space_group_name_H-M "P M M A"
_symmetry_group_IT_number 51
_symmetry_cell_setting 'orthorhombic'
loop_
_space_group_symop_operation_xyz
x,y,z
1/2-x,-y,z
1/2+x,-y,-z
-x,y,-z
-x,-y,-z
1/2+x,y,-z
1/2-x,y,z
x,-y,z
loop_
_atom_site_type_symbol
_atom_site_label
_atom_site_fract_x
_atom_site_fract_y
_atom_site_fract_z
Si Si1 0.150930 0.385721 0.199345
Si Si2 0.566133 0.802701 0.381249
Si Si3 0.050939 0.193348 0.131418
Si Si4 0.850769 0.000000 0.770192
Si Si5 0.151352 0.000000 0.535502
Si Si6 0.601249 0.391023 0.498670
O O1 0.250000 0.377073 0.179483
O O2 0.125380 0.500000 0.165301
O O3 0.102748 0.296821 0.127759
O O4 0.132153 0.373814 0.354119
O O5 0.500000 0.808862 0.500000
O O6 0.514789 0.795878 0.249219
O O7 0.620304 0.703642 0.409339
O O8 0.618692 0.902496 0.392299
O O9 0.110533 0.099656 0.165890
O O10 0.000000 0.175769 0.000000
O O11 0.750000 0.000000 0.778921
O O12 0.875962 0.000000 0.616725
O O13 0.250000 0.000000 0.532861
O O14 0.500000 0.396448 0.500000
O O15 0.632363 0.500000 0.455550
#
# Coordination Sequence:
#
# PCOD9404923 Si02
#       6
#     8   8   8   4   4   8
#     4  10  20  36  60  88 117 152 195 239 283 340
#     4  11  19  36  58  83 116 148 186 238 285 343
#     4  12  24  38  57  87 118 154 195 237 284 344
#     4  11  22  39  61  84 110 147 195 242 287 347
#     4  11  22  36  61  89 112 143 193 246 294 342
#     4   9  16  30  56  87 114 142 183 233 284 334
#
# _framework density 18.158685999999999
#
# number of rings (size 3 to 8) (size 9 to 14) (size 15 to 20)
#    0.000    1.400    6.000    1.800    0.000    2.800 
#    0.000    3.000    0.000    0.000    0.000    2.800 
#    0.000    0.000    0.000    0.000    0.000    0.000 
#
# Total GULP energy -223208.168934 kJ/mol
# GULP energy per Si atom -5580.204223 kJ/mol
# Density = 1.811736 g / cm^3
# Si number density = 18.158686 Si / 1000 Ang^3
#
#
#
# Elastic Constant Matrix: (Units=GPa)
#
#
# Indices 1 2 3 4 5 6 
#
# 1 44.2501 36.7162 14.0808 0.0000 0.0000 0.0000
# 2 36.7162 163.8754 9.2628 0.0000 0.0000 0.0000
# 3 14.0808 9.2628 45.8793 0.0000 0.0000 0.0000
# 4 0.0000 0.0000 0.0000 20.5833 0.0000 0.0000
# 5 0.0000 0.0000 0.0000 0.0000 15.5410 0.0000
# 6 0.0000 0.0000 0.0000 0.0000 0.0000 17.2813
#
#
#
# Elastic Compliance Matrix: (Units=1/GPa)
#
#
# Indices 1 2 3 4 5 6 
#
# 1 0.030445 -0.006366 -0.008059 0.000000 0.000000 0.000000
# 2 -0.006366 0.007504 0.000439 0.000000 0.000000 0.000000
# 3 -0.008059 0.000439 0.024181 0.000000 0.000000 0.000000
# 4 0.000000 0.000000 0.000000 0.048583 0.000000 0.000000
# 5 0.000000 0.000000 0.000000 0.000000 0.064346 0.000000
# 6 0.000000 0.000000 0.000000 0.000000 0.000000 0.057866
#
#
# Mechanical properties :
#
#
# Convention : Reuss Voigt Hill
#
# Bulk Modulus (GPa) = 29.27533 41.56937 35.42235
# Shear Modulus (GPa) = 18.36329 23.61078 20.98703
#
# Velocity S-wave (km/s) = 3.18349 3.60981 3.40333
# Velocity P-wave (km/s) = 5.44700 6.34951 5.91549
#
# Compressibility (1/GPa) = 0.03415846
#
# Stress axis : x y z
#
# Youngs Moduli (GPa) = 32.84602 133.26885 41.35473
#
# Poissons Ratio (x) = 0.84835 0.33327
# Poissons Ratio (y) = 0.20909 -0.01814
# Poissons Ratio (z) = 0.26470 -0.05847
#
# Static dielectric constant tensor:
#      x y z
#    x 1.620640 0.000000 0.000000 
#    y 0.000000 1.694530 0.000000 
#    z 0.000000 0.000000 1.584300 
# 
# From -- ./inp_files/8033.got.cif
#   From: 2010.05.17/outbox.cif.g08.bks.cpg/sg51_5_cif.got.tgz:8033.got - 2010.06.03 11:52:47.
