data_PCOD9404931
_publ_section_title
;
Structure prediction by ZEFSAII (Michael W. Deem and Ramdas Pophale) SiO2 
 PCOD9404931
Probable space group: P M M A
;
_chemical_formula_sum "Si O2"
_cell_formula_units_Z 44
_cell_length_a 9.033693
_cell_length_b 8.040281
_cell_length_c 30.802506
_cell_angle_alpha 90.000000
_cell_angle_beta 90.000000
_cell_angle_gamma 90.000000
_cell_volume 2237.291669
_symmetry_space_group_name_H-M "P M M A"
_symmetry_group_IT_number 51
_symmetry_cell_setting 'orthorhombic'
loop_
_space_group_symop_operation_xyz
x,y,z
1/2-x,-y,z
1/2+x,-y,-z
-x,y,-z
-x,-y,-z
1/2+x,y,-z
1/2-x,y,z
x,-y,z
loop_
_atom_site_type_symbol
_atom_site_label
_atom_site_fract_x
_atom_site_fract_y
_atom_site_fract_z
Si Si1 0.580478 0.299424 0.043360
Si Si2 0.924182 0.804196 0.682880
Si Si3 0.426747 0.310374 0.597652
Si Si4 0.928646 0.000000 0.547637
Si Si5 0.419084 0.302542 0.223419
Si Si6 0.580800 0.801544 0.136288
O O1 0.750000 0.238683 0.042617
O O2 0.581995 0.500000 0.041959
O O3 0.513324 0.249685 0.089827
O O4 0.500000 0.239219 0.000000
O O5 0.750000 0.753201 0.681027
O O6 0.978313 0.776197 0.732069
O O7 0.018507 0.708024 0.647263
O O8 0.930876 0.000000 0.672751
O O9 0.250000 0.282733 0.594733
O O10 0.457832 0.500000 0.582777
O O11 0.512378 0.166122 0.571707
O O12 0.000000 0.000000 0.500000
O O13 0.750000 0.000000 0.546657
O O14 0.250000 0.242714 0.218706
O O15 0.418615 0.500000 0.229869
O O16 0.502020 0.262589 0.179179
O O17 0.750000 0.737689 0.136518
O O18 0.582941 0.000000 0.138045
#
# Coordination Sequence:
#
# PCOD9404931 Si02
#       6
#     8   8   8   4   8   8
#     4   9  18  33  52  73  98 130 170 218 272 334
#     4  10  20  36  60  89 121 161 205 252 307 364
#     4  11  24  42  66  98 135 174 218 268 321 381
#     4  12  26  46  72 100 134 176 220 272 327 380
#     4  10  21  36  55  81 113 150 194 241 289 347
#     4  10  21  36  53  75 105 141 181 226 280 340
#
# _framework density 19.666634999999999
#
# number of rings (size 3 to 8) (size 9 to 14) (size 15 to 20)
#    0.000    1.818    0.909    3.000    0.000    6.545 
#    0.000    1.818    0.000    0.000    0.000    0.000 
#    0.000    0.000    0.000    0.000    0.000    0.000 
#
# Total GULP energy -245673.879343 kJ/mol
# GULP energy per Si atom -5583.497258 kJ/mol
# Density = 1.962187 g / cm^3
# Si number density = 19.666635 Si / 1000 Ang^3
#
#
#
# Elastic Constant Matrix: (Units=GPa)
#
#
# Indices 1 2 3 4 5 6 
#
# 1 78.6899 41.2191 58.4161 0.0000 0.0000 0.0000
# 2 41.2191 80.8218 44.4100 0.0000 0.0000 0.0000
# 3 58.4161 44.4100 149.7464 0.0000 0.0000 0.0000
# 4 0.0000 0.0000 0.0000 20.0800 0.0000 0.0000
# 5 0.0000 0.0000 0.0000 0.0000 38.3913 0.0000
# 6 0.0000 0.0000 0.0000 0.0000 0.0000 16.9083
#
#
#
# Elastic Compliance Matrix: (Units=1/GPa)
#
#
# Indices 1 2 3 4 5 6 
#
# 1 0.021069 -0.007442 -0.006012 0.000000 0.000000 0.000000
# 2 -0.007442 0.017410 -0.002260 0.000000 0.000000 0.000000
# 3 -0.006012 -0.002260 0.009694 0.000000 0.000000 0.000000
# 4 0.000000 0.000000 0.000000 0.049801 0.000000 0.000000
# 5 0.000000 0.000000 0.000000 0.000000 0.026048 0.000000
# 6 0.000000 0.000000 0.000000 0.000000 0.000000 0.059143
#
#
# Mechanical properties :
#
#
# Convention : Reuss Voigt Hill
#
# Bulk Modulus (GPa) = 59.72028 66.37208 63.04618
# Shear Modulus (GPa) = 22.70927 26.09011 24.39969
#
# Velocity S-wave (km/s) = 3.40179 3.64623 3.52613
# Velocity P-wave (km/s) = 6.77213 7.17973 6.97891
#
# Compressibility (1/GPa) = 0.01674473
#
# Stress axis : x y z
#
# Youngs Moduli (GPa) = 47.46206 57.43757 103.16057
#
# Poissons Ratio (x) = 0.42744 0.62022
# Poissons Ratio (y) = 0.35321 0.23317
# Poissons Ratio (z) = 0.28535 0.12982
#
# Static dielectric constant tensor:
#      x y z
#    x 1.688010 0.000000 0.000000 
#    y 0.000000 1.690440 0.000000 
#    z 0.000000 0.000000 1.693840 
# 
# From -- ./inp_files/36826.got.cif
#   From: 2010.05.17/outbox.cif.g08.bks.cpg/sg51_19_cif.got.tgz:36826.got - 2010.06.03 11:52:47.
