data_PCOD9404873
_publ_section_title
;
Structure prediction by ZEFSAII (Michael W. Deem and Ramdas Pophale) SiO2 
 PCOD9404873
Probable space group: P M M A
;
_chemical_formula_sum "Si O2"
_cell_formula_units_Z 56
_cell_length_a 8.320653
_cell_length_b 15.943405
_cell_length_c 20.813318
_cell_angle_alpha 90.000000
_cell_angle_beta 90.000000
_cell_angle_gamma 90.000000
_cell_volume 2761.085205
_symmetry_space_group_name_H-M "P M M A"
_symmetry_group_IT_number 51
_symmetry_cell_setting 'orthorhombic'
loop_
_space_group_symop_operation_xyz
x,y,z
1/2-x,-y,z
1/2+x,-y,-z
-x,y,-z
-x,-y,-z
1/2+x,y,-z
1/2-x,y,z
x,-y,z
loop_
_atom_site_type_symbol
_atom_site_label
_atom_site_fract_x
_atom_site_fract_y
_atom_site_fract_z
Si Si1 0.060690 0.630837 0.241620
Si Si2 0.058671 0.229992 0.429629
Si Si3 0.943012 0.226408 0.067359
Si Si4 0.058090 0.812474 0.791012
Si Si5 0.057685 0.410373 0.898236
Si Si6 0.558523 0.591257 0.382602
Si Si7 0.055829 0.093775 0.326298
O O1 0.250000 0.613032 0.240596
O O2 0.030216 0.730554 0.237201
O O3 0.978931 0.595045 0.177663
O O4 0.985973 0.598099 0.307373
O O5 0.250000 0.225811 0.427974
O O6 0.996918 0.165811 0.375164
O O7 0.000000 0.205345 0.500000
O O8 0.010163 0.325800 0.415471
O O9 0.750000 0.229470 0.066285
O O10 0.989062 0.181195 0.133952
O O11 0.005968 0.322937 0.073216
O O12 0.000000 0.189804 0.000000
O O13 0.250000 0.797212 0.788782
O O14 0.012563 0.887571 0.744303
O O15 0.250000 0.410103 0.907130
O O16 0.992906 0.500000 0.922343
O O17 0.750000 0.593664 0.389525
O O18 0.499674 0.500000 0.406476
O O19 0.250000 0.098644 0.323072
O O20 0.012321 0.000000 0.347737
#
# Coordination Sequence:
#
# PCOD9404873 Si02
#       7
#     8   8   8   8   8   8   8
#     4  11  20  31  51  80 112 148 193 246 300 351
#     4  11  24  42  64  90 124 164 201 244 294 350
#     4   9  19  33  50  76 108 148 194 241 293 353
#     4  10  20  36  59  85 116 153 196 241 290 350
#     4   9  18  32  47  67 102 146 192 244 298 351
#     4  11  23  38  58  84 117 159 205 253 300 348
#     4  10  22  41  66  97 127 154 191 241 297 355
#
# _framework density 20.281880999999998
#
# number of rings (size 3 to 8) (size 9 to 14) (size 15 to 20)
#    0.000    1.857    1.429    3.857    0.000    7.714 
#    0.000    0.000    0.000    0.429    0.000    0.000 
#    0.000    0.000    0.000    0.000    0.000    0.000 
#
# Total GULP energy -312690.576036 kJ/mol
# GULP energy per Si atom -5583.760286 kJ/mol
# Density = 2.023572 g / cm^3
# Si number density = 20.281881 Si / 1000 Ang^3
#
#
#
# Elastic Constant Matrix: (Units=GPa)
#
#
# Indices 1 2 3 4 5 6 
#
# 1 24.8270 16.5736 9.8965 0.0000 0.0000 0.0000
# 2 16.5736 90.8497 45.4360 0.0000 0.0000 0.0000
# 3 9.8965 45.4360 120.8507 0.0000 0.0000 0.0000
# 4 0.0000 0.0000 0.0000 -8.8643 0.0000 0.0000
# 5 0.0000 0.0000 0.0000 0.0000 25.5918 0.0000
# 6 0.0000 0.0000 0.0000 0.0000 0.0000 17.3463
#
#
#
# Elastic Compliance Matrix: (Units=1/GPa)
#
#
# Indices 1 2 3 4 5 6 
#
# 1 0.045920 -0.008001 -0.000752 0.000000 0.000000 0.000000
# 2 -0.008001 0.014950 -0.004966 0.000000 0.000000 0.000000
# 3 -0.000752 -0.004966 0.010203 0.000000 0.000000 0.000000
# 4 0.000000 0.000000 0.000000 -0.112811 0.000000 0.000000
# 5 0.000000 0.000000 0.000000 0.000000 0.039075 0.000000
# 6 0.000000 0.000000 0.000000 0.000000 0.000000 0.057649
#
#
# Mechanical properties :
#
#
# Convention : Reuss Voigt Hill
#
# Bulk Modulus (GPa) = 22.91712 42.25997 32.58854
# Shear Modulus (GPa) = 51.56321 17.78951 34.67636
#
# Velocity S-wave (km/s) = 5.04762 2.96482 4.13936
# Velocity P-wave (km/s) = 6.73017 5.70980 6.24087
#
# Compressibility (1/GPa) = 0.04363550
#
# Stress axis : x y z
#
# Youngs Moduli (GPa) = 21.77718 66.88887 98.00860
#
# Poissons Ratio (x) = 0.53517 0.07374
# Poissons Ratio (y) = 0.17424 0.48667
# Poissons Ratio (z) = 0.01638 0.33214
#
# Static dielectric constant tensor:
#      x y z
#    x 1.692630 0.000000 0.000000 
#    y 0.000000 1.758350 0.000000 
#    z 0.000000 0.000000 1.728760 
# 
# From -- ./inp_files/31943.got.cif
#   From: 2010.05.17/outbox.cif.g08.bks.cpg/sg51_16_cif.got.tgz:31943.got - 2010.06.03 11:52:47.
