data_PCOD9405789
_publ_section_title
;
Structure prediction by ZEFSAII (Michael W. Deem and Ramdas Pophale) SiO2 
 PCOD9405789
Probable space group: P M M A
;
_chemical_formula_sum "Si O2"
_cell_formula_units_Z 64
_cell_length_a 9.151163
_cell_length_b 14.149934
_cell_length_c 26.917782
_cell_angle_alpha 90.000000
_cell_angle_beta 90.000000
_cell_angle_gamma 90.000000
_cell_volume 3485.539243
_symmetry_space_group_name_H-M "P M M A"
_symmetry_group_IT_number 51
_symmetry_cell_setting 'orthorhombic'
loop_
_space_group_symop_operation_xyz
x,y,z
1/2-x,-y,z
1/2+x,-y,-z
-x,y,-z
-x,-y,-z
1/2+x,y,-z
1/2-x,y,z
x,-y,z
loop_
_atom_site_type_symbol
_atom_site_label
_atom_site_fract_x
_atom_site_fract_y
_atom_site_fract_z
Si Si1 0.425760 0.201274 0.950369
Si Si2 0.084300 0.614776 0.195517
Si Si3 0.925871 0.610382 0.692617
Si Si4 0.419335 0.113930 0.844927
Si Si5 0.925137 0.110580 0.449255
Si Si6 0.425214 0.785093 0.652230
Si Si7 0.425255 0.392994 0.904819
Si Si8 0.080236 0.885612 0.255578
O O1 0.250000 0.194583 0.954808
O O2 0.467902 0.150652 0.898818
O O3 0.468905 0.311245 0.942687
O O4 0.500000 0.163230 0.000000
O O5 0.250000 0.648378 0.186783
O O6 0.090152 0.500000 0.197087
O O7 0.035728 0.641260 0.250810
O O8 0.982039 0.637684 0.149452
O O9 0.750000 0.618844 0.688351
O O10 0.962796 0.500000 0.686207
O O11 0.009082 0.680390 0.656479
O O12 0.250000 0.143522 0.837741
O O13 0.514180 0.144908 0.797629
O O14 0.422724 0.000000 0.846044
O O15 0.750000 0.116343 0.454645
O O16 0.967077 0.167033 0.399916
O O17 0.000000 0.144063 0.500000
O O18 0.963970 0.000000 0.442422
O O19 0.250000 0.784319 0.656027
O O20 0.491952 0.843580 0.698236
O O21 0.250000 0.395384 0.903581
O O22 0.478213 0.500000 0.915427
O O23 0.250000 0.857959 0.259197
O O24 0.071472 0.000000 0.257424
#
# Coordination Sequence:
#
# PCOD9405789 Si02
#       8
#     8   8   8   8   8   8   8   8
#     4  10  22  37  52  73  97 125 166 211 260 317
#     4   8  15  29  48  70  96 128 167 209 255 306
#     4   9  19  35  52  75 111 150 189 233 276 319
#     4   9  19  37  57  75 100 133 167 211 267 321
#     4   9  19  36  57  82 113 149 188 231 278 327
#     4  11  22  34  54  84 117 152 188 227 275 330
#     4   9  18  32  49  70  98 128 160 203 252 307
#     4  10  21  36  55  82 113 144 180 220 267 328
#
# _framework density 18.361578000000002
#
# number of rings (size 3 to 8) (size 9 to 14) (size 15 to 20)
#    0.000    2.625    0.000    1.875    1.750    4.500 
#    0.000    2.500    0.000    0.375    0.000    0.000 
#    0.000    0.000    0.000    0.000    0.000    0.000 
#
# Total GULP energy -357138.671653 kJ/mol
# GULP energy per Si atom -5580.291745 kJ/mol
# Density = 1.831979 g / cm^3
# Si number density = 18.361578 Si / 1000 Ang^3
#
#
#
# Elastic Constant Matrix: (Units=GPa)
#
#
# Indices 1 2 3 4 5 6 
#
# 1 35.8726 29.3392 53.4100 0.0000 0.0000 0.0000
# 2 29.3392 55.7924 52.5525 0.0000 0.0000 0.0000
# 3 53.4100 52.5525 156.4222 0.0000 0.0000 0.0000
# 4 0.0000 0.0000 0.0000 31.0707 0.0000 0.0000
# 5 0.0000 0.0000 0.0000 0.0000 32.8507 0.0000
# 6 0.0000 0.0000 0.0000 0.0000 0.0000 22.4083
#
#
#
# Elastic Compliance Matrix: (Units=1/GPa)
#
#
# Indices 1 2 3 4 5 6 
#
# 1 0.070269 -0.020997 -0.016939 0.000000 0.000000 0.000000
# 2 -0.020997 0.032495 -0.003748 0.000000 0.000000 0.000000
# 3 -0.016939 -0.003748 0.013436 0.000000 0.000000 0.000000
# 4 0.000000 0.000000 0.000000 0.032185 0.000000 0.000000
# 5 0.000000 0.000000 0.000000 0.000000 0.030441 0.000000
# 6 0.000000 0.000000 0.000000 0.000000 0.000000 0.044626
#
#
# Mechanical properties :
#
#
# Convention : Reuss Voigt Hill
#
# Bulk Modulus (GPa) = 30.45719 57.63228 44.04474
# Shear Modulus (GPa) = 15.73494 24.78499 20.25997
#
# Velocity S-wave (km/s) = 2.93055 3.67799 3.32533
# Velocity P-wave (km/s) = 5.29852 7.03508 6.22763
#
# Compressibility (1/GPa) = 0.03283297
#
# Stress axis : x y z
#
# Youngs Moduli (GPa) = 14.23099 30.77360 74.42691
#
# Poissons Ratio (x) = 0.64614 1.26072
# Poissons Ratio (y) = 0.29880 0.27896
# Poissons Ratio (z) = 0.24106 0.11534
#
# Static dielectric constant tensor:
#      x y z
#    x 1.617290 0.000000 0.000000 
#    y 0.000000 1.679980 0.000000 
#    z 0.000000 0.000000 1.605210 
# 
# From -- ./inp_files/34876.got.cif
#   From: 2010.05.17/outbox.cif.g08.bks.cpg/sg51_18_cif.got.tgz:34876.got - 2010.06.03 11:52:47.
