data_PCOD9405344
_publ_section_title
;
Structure prediction by ZEFSAII (Michael W. Deem and Ramdas Pophale) SiO2 
 PCOD9405344
Probable space group: P M M A
;
_chemical_formula_sum "Si O2"
_cell_formula_units_Z 64
_cell_length_a 17.594897
_cell_length_b 13.788746
_cell_length_c 12.949346
_cell_angle_alpha 90.000000
_cell_angle_beta 90.000000
_cell_angle_gamma 90.000000
_cell_volume 3141.661107
_symmetry_space_group_name_H-M "P M M A"
_symmetry_group_IT_number 51
_symmetry_cell_setting 'orthorhombic'
loop_
_space_group_symop_operation_xyz
x,y,z
1/2-x,-y,z
1/2+x,-y,-z
-x,y,-z
-x,-y,-z
1/2+x,y,-z
1/2-x,y,z
x,-y,z
loop_
_atom_site_type_symbol
_atom_site_label
_atom_site_fract_x
_atom_site_fract_y
_atom_site_fract_z
Si Si1 0.602710 0.615877 0.220270
Si Si2 0.665063 0.616747 0.007775
Si Si3 0.621799 0.888039 0.583395
Si Si4 0.834959 0.309234 0.656199
Si Si5 0.660498 0.383818 0.439070
Si Si6 0.663500 0.117081 0.345718
Si Si7 0.993775 0.113182 0.255551
Si Si8 0.057020 0.700407 0.157710
O O1 0.606410 0.500000 0.229634
O O2 0.621029 0.653240 0.335044
O O3 0.521073 0.645031 0.177351
O O4 0.660521 0.642046 0.129041
O O5 0.750000 0.638312 0.968253
O O6 0.652465 0.500000 0.997574
O O7 0.599921 0.674290 0.947097
O O8 0.666882 0.807270 0.646806
O O9 0.636402 0.863947 0.463488
O O10 0.537100 0.880409 0.632762
O O11 0.645441 0.000000 0.598067
O O12 0.750000 0.348988 0.665594
O O13 0.869609 0.344674 0.547726
O O14 0.886184 0.334523 0.752337
O O15 0.750000 0.358785 0.433642
O O16 0.655014 0.500000 0.442490
O O17 0.750000 0.152995 0.328453
O O18 0.594024 0.143482 0.270202
O O19 0.667059 0.000000 0.338621
O O20 0.036414 0.186961 0.179247
O O21 0.998117 0.000000 0.224998
#
# Coordination Sequence:
#
# PCOD9405344 Si02
#       8
#     8   8   8   8   8   8   8   8
#     4  10  21  38  60  85 110 139 181 234 288 341
#     4  10  21  40  67  92 112 137 178 239 301 347
#     4   9  17  30  49  72 103 146 195 244 286 324
#     4  10  21  34  50  77 115 154 190 226 272 333
#     4   9  19  36  55  76 109 152 190 222 265 332
#     4   9  16  27  45  69  99 141 195 247 286 322
#     4   9  19  34  50  74 112 155 194 233 282 339
#     4  11  22  35  56  86 118 149 188 232 284 342
#
# _framework density 20.371388
#
# number of rings (size 3 to 8) (size 9 to 14) (size 15 to 20)
#    0.000    2.375    0.000    2.250    1.750    6.250 
#    0.000    3.125    0.000    2.625    0.000    0.000 
#    0.000    2.000    0.000    0.000    0.000    0.000 
#
# Total GULP energy -357017.425054 kJ/mol
# GULP energy per Si atom -5578.397266 kJ/mol
# Density = 2.032502 g / cm^3
# Si number density = 20.371388 Si / 1000 Ang^3
#
#
#
# Elastic Constant Matrix: (Units=GPa)
#
#
# Indices 1 2 3 4 5 6 
#
# 1 95.3376 7.3636 26.8893 0.0000 0.0000 0.0000
# 2 7.3636 37.3899 23.3688 0.0000 0.0000 0.0000
# 3 26.8893 23.3688 69.4444 0.0000 0.0000 0.0000
# 4 0.0000 0.0000 0.0000 18.5862 0.0000 0.0000
# 5 0.0000 0.0000 0.0000 0.0000 -70.1487 0.0000
# 6 0.0000 0.0000 0.0000 0.0000 0.0000 16.2836
#
#
#
# Elastic Compliance Matrix: (Units=1/GPa)
#
#
# Indices 1 2 3 4 5 6 
#
# 1 0.011788 0.000673 -0.004791 0.000000 0.000000 0.000000
# 2 0.000673 0.033907 -0.011670 0.000000 0.000000 0.000000
# 3 -0.004791 -0.011670 0.020182 0.000000 0.000000 0.000000
# 4 0.000000 0.000000 0.000000 0.053803 0.000000 0.000000
# 5 0.000000 0.000000 0.000000 0.000000 -0.014255 0.000000
# 6 0.000000 0.000000 0.000000 0.000000 0.000000 0.061412
#
#
# Mechanical properties :
#
#
# Convention : Reuss Voigt Hill
#
# Bulk Modulus (GPa) = 29.15443 35.26837 32.21140
# Shear Modulus (GPa) = 23.82681 2.58089 13.20385
#
# Velocity S-wave (km/s) = 3.42368 1.12680 2.54865
# Velocity P-wave (km/s) = 5.47461 4.36385 4.95048
#
# Compressibility (1/GPa) = 0.03430010
#
# Stress axis : x y z
#
# Youngs Moduli (GPa) = 84.82980 29.49262 49.54835
#
# Poissons Ratio (x) = -0.01984 0.23738
# Poissons Ratio (y) = -0.05706 0.57825
# Poissons Ratio (z) = 0.40641 0.34419
#
# Static dielectric constant tensor:
#      x y z
#    x 1.751440 0.000000 0.000000 
#    y 0.000000 1.758810 0.000000 
#    z 0.000000 0.000000 1.712520 
# 
# From -- ./inp_files/17518.got.cif
#   From: 2010.05.17/outbox.cif.g08.bks.cpg/sg51_9_cif.got.tgz:17518.got - 2010.06.03 11:52:47.
