data_PCOD9405666
_publ_section_title
;
Structure prediction by ZEFSAII (Michael W. Deem and Ramdas Pophale) SiO2 
 PCOD9405666
Probable space group: P M M A
;
_chemical_formula_sum "Si O2"
_cell_formula_units_Z 64
_cell_length_a 17.782513
_cell_length_b 15.907061
_cell_length_c 12.234664
_cell_angle_alpha 90.000000
_cell_angle_beta 90.000000
_cell_angle_gamma 90.000000
_cell_volume 3460.789052
_symmetry_space_group_name_H-M "P M M A"
_symmetry_group_IT_number 51
_symmetry_cell_setting 'orthorhombic'
loop_
_space_group_symop_operation_xyz
x,y,z
1/2-x,-y,z
1/2+x,-y,-z
-x,y,-z
-x,-y,-z
1/2+x,y,-z
1/2-x,y,z
x,-y,z
loop_
_atom_site_type_symbol
_atom_site_label
_atom_site_fract_x
_atom_site_fract_y
_atom_site_fract_z
Si Si1 0.555381 0.327318 0.658145
Si Si2 0.549546 0.828600 0.408828
Si Si3 0.337942 0.698088 0.531194
Si Si4 0.113918 0.099929 0.062953
Si Si5 0.661408 0.402318 0.043882
Si Si6 0.665635 0.271656 0.848226
Si Si7 0.947508 0.097988 0.167993
Si Si8 0.905330 0.595966 0.274429
O O1 0.503645 0.251418 0.615368
O O2 0.612419 0.349559 0.560659
O O3 0.605080 0.293092 0.756806
O O4 0.493292 0.393963 0.696113
O O5 0.500000 0.878389 0.500000
O O6 0.626548 0.791796 0.459028
O O7 0.562700 0.865157 0.288391
O O8 0.250000 0.698407 0.507254
O O9 0.356449 0.653889 0.645956
O O10 0.161783 0.173852 0.117216
O O11 0.033010 0.106388 0.123855
O O12 0.136119 0.000000 0.069130
O O13 0.102781 0.125520 0.935498
O O14 0.750000 0.398587 0.074863
O O15 0.646504 0.500000 0.010365
O O16 0.610951 0.381743 0.148873
O O17 0.649823 0.334273 0.949349
O O18 0.750000 0.290399 0.808680
O O19 0.932231 0.000000 0.178549
O O20 0.881586 0.500000 0.289264
#
# Coordination Sequence:
#
# PCOD9405666 Si02
#       8
#     8   8   8   8   8   8   8   8
#     4  10  21  36  53  79 109 137 186 235 267 324
#     4   9  18  33  53  79 107 140 180 226 271 325
#     4  10  21  36  55  78 109 144 178 225 281 332
#     4   9  19  33  53  82 115 146 186 237 280 333
#     4   9  20  37  54  81 117 146 182 228 276 340
#     4  11  22  35  57  80 109 157 193 224 287 342
#     4   9  17  32  54  80 108 141 182 230 281 324
#     4  10  21  37  58  82 108 141 182 229 281 334
#
# _framework density 18.492892000000001
#
# number of rings (size 3 to 8) (size 9 to 14) (size 15 to 20)
#    0.000    2.375    1.250    2.625    3.500    3.250 
#    0.000    1.250    0.000    3.375    0.000    0.000 
#    0.000    0.000    0.000    0.000    0.000    0.000 
#
# Total GULP energy -356431.801124 kJ/mol
# GULP energy per Si atom -5569.246893 kJ/mol
# Density = 1.845080 g / cm^3
# Si number density = 18.492892 Si / 1000 Ang^3
#
#
#
# Elastic Constant Matrix: (Units=GPa)
#
#
# Indices 1 2 3 4 5 6 
#
# 1 69.8641 4.7443 20.8017 0.0000 0.0000 0.0000
# 2 4.7443 32.4507 15.0315 0.0000 0.0000 0.0000
# 3 20.8017 15.0315 70.8953 0.0000 0.0000 0.0000
# 4 0.0000 0.0000 0.0000 4.3284 0.0000 0.0000
# 5 0.0000 0.0000 0.0000 0.0000 20.3752 0.0000
# 6 0.0000 0.0000 0.0000 0.0000 0.0000 8.5638
#
#
#
# Elastic Compliance Matrix: (Units=1/GPa)
#
#
# Indices 1 2 3 4 5 6 
#
# 1 0.015685 -0.000179 -0.004564 0.000000 0.000000 0.000000
# 2 -0.000179 0.034174 -0.007193 0.000000 0.000000 0.000000
# 3 -0.004564 -0.007193 0.016970 0.000000 0.000000 0.000000
# 4 0.000000 0.000000 0.000000 0.231035 0.000000 0.000000
# 5 0.000000 0.000000 0.000000 0.000000 0.049079 0.000000
# 6 0.000000 0.000000 0.000000 0.000000 0.000000 0.116770
#
#
# Mechanical properties :
#
#
# Convention : Reuss Voigt Hill
#
# Bulk Modulus (GPa) = 23.27980 28.26278 25.77129
# Shear Modulus (GPa) = 9.96207 15.49567 12.72887
#
# Velocity S-wave (km/s) = 2.32350 2.89783 2.62642
# Velocity P-wave (km/s) = 4.45130 5.14906 4.81284
#
# Compressibility (1/GPa) = 0.04295570
#
# Stress axis : x y z
#
# Youngs Moduli (GPa) = 63.75683 29.26196 58.92880
#
# Poissons Ratio (x) = 0.00524 0.26896
# Poissons Ratio (y) = 0.01141 0.42389
# Poissons Ratio (z) = 0.29100 0.21049
#
# Static dielectric constant tensor:
#      x y z
#    x 1.660460 0.000000 0.000000 
#    y 0.000000 1.638100 0.000000 
#    z 0.000000 0.000000 1.704860 
# 
# From -- ./inp_files/17537.got.cif
#   From: 2010.05.17/outbox.cif.g08.bks.cpg/sg51_9_cif.got.tgz:17537.got - 2010.06.03 11:52:47.
