data_PCOD9405161
_publ_section_title
;
Structure prediction by ZEFSAII (Michael W. Deem and Ramdas Pophale) SiO2 
 PCOD9405161
Probable space group: P M M A
;
_chemical_formula_sum "Si O2"
_cell_formula_units_Z 48
_cell_length_a 8.607358
_cell_length_b 20.972424
_cell_length_c 14.563363
_cell_angle_alpha 90.000000
_cell_angle_beta 90.000000
_cell_angle_gamma 90.000000
_cell_volume 2628.936951
_symmetry_space_group_name_H-M "P M M A"
_symmetry_group_IT_number 51
_symmetry_cell_setting 'orthorhombic'
loop_
_space_group_symop_operation_xyz
x,y,z
1/2-x,-y,z
1/2+x,-y,-z
-x,y,-z
-x,-y,-z
1/2+x,y,-z
1/2-x,y,z
x,-y,z
loop_
_atom_site_type_symbol
_atom_site_label
_atom_site_fract_x
_atom_site_fract_y
_atom_site_fract_z
Si Si1 0.564300 0.253127 0.102978
Si Si2 0.063125 0.623334 0.207655
Si Si3 0.564954 0.500000 0.103560
Si Si4 0.937011 0.326280 0.598487
Si Si5 0.062426 0.000000 0.103566
Si Si6 0.936773 0.178100 0.598372
Si Si7 0.061499 0.129297 0.206515
O O1 0.750000 0.257731 0.102586
O O2 0.492323 0.313249 0.155796
O O3 0.510214 0.188628 0.152519
O O4 0.500000 0.252896 0.000000
O O5 0.250000 0.619785 0.204194
O O6 0.014605 0.632093 0.314061
O O7 0.993359 0.562179 0.157745
O O8 0.750000 0.500000 0.099073
O O9 0.500000 0.500000 0.000000
O O10 0.750000 0.326336 0.595525
O O11 0.986801 0.252175 0.612471
O O12 0.000000 0.347562 0.500000
O O13 0.014394 0.063369 0.158759
O O14 0.250000 0.000000 0.099504
O O15 0.000000 0.000000 0.000000
O O16 0.750000 0.178051 0.594292
O O17 0.983849 0.136987 0.686665
O O18 0.000000 0.156617 0.500000
O O19 0.250000 0.134112 0.201931
#
# Coordination Sequence:
#
# PCOD9405161 Si02
#       7
#     8   8   4   8   4   8   8
#     4  12  24  37  57  85 114 148 190 243 294 344
#     4  11  22  41  63  87 118 155 195 240 290 342
#     4  12  26  44  63  88 119 158 199 240 290 348
#     4   9  18  33  57  86 117 151 187 234 288 342
#     4  10  22  38  59  80 110 154 195 240 293 352
#     4   9  17  32  54  82 115 149 186 233 287 343
#     4  10  20  38  58  82 114 151 194 239 291 347
#
# _framework density 18.258330999999998
#
# number of rings (size 3 to 8) (size 9 to 14) (size 15 to 20)
#    0.000    1.667    1.667    3.750    0.000    4.000 
#    0.000    0.833    0.000    0.000    0.000    0.000 
#    0.000    0.000    0.000    0.000    0.000    0.000 
#
# Total GULP energy -268128.557110 kJ/mol
# GULP energy per Si atom -5586.011606 kJ/mol
# Density = 1.821677 g / cm^3
# Si number density = 18.258331 Si / 1000 Ang^3
#
#
#
# Elastic Constant Matrix: (Units=GPa)
#
#
# Indices 1 2 3 4 5 6 
#
# 1 57.5028 43.3027 50.8677 0.0000 0.0000 0.0000
# 2 43.3027 147.0332 101.7315 0.0000 0.0000 0.0000
# 3 50.8677 101.7315 217.9995 0.0000 0.0000 0.0000
# 4 0.0000 0.0000 0.0000 28.3239 0.0000 0.0000
# 5 0.0000 0.0000 0.0000 0.0000 34.8982 0.0000
# 6 0.0000 0.0000 0.0000 0.0000 0.0000 1673.8066
#
#
#
# Elastic Compliance Matrix: (Units=1/GPa)
#
#
# Indices 1 2 3 4 5 6 
#
# 1 0.023930 -0.004703 -0.003389 0.000000 0.000000 0.000000
# 2 -0.004703 0.010968 -0.004021 0.000000 0.000000 0.000000
# 3 -0.003389 -0.004021 0.007255 0.000000 0.000000 0.000000
# 4 0.000000 0.000000 0.000000 0.035306 0.000000 0.000000
# 5 0.000000 0.000000 0.000000 0.000000 0.028655 0.000000
# 6 0.000000 0.000000 0.000000 0.000000 0.000000 0.000597
#
#
# Mechanical properties :
#
#
# Convention : Reuss Voigt Hill
#
# Bulk Modulus (GPa) = 55.78255 90.48216 73.13235
# Shear Modulus (GPa) = 36.51963 362.51464 199.51714
#
# Velocity S-wave (km/s) = 4.47717 14.10598 10.46479
# Velocity P-wave (km/s) = 7.57264 17.74737 13.64393
#
# Compressibility (1/GPa) = 0.01792675
#
# Stress axis : x y z
#
# Youngs Moduli (GPa) = 41.78869 91.17113 137.84442
#
# Poissons Ratio (x) = 0.42874 0.46719
# Poissons Ratio (y) = 0.19651 0.55430
# Poissons Ratio (z) = 0.14163 0.36662
#
# Static dielectric constant tensor:
#      x y z
#    x 1.619810 0.000000 0.000000 
#    y 0.000000 1.601180 0.000000 
#    z 0.000000 0.000000 1.615730 
# 
# From -- ./inp_files/21241.got.cif
#   From: 2010.05.17/outbox.cif.g08.bks.cpg/sg51_11_cif.got.tgz:21241.got - 2010.06.03 11:52:47.
