data_PCOD9405457
_publ_section_title
;
Structure prediction by ZEFSAII (Michael W. Deem and Ramdas Pophale) SiO2 
 PCOD9405457
Probable space group: P M M A
;
_chemical_formula_sum "Si O2"
_cell_formula_units_Z 44
_cell_length_a 7.578133
_cell_length_b 29.723046
_cell_length_c 9.142462
_cell_angle_alpha 90.000000
_cell_angle_beta 90.000000
_cell_angle_gamma 90.000000
_cell_volume 2059.295643
_symmetry_space_group_name_H-M "P M M A"
_symmetry_group_IT_number 51
_symmetry_cell_setting 'orthorhombic'
loop_
_space_group_symop_operation_xyz
x,y,z
1/2-x,-y,z
1/2+x,-y,-z
-x,y,-z
-x,-y,-z
1/2+x,y,-z
1/2-x,y,z
x,-y,z
loop_
_atom_site_type_symbol
_atom_site_label
_atom_site_fract_x
_atom_site_fract_y
_atom_site_fract_z
Si Si1 0.961920 0.360991 0.829105
Si Si2 0.461943 0.819205 0.171794
Si Si3 0.538115 0.450156 0.671581
Si Si4 0.461956 0.909580 0.328100
Si Si5 0.038039 0.000000 0.171929
Si Si6 0.038099 0.728957 0.328468
O O1 0.750000 0.361685 0.810325
O O2 0.030698 0.407980 0.763414
O O3 0.029836 0.317243 0.742956
O O4 0.000000 0.357077 0.000000
O O5 0.250000 0.819066 0.189369
O O6 0.529733 0.864116 0.251633
O O7 0.529804 0.773476 0.246473
O O8 0.500000 0.820133 0.000000
O O9 0.500000 0.443217 0.500000
O O10 0.750000 0.451319 0.688629
O O11 0.470380 0.500000 0.712552
O O12 0.500000 0.909956 0.500000
O O13 0.250000 0.909526 0.310721
O O14 0.529703 0.954710 0.249527
O O15 0.250000 0.000000 0.189250
O O16 0.000000 0.000000 0.000000
O O17 0.250000 0.728659 0.310506
O O18 0.000000 0.730874 0.500000
#
# Coordination Sequence:
#
# PCOD9405457 Si02
#       6
#     8   8   8   8   4   8
#     4  10  21  35  51  74 103 133 167 207 250 298
#     4  10  21  36  54  78 106 135 170 210 252 301
#     4   9  18  33  52  74 100 130 166 207 249 296
#     4  10  21  36  54  78 106 136 173 213 253 302
#     4  10  21  36  54  78 106 136 173 214 256 304
#     4  10  21  36  54  77 103 132 169 210 251 299
#
# _framework density 21.366527999999999
#
# number of rings (size 3 to 8) (size 9 to 14) (size 15 to 20)
#    0.000    2.182    0.000    2.455    0.000    4.000 
#    0.000    0.000    0.000    0.000    0.000    0.000 
#    0.000    0.000    0.000    0.000    0.000    0.000 
#
# Total GULP energy -245895.954766 kJ/mol
# GULP energy per Si atom -5588.544426 kJ/mol
# Density = 2.131790 g / cm^3
# Si number density = 21.366528 Si / 1000 Ang^3
#
#
#
# Elastic Constant Matrix: (Units=GPa)
#
#
# Indices 1 2 3 4 5 6 
#
# 1 48.8713 15.1699 -13.9103 0.0000 0.0000 0.0000
# 2 15.1699 262.1203 150.7486 0.0000 0.0000 0.0000
# 3 -13.9103 150.7486 192.1430 0.0000 0.0000 0.0000
# 4 0.0000 0.0000 0.0000 65.4533 0.0000 0.0000
# 5 0.0000 0.0000 0.0000 0.0000 33.4283 0.0000
# 6 0.0000 0.0000 0.0000 0.0000 0.0000 -1.7790
#
#
#
# Elastic Compliance Matrix: (Units=1/GPa)
#
#
# Indices 1 2 3 4 5 6 
#
# 1 0.023183 -0.004204 0.004976 0.000000 0.000000 0.000000
# 2 -0.004204 0.007714 -0.006356 0.000000 0.000000 0.000000
# 3 0.004976 -0.006356 0.010552 0.000000 0.000000 0.000000
# 4 0.000000 0.000000 0.000000 0.015278 0.000000 0.000000
# 5 0.000000 0.000000 0.000000 0.000000 0.029915 0.000000
# 6 0.000000 0.000000 0.000000 0.000000 0.000000 -0.562101
#
#
# Mechanical properties :
#
#
# Convention : Reuss Voigt Hill
#
# Bulk Modulus (GPa) = 33.02341 89.68342 61.35341
# Shear Modulus (GPa) = -11.00841 42.82895 15.91027
#
# Velocity S-wave (km/s) = -2.27230 4.48201 2.73176
# Velocity P-wave (km/s) = 2.93338 8.29756 6.22311
#
# Compressibility (1/GPa) = 0.03028155
#
# Stress axis : x y z
#
# Youngs Moduli (GPa) = 43.13464 129.63427 94.77067
#
# Poissons Ratio (x) = 0.54495 -0.47162
# Poissons Ratio (y) = 0.18133 0.60241
# Poissons Ratio (z) = -0.21466 0.82402
#
# Static dielectric constant tensor:
#      x y z
#    x 1.780510 0.000000 0.000000 
#    y 0.000000 1.790920 0.000000 
#    z 0.000000 0.000000 1.684120 
# 
# From -- ./inp_files/5870.got.cif
#   From: 2010.05.17/outbox.cif.g08.bks.cpg/sg51_3_cif.got.tgz:5870.got - 2010.06.03 11:52:47.
