data_PCOD9405356
_publ_section_title
;
Structure prediction by ZEFSAII (Michael W. Deem and Ramdas Pophale) SiO2 
 PCOD9405356
Probable space group: P M M A
;
_chemical_formula_sum "Si O2"
_cell_formula_units_Z 64
_cell_length_a 19.621613
_cell_length_b 7.645542
_cell_length_c 20.930205
_cell_angle_alpha 90.000000
_cell_angle_beta 90.000000
_cell_angle_gamma 90.000000
_cell_volume 3139.904695
_symmetry_space_group_name_H-M "P M M A"
_symmetry_group_IT_number 51
_symmetry_cell_setting 'orthorhombic'
loop_
_space_group_symop_operation_xyz
x,y,z
1/2-x,-y,z
1/2+x,-y,-z
-x,y,-z
-x,-y,-z
1/2+x,y,-z
1/2-x,y,z
x,-y,z
loop_
_atom_site_type_symbol
_atom_site_label
_atom_site_fract_x
_atom_site_fract_y
_atom_site_fract_z
Si Si1 0.172495 0.206512 0.107877
Si Si2 0.324919 0.286871 0.886301
Si Si3 0.424863 0.294402 0.992173
Si Si4 0.673600 0.288570 0.620385
Si Si5 0.467526 0.206210 0.434413
Si Si6 0.174976 0.286705 0.737454
Si Si7 0.890745 0.288054 0.754924
Si Si8 0.970397 0.297018 0.300053
O O1 0.250000 0.276512 0.102959
O O2 0.121072 0.282082 0.055442
O O3 0.143416 0.234667 0.179039
O O4 0.175125 0.000000 0.096132
O O5 0.250000 0.231146 0.909020
O O6 0.325578 0.500000 0.888050
O O7 0.332101 0.240256 0.812252
O O8 0.382744 0.218892 0.932905
O O9 0.433998 0.500000 0.977495
O O10 0.500000 0.217559 0.000000
O O11 0.750000 0.228125 0.605425
O O12 0.673851 0.500000 0.620570
O O13 0.613551 0.232365 0.572811
O O14 0.651582 0.231994 0.692050
O O15 0.500000 0.273821 0.500000
O O16 0.501309 0.289302 0.371816
O O17 0.481763 0.000000 0.430674
O O18 0.250000 0.225663 0.715239
O O19 0.177014 0.500000 0.732889
O O20 0.105673 0.222579 0.704561
O O21 0.892208 0.500000 0.753860
O O22 0.968468 0.223301 0.743933
O O23 0.964211 0.500000 0.280681
#
# Coordination Sequence:
#
# PCOD9405356 Si02
#       8
#     8   8   8   8   8   8   8   8
#     4  11  24  38  51  71 103 141 175 210 258 314
#     4   8  14  26  46  71  97 125 159 204 256 306
#     4  10  21  34  53  77  99 129 171 219 264 308
#     4   9  18  34  57  84 109 134 171 221 270 310
#     4  10  21  36  53  75 107 147 183 211 247 302
#     4   8  14  26  48  77 104 128 161 210 264 314
#     4   9  18  32  53  79 105 133 167 213 265 315
#     4   9  18  32  54  80 106 135 169 217 268 307
#
# _framework density 20.382784000000001
#
# number of rings (size 3 to 8) (size 9 to 14) (size 15 to 20)
#    0.000    2.750    0.000    3.000    1.750    5.500 
#    0.000    0.625    0.000    2.625    0.000    1.750 
#    0.000    0.000    0.000    0.000    0.000    0.000 
#
# Total GULP energy -356963.563530 kJ/mol
# GULP energy per Si atom -5577.555680 kJ/mol
# Density = 2.033639 g / cm^3
# Si number density = 20.382784 Si / 1000 Ang^3
#
#
#
# Elastic Constant Matrix: (Units=GPa)
#
#
# Indices 1 2 3 4 5 6 
#
# 1 206.4997 -2.1401 54.7859 0.0000 0.0000 0.0000
# 2 -2.1401 36.6502 -16.3957 0.0000 0.0000 0.0000
# 3 54.7859 -16.3957 39.3662 0.0000 0.0000 0.0000
# 4 0.0000 0.0000 0.0000 30.6571 0.0000 0.0000
# 5 0.0000 0.0000 0.0000 0.0000 29.9462 0.0000
# 6 0.0000 0.0000 0.0000 0.0000 0.0000 2.6176
#
#
#
# Elastic Compliance Matrix: (Units=1/GPa)
#
#
# Indices 1 2 3 4 5 6 
#
# 1 0.008627 -0.005982 -0.014497 0.000000 0.000000 0.000000
# 2 -0.005982 0.037680 0.024018 0.000000 0.000000 0.000000
# 3 -0.014497 0.024018 0.055582 0.000000 0.000000 0.000000
# 4 0.000000 0.000000 0.000000 0.032619 0.000000 0.000000
# 5 0.000000 0.000000 0.000000 0.000000 0.033393 0.000000
# 6 0.000000 0.000000 0.000000 0.000000 0.000000 0.382024
#
#
# Mechanical properties :
#
#
# Convention : Reuss Voigt Hill
#
# Bulk Modulus (GPa) = 9.17703 39.44626 24.31165
# Shear Modulus (GPa) = 8.63305 29.06191 18.84748
#
# Velocity S-wave (km/s) = 2.06026 3.78008 3.04415
# Velocity P-wave (km/s) = 3.18930 6.20055 4.93044
#
# Compressibility (1/GPa) = 0.10896766
#
# Stress axis : x y z
#
# Youngs Moduli (GPa) = 115.91662 26.53898 17.99147
#
# Poissons Ratio (x) = 0.15875 0.26083
# Poissons Ratio (y) = 0.69338 -0.43213
# Poissons Ratio (z) = 1.68049 -0.63742
#
# Static dielectric constant tensor:
#      x y z
#    x 2.037090 0.000000 0.000000 
#    y 0.000000 1.767770 0.000000 
#    z 0.000000 0.000000 1.679100 
# 
# From -- ./inp_files/33794.got.cif
#   From: 2010.05.17/outbox.cif.g08.bks.cpg/sg51_17_cif.got.tgz:33794.got - 2010.06.03 11:52:47.
