data_PCOD9405821
_publ_section_title
;
Structure prediction by ZEFSAII (Michael W. Deem and Ramdas Pophale) SiO2 
 PCOD9405821
Probable space group: P M M A
;
_chemical_formula_sum "Si O2"
_cell_formula_units_Z 48
_cell_length_a 7.534704
_cell_length_b 18.216574
_cell_length_c 15.582250
_cell_angle_alpha 90.000000
_cell_angle_beta 90.000000
_cell_angle_gamma 90.000000
_cell_volume 2138.764988
_symmetry_space_group_name_H-M "P M M A"
_symmetry_group_IT_number 51
_symmetry_cell_setting 'orthorhombic'
loop_
_space_group_symop_operation_xyz
x,y,z
1/2-x,-y,z
1/2+x,-y,-z
-x,y,-z
-x,-y,-z
1/2+x,y,-z
1/2-x,y,z
x,-y,z
loop_
_atom_site_type_symbol
_atom_site_label
_atom_site_fract_x
_atom_site_fract_y
_atom_site_fract_z
Si Si1 0.541018 0.158192 0.853884
Si Si2 0.956019 0.000000 0.363046
Si Si3 0.540712 0.582383 0.254652
Si Si4 0.532974 0.000000 0.840493
Si Si5 0.534366 0.842828 0.349407
Si Si6 0.539634 0.683921 0.904389
Si Si7 0.037631 0.314724 0.594840
O O1 0.750000 0.157279 0.874087
O O2 0.471704 0.077485 0.879946
O O3 0.518617 0.162713 0.750745
O O4 0.464458 0.233357 0.891902
O O5 0.032738 0.920490 0.387157
O O6 0.968534 0.000000 0.258620
O O7 0.750000 0.000000 0.388991
O O8 0.750000 0.575321 0.272320
O O9 0.466772 0.500000 0.248950
O O10 0.525219 0.628034 0.167319
O O11 0.465420 0.632215 0.331379
O O12 0.750000 0.000000 0.837737
O O13 0.750000 0.845510 0.351559
O O14 0.470556 0.768753 0.394447
O O15 0.750000 0.688729 0.892573
O O16 0.500000 0.658317 0.000000
O O17 0.250000 0.310052 0.605802
O O18 0.000000 0.342586 0.500000
#
# Coordination Sequence:
#
# PCOD9405821 Si02
#       7
#     8   4   8   4   8   8   8
#     4   9  17  30  51  78 108 145 186 228 273 321
#     4   8  14  24  43  72 102 137 183 227 269 319
#     4  10  22  42  65  86 111 144 182 228 283 339
#     4   8  14  26  45  72 106 141 181 227 271 315
#     4   9  16  29  50  75 106 144 184 228 275 322
#     4  11  23  38  59  87 117 150 187 228 276 332
#     4  10  21  36  56  83 114 148 184 226 275 329
#
# _framework density 22.442858000000001
#
# number of rings (size 3 to 8) (size 9 to 14) (size 15 to 20)
#    0.000    2.500    1.667    0.500    0.000    3.000 
#    0.000    0.833    0.000    0.000    0.000    0.000 
#    0.000    0.000    0.000    0.000    0.000    0.000 
#
# Total GULP energy -267903.879439 kJ/mol
# GULP energy per Si atom -5581.330822 kJ/mol
# Density = 2.239178 g / cm^3
# Si number density = 22.442858 Si / 1000 Ang^3
#
#
#
# Elastic Constant Matrix: (Units=GPa)
#
#
# Indices 1 2 3 4 5 6 
#
# 1 61.0224 12.3478 -18.3137 0.0000 0.0000 0.0000
# 2 12.3478 212.4769 82.3891 0.0000 0.0000 0.0000
# 3 -18.3137 82.3891 111.0143 0.0000 0.0000 0.0000
# 4 0.0000 0.0000 0.0000 -17.4148 0.0000 0.0000
# 5 0.0000 0.0000 0.0000 0.0000 17.0679 0.0000
# 6 0.0000 0.0000 0.0000 0.0000 0.0000 -7.5932
#
#
#
# Elastic Compliance Matrix: (Units=1/GPa)
#
#
# Indices 1 2 3 4 5 6 
#
# 1 0.018672 -0.003201 0.005456 0.000000 0.000000 0.000000
# 2 -0.003201 0.007157 -0.005839 0.000000 0.000000 0.000000
# 3 0.005456 -0.005839 0.014241 0.000000 0.000000 0.000000
# 4 0.000000 0.000000 0.000000 -0.057422 0.000000 0.000000
# 5 0.000000 0.000000 0.000000 0.000000 0.058589 0.000000
# 6 0.000000 0.000000 0.000000 0.000000 0.000000 -0.131697
#
#
# Mechanical properties :
#
#
# Convention : Reuss Voigt Hill
#
# Bulk Modulus (GPa) = 30.39325 59.70668 45.04997
# Shear Modulus (GPa) = -69.13401 18.95133 -25.09134
#
# Velocity S-wave (km/s) = -5.55620 2.90905 -3.34729
# Velocity P-wave (km/s) = 5.25261 6.15996 2.27543
#
# Compressibility (1/GPa) = 0.03290204
#
# Stress axis : x y z
#
# Youngs Moduli (GPa) = 53.55502 139.73128 70.21758
#
# Poissons Ratio (x) = 0.44722 -0.38308
# Poissons Ratio (y) = 0.17141 0.41002
# Poissons Ratio (z) = -0.29218 0.81593
#
# Static dielectric constant tensor:
#      x y z
#    x 1.883250 0.000000 0.000000 
#    y 0.000000 1.882550 0.000000 
#    z 0.000000 0.000000 1.764900 
# 
# From -- ./inp_files/21138.got.cif
#   From: 2010.05.17/outbox.cif.g08.bks.cpg/sg51_11_cif.got.tgz:21138.got - 2010.06.03 11:52:47.
