data_PCOD9405112
_publ_section_title
;
Structure prediction by ZEFSAII (Michael W. Deem and Ramdas Pophale) SiO2 
 PCOD9405112
Probable space group: P M M A
;
_chemical_formula_sum "Si O2"
_cell_formula_units_Z 64
_cell_length_a 14.005529
_cell_length_b 19.146880
_cell_length_c 11.910597
_cell_angle_alpha 90.000000
_cell_angle_beta 90.000000
_cell_angle_gamma 90.000000
_cell_volume 3193.971694
_symmetry_space_group_name_H-M "P M M A"
_symmetry_group_IT_number 51
_symmetry_cell_setting 'orthorhombic'
loop_
_space_group_symop_operation_xyz
x,y,z
1/2-x,-y,z
1/2+x,-y,-z
-x,y,-z
-x,-y,-z
1/2+x,y,-z
1/2-x,y,z
x,-y,z
loop_
_atom_site_type_symbol
_atom_site_label
_atom_site_fract_x
_atom_site_fract_y
_atom_site_fract_z
Si Si1 0.365331 0.207787 0.321900
Si Si2 0.859702 0.580181 0.741277
Si Si3 0.638048 0.662831 0.524558
Si Si4 0.864964 0.918727 0.265457
Si Si5 0.973734 0.645339 0.126620
Si Si6 0.516549 0.804732 0.129947
Si Si7 0.634685 0.077192 0.524742
Si Si8 0.135353 0.421425 0.682510
O O1 0.250000 0.213960 0.306398
O O2 0.397813 0.270946 0.404437
O O3 0.420530 0.203208 0.204475
O O4 0.389292 0.137473 0.389368
O O5 0.750000 0.591661 0.774751
O O6 0.885173 0.500000 0.763621
O O7 0.865325 0.597645 0.609634
O O8 0.929083 0.631986 0.804983
O O9 0.750000 0.679791 0.503359
O O10 0.596891 0.635924 0.406675
O O11 0.750000 0.910521 0.257237
O O12 0.917748 0.862289 0.189296
O O13 0.892786 0.907914 0.396201
O O14 0.886737 0.000000 0.237466
O O15 0.941736 0.725934 0.129972
O O16 0.897843 0.598923 0.193330
O O17 0.000000 0.625647 0.000000
O O18 0.500000 0.823425 0.000000
O O19 0.750000 0.074651 0.522783
O O20 0.600504 0.000000 0.557774
O O21 0.250000 0.420962 0.675267
O O22 0.102631 0.500000 0.654935
#
# Coordination Sequence:
#
# PCOD9405112 Si02
#       8
#     8   8   8   8   8   8   8   8
#     4  10  20  37  62  89 122 159 196 245 305 366
#     4  10  20  37  62  86 112 153 201 249 303 361
#     4   9  18  35  59  87 118 151 190 244 309 370
#     4   9  20  41  66  91 123 161 202 251 304 360
#     4  11  25  42  57  82 122 162 205 251 295 354
#     4  11  25  41  59  87 122 164 210 253 297 354
#     4   8  16  33  59  91 122 151 187 235 297 365
#     4  10  22  40  62  89 120 154 197 255 316 368
#
# _framework density 20.037747
#
# number of rings (size 3 to 8) (size 9 to 14) (size 15 to 20)
#    0.000    2.250    1.250    1.500    1.750    5.750 
#    0.000    6.250    0.000    1.500    0.000    0.000 
#    0.000    0.000    0.000    0.000    0.000    0.000 
#
# Total GULP energy -357225.009191 kJ/mol
# GULP energy per Si atom -5581.640769 kJ/mol
# Density = 1.999214 g / cm^3
# Si number density = 20.037747 Si / 1000 Ang^3
#
#
#
# Elastic Constant Matrix: (Units=GPa)
#
#
# Indices 1 2 3 4 5 6 
#
# 1 62.9330 22.0158 13.5183 0.0000 0.0000 0.0000
# 2 22.0158 94.9144 60.3445 0.0000 0.0000 0.0000
# 3 13.5183 60.3445 111.7029 0.0000 0.0000 0.0000
# 4 0.0000 0.0000 0.0000 27.1688 0.0000 0.0000
# 5 0.0000 0.0000 0.0000 0.0000 189.3581 0.0000
# 6 0.0000 0.0000 0.0000 0.0000 0.0000 26.4020
#
#
#
# Elastic Compliance Matrix: (Units=1/GPa)
#
#
# Indices 1 2 3 4 5 6 
#
# 1 0.017294 -0.004083 0.000113 0.000000 0.000000 0.000000
# 2 -0.004083 0.017012 -0.008696 0.000000 0.000000 0.000000
# 3 0.000113 -0.008696 0.013636 0.000000 0.000000 0.000000
# 4 0.000000 0.000000 0.000000 0.036807 0.000000 0.000000
# 5 0.000000 0.000000 0.000000 0.000000 0.005281 0.000000
# 6 0.000000 0.000000 0.000000 0.000000 0.000000 0.037876
#
#
# Mechanical properties :
#
#
# Convention : Reuss Voigt Hill
#
# Bulk Modulus (GPa) = 44.22892 51.25638 47.74265
# Shear Modulus (GPa) = 31.09941 60.16391 45.63166
#
# Velocity S-wave (km/s) = 3.94387 5.48548 4.77727
# Velocity P-wave (km/s) = 6.54672 8.10901 7.36938
#
# Compressibility (1/GPa) = 0.02260964
#
# Stress axis : x y z
#
# Youngs Moduli (GPa) = 57.82326 58.78347 73.33329
#
# Poissons Ratio (x) = 0.24003 -0.00828
# Poissons Ratio (y) = 0.23611 0.63770
# Poissons Ratio (z) = -0.00653 0.51117
#
# Static dielectric constant tensor:
#      x y z
#    x 1.748720 0.000000 0.000000 
#    y 0.000000 1.714310 0.000000 
#    z 0.000000 0.000000 1.684770 
# 
# From -- ./inp_files/16811.got.cif
#   From: 2010.05.17/outbox.cif.g08.bks.cpg/sg51_9_cif.got.tgz:16811.got - 2010.06.03 11:52:47.
