data_PCOD9405141
_publ_section_title
;
Structure prediction by ZEFSAII (Michael W. Deem and Ramdas Pophale) SiO2 
 PCOD9405141
Probable space group: P M M A
;
_chemical_formula_sum "Si O2"
_cell_formula_units_Z 48
_cell_length_a 8.655926
_cell_length_b 10.088733
_cell_length_c 29.722109
_cell_angle_alpha 90.000000
_cell_angle_beta 90.000000
_cell_angle_gamma 90.000000
_cell_volume 2595.552310
_symmetry_space_group_name_H-M "P M M A"
_symmetry_group_IT_number 51
_symmetry_cell_setting 'orthorhombic'
loop_
_space_group_symop_operation_xyz
x,y,z
1/2-x,-y,z
1/2+x,-y,-z
-x,y,-z
-x,-y,-z
1/2+x,y,-z
1/2-x,y,z
x,-y,z
loop_
_atom_site_type_symbol
_atom_site_label
_atom_site_fract_x
_atom_site_fract_y
_atom_site_fract_z
Si Si1 0.933865 0.343645 0.194745
Si Si2 0.934423 0.249268 0.896371
Si Si3 0.562879 0.845503 0.370516
Si Si4 0.565546 0.000000 0.050487
Si Si5 0.563673 0.650676 0.450055
Si Si6 0.564576 0.346903 0.705977
Si Si7 0.564913 0.500000 0.050428
O O1 0.750000 0.322488 0.195144
O O2 0.961856 0.500000 0.184995
O O3 0.011111 0.260117 0.155190
O O4 0.003056 0.317915 0.243924
O O5 0.750000 0.248633 0.898514
O O6 0.002141 0.374465 0.922746
O O7 0.003876 0.124895 0.922081
O O8 0.750000 0.844644 0.369265
O O9 0.513493 0.762881 0.414858
O O10 0.501658 0.759894 0.328682
O O11 0.513491 0.000000 0.370515
O O12 0.750000 0.000000 0.048453
O O13 0.500000 0.000000 0.000000
O O14 0.500000 0.673984 0.500000
O O15 0.750000 0.652598 0.451709
O O16 0.516891 0.500000 0.436297
O O17 0.750000 0.342331 0.705642
O O18 0.517367 0.500000 0.694844
O O19 0.750000 0.500000 0.049696
O O20 0.500000 0.500000 0.000000
#
# Coordination Sequence:
#
# PCOD9405141 Si02
#       7
#     8   8   8   4   8   8   4
#     4  10  20  37  63  92 121 153 194 242 296 355
#     4  12  24  41  64  92 124 158 198 248 301 355
#     4  10  21  37  56  81 115 154 197 242 292 349
#     4  12  26  46  66  88 122 162 204 246 295 360
#     4   9  18  33  54  80 111 149 194 243 292 347
#     4  10  21  37  59  86 115 149 192 241 294 350
#     4  12  24  40  62  92 124 160 202 246 299 354
#
# _framework density 18.493174
#
# number of rings (size 3 to 8) (size 9 to 14) (size 15 to 20)
#    0.000    1.500    0.833    5.000    0.000    3.667 
#    1.500    1.667    0.000    0.000    0.000    0.000 
#    0.000    0.000    0.000    0.000    0.000    0.000 
#
# Total GULP energy -268225.333566 kJ/mol
# GULP energy per Si atom -5588.027783 kJ/mol
# Density = 1.845108 g / cm^3
# Si number density = 18.493174 Si / 1000 Ang^3
#
#
#
# Elastic Constant Matrix: (Units=GPa)
#
#
# Indices 1 2 3 4 5 6 
#
# 1 91.4340 60.9917 55.2355 0.0000 0.0000 0.0000
# 2 60.9917 179.3914 115.1306 0.0000 0.0000 0.0000
# 3 55.2355 115.1306 162.0587 0.0000 0.0000 0.0000
# 4 0.0000 0.0000 0.0000 27.8036 0.0000 0.0000
# 5 0.0000 0.0000 0.0000 0.0000 38.5053 0.0000
# 6 0.0000 0.0000 0.0000 0.0000 0.0000 26.2907
#
#
#
# Elastic Compliance Matrix: (Units=1/GPa)
#
#
# Indices 1 2 3 4 5 6 
#
# 1 0.014758 -0.003289 -0.002693 0.000000 0.000000 0.000000
# 2 -0.003289 0.010979 -0.006679 0.000000 0.000000 0.000000
# 3 -0.002693 -0.006679 0.011833 0.000000 0.000000 0.000000
# 4 0.000000 0.000000 0.000000 0.035967 0.000000 0.000000
# 5 0.000000 0.000000 0.000000 0.000000 0.025970 0.000000
# 6 0.000000 0.000000 0.000000 0.000000 0.000000 0.038036
#
#
# Mechanical properties :
#
#
# Convention : Reuss Voigt Hill
#
# Bulk Modulus (GPa) = 81.64651 99.51107 90.57879
# Shear Modulus (GPa) = 29.94938 31.95501 30.95219
#
# Velocity S-wave (km/s) = 4.02865 4.16135 4.09554
# Velocity P-wave (km/s) = 8.11698 8.77585 8.45284
#
# Compressibility (1/GPa) = 0.01224792
#
# Stress axis : x y z
#
# Youngs Moduli (GPa) = 67.76029 91.08374 84.50682
#
# Poissons Ratio (x) = 0.29957 0.22762
# Poissons Ratio (y) = 0.22286 0.56440
# Poissons Ratio (z) = 0.18251 0.60832
#
# Static dielectric constant tensor:
#      x y z
#    x 1.616700 0.000000 0.000000 
#    y 0.000000 1.616030 0.000000 
#    z 0.000000 0.000000 1.611950 
# 
# From -- ./inp_files/37086.got.cif
#   From: 2010.05.17/outbox.cif.g08.bks.cpg/sg51_19_cif.got.tgz:37086.got - 2010.06.03 11:52:47.
