data_PCOD9405405
_publ_section_title
;
Structure prediction by ZEFSAII (Michael W. Deem and Ramdas Pophale) SiO2 
 PCOD9405405
Probable space group: P M M A
;
_chemical_formula_sum "Si O2"
_cell_formula_units_Z 48
_cell_length_a 9.752000
_cell_length_b 7.495578
_cell_length_c 31.722619
_cell_angle_alpha 90.000000
_cell_angle_beta 90.000000
_cell_angle_gamma 90.000000
_cell_volume 2318.824368
_symmetry_space_group_name_H-M "P M M A"
_symmetry_group_IT_number 51
_symmetry_cell_setting 'orthorhombic'
loop_
_space_group_symop_operation_xyz
x,y,z
1/2-x,-y,z
1/2+x,-y,-z
-x,y,-z
-x,-y,-z
1/2+x,y,-z
1/2-x,y,z
x,-y,z
loop_
_atom_site_type_symbol
_atom_site_label
_atom_site_fract_x
_atom_site_fract_y
_atom_site_fract_z
Si Si1 0.408065 0.718145 0.960059
Si Si2 0.595870 0.787994 0.287761
Si Si3 0.408376 0.282511 0.461345
Si Si4 0.593471 0.714798 0.632891
Si Si5 0.905463 0.213829 0.786859
Si Si6 0.593761 0.713553 0.883106
O O1 0.250000 0.776596 0.962618
O O2 0.405387 0.500000 0.959972
O O3 0.486216 0.778148 0.917760
O O4 0.500000 0.771870 0.000000
O O5 0.750000 0.715406 0.290693
O O6 0.509990 0.764443 0.330410
O O7 0.508644 0.715450 0.248364
O O8 0.607284 0.000000 0.281012
O O9 0.500000 0.218851 0.500000
O O10 0.250000 0.232593 0.467403
O O11 0.413994 0.500000 0.461540
O O12 0.449032 0.225112 0.414108
O O13 0.750000 0.777104 0.641180
O O14 0.598609 0.500000 0.631729
O O15 0.750000 0.282990 0.781130
O O16 0.947426 0.249646 0.834971
O O17 0.898865 0.000000 0.782078
O O18 0.750000 0.781900 0.889268
O O19 0.600564 0.500000 0.887972
#
# Coordination Sequence:
#
# PCOD9405405 Si02
#       6
#     8   8   8   8   8   8
#     4   9  16  26  42  65  93 123 152 183 222 268
#     4  10  21  35  50  70  96 126 161 200 241 286
#     4   8  14  25  42  66  95 124 153 187 229 278
#     4   9  18  32  50  73  99 126 159 198 238 282
#     4   9  18  33  51  68  89 122 159 191 230 283
#     4   9  17  29  46  69  94 118 148 188 230 270
#
# _framework density 20.700144000000002
#
# number of rings (size 3 to 8) (size 9 to 14) (size 15 to 20)
#    0.000    3.000    0.000    2.000    0.000    5.333 
#    0.000    3.333    0.000    1.000    0.000    0.000 
#    0.000    0.000    0.000    0.000    0.000    0.000 
#
# Total GULP energy -267857.289986 kJ/mol
# GULP energy per Si atom -5580.360208 kJ/mol
# Density = 2.065303 g / cm^3
# Si number density = 20.700144 Si / 1000 Ang^3
#
#
#
# Elastic Constant Matrix: (Units=GPa)
#
#
# Indices 1 2 3 4 5 6 
#
# 1 172.1569 5.8375 162.3111 0.0000 0.0000 0.0000
# 2 5.8375 55.3991 -0.1973 0.0000 0.0000 0.0000
# 3 162.3111 -0.1973 219.0713 0.0000 0.0000 0.0000
# 4 0.0000 0.0000 0.0000 30.9765 0.0000 0.0000
# 5 0.0000 0.0000 0.0000 0.0000 37.0427 0.0000
# 6 0.0000 0.0000 0.0000 0.0000 0.0000 4.0494
#
#
#
# Elastic Compliance Matrix: (Units=1/GPa)
#
#
# Indices 1 2 3 4 5 6 
#
# 1 0.019511 -0.002107 -0.014458 0.000000 0.000000 0.000000
# 2 -0.002107 0.018279 0.001578 0.000000 0.000000 0.000000
# 3 -0.014458 0.001578 0.015278 0.000000 0.000000 0.000000
# 4 0.000000 0.000000 0.000000 0.032282 0.000000 0.000000
# 5 0.000000 0.000000 0.000000 0.000000 0.026996 0.000000
# 6 0.000000 0.000000 0.000000 0.000000 0.000000 0.246948
#
#
# Mechanical properties :
#
#
# Convention : Reuss Voigt Hill
#
# Bulk Modulus (GPa) = 43.30328 86.94775 65.12551
# Shear Modulus (GPa) = 12.59554 32.99215 22.79384
#
# Velocity S-wave (km/s) = 2.46941 3.99659 3.32195
# Velocity P-wave (km/s) = 5.39401 7.96188 6.80026
#
# Compressibility (1/GPa) = 0.02309294
#
# Stress axis : x y z
#
# Youngs Moduli (GPa) = 51.25353 54.70905 65.45426
#
# Poissons Ratio (x) = 0.11529 0.94631
# Poissons Ratio (y) = 0.10801 -0.10328
# Poissons Ratio (z) = 0.74100 -0.08632
#
# Static dielectric constant tensor:
#      x y z
#    x 1.722790 0.000000 0.000000 
#    y 0.000000 1.789400 0.000000 
#    z 0.000000 0.000000 1.711620 
# 
# From -- ./inp_files/36126.got.cif
#   From: 2010.05.17/outbox.cif.g08.bks.cpg/sg51_19_cif.got.tgz:36126.got - 2010.06.03 11:52:47.
