data_PCOD9405330
_publ_section_title
;
Structure prediction by ZEFSAII (Michael W. Deem and Ramdas Pophale) SiO2 
 PCOD9405330
Probable space group: P M M A
;
_chemical_formula_sum "Si O2"
_cell_formula_units_Z 44
_cell_length_a 8.548145
_cell_length_b 29.864540
_cell_length_c 9.823465
_cell_angle_alpha 90.000000
_cell_angle_beta 90.000000
_cell_angle_gamma 90.000000
_cell_volume 2507.797195
_symmetry_space_group_name_H-M "P M M A"
_symmetry_group_IT_number 51
_symmetry_cell_setting 'orthorhombic'
loop_
_space_group_symop_operation_xyz
x,y,z
1/2-x,-y,z
1/2+x,-y,-z
-x,y,-z
-x,-y,-z
1/2+x,y,-z
1/2-x,y,z
x,-y,z
loop_
_atom_site_type_symbol
_atom_site_label
_atom_site_fract_x
_atom_site_fract_y
_atom_site_fract_z
Si Si1 0.562883 0.451353 0.344434
Si Si2 0.060943 0.181910 0.151100
Si Si3 0.438869 0.919841 0.151479
Si Si4 0.439263 0.000000 0.346816
Si Si5 0.437035 0.640526 0.344796
Si Si6 0.939003 0.261199 0.653692
O O1 0.500000 0.451792 0.500000
O O2 0.750000 0.449151 0.349126
O O3 0.517122 0.500000 0.284436
O O4 0.500707 0.405316 0.280063
O O5 0.250000 0.182671 0.149680
O O6 0.012103 0.131034 0.186659
O O7 0.005707 0.219954 0.254809
O O8 0.000000 0.191229 0.000000
O O9 0.250000 0.920847 0.146585
O O10 0.490706 0.956318 0.261469
O O11 0.500000 0.930296 0.000000
O O12 0.500000 0.000000 0.500000
O O13 0.250000 0.000000 0.350164
O O14 0.500000 0.641170 0.500000
O O15 0.250000 0.637744 0.347937
O O16 0.483650 0.689466 0.289237
O O17 0.750000 0.260172 0.649256
O O18 0.000000 0.257210 0.500000
#
# Coordination Sequence:
#
# PCOD9405330 Si02
#       6
#     8   8   8   4   8   8
#     4   9  15  21  30  46  70 101 136 173 211 253
#     4   9  18  33  50  69  93 120 152 191 230 269
#     4   9  18  33  52  71  93 122 156 192 229 270
#     4  10  21  34  48  72 102 128 155 190 230 270
#     4   9  15  23  35  51  74 105 138 173 213 258
#     4   9  18  30  44  64  90 118 149 185 225 270
#
# _framework density 17.545278
#
# number of rings (size 3 to 8) (size 9 to 14) (size 15 to 20)
#    0.000    2.909    0.000    2.455    0.000    4.000 
#    0.000    0.000    0.000    0.000    0.000    0.000 
#    0.000    0.727    0.000    1.636    0.000    9.273 
#
# Total GULP energy -244951.826173 kJ/mol
# GULP energy per Si atom -5567.086958 kJ/mol
# Density = 1.750534 g / cm^3
# Si number density = 17.545278 Si / 1000 Ang^3
#
#
#
# Elastic Constant Matrix: (Units=GPa)
#
#
# Indices 1 2 3 4 5 6 
#
# 1 17.5878 32.8298 12.1428 0.0000 0.0000 0.0000
# 2 32.8298 203.1058 93.7629 0.0000 0.0000 0.0000
# 3 12.1428 93.7629 62.9189 0.0000 0.0000 0.0000
# 4 0.0000 0.0000 0.0000 -6.8119 0.0000 0.0000
# 5 0.0000 0.0000 0.0000 0.0000 19.0413 0.0000
# 6 0.0000 0.0000 0.0000 0.0000 0.0000 18.2273
#
#
#
# Elastic Compliance Matrix: (Units=1/GPa)
#
#
# Indices 1 2 3 4 5 6 
#
# 1 0.084610 -0.019670 0.012984 0.000000 0.000000 0.000000
# 2 -0.019670 0.020351 -0.026532 0.000000 0.000000 0.000000
# 3 0.012984 -0.026532 0.052926 0.000000 0.000000 0.000000
# 4 0.000000 0.000000 0.000000 -0.146803 0.000000 0.000000
# 5 0.000000 0.000000 0.000000 0.000000 0.052517 0.000000
# 6 0.000000 0.000000 0.000000 0.000000 0.000000 0.054863
#
#
# Mechanical properties :
#
#
# Convention : Reuss Voigt Hill
#
# Bulk Modulus (GPa) = 10.93475 62.34264 36.63869
# Shear Modulus (GPa) = 23.21432 15.74982 19.48207
#
# Velocity S-wave (km/s) = 3.64140 2.99936 3.33586
# Velocity P-wave (km/s) = 4.89138 6.89960 5.98039
#
# Compressibility (1/GPa) = 0.09145154
#
# Stress axis : x y z
#
# Youngs Moduli (GPa) = 11.81888 49.13698 18.89445
#
# Poissons Ratio (x) = 0.96655 -0.24533
# Poissons Ratio (y) = 0.23248 0.50130
# Poissons Ratio (z) = -0.15346 1.30368
#
# Static dielectric constant tensor:
#      x y z
#    x 1.600300 0.000000 0.000000 
#    y 0.000000 1.681050 0.000000 
#    z 0.000000 0.000000 1.546740 
# 
# From -- ./inp_files/5768.got.cif
#   From: 2010.05.17/outbox.cif.g08.bks.cpg/sg51_3_cif.got.tgz:5768.got - 2010.06.03 11:52:47.
