data_PCOD9405795
_publ_section_title
;
Structure prediction by ZEFSAII (Michael W. Deem and Ramdas Pophale) SiO2 
 PCOD9405795
Probable space group: P M M A
;
_chemical_formula_sum "Si O2"
_cell_formula_units_Z 32
_cell_length_a 8.655394
_cell_length_b 7.885905
_cell_length_c 24.715828
_cell_angle_alpha 90.000000
_cell_angle_beta 90.000000
_cell_angle_gamma 90.000000
_cell_volume 1686.994036
_symmetry_space_group_name_H-M "P M M A"
_symmetry_group_IT_number 51
_symmetry_cell_setting 'orthorhombic'
loop_
_space_group_symop_operation_xyz
x,y,z
1/2-x,-y,z
1/2+x,-y,-z
-x,y,-z
-x,-y,-z
1/2+x,y,-z
1/2-x,y,z
x,-y,z
loop_
_atom_site_type_symbol
_atom_site_label
_atom_site_fract_x
_atom_site_fract_y
_atom_site_fract_z
Si Si1 0.070243 0.795726 0.244612
Si Si2 0.434367 0.500000 0.560502
Si Si3 0.937735 0.000000 0.060482
Si Si4 0.435431 0.314874 0.867502
Si Si5 0.937355 0.197887 0.633102
O O1 0.250000 0.745631 0.240484
O O2 0.015615 0.754769 0.305316
O O3 0.980439 0.718146 0.194562
O O4 0.062615 0.000000 0.240135
O O5 0.250000 0.500000 0.559277
O O6 0.500000 0.500000 0.500000
O O7 0.493745 0.667275 0.591867
O O8 0.991611 0.164342 0.094096
O O9 0.750000 0.000000 0.059279
O O10 0.000000 0.000000 0.000000
O O11 0.250000 0.314080 0.870744
O O12 0.493128 0.500000 0.884314
O O13 0.750000 0.205511 0.631346
O O14 0.980102 0.000000 0.623142
#
# Coordination Sequence:
#
# PCOD9405795 Si02
#       5
#     8   4   4   8   8
#     4   9  18  34  58  87 118 151 189 232 283 342
#     4  12  26  42  62  88 120 160 205 250 297 356
#     4  10  22  40  58  78 110 152 193 242 287 336
#     4  10  21  36  55  82 115 150 187 230 287 345
#     4   9  20  40  63  88 121 159 197 245 299 352
#
# _framework density 18.96865
#
# number of rings (size 3 to 8) (size 9 to 14) (size 15 to 20)
#    0.000    2.250    1.250    2.625    1.750    4.000 
#    0.000    2.500    0.000    0.000    0.000    0.000 
#    0.000    0.000    0.000    0.000    0.000    0.000 
#
# Total GULP energy -178628.784760 kJ/mol
# GULP energy per Si atom -5582.149524 kJ/mol
# Density = 1.892548 g / cm^3
# Si number density = 18.968650 Si / 1000 Ang^3
#
#
#
# Elastic Constant Matrix: (Units=GPa)
#
#
# Indices 1 2 3 4 5 6 
#
# 1 19.9084 36.1843 30.9935 0.0000 0.0000 0.0000
# 2 36.1843 153.2362 113.7427 0.0000 0.0000 0.0000
# 3 30.9935 113.7427 161.1909 0.0000 0.0000 0.0000
# 4 0.0000 0.0000 0.0000 -64.0789 0.0000 0.0000
# 5 0.0000 0.0000 0.0000 0.0000 35.5312 0.0000
# 6 0.0000 0.0000 0.0000 0.0000 0.0000 22.4332
#
#
#
# Elastic Compliance Matrix: (Units=1/GPa)
#
#
# Indices 1 2 3 4 5 6 
#
# 1 0.089756 -0.017606 -0.004835 0.000000 0.000000 0.000000
# 2 -0.017606 0.017157 -0.008721 0.000000 0.000000 0.000000
# 3 -0.004835 -0.008721 0.013288 0.000000 0.000000 0.000000
# 4 0.000000 0.000000 0.000000 -0.015606 0.000000 0.000000
# 5 0.000000 0.000000 0.000000 0.000000 0.028144 0.000000
# 6 0.000000 0.000000 0.000000 0.000000 0.000000 0.044577
#
#
# Mechanical properties :
#
#
# Convention : Reuss Voigt Hill
#
# Bulk Modulus (GPa) = 17.27809 77.35293 47.31551
# Shear Modulus (GPa) = 19.31010 9.00477 14.15743
#
# Velocity S-wave (km/s) = 3.19407 2.18117 2.73492
# Velocity P-wave (km/s) = 4.76774 6.87104 5.91365
#
# Compressibility (1/GPa) = 0.05787676
#
# Stress axis : x y z
#
# Youngs Moduli (GPa) = 11.14128 58.28611 75.25849
#
# Poissons Ratio (x) = 1.02617 0.36386
# Poissons Ratio (y) = 0.19615 0.65635
# Poissons Ratio (z) = 0.05387 0.50833
#
# Static dielectric constant tensor:
#      x y z
#    x 1.642640 0.000000 0.000000 
#    y 0.000000 -0.632470 0.000000 
#    z 0.000000 0.000000 1.624130 
# 
# From -- ./inp_files/34271.got.cif
#   From: 2010.05.17/outbox.cif.g08.bks.cpg/sg51_18_cif.got.tgz:34271.got - 2010.06.03 11:52:47.
