data_PCOD9405434
_publ_section_title
;
Structure prediction by ZEFSAII (Michael W. Deem and Ramdas Pophale) SiO2 
 PCOD9405434
Probable space group: P M M A
;
_chemical_formula_sum "Si O2"
_cell_formula_units_Z 48
_cell_length_a 7.875769
_cell_length_b 10.265883
_cell_length_c 31.409172
_cell_angle_alpha 90.000000
_cell_angle_beta 90.000000
_cell_angle_gamma 90.000000
_cell_volume 2539.485677
_symmetry_space_group_name_H-M "P M M A"
_symmetry_group_IT_number 51
_symmetry_cell_setting 'orthorhombic'
loop_
_space_group_symop_operation_xyz
x,y,z
1/2-x,-y,z
1/2+x,-y,-z
-x,y,-z
-x,-y,-z
1/2+x,y,-z
1/2-x,y,z
x,-y,z
loop_
_atom_site_type_symbol
_atom_site_label
_atom_site_fract_x
_atom_site_fract_y
_atom_site_fract_z
Si Si1 0.954851 0.148287 0.548145
Si Si2 0.454407 0.852618 0.215192
Si Si3 0.047059 0.647575 0.382460
Si Si4 0.954646 0.648486 0.952003
Si Si5 0.452044 0.352631 0.712835
Si Si6 0.042513 0.850859 0.118705
O O1 0.750000 0.144700 0.551187
O O2 0.019937 0.249882 0.583147
O O3 0.000000 0.187169 0.500000
O O4 0.017282 0.000000 0.554905
O O5 0.250000 0.856954 0.214013
O O6 0.503064 0.747658 0.250223
O O7 0.511437 0.819396 0.167082
O O8 0.514227 0.000000 0.225149
O O9 0.250000 0.640876 0.388382
O O10 0.978890 0.500000 0.387515
O O11 0.015905 0.688757 0.333777
O O12 0.750000 0.645314 0.949122
O O13 0.017019 0.500000 0.945717
O O14 0.017714 0.748322 0.916320
O O15 0.000000 0.688881 0.000000
O O16 0.250000 0.359412 0.710317
O O17 0.517953 0.500000 0.721094
O O18 0.250000 0.848619 0.118296
O O19 0.992032 0.000000 0.109354
#
# Coordination Sequence:
#
# PCOD9405434 Si02
#       6
#     8   8   8   8   8   8
#     4   9  18  32  49  70  96 124 155 193 236 282
#     4   9  18  33  53  75  97 124 161 203 245 290
#     4   9  18  33  51  70  94 126 163 200 237 280
#     4   9  17  29  45  66  92 121 153 189 229 274
#     4  10  21  35  50  72 102 132 162 199 244 292
#     4   8  15  29  48  69  92 118 152 194 234 275
#
# _framework density 18.901467
#
# number of rings (size 3 to 8) (size 9 to 14) (size 15 to 20)
#    0.000    3.000    0.000    1.500    0.000    4.000 
#    0.000    4.167    0.000    3.000    0.000    0.000 
#    0.000    0.000    0.000    0.000    0.000    0.000 
#
# Total GULP energy -267605.661735 kJ/mol
# GULP energy per Si atom -5575.117953 kJ/mol
# Density = 1.885845 g / cm^3
# Si number density = 18.901467 Si / 1000 Ang^3
#
#
#
# Elastic Constant Matrix: (Units=GPa)
#
#
# Indices 1 2 3 4 5 6 
#
# 1 17.1112 5.9997 2.1147 0.0000 0.0000 0.0000
# 2 5.9997 127.2984 139.1226 0.0000 0.0000 0.0000
# 3 2.1147 139.1226 185.7575 0.0000 0.0000 0.0000
# 4 0.0000 0.0000 0.0000 40.1933 0.0000 0.0000
# 5 0.0000 0.0000 0.0000 0.0000 22.2977 0.0000
# 6 0.0000 0.0000 0.0000 0.0000 0.0000 7.8211
#
#
#
# Elastic Compliance Matrix: (Units=1/GPa)
#
#
# Indices 1 2 3 4 5 6 
#
# 1 0.061565 -0.011768 0.008112 0.000000 0.000000 0.000000
# 2 -0.011768 0.045534 -0.033968 0.000000 0.000000 0.000000
# 3 0.008112 -0.033968 0.030732 0.000000 0.000000 0.000000
# 4 0.000000 0.000000 0.000000 0.024880 0.000000 0.000000
# 5 0.000000 0.000000 0.000000 0.000000 0.044848 0.000000
# 6 0.000000 0.000000 0.000000 0.000000 0.000000 0.127859
#
#
# Mechanical properties :
#
#
# Convention : Reuss Voigt Hill
#
# Bulk Modulus (GPa) = 15.97875 69.40457 42.69166
# Shear Modulus (GPa) = 11.58681 26.25776 18.92228
#
# Velocity S-wave (km/s) = 2.47859 3.73123 3.16745
# Velocity P-wave (km/s) = 4.08207 7.44054 6.00104
#
# Compressibility (1/GPa) = 0.06258311
#
# Stress axis : x y z
#
# Youngs Moduli (GPa) = 16.24301 21.96174 32.53986
#
# Poissons Ratio (x) = 0.25844 -0.26398
# Poissons Ratio (y) = 0.19114 1.10533
# Poissons Ratio (z) = -0.13177 0.74601
#
# Static dielectric constant tensor:
#      x y z
#    x 1.686990 0.000000 0.000000 
#    y 0.000000 1.672350 0.000000 
#    z 0.000000 0.000000 1.626240 
# 
# From -- ./inp_files/36977.got.cif
#   From: 2010.05.17/outbox.cif.g08.bks.cpg/sg51_19_cif.got.tgz:36977.got - 2010.06.03 11:52:47.
