data_PCOD9405004
_publ_section_title
;
Structure prediction by ZEFSAII (Michael W. Deem and Ramdas Pophale) SiO2 
 PCOD9405004
Probable space group: P M M A
;
_chemical_formula_sum "Si O2"
_cell_formula_units_Z 48
_cell_length_a 8.219972
_cell_length_b 18.034666
_cell_length_c 15.993719
_cell_angle_alpha 90.000000
_cell_angle_beta 90.000000
_cell_angle_gamma 90.000000
_cell_volume 2370.980069
_symmetry_space_group_name_H-M "P M M A"
_symmetry_group_IT_number 51
_symmetry_cell_setting 'orthorhombic'
loop_
_space_group_symop_operation_xyz
x,y,z
1/2-x,-y,z
1/2+x,-y,-z
-x,y,-z
-x,-y,-z
1/2+x,y,-z
1/2-x,y,z
x,-y,z
loop_
_atom_site_type_symbol
_atom_site_label
_atom_site_fract_x
_atom_site_fract_y
_atom_site_fract_z
Si Si1 0.553422 0.415081 0.252229
Si Si2 0.445578 0.142908 0.595632
Si Si3 0.944794 0.839544 0.094832
Si Si4 0.567073 0.000000 0.140439
Si Si5 0.557436 0.681192 0.902900
Si Si6 0.446047 0.689670 0.596479
Si Si7 0.433954 0.000000 0.310667
O O1 0.750000 0.414848 0.255623
O O2 0.496788 0.500000 0.256969
O O3 0.505147 0.378292 0.164022
O O4 0.495350 0.367722 0.332882
O O5 0.500000 0.139652 0.500000
O O6 0.250000 0.133991 0.603810
O O7 0.491038 0.226233 0.623427
O O8 0.535969 0.075313 0.639359
O O9 0.750000 0.841161 0.104744
O O10 0.004711 0.762273 0.132636
O O11 0.010653 0.920713 0.119289
O O12 0.000000 0.831676 0.000000
O O13 0.750000 0.000000 0.103481
O O14 0.568130 0.000000 0.239257
O O15 0.750000 0.679123 0.905975
O O16 0.500000 0.671127 0.000000
O O17 0.500000 0.676708 0.500000
O O18 0.250000 0.687220 0.594958
O O19 0.250000 0.000000 0.276925
#
# Coordination Sequence:
#
# PCOD9405004 Si02
#       7
#     8   8   8   4   8   8   4
#     4  10  22  41  64  91 123 159 198 244 301 362
#     4  10  20  37  58  80 110 150 195 239 292 346
#     4  10  20  37  60  84 114 152 195 239 289 343
#     4  10  23  38  54  80 115 156 194 236 287 344
#     4  11  23  40  63  91 122 159 202 248 301 358
#     4   9  20  38  62  90 120 158 198 243 296 355
#     4  12  25  36  51  80 115 150 195 244 291 340
#
# _framework density 20.244792
#
# number of rings (size 3 to 8) (size 9 to 14) (size 15 to 20)
#    0.000    1.833    0.000    4.750    2.333    3.667 
#    0.000    0.000    0.000    0.000    0.000    0.000 
#    0.000    0.000    0.000    0.000    0.000    0.000 
#
# Total GULP energy -267658.548381 kJ/mol
# GULP energy per Si atom -5576.219758 kJ/mol
# Density = 2.019871 g / cm^3
# Si number density = 20.244792 Si / 1000 Ang^3
#
#
#
# Elastic Constant Matrix: (Units=GPa)
#
#
# Indices 1 2 3 4 5 6 
#
# 1 46.5526 25.0913 7.5343 0.0000 0.0000 0.0000
# 2 25.0913 179.0476 78.4049 0.0000 0.0000 0.0000
# 3 7.5343 78.4049 83.3478 0.0000 0.0000 0.0000
# 4 0.0000 0.0000 0.0000 88.5903 0.0000 0.0000
# 5 0.0000 0.0000 0.0000 0.0000 26.5319 0.0000
# 6 0.0000 0.0000 0.0000 0.0000 0.0000 32.1587
#
#
#
# Elastic Compliance Matrix: (Units=1/GPa)
#
#
# Indices 1 2 3 4 5 6 
#
# 1 0.023368 -0.003996 0.001646 0.000000 0.000000 0.000000
# 2 -0.003996 0.010181 -0.009216 0.000000 0.000000 0.000000
# 3 0.001646 -0.009216 0.020518 0.000000 0.000000 0.000000
# 4 0.000000 0.000000 0.000000 0.011288 0.000000 0.000000
# 5 0.000000 0.000000 0.000000 0.000000 0.037690 0.000000
# 6 0.000000 0.000000 0.000000 0.000000 0.000000 0.031096
#
#
# Mechanical properties :
#
#
# Convention : Reuss Voigt Hill
#
# Bulk Modulus (GPa) = 32.32369 59.00097 45.66233
# Shear Modulus (GPa) = 29.83588 42.65068 36.24328
#
# Velocity S-wave (km/s) = 3.84312 4.59491 4.23573
# Velocity P-wave (km/s) = 5.97443 7.57351 6.82099
#
# Compressibility (1/GPa) = 0.03093707
#
# Stress axis : x y z
#
# Youngs Moduli (GPa) = 42.79312 98.22632 48.73723
#
# Poissons Ratio (x) = 0.39248 -0.08024
# Poissons Ratio (y) = 0.17099 0.44914
# Poissons Ratio (z) = -0.07045 0.90522
#
# Static dielectric constant tensor:
#      x y z
#    x 1.713300 0.000000 0.000000 
#    y 0.000000 1.850060 0.000000 
#    z 0.000000 0.000000 1.658520 
# 
# From -- ./inp_files/21186.got.cif
#   From: 2010.05.17/outbox.cif.g08.bks.cpg/sg51_11_cif.got.tgz:21186.got - 2010.06.03 11:52:47.
