data_PCOD9405667
_publ_section_title
;
Structure prediction by ZEFSAII (Michael W. Deem and Ramdas Pophale) SiO2 
 PCOD9405667
Probable space group: P M M A
;
_chemical_formula_sum "Si O2"
_cell_formula_units_Z 44
_cell_length_a 9.050226
_cell_length_b 13.945473
_cell_length_c 19.399059
_cell_angle_alpha 90.000000
_cell_angle_beta 90.000000
_cell_angle_gamma 90.000000
_cell_volume 2448.349074
_symmetry_space_group_name_H-M "P M M A"
_symmetry_group_IT_number 51
_symmetry_cell_setting 'orthorhombic'
loop_
_space_group_symop_operation_xyz
x,y,z
1/2-x,-y,z
1/2+x,-y,-z
-x,y,-z
-x,-y,-z
1/2+x,y,-z
1/2-x,y,z
x,-y,z
loop_
_atom_site_type_symbol
_atom_site_label
_atom_site_fract_x
_atom_site_fract_y
_atom_site_fract_z
Si Si1 0.573601 0.500000 0.074916
Si Si2 0.075169 0.000000 0.426546
Si Si3 0.072727 0.106623 0.177134
Si Si4 0.922275 0.137976 0.323265
Si Si5 0.922766 0.673343 0.844999
Si Si6 0.077844 0.330036 0.318134
Si Si7 0.423408 0.500000 0.425521
O O1 0.750000 0.500000 0.070518
O O2 0.518104 0.403852 0.113885
O O3 0.500000 0.500000 0.000000
O O4 0.000000 0.000000 0.500000
O O5 0.015685 0.911313 0.382721
O O6 0.250000 0.000000 0.431890
O O7 0.250000 0.110737 0.189125
O O8 0.036220 0.212681 0.145684
O O9 0.987782 0.106729 0.249643
O O10 0.043668 0.000000 0.144306
O O11 0.750000 0.115469 0.328361
O O12 0.956870 0.249226 0.328971
O O13 0.750000 0.664030 0.864862
O O14 0.932344 0.646494 0.763462
O O15 0.250000 0.297063 0.327223
O O16 0.048454 0.410819 0.374525
O O17 0.250000 0.500000 0.440566
O O18 0.500000 0.500000 0.500000
#
# Coordination Sequence:
#
# PCOD9405667 Si02
#       7
#     4   4   8   8   8   8   4
#     4  12  25  40  60  86 120 158 193 236 288 344
#     4  12  24  38  52  68  96 136 181 228 281 342
#     4   9  17  32  57  85 115 151 185 223 274 334
#     4  11  21  33  51  78 106 135 173 223 277 328
#     4   9  18  35  60  88 115 148 193 238 283 339
#     4   9  19  37  58  78 105 145 185 229 279 336
#     4  10  21  36  54  74 100 138 185 230 282 338
#
# _framework density 17.971294
#
# number of rings (size 3 to 8) (size 9 to 14) (size 15 to 20)
#    0.000    2.000    0.909    4.909    0.000    5.818 
#    0.000    2.727    0.000    0.545    0.000    0.000 
#    0.000    0.000    0.000    0.000    0.000    0.000 
#
# Total GULP energy -245092.011936 kJ/mol
# GULP energy per Si atom -5570.272999 kJ/mol
# Density = 1.793039 g / cm^3
# Si number density = 17.971294 Si / 1000 Ang^3
#
#
#
# Elastic Constant Matrix: (Units=GPa)
#
#
# Indices 1 2 3 4 5 6 
#
# 1 103.7177 63.0686 49.6738 0.0000 0.0000 0.0000
# 2 63.0686 141.0591 54.6886 0.0000 0.0000 0.0000
# 3 49.6738 54.6886 68.7934 0.0000 0.0000 0.0000
# 4 0.0000 0.0000 0.0000 -31.2453 0.0000 0.0000
# 5 0.0000 0.0000 0.0000 0.0000 27.9459 0.0000
# 6 0.0000 0.0000 0.0000 0.0000 0.0000 26.9197
#
#
#
# Elastic Compliance Matrix: (Units=1/GPa)
#
#
# Indices 1 2 3 4 5 6 
#
# 1 0.016090 -0.003888 -0.008527 0.000000 0.000000 0.000000
# 2 -0.003888 0.011187 -0.006086 0.000000 0.000000 0.000000
# 3 -0.008527 -0.006086 0.025532 0.000000 0.000000 0.000000
# 4 0.000000 0.000000 0.000000 -0.032005 0.000000 0.000000
# 5 0.000000 0.000000 0.000000 0.000000 0.035783 0.000000
# 6 0.000000 0.000000 0.000000 0.000000 0.000000 0.037148
#
#
# Mechanical properties :
#
#
# Convention : Reuss Voigt Hill
#
# Bulk Modulus (GPa) = 63.26594 72.04804 67.65699
# Shear Modulus (GPa) = 36.76324 14.46668 25.61496
#
# Velocity S-wave (km/s) = 4.52781 2.84031 3.77945
# Velocity P-wave (km/s) = 7.91297 7.13682 7.53489
#
# Compressibility (1/GPa) = 0.01580629
#
# Stress axis : x y z
#
# Youngs Moduli (GPa) = 62.15203 89.38895 39.16688
#
# Poissons Ratio (x) = 0.34753 0.33398
# Poissons Ratio (y) = 0.24163 0.23837
# Poissons Ratio (z) = 0.52998 0.54403
#
# Static dielectric constant tensor:
#      x y z
#    x 1.593320 0.000000 0.000000 
#    y 0.000000 1.684680 0.000000 
#    z 0.000000 0.000000 1.618220 
# 
# From -- ./inp_files/27479.got.cif
#   From: 2010.05.17/outbox.cif.g08.bks.cpg/sg51_14_cif.got.tgz:27479.got - 2010.06.03 11:52:47.
