data_PCOD9405531
_publ_section_title
;
Structure prediction by ZEFSAII (Michael W. Deem and Ramdas Pophale) SiO2 
 PCOD9405531
Probable space group: P M M A
;
_chemical_formula_sum "Si O2"
_cell_formula_units_Z 40
_cell_length_a 22.442665
_cell_length_b 7.848806
_cell_length_c 11.587230
_cell_angle_alpha 90.000000
_cell_angle_beta 90.000000
_cell_angle_gamma 90.000000
_cell_volume 2041.068823
_symmetry_space_group_name_H-M "P M M A"
_symmetry_group_IT_number 51
_symmetry_cell_setting 'orthorhombic'
loop_
_space_group_symop_operation_xyz
x,y,z
1/2-x,-y,z
1/2+x,-y,-z
-x,y,-z
-x,-y,-z
1/2+x,y,-z
1/2-x,y,z
x,-y,z
loop_
_atom_site_type_symbol
_atom_site_label
_atom_site_fract_x
_atom_site_fract_y
_atom_site_fract_z
Si Si1 0.053947 0.204290 0.421965
Si Si2 0.682143 0.201587 0.606505
Si Si3 0.321801 0.500000 0.951121
Si Si4 0.596855 0.808881 0.064004
Si Si5 0.181305 0.500000 0.212193
Si Si6 0.526954 0.701202 0.838908
O O1 0.121776 0.236284 0.466020
O O2 0.000000 0.271463 0.500000
O O3 0.046882 0.271927 0.292113
O O4 0.047691 0.000000 0.415519
O O5 0.750000 0.234094 0.561696
O O6 0.672995 0.330182 0.713177
O O7 0.680472 0.000000 0.637885
O O8 0.250000 0.500000 0.938455
O O9 0.353320 0.670199 0.905110
O O10 0.344266 0.500000 0.085223
O O11 0.570791 0.783194 0.933865
O O12 0.619665 0.000000 0.075342
O O13 0.538236 0.780526 0.141697
O O14 0.250000 0.500000 0.184649
O O15 0.522391 0.500000 0.863112
#
# Coordination Sequence:
#
# PCOD9405531 Si02
#       6
#     8   8   4   8   4   8
#     4  10  21  35  53  83 116 145 185 236 283 335
#     4   9  18  33  52  74 105 145 181 217 271 336
#     4  11  22  35  51  81 116 147 187 232 279 338
#     4  11  21  37  59  83 111 149 190 232 286 339
#     4   9  18  30  48  73 105 140 176 221 270 327
#     4  11  20  36  58  82 112 146 188 238 287 340
#
# _framework density 19.597577000000001
#
# number of rings (size 3 to 8) (size 9 to 14) (size 15 to 20)
#    0.000    1.800    2.000    4.200    1.400    3.200 
#    0.000    2.000    0.000    1.200    0.000    2.800 
#    0.000    0.000    0.000    0.000    0.000    0.000 
#
# Total GULP energy -222834.122618 kJ/mol
# GULP energy per Si atom -5570.853065 kJ/mol
# Density = 1.955297 g / cm^3
# Si number density = 19.597577 Si / 1000 Ang^3
#
#
#
# Elastic Constant Matrix: (Units=GPa)
#
#
# Indices 1 2 3 4 5 6 
#
# 1 178.5285 49.5431 34.3249 0.0000 0.0000 0.0000
# 2 49.5431 107.2954 -4.0580 0.0000 0.0000 0.0000
# 3 34.3249 -4.0580 23.6277 0.0000 0.0000 0.0000
# 4 0.0000 0.0000 0.0000 7.9327 0.0000 0.0000
# 5 0.0000 0.0000 0.0000 0.0000 19.2311 0.0000
# 6 0.0000 0.0000 0.0000 0.0000 0.0000 9.0450
#
#
#
# Elastic Compliance Matrix: (Units=1/GPa)
#
#
# Indices 1 2 3 4 5 6 
#
# 1 0.010017 -0.005209 -0.015447 0.000000 0.000000 0.000000
# 2 -0.005209 0.012090 0.009644 0.000000 0.000000 0.000000
# 3 -0.015447 0.009644 0.066419 0.000000 0.000000 0.000000
# 4 0.000000 0.000000 0.000000 0.126060 0.000000 0.000000
# 5 0.000000 0.000000 0.000000 0.000000 0.051999 0.000000
# 6 0.000000 0.000000 0.000000 0.000000 0.000000 0.110559
#
#
# Mechanical properties :
#
#
# Convention : Reuss Voigt Hill
#
# Bulk Modulus (GPa) = 15.03687 52.11906 33.57796
# Shear Modulus (GPa) = 11.86704 22.55120 17.20912
#
# Velocity S-wave (km/s) = 2.46343 3.39590 2.96653
# Velocity P-wave (km/s) = 3.97251 6.48294 5.37631
#
# Compressibility (1/GPa) = 0.06650320
#
# Stress axis : x y z
#
# Youngs Moduli (GPa) = 99.83192 82.71128 15.05588
#
# Poissons Ratio (x) = 0.43088 0.23256
# Poissons Ratio (y) = 0.52007 -0.14520
# Poissons Ratio (z) = 1.54206 -0.79770
#
# Static dielectric constant tensor:
#      x y z
#    x 1.748350 0.000000 0.000000 
#    y 0.000000 1.718860 0.000000 
#    z 0.000000 0.000000 1.682080 
# 
# From -- ./inp_files/17987.got.cif
#   From: 2010.05.17/outbox.cif.g08.bks.cpg/sg51_9_cif.got.tgz:17987.got - 2010.06.03 11:52:47.
