data_PCOD9405512
_publ_section_title
;
Structure prediction by ZEFSAII (Michael W. Deem and Ramdas Pophale) SiO2 
 PCOD9405512
Probable space group: P M M A
;
_chemical_formula_sum "Si O2"
_cell_formula_units_Z 40
_cell_length_a 14.667715
_cell_length_b 9.878143
_cell_length_c 15.283350
_cell_angle_alpha 90.000000
_cell_angle_beta 90.000000
_cell_angle_gamma 90.000000
_cell_volume 2214.401315
_symmetry_space_group_name_H-M "P M M A"
_symmetry_group_IT_number 51
_symmetry_cell_setting 'orthorhombic'
loop_
_space_group_symop_operation_xyz
x,y,z
1/2-x,-y,z
1/2+x,-y,-z
-x,y,-z
-x,-y,-z
1/2+x,y,-z
1/2-x,y,z
x,-y,z
loop_
_atom_site_type_symbol
_atom_site_label
_atom_site_fract_x
_atom_site_fract_y
_atom_site_fract_z
Si Si1 0.511365 0.661976 0.897487
Si Si2 0.640852 0.158761 0.785159
Si Si3 0.361454 0.344749 0.570408
Si Si4 0.361203 0.845252 0.412894
Si Si5 0.146125 0.335572 0.763945
O O1 0.525591 0.500000 0.887510
O O2 0.592630 0.745837 0.854506
O O3 0.421727 0.700598 0.841568
O O4 0.500000 0.690146 0.000000
O O5 0.750000 0.170296 0.791084
O O6 0.613427 0.196943 0.685580
O O7 0.617717 0.000000 0.797469
O O8 0.250000 0.346496 0.570691
O O9 0.391734 0.500000 0.559936
O O10 0.391638 0.253017 0.489940
O O11 0.386555 0.292275 0.667181
O O12 0.250000 0.846034 0.414259
O O13 0.390834 0.000000 0.427285
O O14 0.250000 0.288810 0.778304
O O15 0.148912 0.500000 0.759804
#
# Coordination Sequence:
#
# PCOD9405512 Si02
#       5
#     8   8   8   8   8
#     4  10  21  35  53  78 102 127 167 217 261 298
#     4   9  19  36  55  74 101 138 171 200 246 304
#     4   8  13  23  43  69  94 125 163 197 235 289
#     4   8  14  26  45  69  97 128 161 198 240 286
#     4   8  15  30  50  71 100 135 165 199 250 307
#
# _framework density 18.063573000000002
#
# number of rings (size 3 to 8) (size 9 to 14) (size 15 to 20)
#    0.000    3.400    0.000    2.400    0.000    2.400 
#    0.000    6.000    0.000    7.800    0.000    0.000 
#    0.000    0.000    0.000    0.000    0.000    0.000 
#
# Total GULP energy -222925.865042 kJ/mol
# GULP energy per Si atom -5573.146626 kJ/mol
# Density = 1.802246 g / cm^3
# Si number density = 18.063573 Si / 1000 Ang^3
#
#
#
# Elastic Constant Matrix: (Units=GPa)
#
#
# Indices 1 2 3 4 5 6 
#
# 1 52.0115 32.7797 52.0904 0.0000 0.0000 0.0000
# 2 32.7797 50.5779 84.1436 0.0000 0.0000 0.0000
# 3 52.0904 84.1436 187.9557 0.0000 0.0000 0.0000
# 4 0.0000 0.0000 0.0000 122.7794 0.0000 0.0000
# 5 0.0000 0.0000 0.0000 0.0000 36.5514 0.0000
# 6 0.0000 0.0000 0.0000 0.0000 0.0000 15.7841
#
#
#
# Elastic Compliance Matrix: (Units=1/GPa)
#
#
# Indices 1 2 3 4 5 6 
#
# 1 0.032634 -0.023916 0.001662 0.000000 0.000000 0.000000
# 2 -0.023916 0.094994 -0.035899 0.000000 0.000000 0.000000
# 3 0.001662 -0.035899 0.020931 0.000000 0.000000 0.000000
# 4 0.000000 0.000000 0.000000 0.008145 0.000000 0.000000
# 5 0.000000 0.000000 0.000000 0.000000 0.027359 0.000000
# 6 0.000000 0.000000 0.000000 0.000000 0.000000 0.063355
#
#
# Mechanical properties :
#
#
# Convention : Reuss Voigt Hill
#
# Bulk Modulus (GPa) = 31.00323 69.84139 50.42231
# Shear Modulus (GPa) = 13.35208 43.12509 28.23859
#
# Velocity S-wave (km/s) = 2.72172 4.89141 3.95813
# Velocity P-wave (km/s) = 5.20362 8.40532 6.99024
#
# Compressibility (1/GPa) = 0.03225470
#
# Stress axis : x y z
#
# Youngs Moduli (GPa) = 30.64248 10.52698 47.77656
#
# Poissons Ratio (x) = 0.25176 -0.07942
# Poissons Ratio (y) = 0.73284 1.71511
# Poissons Ratio (z) = -0.05093 0.37790
#
# Static dielectric constant tensor:
#      x y z
#    x 1.653240 0.000000 0.000000 
#    y 0.000000 1.599730 0.000000 
#    z 0.000000 0.000000 1.611570 
# 
# From -- ./inp_files/16178.got.cif
#   From: 2010.05.17/outbox.cif.g08.bks.cpg/sg51_9_cif.got.tgz:16178.got - 2010.06.03 11:52:47.
