data_PCOD9405194
_publ_section_title
;
Structure prediction by ZEFSAII (Michael W. Deem and Ramdas Pophale) SiO2 
 PCOD9405194
Probable space group: P M M A
;
_chemical_formula_sum "Si O2"
_cell_formula_units_Z 48
_cell_length_a 10.231681
_cell_length_b 9.131307
_cell_length_c 29.625360
_cell_angle_alpha 90.000000
_cell_angle_beta 90.000000
_cell_angle_gamma 90.000000
_cell_volume 2767.856512
_symmetry_space_group_name_H-M "P M M A"
_symmetry_group_IT_number 51
_symmetry_cell_setting 'orthorhombic'
loop_
_space_group_symop_operation_xyz
x,y,z
1/2-x,-y,z
1/2+x,-y,-z
-x,y,-z
-x,-y,-z
1/2+x,y,-z
1/2-x,y,z
x,-y,z
loop_
_atom_site_type_symbol
_atom_site_label
_atom_site_fract_x
_atom_site_fract_y
_atom_site_fract_z
Si Si1 0.750000 0.826124 0.946579
Si Si2 0.598206 0.825477 0.540032
Si Si3 0.594891 0.672450 0.199058
Si Si4 0.750000 0.327795 0.042735
Si Si5 0.991032 0.674437 0.898290
Si Si6 0.902667 0.324967 0.636020
Si Si7 0.903625 0.825065 0.293294
O O1 0.624323 0.763615 0.920813
O O2 0.750000 0.000000 0.946715
O O3 0.750000 0.765972 0.997563
O O4 0.500000 0.784177 0.500000
O O5 0.750000 0.800729 0.527110
O O6 0.572452 0.738637 0.586056
O O7 0.582654 0.000000 0.548515
O O8 0.750000 0.687749 0.189429
O O9 0.571513 0.500000 0.208512
O O10 0.517732 0.713187 0.153849
O O11 0.564484 0.766250 0.243204
O O12 0.750000 0.500000 0.029944
O O13 0.622679 0.301047 0.073085
O O14 0.962756 0.500000 0.900144
O O15 0.750000 0.291728 0.646917
O O16 0.918266 0.500000 0.636374
O O17 0.001332 0.251076 0.671013
O O18 0.750000 0.789130 0.301776
O O19 0.917444 0.000000 0.295380
#
# Coordination Sequence:
#
# PCOD9405194 Si02
#       7
#     4   8   8   4   8   8   8
#     4  12  26  38  50  80 120 150 180 220 269 322
#     4   9  18  33  53  77 108 146 185 226 274 328
#     4   9  17  34  60  86 108 134 177 228 275 324
#     4  10  20  38  64  86 104 138 188 228 269 326
#     4  10  20  38  62  84 107 141 182 226 273 324
#     4  10  21  37  56  80 111 148 190 232 276 323
#     4  10  21  36  56  83 112 143 180 223 274 332
#
# _framework density 17.341939
#
# number of rings (size 3 to 8) (size 9 to 14) (size 15 to 20)
#    0.000    2.167    0.833    2.250    0.000    6.333 
#    1.500    1.667    0.000    0.000    0.000    0.000 
#    0.000    0.000    0.000    0.000    0.000    0.000 
#
# Total GULP energy -267968.340153 kJ/mol
# GULP energy per Si atom -5582.673753 kJ/mol
# Density = 1.730247 g / cm^3
# Si number density = 17.341939 Si / 1000 Ang^3
#
#
#
# Elastic Constant Matrix: (Units=GPa)
#
#
# Indices 1 2 3 4 5 6 
#
# 1 115.4416 84.8092 101.8736 0.0000 0.0000 0.0000
# 2 84.8092 81.2094 91.1176 0.0000 0.0000 0.0000
# 3 101.8736 91.1176 162.1473 0.0000 0.0000 0.0000
# 4 0.0000 0.0000 0.0000 70.7819 0.0000 0.0000
# 5 0.0000 0.0000 0.0000 0.0000 19.1089 0.0000
# 6 0.0000 0.0000 0.0000 0.0000 0.0000 16.0453
#
#
#
# Elastic Compliance Matrix: (Units=1/GPa)
#
#
# Indices 1 2 3 4 5 6 
#
# 1 0.038285 -0.035166 -0.004292 0.000000 0.000000 0.000000
# 2 -0.035166 0.065627 -0.014785 0.000000 0.000000 0.000000
# 3 -0.004292 -0.014785 0.017172 0.000000 0.000000 0.000000
# 4 0.000000 0.000000 0.000000 0.014128 0.000000 0.000000
# 5 0.000000 0.000000 0.000000 0.000000 0.052332 0.000000
# 6 0.000000 0.000000 0.000000 0.000000 0.000000 0.062323
#
#
# Mechanical properties :
#
#
# Convention : Reuss Voigt Hill
#
# Bulk Modulus (GPa) = 79.37599 101.59990 90.48795
# Shear Modulus (GPa) = 13.79108 26.58708 20.18908
#
# Velocity S-wave (km/s) = 2.82307 3.91974 3.41571
# Velocity P-wave (km/s) = 7.51643 8.89940 8.23699
#
# Compressibility (1/GPa) = 0.01259827
#
# Stress axis : x y z
#
# Youngs Moduli (GPa) = 26.11994 15.23752 58.23377
#
# Poissons Ratio (x) = 0.53584 0.24995
# Poissons Ratio (y) = 0.91854 0.86098
# Poissons Ratio (z) = 0.11211 0.22528
#
# Static dielectric constant tensor:
#      x y z
#    x 1.590720 0.000000 0.000000 
#    y 0.000000 1.574950 0.000000 
#    z 0.000000 0.000000 1.556910 
# 
# From -- ./inp_files/37165.got.cif
#   From: 2010.05.17/outbox.cif.g08.bks.cpg/sg51_19_cif.got.tgz:37165.got - 2010.06.03 11:52:47.
