data_PCOD9405447
_publ_section_title
;
Structure prediction by ZEFSAII (Michael W. Deem and Ramdas Pophale) SiO2 
 PCOD9405447
Probable space group: P M M A
;
_chemical_formula_sum "Si O2"
_cell_formula_units_Z 48
_cell_length_a 13.642064
_cell_length_b 7.517965
_cell_length_c 20.811585
_cell_angle_alpha 90.000000
_cell_angle_beta 90.000000
_cell_angle_gamma 90.000000
_cell_volume 2134.447805
_symmetry_space_group_name_H-M "P M M A"
_symmetry_group_IT_number 51
_symmetry_cell_setting 'orthorhombic'
loop_
_space_group_symop_operation_xyz
x,y,z
1/2-x,-y,z
1/2+x,-y,-z
-x,y,-z
-x,-y,-z
1/2+x,y,-z
1/2-x,y,z
x,-y,z
loop_
_atom_site_type_symbol
_atom_site_label
_atom_site_fract_x
_atom_site_fract_y
_atom_site_fract_z
Si Si1 0.356011 0.217518 0.451603
Si Si2 0.867852 0.000000 0.890054
Si Si3 0.132404 0.297625 0.864298
Si Si4 0.862510 0.287305 0.784437
Si Si5 0.940918 0.287904 0.273167
Si Si6 0.870253 0.000000 0.036427
Si Si7 0.567884 0.790174 0.412698
O O1 0.250000 0.278737 0.427125
O O2 0.369563 0.272704 0.526518
O O3 0.456220 0.280732 0.418275
O O4 0.354752 0.000000 0.448191
O O5 0.890722 0.174306 0.847593
O O6 0.750000 0.000000 0.894867
O O7 0.904113 0.000000 0.962881
O O8 0.250000 0.305325 0.866636
O O9 0.094508 0.500000 0.870645
O O10 0.105236 0.224521 0.793717
O O11 0.100087 0.171233 0.921897
O O12 0.750000 0.243502 0.767233
O O13 0.867548 0.500000 0.795863
O O14 0.943878 0.239035 0.731666
O O15 0.933227 0.500000 0.271213
O O16 0.895182 0.234397 0.340653
O O17 0.750000 0.000000 0.035319
O O18 0.560586 0.000000 0.423173
#
# Coordination Sequence:
#
# PCOD9405447 Si02
#       7
#     8   4   8   8   8   4   8
#     4   8  15  31  50  72 104 132 162 208 255 301
#     4   9  18  33  55  81 104 133 177 219 260 315
#     4   9  19  35  52  73 105 140 173 215 264 311
#     4   9  19  35  52  73 105 140 173 215 264 311
#     4  10  21  35  51  73 104 139 172 211 258 308
#     4   9  18  33  55  81 104 133 177 219 260 315
#     4   9  18  30  50  76  97 129 172 209 251 301
#
# _framework density 22.488253
#
# number of rings (size 3 to 8) (size 9 to 14) (size 15 to 20)
#    0.000    3.000    0.000    1.000    2.333    2.000 
#    0.000    6.667    0.000    4.000    0.000    0.000 
#    0.000    0.000    0.000    0.000    0.000    0.000 
#
# Total GULP energy -267798.712425 kJ/mol
# GULP energy per Si atom -5579.139842 kJ/mol
# Density = 2.243707 g / cm^3
# Si number density = 22.488253 Si / 1000 Ang^3
#
#
#
# Elastic Constant Matrix: (Units=GPa)
#
#
# Indices 1 2 3 4 5 6 
#
# 1 45.3368 -1.6369 -16.9942 0.0000 0.0000 0.0000
# 2 -1.6369 63.4767 9.1342 0.0000 0.0000 0.0000
# 3 -16.9942 9.1342 96.7754 0.0000 0.0000 0.0000
# 4 0.0000 0.0000 0.0000 48.9775 0.0000 0.0000
# 5 0.0000 0.0000 0.0000 0.0000 14.0668 0.0000
# 6 0.0000 0.0000 0.0000 0.0000 0.0000 4.6940
#
#
#
# Elastic Compliance Matrix: (Units=1/GPa)
#
#
# Indices 1 2 3 4 5 6 
#
# 1 0.023611 0.000012 0.004145 0.000000 0.000000 0.000000
# 2 0.000012 0.015971 -0.001505 0.000000 0.000000 0.000000
# 3 0.004145 -0.001505 0.011203 0.000000 0.000000 0.000000
# 4 0.000000 0.000000 0.000000 0.020418 0.000000 0.000000
# 5 0.000000 0.000000 0.000000 0.000000 0.071089 0.000000
# 6 0.000000 0.000000 0.000000 0.000000 0.000000 0.213038
#
#
# Mechanical properties :
#
#
# Convention : Reuss Voigt Hill
#
# Bulk Modulus (GPa) = 17.82856 20.73279 19.28068
# Shear Modulus (GPa) = 13.56033 27.88671 20.72352
#
# Velocity S-wave (km/s) = 2.45826 3.52526 3.03896
# Velocity P-wave (km/s) = 4.00032 5.08029 4.57230
#
# Compressibility (1/GPa) = 0.05608977
#
# Stress axis : x y z
#
# Youngs Moduli (GPa) = 42.35252 62.61453 89.26036
#
# Poissons Ratio (x) = -0.00078 -0.36999
# Poissons Ratio (y) = -0.00052 0.13436
# Poissons Ratio (z) = -0.17556 0.09425
#
# Static dielectric constant tensor:
#      x y z
#    x 1.880200 0.000000 0.000000 
#    y 0.000000 1.841820 0.000000 
#    z 0.000000 0.000000 1.803100 
# 
# From -- ./inp_files/29509.got.cif
#   From: 2010.05.17/outbox.cif.g08.bks.cpg/sg51_15_cif.got.tgz:29509.got - 2010.06.03 11:52:47.
