data_PCOD9405455
_publ_section_title
;
Structure prediction by ZEFSAII (Michael W. Deem and Ramdas Pophale) SiO2 
 PCOD9405455
Probable space group: P M M A
;
_chemical_formula_sum "Si O2"
_cell_formula_units_Z 40
_cell_length_a 7.435295
_cell_length_b 13.187554
_cell_length_c 17.493497
_cell_angle_alpha 90.000000
_cell_angle_beta 90.000000
_cell_angle_gamma 90.000000
_cell_volume 1715.296060
_symmetry_space_group_name_H-M "P M M A"
_symmetry_group_IT_number 51
_symmetry_cell_setting 'orthorhombic'
loop_
_space_group_symop_operation_xyz
x,y,z
1/2-x,-y,z
1/2+x,-y,-z
-x,y,-z
-x,-y,-z
1/2+x,y,-z
1/2-x,y,z
x,-y,z
loop_
_atom_site_type_symbol
_atom_site_label
_atom_site_fract_x
_atom_site_fract_y
_atom_site_fract_z
Si Si1 0.035164 0.329324 0.083676
Si Si2 0.542126 0.500000 0.377665
Si Si3 0.534866 0.720630 0.414378
Si Si4 0.031176 0.500000 0.199562
Si Si5 0.041134 0.110674 0.116363
Si Si6 0.967743 0.887287 0.295109
O O1 0.250000 0.322248 0.093667
O O2 0.970735 0.401620 0.151553
O O3 0.959672 0.215024 0.085832
O O4 0.000000 0.373676 0.000000
O O5 0.750000 0.500000 0.403244
O O6 0.461637 0.606341 0.405491
O O7 0.535193 0.500000 0.285797
O O8 0.500000 0.757620 0.500000
O O9 0.750000 0.715042 0.403332
O O10 0.467227 0.798106 0.350162
O O11 0.250000 0.500000 0.201801
O O12 0.250000 0.107569 0.092801
O O13 0.034116 0.121337 0.208338
O O14 0.961768 0.000000 0.096867
O O15 0.750000 0.883255 0.291813
O O16 0.017641 0.000000 0.323351
#
# Coordination Sequence:
#
# PCOD9405455 Si02
#       6
#     8   4   8   4   8   8
#     4  10  21  35  51  74 103 132 164 203 246 293
#     4  10  21  36  54  76 100 128 165 206 246 292
#     4  10  21  35  51  74 103 132 164 203 246 293
#     4  10  21  36  54  76 100 128 165 206 246 292
#     4   9  18  33  52  74 100 130 166 206 245 289
#     4   9  18  33  52  74 100 130 166 206 245 289
#
# _framework density 23.319588
#
# number of rings (size 3 to 8) (size 9 to 14) (size 15 to 20)
#    0.000    2.400    0.000    1.800    0.000    4.000 
#    0.000    0.000    0.000    0.000    0.000    0.000 
#    0.000    0.000    0.000    0.000    0.000    0.000 
#
# Total GULP energy -223546.935144 kJ/mol
# GULP energy per Si atom -5588.673379 kJ/mol
# Density = 2.326651 g / cm^3
# Si number density = 23.319588 Si / 1000 Ang^3
#
#
#
# Elastic Constant Matrix: (Units=GPa)
#
#
# Indices 1 2 3 4 5 6 
#
# 1 78.7606 11.1577 -16.6750 0.0000 0.0000 0.0000
# 2 11.1577 116.3905 21.3014 0.0000 0.0000 0.0000
# 3 -16.6750 21.3014 78.4260 0.0000 0.0000 0.0000
# 4 0.0000 0.0000 0.0000 -70.2631 0.0000 0.0000
# 5 0.0000 0.0000 0.0000 0.0000 16.0077 0.0000
# 6 0.0000 0.0000 0.0000 0.0000 0.0000 -24.1122
#
#
#
# Elastic Compliance Matrix: (Units=1/GPa)
#
#
# Indices 1 2 3 4 5 6 
#
# 1 0.013700 -0.001943 0.003441 0.000000 0.000000 0.000000
# 2 -0.001943 0.009317 -0.002944 0.000000 0.000000 0.000000
# 3 0.003441 -0.002944 0.014282 0.000000 0.000000 0.000000
# 4 0.000000 0.000000 0.000000 -0.014232 0.000000 0.000000
# 5 0.000000 0.000000 0.000000 0.000000 0.062470 0.000000
# 6 0.000000 0.000000 0.000000 0.000000 0.000000 -0.041473
#
#
# Mechanical properties :
#
#
# Convention : Reuss Voigt Hill
#
# Bulk Modulus (GPa) = 29.06372 33.90505 31.48438
# Shear Modulus (GPa) = 85.57923 1.51268 43.54595
#
# Velocity S-wave (km/s) = 6.06450 0.80628 4.32598
# Velocity P-wave (km/s) = 7.84396 3.92908 6.20344
#
# Compressibility (1/GPa) = 0.03440716
#
# Stress axis : x y z
#
# Youngs Moduli (GPa) = 72.99031 107.33321 70.01829
#
# Poissons Ratio (x) = 0.20856 -0.24092
# Poissons Ratio (y) = 0.14183 0.20611
# Poissons Ratio (z) = -0.25114 0.31596
#
# Static dielectric constant tensor:
#      x y z
#    x 1.856190 0.000000 0.000000 
#    y 0.000000 1.910050 0.000000 
#    z 0.000000 0.000000 1.797450 
# 
# From -- ./inp_files/898.got.cif
#   From: 2010.05.17/outbox.cif.g08.bks.cpg/sg51_1_cif.got.tgz:898.got - 2010.06.03 11:52:47.
