data_PCOD9405592
_publ_section_title
;
Structure prediction by ZEFSAII (Michael W. Deem and Ramdas Pophale) SiO2 
 PCOD9405592
Probable space group: P M M A
;
_chemical_formula_sum "Si O2"
_cell_formula_units_Z 64
_cell_length_a 24.913136
_cell_length_b 8.359916
_cell_length_c 15.935954
_cell_angle_alpha 90.000000
_cell_angle_beta 90.000000
_cell_angle_gamma 90.000000
_cell_volume 3319.008617
_symmetry_space_group_name_H-M "P M M A"
_symmetry_group_IT_number 51
_symmetry_cell_setting 'orthorhombic'
loop_
_space_group_symop_operation_xyz
x,y,z
1/2-x,-y,z
1/2+x,-y,-z
-x,y,-z
-x,-y,-z
1/2+x,y,-z
1/2-x,y,z
x,-y,z
loop_
_atom_site_type_symbol
_atom_site_label
_atom_site_fract_x
_atom_site_fract_y
_atom_site_fract_z
Si Si1 0.344228 0.317133 0.599744
Si Si2 0.312824 0.690234 0.123080
Si Si3 0.121925 0.192983 0.778117
Si Si4 0.690173 0.306696 0.579505
Si Si5 0.530170 0.677897 0.413957
Si Si6 0.884936 0.810906 0.727587
Si Si7 0.812452 0.806727 0.058982
Si Si8 0.003018 0.181386 0.749723
O O1 0.325260 0.500000 0.610889
O O2 0.347350 0.239750 0.692088
O O3 0.315664 0.247363 0.517048
O O4 0.406551 0.318731 0.572772
O O5 0.250000 0.735001 0.128131
O O6 0.317114 0.500000 0.135120
O O7 0.345379 0.776437 0.195626
O O8 0.331463 0.736689 0.029633
O O9 0.153679 0.245806 0.860515
O O10 0.059931 0.254264 0.780573
O O11 0.118863 0.000000 0.778012
O O12 0.750000 0.261842 0.611067
O O13 0.687690 0.500000 0.575563
O O14 0.643347 0.254084 0.643089
O O15 0.500000 0.694934 0.500000
O O16 0.517165 0.500000 0.378538
O O17 0.513244 0.813265 0.349881
O O18 0.943647 0.744082 0.754990
O O19 0.892162 0.000000 0.715180
O O20 0.750000 0.761452 0.070113
O O21 0.815077 0.000000 0.054142
O O22 0.000255 0.000000 0.783058
#
# Coordination Sequence:
#
# PCOD9405592 Si02
#       8
#     8   8   8   8   8   8   8   8
#     4   9  18  31  47  70 100 133 169 207 248 296
#     4  10  21  37  57  80 104 131 165 207 257 311
#     4   9  18  34  54  76 106 140 171 208 253 301
#     4  10  21  36  52  72 102 139 176 215 261 311
#     4   9  16  27  45  67  91 124 166 209 249 288
#     4  11  22  35  53  76 102 135 174 215 258 303
#     4   9  18  34  57  82 104 129 165 208 253 302
#     4   9  19  33  48  70 100 134 171 207 248 300
#
# _framework density 19.282867
#
# number of rings (size 3 to 8) (size 9 to 14) (size 15 to 20)
#    0.000    2.500    0.000    1.875    0.000    6.250 
#    0.000    3.125    0.000    3.750    0.000    0.000 
#    0.000    0.000    0.000    0.000    0.000    0.000 
#
# Total GULP energy -356465.238603 kJ/mol
# GULP energy per Si atom -5569.769353 kJ/mol
# Density = 1.923898 g / cm^3
# Si number density = 19.282867 Si / 1000 Ang^3
#
#
#
# Elastic Constant Matrix: (Units=GPa)
#
#
# Indices 1 2 3 4 5 6 
#
# 1 71.3381 11.6690 46.6168 0.0000 0.0000 0.0000
# 2 11.6690 11.2443 6.6586 0.0000 0.0000 0.0000
# 3 46.6168 6.6586 83.8098 0.0000 0.0000 0.0000
# 4 0.0000 0.0000 0.0000 11.8444 0.0000 0.0000
# 5 0.0000 0.0000 0.0000 0.0000 27.3511 0.0000
# 6 0.0000 0.0000 0.0000 0.0000 0.0000 19.0431
#
#
#
# Elastic Compliance Matrix: (Units=1/GPa)
#
#
# Indices 1 2 3 4 5 6 
#
# 1 0.025324 -0.018825 -0.012590 0.000000 0.000000 0.000000
# 2 -0.018825 0.107319 0.001945 0.000000 0.000000 0.000000
# 3 -0.012590 0.001945 0.018780 0.000000 0.000000 0.000000
# 4 0.000000 0.000000 0.000000 0.084428 0.000000 0.000000
# 5 0.000000 0.000000 0.000000 0.000000 0.036562 0.000000
# 6 0.000000 0.000000 0.000000 0.000000 0.000000 0.052513
#
#
# Mechanical properties :
#
#
# Convention : Reuss Voigt Hill
#
# Bulk Modulus (GPa) = 10.81295 32.92010 21.86653
# Shear Modulus (GPa) = 12.05706 18.41089 15.23397
#
# Velocity S-wave (km/s) = 2.50326 3.09330 2.81379
# Velocity P-wave (km/s) = 3.73829 5.46510 4.68199
#
# Compressibility (1/GPa) = 0.09248167
#
# Stress axis : x y z
#
# Youngs Moduli (GPa) = 39.48769 9.31804 53.24731
#
# Poissons Ratio (x) = 0.17541 0.67040
# Poissons Ratio (y) = 0.74336 -0.10355
# Poissons Ratio (z) = 0.49716 -0.01812
#
# Static dielectric constant tensor:
#      x y z
#    x 1.704920 0.000000 0.000000 
#    y 0.000000 1.715510 0.000000 
#    z 0.000000 0.000000 1.650790 
# 
# From -- ./inp_files/26361.got.cif
#   From: 2010.05.17/outbox.cif.g08.bks.cpg/sg51_14_cif.got.tgz:26361.got - 2010.06.03 11:52:47.
