data_PCOD9405132
_publ_section_title
;
Structure prediction by ZEFSAII (Michael W. Deem and Ramdas Pophale) SiO2 
 PCOD9405132
Probable space group: P M M A
;
_chemical_formula_sum "Si O2"
_cell_formula_units_Z 58
_cell_length_a 18.578454
_cell_length_b 7.602700
_cell_length_c 17.712222
_cell_angle_alpha 90.000000
_cell_angle_beta 90.000000
_cell_angle_gamma 90.000000
_cell_volume 2501.787810
_symmetry_space_group_name_H-M "P M M A"
_symmetry_group_IT_number 51
_symmetry_cell_setting 'orthorhombic'
loop_
_space_group_symop_operation_xyz
x,y,z
1/2-x,-y,z
1/2+x,-y,-z
-x,y,-z
-x,-y,-z
1/2+x,y,-z
1/2-x,y,z
x,-y,z
loop_
_atom_site_type_symbol
_atom_site_label
_atom_site_fract_x
_atom_site_fract_y
_atom_site_fract_z
Si Si1 0.667108 0.215160 0.677164
Si Si2 0.168728 0.701517 0.591220
Si Si3 0.367523 0.297516 0.051491
Si Si4 0.086221 0.798638 0.737925
Si Si5 0.561313 0.212711 0.806593
Si Si6 0.832999 0.710171 0.112513
Si Si7 0.250000 0.000000 0.085125
Si Si8 0.070380 0.801226 0.460464
O O1 0.750000 0.273798 0.668675
O O2 0.631348 0.261752 0.757198
O O3 0.612084 0.275881 0.611656
O O4 0.668747 0.000000 0.673398
O O5 0.250000 0.763134 0.604516
O O6 0.170758 0.500000 0.564706
O O7 0.125037 0.707337 0.668714
O O8 0.129066 0.807110 0.526412
O O9 0.340980 0.500000 0.051965
O O10 0.433698 0.284944 0.108984
O O11 0.311966 0.154646 0.082569
O O12 0.377307 0.250823 0.963394
O O13 0.135251 0.792804 0.812455
O O14 0.009177 0.724657 0.762257
O O15 0.075800 0.000000 0.713830
O O16 0.557034 0.000000 0.809766
O O17 0.750000 0.765559 0.098489
O O18 0.833252 0.500000 0.124230
O O19 0.000000 0.717170 0.500000
O O20 0.048087 0.000000 0.437663
#
# Coordination Sequence:
#
# PCOD9405132 Si02
#       8
#     8   8   8   8   8   8   2   8
#     4   9  18  32  57  87 115 154 201 249 306 366
#     4  11  24  41  61  87 123 165 210 261 316 370
#     4  11  24  40  65  96 126 170 216 260 325 385
#     4  11  24  39  61  90 121 161 210 259 319 385
#     4  10  22  40  60  88 125 164 206 260 321 382
#     4  10  22  40  61  89 124 158 205 260 314 378
#     4  12  22  40  68  92 132 164 208 280 310 382
#     4  10  20  37  62  91 124 159 199 251 310 378
#
# _framework density 23.183419000000001
#
# number of rings (size 3 to 8) (size 9 to 14) (size 15 to 20)
#    0.000    1.655    1.379    2.690    1.931    7.724 
#    0.000    3.448    0.000    0.828    0.000    0.000 
#    0.000    0.000    0.000    0.000    0.000    0.000 
#
# Total GULP energy -323670.157055 kJ/mol
# GULP energy per Si atom -5580.519949 kJ/mol
# Density = 2.313065 g / cm^3
# Si number density = 23.183419 Si / 1000 Ang^3
#
#
#
# Elastic Constant Matrix: (Units=GPa)
#
#
# Indices 1 2 3 4 5 6 
#
# 1 42.4527 4.6226 4.2635 0.0000 0.0000 0.0000
# 2 4.6226 76.5720 2.7822 0.0000 0.0000 0.0000
# 3 4.2635 2.7822 113.0700 0.0000 0.0000 0.0000
# 4 0.0000 0.0000 0.0000 24.7508 0.0000 0.0000
# 5 0.0000 0.0000 0.0000 0.0000 -4.6038 0.0000
# 6 0.0000 0.0000 0.0000 0.0000 0.0000 9.8278
#
#
#
# Elastic Compliance Matrix: (Units=1/GPa)
#
#
# Indices 1 2 3 4 5 6 
#
# 1 0.023795 -0.001405 -0.000863 0.000000 0.000000 0.000000
# 2 -0.001405 0.013154 -0.000271 0.000000 0.000000 0.000000
# 3 -0.000863 -0.000271 0.008883 0.000000 0.000000 0.000000
# 4 0.000000 0.000000 0.000000 0.040403 0.000000 0.000000
# 5 0.000000 0.000000 0.000000 0.000000 -0.217210 0.000000
# 6 0.000000 0.000000 0.000000 0.000000 0.000000 0.101752
#
#
# Mechanical properties :
#
#
# Convention : Reuss Voigt Hill
#
# Bulk Modulus (GPa) = 24.53639 28.38125 26.45882
# Shear Modulus (GPa) = -473.45111 20.69005 -226.38053
#
# Velocity S-wave (km/s) = -14.30605 2.99063 -9.89240
# Velocity P-wave (km/s) = 16.19498 4.91872 10.91063
#
# Compressibility (1/GPa) = 0.04075580
#
# Stress axis : x y z
#
# Youngs Moduli (GPa) = 42.02515 76.02092 112.57121
#
# Poissons Ratio (x) = 0.10682 0.09711
# Poissons Ratio (y) = 0.05905 0.03047
# Poissons Ratio (z) = 0.03625 0.02058
#
# Static dielectric constant tensor:
#      x y z
#    x 1.949410 0.000000 0.000000 
#    y 0.000000 1.874080 0.000000 
#    z 0.000000 0.000000 1.847270 
# 
# From -- ./inp_files/30163.got.cif
#   From: 2010.05.17/outbox.cif.g08.bks.cpg/sg51_16_cif.got.tgz:30163.got - 2010.06.03 11:52:47.
