data_PCOD9405969
_publ_section_title
;
Structure prediction by ZEFSAII (Michael W. Deem and Ramdas Pophale) SiO2 
 PCOD9405969
Probable space group: P M M A
;
_chemical_formula_sum "Si O2"
_cell_formula_units_Z 64
_cell_length_a 8.557686
_cell_length_b 24.263224
_cell_length_c 15.612692
_cell_angle_alpha 90.000000
_cell_angle_beta 90.000000
_cell_angle_gamma 90.000000
_cell_volume 3241.773346
_symmetry_space_group_name_H-M "P M M A"
_symmetry_group_IT_number 51
_symmetry_cell_setting 'orthorhombic'
loop_
_space_group_symop_operation_xyz
x,y,z
1/2-x,-y,z
1/2+x,-y,-z
-x,y,-z
-x,-y,-z
1/2+x,y,-z
1/2-x,y,z
x,-y,z
loop_
_atom_site_type_symbol
_atom_site_label
_atom_site_fract_x
_atom_site_fract_y
_atom_site_fract_z
Si Si1 0.066836 0.564037 0.095812
Si Si2 0.060248 0.202394 0.407910
Si Si3 0.430422 0.322479 0.353085
Si Si4 0.435172 0.240592 0.085893
Si Si5 0.936695 0.559546 0.403402
Si Si6 0.070641 0.334414 0.820428
Si Si7 0.063052 0.150174 0.228677
Si Si8 0.063341 0.064102 0.906327
O O1 0.250000 0.579684 0.097701
O O2 0.054061 0.500000 0.119653
O O3 0.968522 0.603018 0.157159
O O4 0.000000 0.569777 0.000000
O O5 0.250000 0.203249 0.407187
O O6 0.006743 0.266486 0.396107
O O7 0.009591 0.166441 0.324945
O O8 0.000000 0.182504 0.500000
O O9 0.250000 0.327990 0.377579
O O10 0.508887 0.381608 0.368259
O O11 0.452953 0.313851 0.252285
O O12 0.250000 0.249975 0.080256
O O13 0.530772 0.296869 0.098475
O O14 0.468518 0.202078 0.166892
O O15 0.500000 0.213348 0.000000
O O16 0.750000 0.559811 0.402972
O O17 0.988192 0.500000 0.363806
O O18 0.000000 0.558712 0.500000
O O19 0.250000 0.327873 0.793894
O O20 0.250000 0.142668 0.232901
O O21 0.993768 0.099292 0.175132
O O22 0.250000 0.067361 0.909908
O O23 0.015995 0.000000 0.895925
O O24 0.000000 0.082140 0.000000
#
# Coordination Sequence:
#
# PCOD9405969 Si02
#       8
#     8   8   8   8   8   8   8   8
#     4  10  21  38  58  77 100 135 180 230 286 348
#     4  10  22  40  61  88 119 156 199 252 308 363
#     4  11  22  39  59  80 111 146 188 243 301 362
#     4  11  22  38  57  82 118 155 194 240 291 350
#     4  10  21  37  56  80 108 139 180 231 291 362
#     4  12  24  37  55  79 108 143 185 233 288 351
#     4  10  21  39  61  88 124 162 205 253 299 349
#     4  10  21  37  60  94 134 174 214 253 297 351
#
# _framework density 19.742280999999998
#
# number of rings (size 3 to 8) (size 9 to 14) (size 15 to 20)
#    0.000    1.500    1.250    4.125    0.000    7.250 
#    0.000    0.000    0.000    0.375    0.000    0.000 
#    0.000    0.000    0.000    0.000    0.000    0.000 
#
# Total GULP energy -357246.227477 kJ/mol
# GULP energy per Si atom -5581.972304 kJ/mol
# Density = 1.969735 g / cm^3
# Si number density = 19.742281 Si / 1000 Ang^3
#
#
#
# Elastic Constant Matrix: (Units=GPa)
#
#
# Indices 1 2 3 4 5 6 
#
# 1 34.3019 26.9909 14.1856 0.0000 0.0000 0.0000
# 2 26.9909 105.1619 50.0903 0.0000 0.0000 0.0000
# 3 14.1856 50.0903 122.1249 0.0000 0.0000 0.0000
# 4 0.0000 0.0000 0.0000 21.3129 0.0000 0.0000
# 5 0.0000 0.0000 0.0000 0.0000 30.8675 0.0000
# 6 0.0000 0.0000 0.0000 0.0000 0.0000 9.9582
#
#
#
# Elastic Compliance Matrix: (Units=1/GPa)
#
#
# Indices 1 2 3 4 5 6 
#
# 1 0.036554 -0.009147 -0.000495 0.000000 0.000000 0.000000
# 2 -0.009147 0.014107 -0.004723 0.000000 0.000000 0.000000
# 3 -0.000495 -0.004723 0.010183 0.000000 0.000000 0.000000
# 4 0.000000 0.000000 0.000000 0.046920 0.000000 0.000000
# 5 0.000000 0.000000 0.000000 0.000000 0.032397 0.000000
# 6 0.000000 0.000000 0.000000 0.000000 0.000000 0.100419
#
#
# Mechanical properties :
#
#
# Convention : Reuss Voigt Hill
#
# Bulk Modulus (GPa) = 31.13797 49.34691 40.24244
# Shear Modulus (GPa) = 17.85625 23.78253 20.81939
#
# Velocity S-wave (km/s) = 3.01070 3.47457 3.25092
# Velocity P-wave (km/s) = 5.28131 6.41457 5.87533
#
# Compressibility (1/GPa) = 0.03211513
#
# Stress axis : x y z
#
# Youngs Moduli (GPa) = 27.35644 70.88905 98.20160
#
# Poissons Ratio (x) = 0.64839 0.04856
# Poissons Ratio (y) = 0.25022 0.46385
# Poissons Ratio (z) = 0.01353 0.33484
#
# Static dielectric constant tensor:
#      x y z
#    x 1.680950 0.000000 0.000000 
#    y 0.000000 1.736240 0.000000 
#    z 0.000000 0.000000 1.741050 
# 
# From -- ./inp_files/22403.got.cif
#   From: 2010.05.17/outbox.cif.g08.bks.cpg/sg51_12_cif.got.tgz:22403.got - 2010.06.03 11:52:47.
