data_PCOD9405804
_publ_section_title
;
Structure prediction by ZEFSAII (Michael W. Deem and Ramdas Pophale) SiO2 
 PCOD9405804
Probable space group: P M M A
;
_chemical_formula_sum "Si O2"
_cell_formula_units_Z 44
_cell_length_a 9.783229
_cell_length_b 14.676612
_cell_length_c 15.860687
_cell_angle_alpha 90.000000
_cell_angle_beta 90.000000
_cell_angle_gamma 90.000000
_cell_volume 2277.351289
_symmetry_space_group_name_H-M "P M M A"
_symmetry_group_IT_number 51
_symmetry_cell_setting 'orthorhombic'
loop_
_space_group_symop_operation_xyz
x,y,z
1/2-x,-y,z
1/2+x,-y,-z
-x,y,-z
-x,-y,-z
1/2+x,y,-z
1/2-x,y,z
x,-y,z
loop_
_atom_site_type_symbol
_atom_site_label
_atom_site_fract_x
_atom_site_fract_y
_atom_site_fract_z
Si Si1 0.250000 0.393472 0.062184
Si Si2 0.908821 0.144257 0.579093
Si Si3 0.100142 0.654365 0.357520
Si Si4 0.250000 0.394428 0.859610
Si Si5 0.029212 0.293720 0.171467
Si Si6 0.915420 0.101611 0.771856
Si Si7 0.412605 0.500000 0.585522
O O1 0.250000 0.500000 0.090755
O O2 0.380186 0.339617 0.098728
O O3 0.250000 0.394237 0.961481
O O4 0.750000 0.117974 0.567226
O O5 0.913899 0.254295 0.587651
O O6 0.952970 0.110869 0.672326
O O7 0.000000 0.115144 0.500000
O O8 0.250000 0.613069 0.377517
O O9 0.100213 0.683468 0.260357
O O10 0.972344 0.588705 0.368952
O O11 0.250000 0.500000 0.831162
O O12 0.116859 0.341107 0.829946
O O13 0.023818 0.184039 0.173399
O O14 0.750000 0.111102 0.774840
O O15 0.951796 0.000000 0.800471
O O16 0.250000 0.500000 0.576807
O O17 0.500000 0.500000 0.500000
#
# Coordination Sequence:
#
# PCOD9405804 Si02
#       7
#     4   8   8   4   8   8   4
#     4  11  22  40  65  93 121 162 200 240 295 370
#     4   9  18  33  52  79 111 147 192 244 297 349
#     4  10  21  36  56  78 108 155 204 247 292 354
#     4  11  26  40  59  93 135 158 188 244 309 364
#     4  11  21  39  63  90 121 162 201 243 300 362
#     4   9  18  37  63  87 113 157 210 252 298 354
#     4  12  26  38  52  78 113 154 203 251 301 350
#
# _framework density 19.320691
#
# number of rings (size 3 to 8) (size 9 to 14) (size 15 to 20)
#    0.000    1.818    1.818    3.545    3.818    4.000 
#    4.909    0.455    0.000    3.273    0.000    0.000 
#    0.000    0.000    0.000    0.000    0.000    0.000 
#
# Total GULP energy -245594.988445 kJ/mol
# GULP energy per Si atom -5581.704283 kJ/mol
# Density = 1.927672 g / cm^3
# Si number density = 19.320691 Si / 1000 Ang^3
#
#
#
# Elastic Constant Matrix: (Units=GPa)
#
#
# Indices 1 2 3 4 5 6 
#
# 1 128.4040 59.6670 14.7145 0.0000 0.0000 0.0000
# 2 59.6670 163.2418 26.7857 0.0000 0.0000 0.0000
# 3 14.7145 26.7857 44.9952 0.0000 0.0000 0.0000
# 4 0.0000 0.0000 0.0000 7.2577 0.0000 0.0000
# 5 0.0000 0.0000 0.0000 0.0000 29.1455 0.0000
# 6 0.0000 0.0000 0.0000 0.0000 0.0000 19.3152
#
#
#
# Elastic Compliance Matrix: (Units=1/GPa)
#
#
# Indices 1 2 3 4 5 6 
#
# 1 0.009434 -0.003261 -0.001144 0.000000 0.000000 0.000000
# 2 -0.003261 0.007916 -0.003646 0.000000 0.000000 0.000000
# 3 -0.001144 -0.003646 0.024769 0.000000 0.000000 0.000000
# 4 0.000000 0.000000 0.000000 0.137786 0.000000 0.000000
# 5 0.000000 0.000000 0.000000 0.000000 0.034311 0.000000
# 6 0.000000 0.000000 0.000000 0.000000 0.000000 0.051773
#
#
# Mechanical properties :
#
#
# Convention : Reuss Voigt Hill
#
# Bulk Modulus (GPa) = 38.43534 59.88617 49.16075
# Shear Modulus (GPa) = 17.19617 26.84192 22.01904
#
# Velocity S-wave (km/s) = 2.98659 3.73135 3.37955
# Velocity P-wave (km/s) = 5.64176 7.04465 6.38187
#
# Compressibility (1/GPa) = 0.02601773
#
# Stress axis : x y z
#
# Youngs Moduli (GPa) = 105.99774 126.32751 40.37258
#
# Poissons Ratio (x) = 0.41190 0.04619
# Poissons Ratio (y) = 0.34561 0.14720
# Poissons Ratio (z) = 0.12128 0.46060
#
# Static dielectric constant tensor:
#      x y z
#    x 1.671880 0.000000 0.000000 
#    y 0.000000 1.707910 0.000000 
#    z 0.000000 0.000000 1.677020 
# 
# From -- ./inp_files/27470.got.cif
#   From: 2010.05.17/outbox.cif.g08.bks.cpg/sg51_14_cif.got.tgz:27470.got - 2010.06.03 11:52:47.
