data_PCOD9405649
_publ_section_title
;
Structure prediction by ZEFSAII (Michael W. Deem and Ramdas Pophale) SiO2 
 PCOD9405649
Probable space group: P M M A
;
_chemical_formula_sum "Si O2"
_cell_formula_units_Z 44
_cell_length_a 9.436768
_cell_length_b 7.640174
_cell_length_c 31.113247
_cell_angle_alpha 90.000000
_cell_angle_beta 90.000000
_cell_angle_gamma 90.000000
_cell_volume 2243.219979
_symmetry_space_group_name_H-M "P M M A"
_symmetry_group_IT_number 51
_symmetry_cell_setting 'orthorhombic'
loop_
_space_group_symop_operation_xyz
x,y,z
1/2-x,-y,z
1/2+x,-y,-z
-x,y,-z
-x,-y,-z
1/2+x,y,-z
1/2-x,y,z
x,-y,z
loop_
_atom_site_type_symbol
_atom_site_label
_atom_site_fract_x
_atom_site_fract_y
_atom_site_fract_z
Si Si1 0.411750 0.710308 0.197430
Si Si2 0.919221 0.294892 0.113315
Si Si3 0.088554 0.710322 0.459083
Si Si4 0.079803 0.000000 0.955025
Si Si5 0.588201 0.790799 0.706987
Si Si6 0.589165 0.210748 0.373959
O O1 0.250000 0.776621 0.194169
O O2 0.407639 0.500000 0.195715
O O3 0.503884 0.766673 0.156836
O O4 0.466034 0.757498 0.244823
O O5 0.750000 0.283284 0.119523
O O6 0.954274 0.500000 0.105533
O O7 0.956941 0.170095 0.073674
O O8 0.250000 0.777269 0.458080
O O9 0.096432 0.500000 0.463169
O O10 0.000000 0.777168 0.500000
O O11 0.004881 0.748701 0.415466
O O12 0.250000 0.000000 0.961619
O O13 0.000000 0.000000 0.000000
O O14 0.750000 0.721508 0.704037
O O15 0.488913 0.722831 0.669003
O O16 0.596649 0.000000 0.701771
O O17 0.750000 0.276915 0.378278
O O18 0.596882 0.000000 0.370699
#
# Coordination Sequence:
#
# PCOD9405649 Si02
#       6
#     8   8   8   4   8   8
#     4   9  18  32  51  77 106 137 177 220 262 312
#     4   9  19  36  55  77 109 144 178 222 274 325
#     4  10  21  37  57  79 102 131 169 214 265 319
#     4  10  22  38  56  82 110 142 184 226 271 326
#     4   9  18  32  49  71 102 139 174 213 261 309
#     4  10  21  36  53  76 106 139 176 216 260 314
#
# _framework density 19.614661000000002
#
# number of rings (size 3 to 8) (size 9 to 14) (size 15 to 20)
#    0.000    2.545    0.000    1.091    1.273    5.091 
#    0.000    1.818    0.000    0.000    0.000    0.000 
#    0.000    0.000    0.000    0.000    0.000    0.000 
#
# Total GULP energy -245575.731249 kJ/mol
# GULP energy per Si atom -5581.266619 kJ/mol
# Density = 1.957002 g / cm^3
# Si number density = 19.614661 Si / 1000 Ang^3
#
#
#
# Elastic Constant Matrix: (Units=GPa)
#
#
# Indices 1 2 3 4 5 6 
#
# 1 117.1852 28.3275 111.2040 0.0000 0.0000 0.0000
# 2 28.3275 53.0742 36.6225 0.0000 0.0000 0.0000
# 3 111.2040 36.6225 222.0188 0.0000 0.0000 0.0000
# 4 0.0000 0.0000 0.0000 32.5217 0.0000 0.0000
# 5 0.0000 0.0000 0.0000 0.0000 42.0116 0.0000
# 6 0.0000 0.0000 0.0000 0.0000 0.0000 18.7119
#
#
#
# Elastic Compliance Matrix: (Units=1/GPa)
#
#
# Indices 1 2 3 4 5 6 
#
# 1 0.016845 -0.003576 -0.007847 0.000000 0.000000 0.000000
# 2 -0.003576 0.022021 -0.001841 0.000000 0.000000 0.000000
# 3 -0.007847 -0.001841 0.008738 0.000000 0.000000 0.000000
# 4 0.000000 0.000000 0.000000 0.030749 0.000000 0.000000
# 5 0.000000 0.000000 0.000000 0.000000 0.023803 0.000000
# 6 0.000000 0.000000 0.000000 0.000000 0.000000 0.053442
#
#
# Mechanical properties :
#
#
# Convention : Reuss Voigt Hill
#
# Bulk Modulus (GPa) = 47.44975 82.73180 65.09077
# Shear Modulus (GPa) = 26.43397 33.05734 29.74565
#
# Velocity S-wave (km/s) = 3.67504 4.10974 3.89845
# Velocity P-wave (km/s) = 6.50010 8.04923 7.31578
#
# Compressibility (1/GPa) = 0.02107493
#
# Stress axis : x y z
#
# Youngs Moduli (GPa) = 59.36635 45.41194 114.43820
#
# Poissons Ratio (x) = 0.16238 0.89802
# Poissons Ratio (y) = 0.21228 0.21072
# Poissons Ratio (z) = 0.46586 0.08362
#
# Static dielectric constant tensor:
#      x y z
#    x 1.685430 0.000000 0.000000 
#    y 0.000000 1.723280 0.000000 
#    z 0.000000 0.000000 1.648330 
# 
# From -- ./inp_files/36775.got.cif
#   From: 2010.05.17/outbox.cif.g08.bks.cpg/sg51_19_cif.got.tgz:36775.got - 2010.06.03 11:52:47.
