data_PCOD9405027
_publ_section_title
;
Structure prediction by ZEFSAII (Michael W. Deem and Ramdas Pophale) SiO2 
 PCOD9405027
Probable space group: P M M A
;
_chemical_formula_sum "Si O2"
_cell_formula_units_Z 48
_cell_length_a 31.761814
_cell_length_b 8.399984
_cell_length_c 9.635729
_cell_angle_alpha 90.000000
_cell_angle_beta 90.000000
_cell_angle_gamma 90.000000
_cell_volume 2570.800254
_symmetry_space_group_name_H-M "P M M A"
_symmetry_group_IT_number 51
_symmetry_cell_setting 'orthorhombic'
loop_
_space_group_symop_operation_xyz
x,y,z
1/2-x,-y,z
1/2+x,-y,-z
-x,y,-z
-x,-y,-z
1/2+x,y,-z
1/2-x,y,z
x,-y,z
loop_
_atom_site_type_symbol
_atom_site_label
_atom_site_fract_x
_atom_site_fract_y
_atom_site_fract_z
Si Si1 0.171299 0.807790 0.338713
Si Si2 0.421176 0.307981 0.340689
Si Si3 0.173160 0.190401 0.658802
Si Si4 0.750000 0.807917 0.843815
Si Si5 0.000530 0.305249 0.840463
Si Si6 0.419460 0.692524 0.661013
Si Si7 0.250000 0.311869 0.842812
O O1 0.124926 0.750395 0.296982
O O2 0.179086 0.755844 0.498323
O O3 0.208332 0.751714 0.237732
O O4 0.171246 0.000000 0.338779
O O5 0.421092 0.500000 0.338637
O O6 0.459093 0.252731 0.243123
O O7 0.427810 0.258490 0.501169
O O8 0.126278 0.242700 0.701450
O O9 0.208995 0.258042 0.757391
O O10 0.175947 0.000000 0.660872
O O11 0.750000 0.000000 0.836420
O O12 0.750000 0.759763 0.003360
O O13 0.000346 0.500000 0.839355
O O14 0.042693 0.255103 0.760029
O O15 0.000000 0.253833 0.000000
O O16 0.417820 0.500000 0.663780
O O17 0.250000 0.500000 0.854807
#
# Coordination Sequence:
#
# PCOD9405027 Si02
#       7
#     8   8   8   4   8   8   4
#     4   9  19  36  58  80 103 136 177 219 263 314
#     4   9  17  30  50  75 102 134 171 214 263 310
#     4  10  20  37  59  81 106 138 175 216 265 315
#     4  10  21  38  56  76 106 142 175 210 260 316
#     4   9  17  29  47  72 102 136 173 214 260 307
#     4   9  17  31  51  75 102 133 173 217 259 307
#     4  12  25  38  54  80 110 140 175 214 258 310
#
# _framework density 18.671229
#
# number of rings (size 3 to 8) (size 9 to 14) (size 15 to 20)
#    0.000    2.500    0.000    2.250    0.000    6.000 
#    0.000    3.333    0.000    5.000    0.000    0.000 
#    0.000    0.000    0.000    0.000    0.000    0.000 
#
# Total GULP energy -267906.934952 kJ/mol
# GULP energy per Si atom -5581.394478 kJ/mol
# Density = 1.862873 g / cm^3
# Si number density = 18.671229 Si / 1000 Ang^3
#
#
#
# Elastic Constant Matrix: (Units=GPa)
#
#
# Indices 1 2 3 4 5 6 
#
# 1 192.8799 19.0242 125.7191 0.0000 0.0000 0.0000
# 2 19.0242 9.6205 13.6755 0.0000 0.0000 0.0000
# 3 125.7191 13.6755 122.6672 0.0000 0.0000 0.0000
# 4 0.0000 0.0000 0.0000 16.1516 0.0000 0.0000
# 5 0.0000 0.0000 0.0000 0.0000 -5.8401 0.0000
# 6 0.0000 0.0000 0.0000 0.0000 0.0000 3998.2074
#
#
#
# Elastic Compliance Matrix: (Units=1/GPa)
#
#
# Indices 1 2 3 4 5 6 
#
# 1 0.016411 -0.010153 -0.015687 0.000000 0.000000 0.000000
# 2 -0.010153 0.129800 -0.004065 0.000000 0.000000 0.000000
# 3 -0.015687 -0.004065 0.024683 0.000000 0.000000 0.000000
# 4 0.000000 0.000000 0.000000 0.061913 0.000000 0.000000
# 5 0.000000 0.000000 0.000000 0.000000 -0.171230 0.000000
# 6 0.000000 0.000000 0.000000 0.000000 0.000000 0.000250
#
#
# Mechanical properties :
#
#
# Convention : Reuss Voigt Hill
#
# Bulk Modulus (GPa) = 9.00226 71.33391 40.16809
# Shear Modulus (GPa) = 31.51270 812.82036 422.16653
#
# Velocity S-wave (km/s) = 4.11270 20.88727 15.05311
# Velocity P-wave (km/s) = 5.23301 24.89965 17.99134
#
# Compressibility (1/GPa) = 0.11108316
#
# Stress axis : x y z
#
# Youngs Moduli (GPa) = 60.93445 7.70416 40.51349
#
# Poissons Ratio (x) = 0.07822 0.63556
# Poissons Ratio (y) = 0.61865 0.16470
# Poissons Ratio (z) = 0.95591 0.03132
#
# Static dielectric constant tensor:
#      x y z
#    x 1.620270 0.000000 0.000000 
#    y 0.000000 1.640890 0.000000 
#    z 0.000000 0.000000 1.632150 
# 
# From -- ./inp_files/12886.got.cif
#   From: 2010.05.17/outbox.cif.g08.bks.cpg/sg51_7_cif.got.tgz:12886.got - 2010.06.03 11:52:47.
