data_PCOD9405450
_publ_section_title
;
Structure prediction by ZEFSAII (Michael W. Deem and Ramdas Pophale) SiO2 
 PCOD9405450
Probable space group: P M M A
;
_chemical_formula_sum "Si O2"
_cell_formula_units_Z 44
_cell_length_a 7.481288
_cell_length_b 30.412831
_cell_length_c 9.234103
_cell_angle_alpha 90.000000
_cell_angle_beta 90.000000
_cell_angle_gamma 90.000000
_cell_volume 2101.009116
_symmetry_space_group_name_H-M "P M M A"
_symmetry_group_IT_number 51
_symmetry_cell_setting 'orthorhombic'
loop_
_space_group_symop_operation_xyz
x,y,z
1/2-x,-y,z
1/2+x,-y,-z
-x,y,-z
-x,-y,-z
1/2+x,y,-z
1/2-x,y,z
x,-y,z
loop_
_atom_site_type_symbol
_atom_site_label
_atom_site_fract_x
_atom_site_fract_y
_atom_site_fract_z
Si Si1 0.464425 0.857522 0.171091
Si Si2 0.535819 0.047254 0.826990
Si Si3 0.535694 0.412586 0.829929
Si Si4 0.964111 0.228891 0.670327
Si Si5 0.535750 0.500000 0.670453
Si Si6 0.535685 0.325831 0.670872
O O1 0.250000 0.858154 0.191152
O O2 0.532374 0.905265 0.225690
O O3 0.535553 0.813872 0.247827
O O4 0.500000 0.854722 0.000000
O O5 0.750000 0.047073 0.807223
O O6 0.467017 0.000000 0.770844
O O7 0.500000 0.047337 0.000000
O O8 0.750000 0.412047 0.810102
O O9 0.466759 0.455712 0.746724
O O10 0.465989 0.367178 0.761124
O O11 0.500000 0.415363 0.000000
O O12 0.750000 0.229577 0.691857
O O13 0.032773 0.277323 0.714399
O O14 0.000000 0.224407 0.500000
O O15 0.750000 0.500000 0.689756
O O16 0.500000 0.500000 0.500000
O O17 0.500000 0.332037 0.500000
O O18 0.750000 0.324681 0.688511
#
# Coordination Sequence:
#
# PCOD9405450 Si02
#       6
#     8   8   8   8   4   8
#     4   9  17  28  43  65  90 114 144 184 226 268
#     4   8  13  22  37  57  81 109 140 175 217 263
#     4  10  21  35  51  74 102 128 156 192 233 275
#     4   9  18  32  48  66  90 120 153 188 225 268
#     4  10  21  36  54  76 100 128 163 198 230 270
#     4   9  18  33  51  70  92 120 156 193 227 269
#
# _framework density 20.942319000000001
#
# number of rings (size 3 to 8) (size 9 to 14) (size 15 to 20)
#    0.000    2.909    0.000    0.818    0.000    2.909 
#    0.000    0.000    0.000    0.545    0.000    0.000 
#    0.000    0.000    0.000    0.000    0.000    0.000 
#
# Total GULP energy -245307.879808 kJ/mol
# GULP energy per Si atom -5575.179087 kJ/mol
# Density = 2.089465 g / cm^3
# Si number density = 20.942319 Si / 1000 Ang^3
#
#
#
# Elastic Constant Matrix: (Units=GPa)
#
#
# Indices 1 2 3 4 5 6 
#
# 1 64.0533 15.4681 -7.6395 0.0000 0.0000 0.0000
# 2 15.4681 299.3578 109.6058 0.0000 0.0000 0.0000
# 3 -7.6395 109.6058 76.1384 0.0000 0.0000 0.0000
# 4 0.0000 0.0000 0.0000 312.7990 0.0000 0.0000
# 5 0.0000 0.0000 0.0000 0.0000 20.5785 0.0000
# 6 0.0000 0.0000 0.0000 0.0000 0.0000 -1.0862
#
#
#
# Elastic Compliance Matrix: (Units=1/GPa)
#
#
# Indices 1 2 3 4 5 6 
#
# 1 0.017141 -0.003204 0.006333 0.000000 0.000000 0.000000
# 2 -0.003204 0.007662 -0.011352 0.000000 0.000000 0.000000
# 3 0.006333 -0.011352 0.030111 0.000000 0.000000 0.000000
# 4 0.000000 0.000000 0.000000 0.003197 0.000000 0.000000
# 5 0.000000 0.000000 0.000000 0.000000 0.048594 0.000000
# 6 0.000000 0.000000 0.000000 0.000000 0.000000 -0.920626
#
#
# Mechanical properties :
#
#
# Convention : Reuss Voigt Hill
#
# Bulk Modulus (GPa) = 25.99592 74.93534 50.46563
# Shear Modulus (GPa) = -6.37227 87.93260 40.78016
#
# Velocity S-wave (km/s) = -1.74625 6.48684 4.41757
# Velocity P-wave (km/s) = 2.89382 9.58984 7.08305
#
# Compressibility (1/GPa) = 0.03846758
#
# Stress axis : x y z
#
# Youngs Moduli (GPa) = 58.33934 130.50606 33.20996
#
# Poissons Ratio (x) = 0.41819 -0.21031
# Poissons Ratio (y) = 0.18694 0.37700
# Poissons Ratio (z) = -0.36945 1.48152
#
# Static dielectric constant tensor:
#      x y z
#    x 1.757340 0.000000 0.000000 
#    y 0.000000 1.828900 0.000000 
#    z 0.000000 0.000000 1.602290 
# 
# From -- ./inp_files/5694.got.cif
#   From: 2010.05.17/outbox.cif.g08.bks.cpg/sg51_3_cif.got.tgz:5694.got - 2010.06.03 11:52:47.
