data_PCOD9405114
_publ_section_title
;
Structure prediction by ZEFSAII (Michael W. Deem and Ramdas Pophale) SiO2 
 PCOD9405114
Probable space group: P M M A
;
_chemical_formula_sum "Si O2"
_cell_formula_units_Z 64
_cell_length_a 8.206751
_cell_length_b 19.761087
_cell_length_c 20.181998
_cell_angle_alpha 90.000000
_cell_angle_beta 90.000000
_cell_angle_gamma 90.000000
_cell_volume 3273.001812
_symmetry_space_group_name_H-M "P M M A"
_symmetry_group_IT_number 51
_symmetry_cell_setting 'orthorhombic'
loop_
_space_group_symop_operation_xyz
x,y,z
1/2-x,-y,z
1/2+x,-y,-z
-x,y,-z
-x,-y,-z
1/2+x,y,-z
1/2-x,y,z
x,-y,z
loop_
_atom_site_type_symbol
_atom_site_label
_atom_site_fract_x
_atom_site_fract_y
_atom_site_fract_z
Si Si1 0.947093 0.078139 0.075025
Si Si2 0.440825 0.077611 0.424681
Si Si3 0.437604 0.806810 0.663552
Si Si4 0.941011 0.683075 0.574871
Si Si5 0.948682 0.183657 0.187776
Si Si6 0.948994 0.338901 0.195050
Si Si7 0.445196 0.577616 0.676408
Si Si8 0.946178 0.577098 0.069503
O O1 0.750000 0.078436 0.076290
O O2 0.005360 0.130953 0.131515
O O3 0.000304 0.000000 0.087622
O O4 0.000000 0.096223 0.000000
O O5 0.500000 0.081579 0.500000
O O6 0.250000 0.096501 0.420735
O O7 0.546317 0.127962 0.381844
O O8 0.457850 0.000000 0.402829
O O9 0.250000 0.785019 0.672236
O O10 0.521345 0.745616 0.624192
O O11 0.500347 0.828400 0.736034
O O12 0.750000 0.673119 0.571991
O O13 0.000000 0.696821 0.500000
O O14 0.017468 0.616406 0.608334
O O15 0.750000 0.180318 0.185540
O O16 0.997926 0.262032 0.179918
O O17 0.750000 0.338620 0.197339
O O18 0.005065 0.374109 0.263304
O O19 0.003553 0.384032 0.133755
O O20 0.250000 0.573966 0.683575
O O21 0.506807 0.500000 0.679628
O O22 0.750000 0.575727 0.071092
O O23 0.993007 0.500000 0.928533
O O24 0.000000 0.608318 0.000000
#
# Coordination Sequence:
#
# PCOD9405114 Si02
#       8
#     8   8   8   8   8   8   8   8
#     4   9  18  34  55  80 111 149 191 233 277 326
#     4  10  21  37  56  81 114 150 188 230 278 335
#     4  11  21  37  60  85 114 148 189 237 288 341
#     4  12  25  41  61  84 114 150 189 233 286 346
#     4   9  18  32  55  81 107 140 182 230 275 329
#     4   9  16  31  54  79 106 139 182 227 277 334
#     4  10  20  37  62  87 110 142 187 237 289 346
#     4   9  17  29  47  72 102 137 175 216 263 321
#
# _framework density 19.553916000000001
#
# number of rings (size 3 to 8) (size 9 to 14) (size 15 to 20)
#    0.000    2.125    1.250    2.625    0.000    3.750 
#    0.000    3.125    0.000    3.000    0.000    0.000 
#    0.000    0.000    0.000    0.000    0.000    0.000 
#
# Total GULP energy -356955.097442 kJ/mol
# GULP energy per Si atom -5577.423398 kJ/mol
# Density = 1.950941 g / cm^3
# Si number density = 19.553916 Si / 1000 Ang^3
#
#
#
# Elastic Constant Matrix: (Units=GPa)
#
#
# Indices 1 2 3 4 5 6 
#
# 1 10.7004 11.0908 2.2243 0.0000 0.0000 0.0000
# 2 11.0908 112.0135 85.0608 0.0000 0.0000 0.0000
# 3 2.2243 85.0608 136.0156 0.0000 0.0000 0.0000
# 4 0.0000 0.0000 0.0000 3.8902 0.0000 0.0000
# 5 0.0000 0.0000 0.0000 0.0000 23.5990 0.0000
# 6 0.0000 0.0000 0.0000 0.0000 0.0000 15.9732
#
#
#
# Elastic Compliance Matrix: (Units=1/GPa)
#
#
# Indices 1 2 3 4 5 6 
#
# 1 0.110321 -0.018193 0.009573 0.000000 0.000000 0.000000
# 2 -0.018193 0.020002 -0.012211 0.000000 0.000000 0.000000
# 3 0.009573 -0.012211 0.014832 0.000000 0.000000 0.000000
# 4 0.000000 0.000000 0.000000 0.257053 0.000000 0.000000
# 5 0.000000 0.000000 0.000000 0.000000 0.042375 0.000000
# 6 0.000000 0.000000 0.000000 0.000000 0.000000 0.062605
#
#
# Mechanical properties :
#
#
# Convention : Reuss Voigt Hill
#
# Bulk Modulus (GPa) = 9.66249 50.60901 30.13575
# Shear Modulus (GPa) = 8.57125 19.38274 13.97699
#
# Velocity S-wave (km/s) = 2.09593 3.15182 2.67646
# Velocity P-wave (km/s) = 3.28776 6.25965 4.99963
#
# Compressibility (1/GPa) = 0.10349303
#
# Stress axis : x y z
#
# Youngs Moduli (GPa) = 9.06448 49.99590 67.42173
#
# Poissons Ratio (x) = 0.90957 -0.64545
# Poissons Ratio (y) = 0.16491 0.82329
# Poissons Ratio (z) = -0.08678 0.61050
#
# Static dielectric constant tensor:
#      x y z
#    x 1.700520 0.000000 0.000000 
#    y 0.000000 1.684880 0.000000 
#    z 0.000000 0.000000 1.709140 
# 
# From -- ./inp_files/28447.got.cif
#   From: 2010.05.17/outbox.cif.g08.bks.cpg/sg51_15_cif.got.tgz:28447.got - 2010.06.03 11:52:47.
