data_PCOD9405713
_publ_section_title
;
Structure prediction by ZEFSAII (Michael W. Deem and Ramdas Pophale) SiO2 
 PCOD9405713
Probable space group: P M M A
;
_chemical_formula_sum "Si O2"
_cell_formula_units_Z 40
_cell_length_a 9.346946
_cell_length_b 8.997453
_cell_length_c 26.227973
_cell_angle_alpha 90.000000
_cell_angle_beta 90.000000
_cell_angle_gamma 90.000000
_cell_volume 2205.738625
_symmetry_space_group_name_H-M "P M M A"
_symmetry_group_IT_number 51
_symmetry_cell_setting 'orthorhombic'
loop_
_space_group_symop_operation_xyz
x,y,z
1/2-x,-y,z
1/2+x,-y,-z
-x,y,-z
-x,-y,-z
1/2+x,y,-z
1/2-x,y,z
x,-y,z
loop_
_atom_site_type_symbol
_atom_site_label
_atom_site_fract_x
_atom_site_fract_y
_atom_site_fract_z
Si Si1 0.918751 0.321623 0.239683
Si Si2 0.417106 0.177966 0.146587
Si Si3 0.582418 0.678971 0.051996
Si Si4 0.584296 0.820811 0.550728
Si Si5 0.083184 0.321388 0.643431
O O1 0.750000 0.289196 0.231257
O O2 0.935536 0.500000 0.234612
O O3 0.953820 0.280813 0.298192
O O4 0.015013 0.239871 0.198580
O O5 0.250000 0.220102 0.142571
O O6 0.505657 0.245777 0.099737
O O7 0.427123 0.000000 0.145656
O O8 0.750000 0.719249 0.049161
O O9 0.573963 0.500000 0.057817
O O10 0.500000 0.718927 0.000000
O O11 0.500000 0.772506 0.500000
O O12 0.750000 0.777825 0.546902
O O13 0.513084 0.754105 0.601018
O O14 0.576166 0.000000 0.553294
O O15 0.250000 0.282025 0.635174
O O16 0.071838 0.500000 0.639703
#
# Coordination Sequence:
#
# PCOD9405713 Si02
#       5
#     8   8   8   8   8
#     4   9  19  37  59  81 106 139 180 223 267 318
#     4  11  24  38  53  79 114 148 182 221 266 316
#     4  10  21  38  61  86 110 140 180 223 268 320
#     4  10  21  36  54  77 106 141 180 220 264 317
#     4   9  19  36  57  81 108 138 175 220 269 320
#
# _framework density 18.134516000000001
#
# number of rings (size 3 to 8) (size 9 to 14) (size 15 to 20)
#    0.000    2.200    0.000    3.600    0.000    9.600 
#    0.000    6.000    0.000    0.000    0.000    0.000 
#    0.000    0.000    0.000    0.000    0.000    0.000 
#
# Total GULP energy -223400.874732 kJ/mol
# GULP energy per Si atom -5585.021868 kJ/mol
# Density = 1.809324 g / cm^3
# Si number density = 18.134516 Si / 1000 Ang^3
#
#
#
# Elastic Constant Matrix: (Units=GPa)
#
#
# Indices 1 2 3 4 5 6 
#
# 1 173.2353 57.1216 135.7890 0.0000 0.0000 0.0000
# 2 57.1216 21.9135 52.8736 0.0000 0.0000 0.0000
# 3 135.7890 52.8736 175.7885 0.0000 0.0000 0.0000
# 4 0.0000 0.0000 0.0000 73.9577 0.0000 0.0000
# 5 0.0000 0.0000 0.0000 0.0000 41.8189 0.0000
# 6 0.0000 0.0000 0.0000 0.0000 0.0000 31.7204
#
#
#
# Elastic Compliance Matrix: (Units=1/GPa)
#
#
# Indices 1 2 3 4 5 6 
#
# 1 0.041235 -0.111686 0.001741 0.000000 0.000000 0.000000
# 2 -0.111686 0.468891 -0.054760 0.000000 0.000000 0.000000
# 3 0.001741 -0.054760 0.020815 0.000000 0.000000 0.000000
# 4 0.000000 0.000000 0.000000 0.013521 0.000000 0.000000
# 5 0.000000 0.000000 0.000000 0.000000 0.023913 0.000000
# 6 0.000000 0.000000 0.000000 0.000000 0.000000 0.031525
#
#
# Mechanical properties :
#
#
# Convention : Reuss Voigt Hill
#
# Bulk Modulus (GPa) = 4.96205 95.83396 50.39800
# Shear Modulus (GPa) = 5.01763 37.84294 21.43028
#
# Velocity S-wave (km/s) = 1.66520 4.57310 3.44137
# Velocity P-wave (km/s) = 2.53759 8.99139 6.60623
#
# Compressibility (1/GPa) = 0.20152970
#
# Stress axis : x y z
#
# Youngs Moduli (GPa) = 24.25147 2.13269 48.04340
#
# Poissons Ratio (x) = 0.23819 -0.08364
# Poissons Ratio (y) = 2.70856 2.63086
# Poissons Ratio (z) = -0.04222 0.11679
#
# Static dielectric constant tensor:
#      x y z
#    x 1.604650 0.000000 0.000000 
#    y 0.000000 1.605420 0.000000 
#    z 0.000000 0.000000 1.592450 
# 
# From -- ./inp_files/34291.got.cif
#   From: 2010.05.17/outbox.cif.g08.bks.cpg/sg51_18_cif.got.tgz:34291.got - 2010.06.03 11:52:47.
