data_PCOD9405605
_publ_section_title
;
Structure prediction by ZEFSAII (Michael W. Deem and Ramdas Pophale) SiO2 
 PCOD9405605
Probable space group: P M M A
;
_chemical_formula_sum "Si O2"
_cell_formula_units_Z 48
_cell_length_a 9.698313
_cell_length_b 7.340509
_cell_length_c 31.945810
_cell_angle_alpha 90.000000
_cell_angle_beta 90.000000
_cell_angle_gamma 90.000000
_cell_volume 2274.239907
_symmetry_space_group_name_H-M "P M M A"
_symmetry_group_IT_number 51
_symmetry_cell_setting 'orthorhombic'
loop_
_space_group_symop_operation_xyz
x,y,z
1/2-x,-y,z
1/2+x,-y,-z
-x,y,-z
-x,-y,-z
1/2+x,y,-z
1/2-x,y,z
x,-y,z
loop_
_atom_site_type_symbol
_atom_site_label
_atom_site_fract_x
_atom_site_fract_y
_atom_site_fract_z
Si Si1 0.409567 0.778162 0.881657
Si Si2 0.092344 0.780864 0.383152
Si Si3 0.405391 0.714755 0.537202
Si Si4 0.909156 0.778264 0.710464
Si Si5 0.909002 0.778230 0.212147
Si Si6 0.590854 0.777642 0.960121
O O1 0.250000 0.723352 0.889091
O O2 0.451321 0.721599 0.834707
O O3 0.512653 0.719047 0.917947
O O4 0.409197 0.000000 0.882103
O O5 0.250000 0.718175 0.391631
O O6 0.050112 0.719922 0.336445
O O7 0.986589 0.731512 0.419296
O O8 0.097702 0.000000 0.382073
O O9 0.500000 0.792193 0.500000
O O10 0.250000 0.789644 0.538723
O O11 0.391935 0.500000 0.528749
O O12 0.750000 0.727385 0.716393
O O13 0.000302 0.714263 0.749104
O O14 0.914991 0.000000 0.710602
O O15 0.750000 0.726036 0.217819
O O16 0.913762 0.000000 0.212250
O O17 0.750000 0.719256 0.962400
O O18 0.592273 0.000000 0.960128
O O19 0.500000 0.721622 0.000000
#
# Coordination Sequence:
#
# PCOD9405605 Si02
#       6
#     8   8   8   8   8   8
#     4   8  13  20  27  35  49  69  95 129 169 215
#     4   9  18  32  49  70  95 121 149 181 218 260
#     4  10  21  36  53  72  93 119 151 184 219 260
#     4   8  14  24  37  54  77 102 126 155 192 234
#     4   8  13  20  30  44  62  85 112 142 179 225
#     4   9  15  20  25  32  42  59  86 123 169 219
#
# _framework density 21.105951999999998
#
# number of rings (size 3 to 8) (size 9 to 14) (size 15 to 20)
#    0.000    3.333    0.000    3.000    0.000    5.000 
#    0.000    5.000    0.000    0.000    0.000    0.000 
#    0.000    0.000    0.000    0.000    0.000    0.000 
#
# Total GULP energy -267855.327309 kJ/mol
# GULP energy per Si atom -5580.319319 kJ/mol
# Density = 2.105791 g / cm^3
# Si number density = 21.105952 Si / 1000 Ang^3
#
#
#
# Elastic Constant Matrix: (Units=GPa)
#
#
# Indices 1 2 3 4 5 6 
#
# 1 173.5910 6.1129 161.6642 0.0000 0.0000 0.0000
# 2 6.1129 79.3827 2.4387 0.0000 0.0000 0.0000
# 3 161.6642 2.4387 237.4654 0.0000 0.0000 0.0000
# 4 0.0000 0.0000 0.0000 24.0337 0.0000 0.0000
# 5 0.0000 0.0000 0.0000 0.0000 40.0919 0.0000
# 6 0.0000 0.0000 0.0000 0.0000 0.0000 -4.8526
#
#
#
# Elastic Compliance Matrix: (Units=1/GPa)
#
#
# Indices 1 2 3 4 5 6 
#
# 1 0.015802 -0.000887 -0.010749 0.000000 0.000000 0.000000
# 2 -0.000887 0.012651 0.000474 0.000000 0.000000 0.000000
# 3 -0.010749 0.000474 0.011524 0.000000 0.000000 0.000000
# 4 0.000000 0.000000 0.000000 0.041608 0.000000 0.000000
# 5 0.000000 0.000000 0.000000 0.000000 0.024943 0.000000
# 6 0.000000 0.000000 0.000000 0.000000 0.000000 -0.206074
#
#
# Mechanical properties :
#
#
# Convention : Reuss Voigt Hill
#
# Bulk Modulus (GPa) = 56.64603 92.31898 74.48251
# Shear Modulus (GPa) = -70.08916 33.20281 -18.44318
#
# Velocity S-wave (km/s) = -5.76891 3.97060 -2.95928
# Velocity P-wave (km/s) = 4.18051 8.05336 4.86723
#
# Compressibility (1/GPa) = 0.01765349
#
# Stress axis : x y z
#
# Youngs Moduli (GPa) = 63.28172 79.04563 86.77478
#
# Poissons Ratio (x) = 0.07009 0.93274
# Poissons Ratio (y) = 0.05611 -0.04111
# Poissons Ratio (z) = 0.68021 -0.03744
#
# Static dielectric constant tensor:
#      x y z
#    x 1.711330 0.000000 0.000000 
#    y 0.000000 1.834430 0.000000 
#    z 0.000000 0.000000 1.733860 
# 
# From -- ./inp_files/37315.got.cif
#   From: 2010.05.17/outbox.cif.g08.bks.cpg/sg51_19_cif.got.tgz:37315.got - 2010.06.03 11:52:47.
