data_PCOD9405416
_publ_section_title
;
Structure prediction by ZEFSAII (Michael W. Deem and Ramdas Pophale) SiO2 
 PCOD9405416
Probable space group: P M M A
;
_chemical_formula_sum "Si O2"
_cell_formula_units_Z 48
_cell_length_a 9.550007
_cell_length_b 7.621011
_cell_length_c 32.220796
_cell_angle_alpha 90.000000
_cell_angle_beta 90.000000
_cell_angle_gamma 90.000000
_cell_volume 2345.052358
_symmetry_space_group_name_H-M "P M M A"
_symmetry_group_IT_number 51
_symmetry_cell_setting 'orthorhombic'
loop_
_space_group_symop_operation_xyz
x,y,z
1/2-x,-y,z
1/2+x,-y,-z
-x,y,-z
-x,-y,-z
1/2+x,y,-z
1/2-x,y,z
x,-y,z
loop_
_atom_site_type_symbol
_atom_site_label
_atom_site_fract_x
_atom_site_fract_y
_atom_site_fract_z
Si Si1 0.091640 0.710506 0.292328
Si Si2 0.912614 0.285955 0.800030
Si Si3 0.408567 0.708625 0.537745
Si Si4 0.411473 0.714708 0.879161
Si Si5 0.407583 0.207748 0.628118
Si Si6 0.587972 0.285550 0.959658
O O1 0.250000 0.775627 0.299245
O O2 0.098106 0.500000 0.289735
O O3 0.045326 0.771425 0.246452
O O4 0.994887 0.751981 0.331034
O O5 0.750000 0.235245 0.806949
O O6 0.914701 0.500000 0.800694
O O7 0.014124 0.227092 0.836663
O O8 0.500000 0.781030 0.500000
O O9 0.250000 0.780907 0.537822
O O10 0.397857 0.500000 0.531384
O O11 0.469321 0.733125 0.583918
O O12 0.250000 0.770808 0.882423
O O13 0.410681 0.500000 0.879153
O O14 0.505448 0.769176 0.918320
O O15 0.250000 0.283054 0.631451
O O16 0.397310 0.000000 0.625425
O O17 0.750000 0.228467 0.960456
O O18 0.590105 0.500000 0.959761
O O19 0.500000 0.230587 0.000000
#
# Coordination Sequence:
#
# PCOD9405416 Si02
#       6
#     8   8   8   8   8   8
#     4   9  18  32  50  71  93 119 155 197 238 282
#     4   8  14  25  39  55  76 101 131 172 221 267
#     4   9  18  33  52  73  97 126 160 197 235 275
#     4   9  15  21  30  46  67  91 124 167 213 262
#     4  10  21  35  50  71 100 131 161 193 232 280
#     4   9  15  21  28  38  56  86 124 166 212 261
#
# _framework density 20.468624999999999
#
# number of rings (size 3 to 8) (size 9 to 14) (size 15 to 20)
#    0.000    3.000    0.000    2.500    0.000    7.000 
#    0.000    3.333    0.000    0.000    0.000    0.000 
#    0.000    0.000    0.000    0.000    0.000    0.833 
#
# Total GULP energy -267739.735598 kJ/mol
# GULP energy per Si atom -5577.911158 kJ/mol
# Density = 2.042204 g / cm^3
# Si number density = 20.468625 Si / 1000 Ang^3
#
#
#
# Elastic Constant Matrix: (Units=GPa)
#
#
# Indices 1 2 3 4 5 6 
#
# 1 141.8340 3.9599 131.7849 0.0000 0.0000 0.0000
# 2 3.9599 39.8320 3.3099 0.0000 0.0000 0.0000
# 3 131.7849 3.3099 231.3156 0.0000 0.0000 0.0000
# 4 0.0000 0.0000 0.0000 -50.2044 0.0000 0.0000
# 5 0.0000 0.0000 0.0000 0.0000 65.1507 0.0000
# 6 0.0000 0.0000 0.0000 0.0000 0.0000 61.9963
#
#
#
# Elastic Compliance Matrix: (Units=1/GPa)
#
#
# Indices 1 2 3 4 5 6 
#
# 1 0.015005 -0.000782 -0.008537 0.000000 0.000000 0.000000
# 2 -0.000782 0.025176 0.000085 0.000000 0.000000 0.000000
# 3 -0.008537 0.000085 0.009186 0.000000 0.000000 0.000000
# 4 0.000000 0.000000 0.000000 -0.019919 0.000000 0.000000
# 5 0.000000 0.000000 0.000000 0.000000 0.015349 0.000000
# 6 0.000000 0.000000 0.000000 0.000000 0.000000 0.016130
#
#
# Mechanical properties :
#
#
# Convention : Reuss Voigt Hill
#
# Bulk Modulus (GPa) = 32.36420 76.78789 54.57605
# Shear Modulus (GPa) = 55.74455 33.65030 44.69742
#
# Velocity S-wave (km/s) = 5.22430 4.05902 4.67808
# Velocity P-wave (km/s) = 7.22751 7.71776 7.47666
#
# Compressibility (1/GPa) = 0.03089834
#
# Stress axis : x y z
#
# Youngs Moduli (GPa) = 66.64548 39.72016 108.86431
#
# Poissons Ratio (x) = 0.03107 0.92941
# Poissons Ratio (y) = 0.05214 -0.00930
# Poissons Ratio (z) = 0.56897 -0.00339
#
# Static dielectric constant tensor:
#      x y z
#    x 1.730540 0.000000 0.000000 
#    y 0.000000 1.751590 0.000000 
#    z 0.000000 0.000000 1.720470 
# 
# From -- ./inp_files/37018.got.cif
#   From: 2010.05.17/outbox.cif.g08.bks.cpg/sg51_19_cif.got.tgz:37018.got - 2010.06.03 11:52:47.
