data_PCOD9405043
_publ_section_title
;
Structure prediction by ZEFSAII (Michael W. Deem and Ramdas Pophale) SiO2 
 PCOD9405043
Probable space group: P M M A
;
_chemical_formula_sum "Si O2"
_cell_formula_units_Z 36
_cell_length_a 8.736614
_cell_length_b 22.799457
_cell_length_c 9.798431
_cell_angle_alpha 90.000000
_cell_angle_beta 90.000000
_cell_angle_gamma 90.000000
_cell_volume 1951.750012
_symmetry_space_group_name_H-M "P M M A"
_symmetry_group_IT_number 51
_symmetry_cell_setting 'orthorhombic'
loop_
_space_group_symop_operation_xyz
x,y,z
1/2-x,-y,z
1/2+x,-y,-z
-x,y,-z
-x,-y,-z
1/2+x,y,-z
1/2-x,y,z
x,-y,z
loop_
_atom_site_type_symbol
_atom_site_label
_atom_site_fract_x
_atom_site_fract_y
_atom_site_fract_z
Si Si1 0.066070 0.102513 0.647400
Si Si2 0.564954 0.000000 0.151072
Si Si3 0.932655 0.664318 0.848227
Si Si4 0.431602 0.430365 0.648287
Si Si5 0.934015 0.238486 0.350803
O O1 0.250000 0.099835 0.638984
O O2 0.024418 0.170271 0.674976
O O3 0.000000 0.085874 0.500000
O O4 0.015888 0.057326 0.763413
O O5 0.750000 0.000000 0.144835
O O6 0.500000 0.000000 0.000000
O O7 0.750000 0.666267 0.853255
O O8 0.988106 0.607378 0.764592
O O9 0.996518 0.719461 0.762972
O O10 0.000000 0.663969 0.000000
O O11 0.500000 0.414952 0.500000
O O12 0.250000 0.418587 0.648544
O O13 0.455064 0.500000 0.668568
O O14 0.750000 0.243817 0.352784
O O15 0.000000 0.254147 0.500000
#
# Coordination Sequence:
#
# PCOD9405043 Si02
#       5
#     8   4   8   8   8
#     4   9  19  35  57  82 109 141 182 229 274 325
#     4  10  21  36  52  78 112 146 183 224 274 330
#     4  12  25  40  58  82 114 151 188 230 280 333
#     4  10  21  39  63  89 116 148 187 230 275 326
#     4  10  20  37  59  84 112 145 186 231 278 330
#
# _framework density 18.444987000000001
#
# number of rings (size 3 to 8) (size 9 to 14) (size 15 to 20)
#    0.000    1.778    0.000    4.333    0.000    4.444 
#    0.000    2.222    0.000    0.000    0.000    0.000 
#    0.000    0.000    0.000    0.000    0.000    0.000 
#
# Total GULP energy -201211.503693 kJ/mol
# GULP energy per Si atom -5589.208436 kJ/mol
# Density = 1.840301 g / cm^3
# Si number density = 18.444987 Si / 1000 Ang^3
#
#
#
# Elastic Constant Matrix: (Units=GPa)
#
#
# Indices 1 2 3 4 5 6 
#
# 1 97.9196 62.6064 79.7506 0.0000 0.0000 0.0000
# 2 62.6064 99.4330 106.7270 0.0000 0.0000 0.0000
# 3 79.7506 106.7270 201.3917 0.0000 0.0000 0.0000
# 4 0.0000 0.0000 0.0000 -30.0800 0.0000 0.0000
# 5 0.0000 0.0000 0.0000 0.0000 39.9017 0.0000
# 6 0.0000 0.0000 0.0000 0.0000 0.0000 12.8511
#
#
#
# Elastic Compliance Matrix: (Units=1/GPa)
#
#
# Indices 1 2 3 4 5 6 
#
# 1 0.017641 -0.008370 -0.002550 0.000000 0.000000 0.000000
# 2 -0.008370 0.027296 -0.011151 0.000000 0.000000 0.000000
# 3 -0.002550 -0.011151 0.011885 0.000000 0.000000 0.000000
# 4 0.000000 0.000000 0.000000 -0.033245 0.000000 0.000000
# 5 0.000000 0.000000 0.000000 0.000000 0.025062 0.000000
# 6 0.000000 0.000000 0.000000 0.000000 0.000000 0.077815
#
#
# Mechanical properties :
#
#
# Convention : Reuss Voigt Hill
#
# Bulk Modulus (GPa) = 78.86835 99.65692 89.26264
# Shear Modulus (GPa) = 28.60051 14.51190 21.55620
#
# Velocity S-wave (km/s) = 3.94202 2.80798 3.42230
# Velocity P-wave (km/s) = 7.97313 8.04112 8.00720
#
# Compressibility (1/GPa) = 0.01267936
#
# Stress axis : x y z
#
# Youngs Moduli (GPa) = 56.68622 36.63518 84.14262
#
# Poissons Ratio (x) = 0.30665 0.21456
# Poissons Ratio (y) = 0.47449 0.93826
# Poissons Ratio (z) = 0.14454 0.40851
#
# Static dielectric constant tensor:
#      x y z
#    x 1.615170 0.000000 0.000000 
#    y 0.000000 1.647970 0.000000 
#    z 0.000000 0.000000 1.583230 
# 
# From -- ./inp_files/5266.got.cif
#   From: 2010.05.17/outbox.cif.g08.bks.cpg/sg51_3_cif.got.tgz:5266.got - 2010.06.03 11:52:47.
