data_PCOD9405032
_publ_section_title
;
Structure prediction by ZEFSAII (Michael W. Deem and Ramdas Pophale) SiO2 
 PCOD9405032
Probable space group: P M M A
;
_chemical_formula_sum "Si O2"
_cell_formula_units_Z 48
_cell_length_a 8.822002
_cell_length_b 17.433542
_cell_length_c 15.495187
_cell_angle_alpha 90.000000
_cell_angle_beta 90.000000
_cell_angle_gamma 90.000000
_cell_volume 2383.140274
_symmetry_space_group_name_H-M "P M M A"
_symmetry_group_IT_number 51
_symmetry_cell_setting 'orthorhombic'
loop_
_space_group_symop_operation_xyz
x,y,z
1/2-x,-y,z
1/2+x,-y,-z
-x,y,-z
-x,-y,-z
1/2+x,y,-z
1/2-x,y,z
x,-y,z
loop_
_atom_site_type_symbol
_atom_site_label
_atom_site_fract_x
_atom_site_fract_y
_atom_site_fract_z
Si Si1 0.432953 0.690854 0.095797
Si Si2 0.071529 0.848168 0.830281
Si Si3 0.427802 0.090032 0.336163
Si Si4 0.425257 0.244399 0.414458
Si Si5 0.567141 0.632341 0.720004
Si Si6 0.567849 0.500000 0.401936
Si Si7 0.070798 0.000000 0.091985
O O1 0.250000 0.692054 0.089709
O O2 0.492166 0.773754 0.128727
O O3 0.475045 0.635978 0.178026
O O4 0.500000 0.674018 0.000000
O O5 0.250000 0.843704 0.847848
O O6 0.039494 0.869381 0.731107
O O7 0.993419 0.923059 0.868477
O O8 0.250000 0.092904 0.305791
O O9 0.437068 0.152184 0.411893
O O10 0.461792 0.000000 0.351658
O O11 0.500000 0.276367 0.500000
O O12 0.250000 0.262825 0.421541
O O13 0.472953 0.286661 0.326257
O O14 0.750000 0.621358 0.718231
O O15 0.489547 0.571081 0.657040
O O16 0.750000 0.500000 0.408651
O O17 0.500000 0.500000 0.500000
O O18 0.250000 0.000000 0.094824
O O19 0.000000 0.000000 0.000000
#
# Coordination Sequence:
#
# PCOD9405032 Si02
#       7
#     8   8   8   8   8   4   4
#     4  11  23  42  66  94 128 169 213 259 313 375
#     4  12  23  36  56  85 117 155 208 265 321 380
#     4  10  20  37  59  81 115 164 212 262 322 382
#     4  10  21  38  60  90 121 162 212 259 319 381
#     4  10  22  43  69  96 132 172 214 261 317 378
#     4  12  26  44  71 106 141 172 213 260 318 382
#     4  12  24  38  54  76 111 154 205 266 328 384
#
# _framework density 20.141492
#
# number of rings (size 3 to 8) (size 9 to 14) (size 15 to 20)
#    0.000    1.167    2.500    4.500    0.000    4.333 
#    0.000    0.417    0.000    0.000    0.000    0.000 
#    0.000    0.000    0.000    0.000    0.000    0.000 
#
# Total GULP energy -267400.832171 kJ/mol
# GULP energy per Si atom -5570.850670 kJ/mol
# Density = 2.009565 g / cm^3
# Si number density = 20.141492 Si / 1000 Ang^3
#
#
#
# Elastic Constant Matrix: (Units=GPa)
#
#
# Indices 1 2 3 4 5 6 
#
# 1 80.8108 44.7505 68.8637 0.0000 0.0000 0.0000
# 2 44.7505 100.3003 41.1630 0.0000 0.0000 0.0000
# 3 68.8637 41.1630 146.0873 0.0000 0.0000 0.0000
# 4 0.0000 0.0000 0.0000 111.6895 0.0000 0.0000
# 5 0.0000 0.0000 0.0000 0.0000 34.3169 0.0000
# 6 0.0000 0.0000 0.0000 0.0000 0.0000 25.7465
#
#
#
# Elastic Compliance Matrix: (Units=1/GPa)
#
#
# Indices 1 2 3 4 5 6 
#
# 1 0.024327 -0.006952 -0.009509 0.000000 0.000000 0.000000
# 2 -0.006952 0.013260 -0.000459 0.000000 0.000000 0.000000
# 3 -0.009509 -0.000459 0.011457 0.000000 0.000000 0.000000
# 4 0.000000 0.000000 0.000000 0.008953 0.000000 0.000000
# 5 0.000000 0.000000 0.000000 0.000000 0.029140 0.000000
# 6 0.000000 0.000000 0.000000 0.000000 0.000000 0.038840
#
#
# Mechanical properties :
#
#
# Convention : Reuss Voigt Hill
#
# Bulk Modulus (GPa) = 65.76884 70.75029 68.25957
# Shear Modulus (GPa) = 30.32404 45.84532 38.08468
#
# Velocity S-wave (km/s) = 3.88435 4.77609 4.35312
# Velocity P-wave (km/s) = 7.26924 8.10047 7.69609
#
# Compressibility (1/GPa) = 0.01520477
#
# Stress axis : x y z
#
# Youngs Moduli (GPa) = 41.10648 75.41396 87.28310
#
# Poissons Ratio (x) = 0.52424 0.82995
# Poissons Ratio (y) = 0.28575 0.04010
# Poissons Ratio (z) = 0.39087 0.03465
#
# Static dielectric constant tensor:
#      x y z
#    x 1.690320 0.000000 0.000000 
#    y 0.000000 1.704310 0.000000 
#    z 0.000000 0.000000 1.783360 
# 
# From -- ./inp_files/21178.got.cif
#   From: 2010.05.17/outbox.cif.g08.bks.cpg/sg51_11_cif.got.tgz:21178.got - 2010.06.03 11:52:47.
