data_PCOD9405978
_publ_section_title
;
Structure prediction by ZEFSAII (Michael W. Deem and Ramdas Pophale) SiO2 
 PCOD9405978
Probable space group: P M M A
;
_chemical_formula_sum "Si O2"
_cell_formula_units_Z 64
_cell_length_a 15.937450
_cell_length_b 15.746762
_cell_length_c 12.402121
_cell_angle_alpha 90.000000
_cell_angle_beta 90.000000
_cell_angle_gamma 90.000000
_cell_volume 3112.476370
_symmetry_space_group_name_H-M "P M M A"
_symmetry_group_IT_number 51
_symmetry_cell_setting 'orthorhombic'
loop_
_space_group_symop_operation_xyz
x,y,z
1/2-x,-y,z
1/2+x,-y,-z
-x,y,-z
-x,-y,-z
1/2+x,y,-z
1/2-x,y,z
x,-y,z
loop_
_atom_site_type_symbol
_atom_site_label
_atom_site_fract_x
_atom_site_fract_y
_atom_site_fract_z
Si Si1 0.341732 0.899610 0.762603
Si Si2 0.342928 0.856228 0.233738
Si Si3 0.150123 0.672995 0.998755
Si Si4 0.596074 0.863107 0.000434
Si Si5 0.155006 0.650844 0.232619
Si Si6 0.997362 0.898094 0.377527
Si Si7 0.155492 0.398200 0.764316
Si Si8 0.000921 0.602306 0.622215
O O1 0.250000 0.861896 0.738793
O O2 0.418917 0.864111 0.692753
O O3 0.337892 0.000000 0.739321
O O4 0.360129 0.891491 0.889718
O O5 0.250000 0.883990 0.267952
O O6 0.361537 0.888245 0.112380
O O7 0.343325 0.753529 0.229022
O O8 0.416932 0.881581 0.313560
O O9 0.250000 0.694355 0.004004
O O10 0.136068 0.623878 0.888305
O O11 0.100201 0.760708 0.996081
O O12 0.132191 0.624260 0.110059
O O13 0.500000 0.892060 0.000000
O O14 0.250000 0.621676 0.258105
O O15 0.084550 0.623427 0.315709
O O16 0.000000 0.865154 0.500000
O O17 0.987836 0.000000 0.383589
O O18 0.250000 0.366582 0.739747
O O19 0.157525 0.500000 0.754095
O O20 0.081755 0.365026 0.687908
O O21 0.007577 0.500000 0.618569
O O22 0.000000 0.634415 0.500000
#
# Coordination Sequence:
#
# PCOD9405978 Si02
#       8
#     8   8   8   8   8   8   8   8
#     4  10  21  37  56  80 112 146 181 225 274 325
#     4  10  21  38  57  82 114 146 180 223 275 327
#     4   9  19  34  54  82 111 140 177 215 267 333
#     4  11  20  33  57  84 112 144 178 221 274 329
#     4   9  20  37  56  79 110 142 175 221 270 320
#     4  10  22  39  58  82 110 144 188 231 272 320
#     4   9  19  35  54  78 109 141 176 223 272 320
#     4  10  22  37  54  78 106 142 187 227 266 318
#
# _framework density 20.562405999999999
#
# number of rings (size 3 to 8) (size 9 to 14) (size 15 to 20)
#    0.000    2.250    1.250    1.875    3.500    3.250 
#    0.000    5.000    0.000    1.500    0.000    0.000 
#    0.000    0.000    0.000    0.000    0.000    0.000 
#
# Total GULP energy -357312.010392 kJ/mol
# GULP energy per Si atom -5583.000162 kJ/mol
# Density = 2.051560 g / cm^3
# Si number density = 20.562406 Si / 1000 Ang^3
#
#
#
# Elastic Constant Matrix: (Units=GPa)
#
#
# Indices 1 2 3 4 5 6 
#
# 1 178.3298 9.2113 115.8946 0.0000 0.0000 0.0000
# 2 9.2113 17.8465 8.2516 0.0000 0.0000 0.0000
# 3 115.8946 8.2516 180.4445 0.0000 0.0000 0.0000
# 4 0.0000 0.0000 0.0000 28.8306 0.0000 0.0000
# 5 0.0000 0.0000 0.0000 0.0000 -9.3618 0.0000
# 6 0.0000 0.0000 0.0000 0.0000 0.0000 27.0752
#
#
#
# Elastic Compliance Matrix: (Units=1/GPa)
#
#
# Indices 1 2 3 4 5 6 
#
# 1 0.009707 -0.002174 -0.006135 0.000000 0.000000 0.000000
# 2 -0.002174 0.057730 -0.001244 0.000000 0.000000 0.000000
# 3 -0.006135 -0.001244 0.009539 0.000000 0.000000 0.000000
# 4 0.000000 0.000000 0.000000 0.034685 0.000000 0.000000
# 5 0.000000 0.000000 0.000000 0.000000 -0.106817 0.000000
# 6 0.000000 0.000000 0.000000 0.000000 0.000000 0.036934
#
#
# Mechanical properties :
#
#
# Convention : Reuss Voigt Hill
#
# Bulk Modulus (GPa) = 17.27973 71.48176 44.38074
# Shear Modulus (GPa) = 62.36375 25.52635 43.94505
#
# Velocity S-wave (km/s) = 5.51315 3.52719 4.62795
# Velocity P-wave (km/s) = 6.99630 7.17125 7.08432
#
# Compressibility (1/GPa) = 0.05787129
#
# Stress axis : x y z
#
# Youngs Moduli (GPa) = 103.01797 17.32190 104.83044
#
# Poissons Ratio (x) = 0.03765 0.64315
# Poissons Ratio (y) = 0.22391 0.13041
# Poissons Ratio (z) = 0.63203 0.02155
#
# Static dielectric constant tensor:
#      x y z
#    x 1.742490 0.000000 0.000000 
#    y 0.000000 1.755560 0.000000 
#    z 0.000000 0.000000 1.716450 
# 
# From -- ./inp_files/16853.got.cif
#   From: 2010.05.17/outbox.cif.g08.bks.cpg/sg51_9_cif.got.tgz:16853.got - 2010.06.03 11:52:47.
