data_PCOD9405544
_publ_section_title
;
Structure prediction by ZEFSAII (Michael W. Deem and Ramdas Pophale) SiO2 
 PCOD9405544
Probable space group: P M M A
;
_chemical_formula_sum "Si O2"
_cell_formula_units_Z 64
_cell_length_a 14.050107
_cell_length_b 24.471551
_cell_length_c 9.808271
_cell_angle_alpha 90.000000
_cell_angle_beta 90.000000
_cell_angle_gamma 90.000000
_cell_volume 3372.357319
_symmetry_space_group_name_H-M "P M M A"
_symmetry_group_IT_number 51
_symmetry_cell_setting 'orthorhombic'
loop_
_space_group_symop_operation_xyz
x,y,z
1/2-x,-y,z
1/2+x,-y,-z
-x,y,-z
-x,-y,-z
1/2+x,y,-z
1/2-x,y,z
x,-y,z
loop_
_atom_site_type_symbol
_atom_site_label
_atom_site_fract_x
_atom_site_fract_y
_atom_site_fract_z
Si Si1 0.364201 0.441848 0.488003
Si Si2 0.864618 0.261630 0.626374
Si Si3 0.977923 0.671793 0.854648
Si Si4 0.635985 0.562269 0.836429
Si Si5 0.981771 0.063942 0.842015
Si Si6 0.635747 0.333002 0.363848
Si Si7 0.362103 0.062561 0.614929
Si Si8 0.135813 0.863926 0.356476
O O1 0.250000 0.441687 0.502905
O O2 0.399639 0.500000 0.541671
O O3 0.380201 0.437952 0.327030
O O4 0.397839 0.389606 0.567900
O O5 0.750000 0.264704 0.639326
O O6 0.909925 0.296439 0.748707
O O7 0.886572 0.287178 0.477720
O O8 0.895868 0.198841 0.636220
O O9 0.927412 0.613104 0.885076
O O10 0.077557 0.670120 0.774385
O O11 0.000000 0.698710 0.000000
O O12 0.750000 0.571134 0.859370
O O13 0.613978 0.500000 0.885258
O O14 0.906796 0.103609 0.770756
O O15 0.076556 0.070252 0.750464
O O16 0.952275 0.000000 0.832189
O O17 0.000000 0.076200 0.000000
O O18 0.750000 0.333154 0.343440
O O19 0.250000 0.069153 0.643145
O O20 0.389471 0.103542 0.494502
O O21 0.377479 0.000000 0.566907
O O22 0.250000 0.864172 0.347974
#
# Coordination Sequence:
#
# PCOD9405544 Si02
#       8
#     8   8   8   8   8   8   8   8
#     4   8  14  28  54  83 105 132 175 225 274 321
#     4  10  22  42  63  81 107 144 191 240 286 333
#     4  12  25  37  56  85 117 149 186 226 282 344
#     4   9  18  35  59  84 112 148 186 226 277 335
#     4  10  21  35  54  84 122 159 190 224 272 332
#     4  10  21  38  58  82 111 144 187 237 282 332
#     4   9  18  34  56  83 115 150 189 234 282 328
#     4  10  21  37  60  86 109 143 190 241 287 330
#
# _framework density 18.977822
#
# number of rings (size 3 to 8) (size 9 to 14) (size 15 to 20)
#    0.000    2.250    1.250    2.250    0.000    6.500 
#    0.000    2.500    0.000    4.500    0.000    0.000 
#    0.000    0.000    0.000    0.000    0.000    0.000 
#
# Total GULP energy -357149.170660 kJ/mol
# GULP energy per Si atom -5580.455792 kJ/mol
# Density = 1.893463 g / cm^3
# Si number density = 18.977822 Si / 1000 Ang^3
#
#
#
# Elastic Constant Matrix: (Units=GPa)
#
#
# Indices 1 2 3 4 5 6 
#
# 1 76.7113 37.1199 27.4299 0.0000 0.0000 0.0000
# 2 37.1199 108.1816 48.7541 0.0000 0.0000 0.0000
# 3 27.4299 48.7541 89.2072 0.0000 0.0000 0.0000
# 4 0.0000 0.0000 0.0000 -58.9243 0.0000 0.0000
# 5 0.0000 0.0000 0.0000 0.0000 -2.8204 0.0000
# 6 0.0000 0.0000 0.0000 0.0000 0.0000 17.1906
#
#
#
# Elastic Compliance Matrix: (Units=1/GPa)
#
#
# Indices 1 2 3 4 5 6 
#
# 1 0.016059 -0.004358 -0.002556 0.000000 0.000000 0.000000
# 2 -0.004358 0.013447 -0.006009 0.000000 0.000000 0.000000
# 3 -0.002556 -0.006009 0.015280 0.000000 0.000000 0.000000
# 4 0.000000 0.000000 0.000000 -0.016971 0.000000 0.000000
# 5 0.000000 0.000000 0.000000 0.000000 -0.354563 0.000000
# 6 0.000000 0.000000 0.000000 0.000000 0.000000 0.058171
#
#
# Mechanical properties :
#
#
# Convention : Reuss Voigt Hill
#
# Bulk Modulus (GPa) = 52.80052 55.63420 54.21736
# Shear Modulus (GPa) = -21.14910 1.80893 -9.67009
#
# Velocity S-wave (km/s) = -3.34190 0.97737 -2.25976
# Velocity P-wave (km/s) = 3.60438 5.53649 4.67141
#
# Compressibility (1/GPa) = 0.01893921
#
# Stress axis : x y z
#
# Youngs Moduli (GPa) = 62.27137 74.36422 65.44521
#
# Poissons Ratio (x) = 0.32410 0.16727
# Poissons Ratio (y) = 0.27140 0.39327
# Poissons Ratio (z) = 0.15916 0.44687
#
# Static dielectric constant tensor:
#      x y z
#    x 1.684270 0.000000 0.000000 
#    y 0.000000 1.680530 0.000000 
#    z 0.000000 0.000000 1.610990 
# 
# From -- ./inp_files/8672.got.cif
#   From: 2010.05.17/outbox.cif.g08.bks.cpg/sg51_5_cif.got.tgz:8672.got - 2010.06.03 11:52:47.
