data_PCOD9405768
_publ_section_title
;
Structure prediction by ZEFSAII (Michael W. Deem and Ramdas Pophale) SiO2 
 PCOD9405768
Probable space group: P M M A
;
_chemical_formula_sum "Si O2"
_cell_formula_units_Z 64
_cell_length_a 18.419806
_cell_length_b 9.070556
_cell_length_c 21.056241
_cell_angle_alpha 90.000000
_cell_angle_beta 90.000000
_cell_angle_gamma 90.000000
_cell_volume 3518.032146
_symmetry_space_group_name_H-M "P M M A"
_symmetry_group_IT_number 51
_symmetry_cell_setting 'orthorhombic'
loop_
_space_group_symop_operation_xyz
x,y,z
1/2-x,-y,z
1/2+x,-y,-z
-x,y,-z
-x,-y,-z
1/2+x,y,-z
1/2-x,y,z
x,-y,z
loop_
_atom_site_type_symbol
_atom_site_label
_atom_site_fract_x
_atom_site_fract_y
_atom_site_fract_z
Si Si1 0.835740 0.323856 0.999069
Si Si2 0.663331 0.674860 0.757613
Si Si3 0.589430 0.823831 0.877801
Si Si4 0.664745 0.823679 0.245180
Si Si5 0.163506 0.825862 0.374405
Si Si6 0.417796 0.176654 0.883632
Si Si7 0.585521 0.176265 0.495680
Si Si8 0.164253 0.324480 0.622487
O O1 0.750000 0.291463 0.003978
O O2 0.844729 0.500000 0.995361
O O3 0.868523 0.249489 0.936324
O O4 0.877542 0.260023 0.059807
O O5 0.750000 0.701622 0.765597
O O6 0.651216 0.500000 0.761426
O O7 0.620502 0.757878 0.812726
O O8 0.642621 0.736335 0.688341
O O9 0.503574 0.793203 0.883822
O O10 0.599470 0.000000 0.878871
O O11 0.750000 0.789841 0.233443
O O12 0.617695 0.782461 0.183938
O O13 0.641896 0.743797 0.309839
O O14 0.658651 0.000000 0.254225
O O15 0.250000 0.809103 0.383746
O O16 0.123135 0.778187 0.438294
O O17 0.148735 0.000000 0.363981
O O18 0.407769 0.000000 0.892049
O O19 0.500000 0.204239 0.500000
O O20 0.620568 0.255946 0.435685
O O21 0.596828 0.000000 0.488733
O O22 0.250000 0.289960 0.614223
O O23 0.155950 0.500000 0.623904
#
# Coordination Sequence:
#
# PCOD9405768 Si02
#       8
#     8   8   8   8   8   8   8   8
#     4  11  24  40  59  84 113 146 185 228 273 323
#     4  10  21  37  57  81 109 142 182 227 274 326
#     4  11  23  38  58  84 114 147 183 225 272 324
#     4   9  18  35  59  82 106 141 183 225 269 320
#     4   9  18  34  56  79 104 139 183 227 271 323
#     4  10  22  39  59  85 114 145 184 227 272 324
#     4  10  21  36  55  80 110 144 183 228 276 327
#     4  10  21  36  55  80 110 144 183 227 273 324
#
# _framework density 18.191987000000001
#
# number of rings (size 3 to 8) (size 9 to 14) (size 15 to 20)
#    0.000    2.000    0.000    3.000    0.000    9.750 
#    0.000    7.500    0.000    0.000    0.000    0.000 
#    0.000    0.000    0.000    0.000    0.000    0.000 
#
# Total GULP energy -357581.027327 kJ/mol
# GULP energy per Si atom -5587.203552 kJ/mol
# Density = 1.815058 g / cm^3
# Si number density = 18.191987 Si / 1000 Ang^3
#
#
#
# Elastic Constant Matrix: (Units=GPa)
#
#
# Indices 1 2 3 4 5 6 
#
# 1 71.9210 55.1125 68.4125 0.0000 0.0000 0.0000
# 2 55.1125 50.4523 59.5410 0.0000 0.0000 0.0000
# 3 68.4125 59.5410 149.9502 0.0000 0.0000 0.0000
# 4 0.0000 0.0000 0.0000 -109.7662 0.0000 0.0000
# 5 0.0000 0.0000 0.0000 0.0000 -71.2204 0.0000
# 6 0.0000 0.0000 0.0000 0.0000 0.0000 20.9381
#
#
#
# Elastic Compliance Matrix: (Units=1/GPa)
#
#
# Indices 1 2 3 4 5 6 
#
# 1 0.086392 -0.090058 -0.003656 0.000000 0.000000 0.000000
# 2 -0.090058 0.131178 -0.011000 0.000000 0.000000 0.000000
# 3 -0.003656 -0.011000 0.012704 0.000000 0.000000 0.000000
# 4 0.000000 0.000000 0.000000 -0.009110 0.000000 0.000000
# 5 0.000000 0.000000 0.000000 0.000000 -0.014041 0.000000
# 6 0.000000 0.000000 0.000000 0.000000 0.000000 0.047760
#
#
# Mechanical properties :
#
#
# Convention : Reuss Voigt Hill
#
# Bulk Modulus (GPa) = 47.96530 70.93950 59.45240
# Shear Modulus (GPa) = 10.60987 -26.05920 -7.72467
#
# Velocity S-wave (km/s) = 2.41761 -3.78888 -2.06286
# Velocity P-wave (km/s) = 5.84949 4.46528 5.20361
#
# Compressibility (1/GPa) = 0.02084841
#
# Stress axis : x y z
#
# Youngs Moduli (GPa) = 11.57511 7.62321 78.71309
#
# Poissons Ratio (x) = 0.68653 0.28775
# Poissons Ratio (y) = 1.04243 0.86581
# Poissons Ratio (z) = 0.04232 0.08385
#
# Static dielectric constant tensor:
#      x y z
#    x 1.606120 0.000000 0.000000 
#    y 0.000000 1.605700 0.000000 
#    z 0.000000 0.000000 1.587470 
# 
# From -- ./inp_files/33809.got.cif
#   From: 2010.05.17/outbox.cif.g08.bks.cpg/sg51_17_cif.got.tgz:33809.got - 2010.06.03 11:52:47.
