data_PCOD9405231
_publ_section_title
;
Structure prediction by ZEFSAII (Michael W. Deem and Ramdas Pophale) SiO2 
 PCOD9405231
Probable space group: P M M A
;
_chemical_formula_sum "Si O2"
_cell_formula_units_Z 58
_cell_length_a 30.908516
_cell_length_b 7.872326
_cell_length_c 12.887274
_cell_angle_alpha 90.000000
_cell_angle_beta 90.000000
_cell_angle_gamma 90.000000
_cell_volume 3135.756178
_symmetry_space_group_name_H-M "P M M A"
_symmetry_group_IT_number 51
_symmetry_cell_setting 'orthorhombic'
loop_
_space_group_symop_operation_xyz
x,y,z
1/2-x,-y,z
1/2+x,-y,-z
-x,y,-z
-x,-y,-z
1/2+x,y,-z
1/2-x,y,z
x,-y,z
loop_
_atom_site_type_symbol
_atom_site_label
_atom_site_fract_x
_atom_site_fract_y
_atom_site_fract_z
Si Si1 0.314102 0.310236 0.033981
Si Si2 0.113442 0.705421 0.354939
Si Si3 0.446068 0.300978 0.167231
Si Si4 0.459442 0.202256 0.766366
Si Si5 0.093156 0.197537 0.962955
Si Si6 0.451861 0.294737 0.533198
Si Si7 0.201114 0.201447 0.267167
Si Si8 0.250000 0.000000 0.983160
O O1 0.299564 0.500000 0.004300
O O2 0.309642 0.292932 0.158839
O O3 0.363763 0.290141 0.000414
O O4 0.287142 0.152345 0.989242
O O5 0.112459 0.500000 0.354560
O O6 0.089016 0.764581 0.250282
O O7 0.084790 0.763886 0.452488
O O8 0.163069 0.761397 0.348030
O O9 0.437887 0.500000 0.150523
O O10 0.493181 0.279851 0.216553
O O11 0.441040 0.212446 0.056811
O O12 0.427685 0.264861 0.856988
O O13 0.443597 0.241543 0.650944
O O14 0.463855 0.000000 0.778629
O O15 0.103892 0.000000 0.947830
O O16 0.500000 0.235190 0.500000
O O17 0.452628 0.500000 0.528965
O O18 0.250000 0.248274 0.299654
O O19 0.201314 0.000000 0.244380
#
# Coordination Sequence:
#
# PCOD9405231 Si02
#       8
#     8   8   8   8   8   8   8   2
#     4  12  22  36  60  87 121 161 197 240 304 367
#     4  10  21  35  56  86 115 152 197 245 301 355
#     4  11  21  35  56  83 117 157 200 239 290 358
#     4  11  24  38  56  82 116 158 201 249 299 352
#     4  11  23  39  54  82 124 158 197 248 298 356
#     4  10  20  39  60  80 113 151 197 252 298 350
#     4  11  21  36  55  85 122 156 191 245 303 357
#     4  12  22  40  56  90 122 154 198 256 292 362
#
# _framework density 18.496335999999999
#
# number of rings (size 3 to 8) (size 9 to 14) (size 15 to 20)
#    0.000    1.103    4.828    2.276    0.000    6.069 
#    0.000    0.000    0.000    0.000    1.793    0.000 
#    0.000    0.000    0.000    0.000    0.000    0.000 
#
# Total GULP energy -323487.572959 kJ/mol
# GULP energy per Si atom -5577.371948 kJ/mol
# Density = 1.845424 g / cm^3
# Si number density = 18.496336 Si / 1000 Ang^3
#
#
#
# Elastic Constant Matrix: (Units=GPa)
#
#
# Indices 1 2 3 4 5 6 
#
# 1 132.1618 18.0127 57.1410 0.0000 0.0000 0.0000
# 2 18.0127 72.3535 8.0542 0.0000 0.0000 0.0000
# 3 57.1410 8.0542 115.7188 0.0000 0.0000 0.0000
# 4 0.0000 0.0000 0.0000 16.9268 0.0000 0.0000
# 5 0.0000 0.0000 0.0000 0.0000 36.8437 0.0000
# 6 0.0000 0.0000 0.0000 0.0000 0.0000 7.8978
#
#
#
# Elastic Compliance Matrix: (Units=1/GPa)
#
#
# Indices 1 2 3 4 5 6 
#
# 1 0.009881 -0.001932 -0.004745 0.000000 0.000000 0.000000
# 2 -0.001932 0.014307 -0.000042 0.000000 0.000000 0.000000
# 3 -0.004745 -0.000042 0.010988 0.000000 0.000000 0.000000
# 4 0.000000 0.000000 0.000000 0.059078 0.000000 0.000000
# 5 0.000000 0.000000 0.000000 0.000000 0.027142 0.000000
# 6 0.000000 0.000000 0.000000 0.000000 0.000000 0.126618
#
#
# Mechanical properties :
#
#
# Convention : Reuss Voigt Hill
#
# Bulk Modulus (GPa) = 46.00151 54.07221 50.03686
# Shear Modulus (GPa) = 18.60841 28.13540 23.37191
#
# Velocity S-wave (km/s) = 3.17528 3.90440 3.55857
# Velocity P-wave (km/s) = 6.19418 7.04438 6.63292
#
# Compressibility (1/GPa) = 0.02173842
#
# Stress axis : x y z
#
# Youngs Moduli (GPa) = 101.20208 69.89772 91.01249
#
# Poissons Ratio (x) = 0.13503 0.43184
# Poissons Ratio (y) = 0.19550 0.00381
# Poissons Ratio (z) = 0.48018 0.00293
#
# Static dielectric constant tensor:
#      x y z
#    x 1.666230 0.000000 0.000000 
#    y 0.000000 1.669430 0.000000 
#    z 0.000000 0.000000 1.619830 
# 
# From -- ./inp_files/19420.got.cif
#   From: 2010.05.17/outbox.cif.g08.bks.cpg/sg51_10_cif.got.tgz:19420.got - 2010.06.03 11:52:47.
