data_PCOD9405340
_publ_section_title
;
Structure prediction by ZEFSAII (Michael W. Deem and Ramdas Pophale) SiO2 
 PCOD9405340
Probable space group: P M M A
;
_chemical_formula_sum "Si O2"
_cell_formula_units_Z 48
_cell_length_a 8.180905
_cell_length_b 32.196676
_cell_length_c 9.480263
_cell_angle_alpha 90.000000
_cell_angle_beta 90.000000
_cell_angle_gamma 90.000000
_cell_volume 2497.081818
_symmetry_space_group_name_H-M "P M M A"
_symmetry_group_IT_number 51
_symmetry_cell_setting 'orthorhombic'
loop_
_space_group_symop_operation_xyz
x,y,z
1/2-x,-y,z
1/2+x,-y,-z
-x,y,-z
-x,-y,-z
1/2+x,y,-z
1/2-x,y,z
x,-y,z
loop_
_atom_site_type_symbol
_atom_site_label
_atom_site_fract_x
_atom_site_fract_y
_atom_site_fract_z
Si Si1 0.445360 0.749874 0.338816
Si Si2 0.552034 0.409334 0.336620
Si Si3 0.947633 0.000000 0.660789
Si Si4 0.946944 0.500000 0.336597
Si Si5 0.552398 0.828145 0.839088
Si Si6 0.554588 0.329951 0.161648
Si Si7 0.447367 0.921508 0.160431
O O1 0.500000 0.746359 0.500000
O O2 0.250000 0.751136 0.336571
O O3 0.507573 0.792169 0.264816
O O4 0.500050 0.710484 0.247589
O O5 0.500000 0.404339 0.500000
O O6 0.750000 0.409101 0.334820
O O7 0.496200 0.454968 0.282312
O O8 0.492215 0.371311 0.241508
O O9 0.006698 0.958456 0.739931
O O10 0.000000 0.000000 0.500000
O O11 0.750000 0.000000 0.667940
O O12 0.750000 0.500000 0.328301
O O13 0.000000 0.500000 0.500000
O O14 0.750000 0.828204 0.835684
O O15 0.495818 0.874856 0.801607
O O16 0.500000 0.819579 0.000000
O O17 0.750000 0.331287 0.164138
O O18 0.500000 0.328237 0.000000
O O19 0.250000 0.921245 0.165153
O O20 0.500000 0.929590 0.000000
#
# Coordination Sequence:
#
# PCOD9405340 Si02
#       7
#     8   8   4   4   8   8   8
#     4  11  23  38  56  79 106 138 174 215 260 310
#     4   9  18  32  53  78 104 134 170 211 256 305
#     4  10  21  34  50  74 106 138 171 212 258 304
#     4   8  14  28  49  74 102 132 166 206 251 302
#     4   9  19  35  55  78 105 135 170 211 257 306
#     4  11  23  38  55  77 105 139 176 217 263 311
#     4   9  18  34  54  77 103 134 172 213 254 304
#
# _framework density 19.222438
#
# number of rings (size 3 to 8) (size 9 to 14) (size 15 to 20)
#    0.000    2.333    0.000    2.250    0.000    6.667 
#    0.000    0.417    0.000    0.000    0.000    0.000 
#    0.000    0.000    0.000    0.000    0.000    0.000 
#
# Total GULP energy -267829.626637 kJ/mol
# GULP energy per Si atom -5579.783888 kJ/mol
# Density = 1.917869 g / cm^3
# Si number density = 19.222438 Si / 1000 Ang^3
#
#
#
# Elastic Constant Matrix: (Units=GPa)
#
#
# Indices 1 2 3 4 5 6 
#
# 1 16.8944 22.0547 11.5785 0.0000 0.0000 0.0000
# 2 22.0547 217.6099 134.8318 0.0000 0.0000 0.0000
# 3 11.5785 134.8318 143.4899 0.0000 0.0000 0.0000
# 4 0.0000 0.0000 0.0000 42.6919 0.0000 0.0000
# 5 0.0000 0.0000 0.0000 0.0000 31.0864 0.0000
# 6 0.0000 0.0000 0.0000 0.0000 0.0000 19.6085
#
#
#
# Elastic Compliance Matrix: (Units=1/GPa)
#
#
# Indices 1 2 3 4 5 6 
#
# 1 0.068557 -0.008427 0.002386 0.000000 0.000000 0.000000
# 2 -0.008427 0.012035 -0.010629 0.000000 0.000000 0.000000
# 3 0.002386 -0.010629 0.016764 0.000000 0.000000 0.000000
# 4 0.000000 0.000000 0.000000 0.023424 0.000000 0.000000
# 5 0.000000 0.000000 0.000000 0.000000 0.032168 0.000000
# 6 0.000000 0.000000 0.000000 0.000000 0.000000 0.050998
#
#
# Mechanical properties :
#
#
# Convention : Reuss Voigt Hill
#
# Bulk Modulus (GPa) = 15.62082 79.43602 47.52842
# Shear Modulus (GPa) = 19.33305 32.64598 25.98952
#
# Velocity S-wave (km/s) = 3.17480 4.12555 3.68100
# Velocity P-wave (km/s) = 4.64577 8.00674 6.54565
#
# Compressibility (1/GPa) = 0.06401713
#
# Stress axis : x y z
#
# Youngs Moduli (GPa) = 14.58649 83.08932 59.65057
#
# Poissons Ratio (x) = 0.70018 -0.14235
# Poissons Ratio (y) = 0.12292 0.63403
# Poissons Ratio (z) = -0.03481 0.88316
#
# Static dielectric constant tensor:
#      x y z
#    x 1.679930 0.000000 0.000000 
#    y 0.000000 1.715590 0.000000 
#    z 0.000000 0.000000 1.607990 
# 
# From -- ./inp_files/6142.got.cif
#   From: 2010.05.17/outbox.cif.g08.bks.cpg/sg51_4_cif.got.tgz:6142.got - 2010.06.03 11:52:47.
