data_PCOD9405914
_publ_section_title
;
Structure prediction by ZEFSAII (Michael W. Deem and Ramdas Pophale) SiO2 
 PCOD9405914
Probable space group: P M M A
;
_chemical_formula_sum "Si O2"
_cell_formula_units_Z 56
_cell_length_a 8.746371
_cell_length_b 14.788064
_cell_length_c 24.104126
_cell_angle_alpha 90.000000
_cell_angle_beta 90.000000
_cell_angle_gamma 90.000000
_cell_volume 3117.673313
_symmetry_space_group_name_H-M "P M M A"
_symmetry_group_IT_number 51
_symmetry_cell_setting 'orthorhombic'
loop_
_space_group_symop_operation_xyz
x,y,z
1/2-x,-y,z
1/2+x,-y,-z
-x,y,-z
-x,-y,-z
1/2+x,y,-z
1/2-x,y,z
x,-y,z
loop_
_atom_site_type_symbol
_atom_site_label
_atom_site_fract_x
_atom_site_fract_y
_atom_site_fract_z
Si Si1 0.568432 0.895272 0.893776
Si Si2 0.569034 0.720223 0.058171
Si Si3 0.070553 0.892780 0.774291
Si Si4 0.934593 0.895181 0.439823
Si Si5 0.936234 0.781869 0.334340
Si Si6 0.565363 0.602820 0.279575
Si Si7 0.430693 0.392489 0.159263
O O1 0.750000 0.885937 0.901044
O O2 0.482326 0.823520 0.931542
O O3 0.523581 0.874463 0.829950
O O4 0.525422 0.000000 0.904154
O O5 0.750000 0.713898 0.056661
O O6 0.504738 0.663070 0.109593
O O7 0.500000 0.688023 0.000000
O O8 0.250000 0.871141 0.785002
O O9 0.018812 0.838254 0.720364
O O10 0.061202 0.000000 0.762689
O O11 0.750000 0.891318 0.442109
O O12 0.989015 0.830253 0.390386
O O13 0.000000 0.871118 0.500000
O O14 0.976549 0.000000 0.428008
O O15 0.750000 0.784545 0.335701
O O16 0.982941 0.678452 0.323744
O O17 0.750000 0.603001 0.277267
O O18 0.514661 0.500000 0.291398
O O19 0.504464 0.629389 0.218805
O O20 0.250000 0.374399 0.161212
O O21 0.453617 0.500000 0.150442
#
# Coordination Sequence:
#
# PCOD9405914 Si02
#       7
#     8   8   8   8   8   8   8
#     4  10  21  37  55  76 105 138 170 208 256 309
#     4  12  25  40  58  78 102 133 172 216 257 303
#     4   9  16  27  46  72  98 125 160 200 245 300
#     4   9  17  30  47  67  94 129 168 208 249 294
#     4   9  16  27  46  70  96 128 164 203 247 294
#     4   9  17  30  50  76 102 129 164 203 243 292
#     4  10  21  38  59  82 109 138 166 202 254 312
#
# _framework density 17.962112999999999
#
# number of rings (size 3 to 8) (size 9 to 14) (size 15 to 20)
#    0.000    2.286    0.000    3.429    0.000    5.143 
#    0.000    1.429    0.000    3.857    0.000    0.000 
#    0.000    0.000    0.000    0.000    0.000    0.000 
#
# Total GULP energy -312634.782791 kJ/mol
# GULP energy per Si atom -5582.763978 kJ/mol
# Density = 1.792123 g / cm^3
# Si number density = 17.962113 Si / 1000 Ang^3
#
#
#
# Elastic Constant Matrix: (Units=GPa)
#
#
# Indices 1 2 3 4 5 6 
#
# 1 30.5188 27.8522 19.8612 0.0000 0.0000 0.0000
# 2 27.8522 77.3562 68.9640 0.0000 0.0000 0.0000
# 3 19.8612 68.9640 96.4953 0.0000 0.0000 0.0000
# 4 0.0000 0.0000 0.0000 22.0462 0.0000 0.0000
# 5 0.0000 0.0000 0.0000 0.0000 26.9648 0.0000
# 6 0.0000 0.0000 0.0000 0.0000 0.0000 18.7862
#
#
#
# Elastic Compliance Matrix: (Units=1/GPa)
#
#
# Indices 1 2 3 4 5 6 
#
# 1 0.050543 -0.024593 0.007173 0.000000 0.000000 0.000000
# 2 -0.024593 0.047594 -0.028953 0.000000 0.000000 0.000000
# 3 0.007173 -0.028953 0.029579 0.000000 0.000000 0.000000
# 4 0.000000 0.000000 0.000000 0.045359 0.000000 0.000000
# 5 0.000000 0.000000 0.000000 0.000000 0.037085 0.000000
# 6 0.000000 0.000000 0.000000 0.000000 0.000000 0.053231
#
#
# Mechanical properties :
#
#
# Convention : Reuss Voigt Hill
#
# Bulk Modulus (GPa) = 28.59567 48.63611 38.61589
# Shear Modulus (GPa) = 13.59464 19.40563 16.50013
#
# Velocity S-wave (km/s) = 2.75408 3.29046 3.03414
# Velocity P-wave (km/s) = 5.10566 6.44763 5.81549
#
# Compressibility (1/GPa) = 0.03497033
#
# Stress axis : x y z
#
# Youngs Moduli (GPa) = 19.78532 21.01120 33.80789
#
# Poissons Ratio (x) = 0.51673 -0.24252
# Poissons Ratio (y) = 0.48658 0.97883
# Poissons Ratio (z) = -0.14193 0.60833
#
# Static dielectric constant tensor:
#      x y z
#    x 1.604530 0.000000 0.000000 
#    y 0.000000 1.641110 0.000000 
#    z 0.000000 0.000000 1.584610 
# 
# From -- ./inp_files/31958.got.cif
#   From: 2010.05.17/outbox.cif.g08.bks.cpg/sg51_16_cif.got.tgz:31958.got - 2010.06.03 11:52:47.
