data_PCOD9405065
_publ_section_title
;
Structure prediction by ZEFSAII (Michael W. Deem and Ramdas Pophale) SiO2 
 PCOD9405065
Probable space group: P M M A
;
_chemical_formula_sum "Si O2"
_cell_formula_units_Z 56
_cell_length_a 22.340997
_cell_length_b 8.746895
_cell_length_c 15.132974
_cell_angle_alpha 90.000000
_cell_angle_beta 90.000000
_cell_angle_gamma 90.000000
_cell_volume 2957.200353
_symmetry_space_group_name_H-M "P M M A"
_symmetry_group_IT_number 51
_symmetry_cell_setting 'orthorhombic'
loop_
_space_group_symop_operation_xyz
x,y,z
1/2-x,-y,z
1/2+x,-y,-z
-x,y,-z
-x,-y,-z
1/2+x,y,-z
1/2-x,y,z
x,-y,z
loop_
_atom_site_type_symbol
_atom_site_label
_atom_site_fract_x
_atom_site_fract_y
_atom_site_fract_z
Si Si1 0.041695 0.185065 0.305430
Si Si2 0.079391 0.682554 0.767215
Si Si3 0.250000 0.327135 0.384997
Si Si4 0.876039 0.184120 0.861638
Si Si5 0.180218 0.315834 0.637032
Si Si6 0.250000 0.328295 0.175747
Si Si7 0.066630 0.821818 0.960346
Si Si8 0.630282 0.816978 0.540044
O O1 0.082167 0.234190 0.220648
O O2 0.075141 0.231486 0.396447
O O3 0.975531 0.248358 0.289312
O O4 0.039348 0.000000 0.304942
O O5 0.074920 0.500000 0.763635
O O6 0.143411 0.727712 0.724966
O O7 0.072506 0.737278 0.867832
O O8 0.250000 0.500000 0.424461
O O9 0.250000 0.341701 0.280911
O O10 0.191045 0.236192 0.412064
O O11 0.809108 0.237138 0.847797
O O12 0.880750 0.000000 0.863316
O O13 0.895580 0.241895 0.957824
O O14 0.250000 0.262740 0.632257
O O15 0.181854 0.500000 0.632251
O O16 0.139727 0.254832 0.556282
O O17 0.250000 0.500000 0.137884
O O18 0.081946 0.000000 0.944398
O O19 0.000000 0.818363 0.000000
O O20 0.627936 0.000000 0.532623
#
# Coordination Sequence:
#
# PCOD9405065 Si02
#       8
#     8   8   4   8   8   4   8   8
#     4  10  21  38  60  89 125 158 191 243 300 352
#     4  11  24  40  62  90 119 155 200 248 298 359
#     4  11  21  33  53  84 123 162 193 235 296 354
#     4  10  20  37  60  84 119 162 199 242 299 362
#     4  10  23  44  64  83 117 163 201 242 301 353
#     4  11  23  35  53  86 125 160 197 245 298 354
#     4  10  20  39  65  88 114 154 199 245 303 358
#     4  11  22  36  61  92 117 152 204 247 285 344
#
# _framework density 18.93683
#
# number of rings (size 3 to 8) (size 9 to 14) (size 15 to 20)
#    0.000    1.571    3.571    1.286    0.000    4.857 
#    1.286    2.857    0.000    0.000    0.000    0.000 
#    0.000    0.000    0.000    0.000    0.000    0.000 
#
# Total GULP energy -312469.498986 kJ/mol
# GULP energy per Si atom -5579.812482 kJ/mol
# Density = 1.889373 g / cm^3
# Si number density = 18.936830 Si / 1000 Ang^3
#
#
#
# Elastic Constant Matrix: (Units=GPa)
#
#
# Indices 1 2 3 4 5 6 
#
# 1 85.6862 15.1510 50.3304 0.0000 0.0000 0.0000
# 2 15.1510 11.5447 21.1130 0.0000 0.0000 0.0000
# 3 50.3304 21.1130 114.9146 0.0000 0.0000 0.0000
# 4 0.0000 0.0000 0.0000 19.7684 0.0000 0.0000
# 5 0.0000 0.0000 0.0000 0.0000 24.8001 0.0000
# 6 0.0000 0.0000 0.0000 0.0000 0.0000 22.3131
#
#
#
# Elastic Compliance Matrix: (Units=1/GPa)
#
#
# Indices 1 2 3 4 5 6 
#
# 1 0.016922 -0.013033 -0.005017 0.000000 0.000000 0.000000
# 2 -0.013033 0.140490 -0.020104 0.000000 0.000000 0.000000
# 3 -0.005017 -0.020104 0.014593 0.000000 0.000000 0.000000
# 4 0.000000 0.000000 0.000000 0.050586 0.000000 0.000000
# 5 0.000000 0.000000 0.000000 0.000000 0.040322 0.000000
# 6 0.000000 0.000000 0.000000 0.000000 0.000000 0.044817
#
#
# Mechanical properties :
#
#
# Convention : Reuss Voigt Hill
#
# Bulk Modulus (GPa) = 10.44959 42.81494 26.63226
# Shear Modulus (GPa) = 12.02108 21.74637 16.88372
#
# Velocity S-wave (km/s) = 2.52225 3.39243 2.98918
# Velocity P-wave (km/s) = 3.74332 6.16467 5.09979
#
# Compressibility (1/GPa) = 0.09569757
#
# Stress axis : x y z
#
# Youngs Moduli (GPa) = 59.09539 7.11795 68.52573
#
# Poissons Ratio (x) = 0.09277 0.34379
# Poissons Ratio (y) = 0.77018 1.37763
# Poissons Ratio (z) = 0.29648 0.14310
#
# Static dielectric constant tensor:
#      x y z
#    x 1.679000 0.000000 0.000000 
#    y 0.000000 1.653500 0.000000 
#    z 0.000000 0.000000 1.682560 
# 
# From -- ./inp_files/25911.got.cif
#   From: 2010.05.17/outbox.cif.g08.bks.cpg/sg51_13_cif.got.tgz:25911.got - 2010.06.03 11:52:47.
