data_PCOD9405902
_publ_section_title
;
Structure prediction by ZEFSAII (Michael W. Deem and Ramdas Pophale) SiO2 
 PCOD9405902
Probable space group: P M M A
;
_chemical_formula_sum "Si O2"
_cell_formula_units_Z 48
_cell_length_a 31.156942
_cell_length_b 9.141511
_cell_length_c 10.332046
_cell_angle_alpha 90.000000
_cell_angle_beta 90.000000
_cell_angle_gamma 90.000000
_cell_volume 2942.789129
_symmetry_space_group_name_H-M "P M M A"
_symmetry_group_IT_number 51
_symmetry_cell_setting 'orthorhombic'
loop_
_space_group_symop_operation_xyz
x,y,z
1/2-x,-y,z
1/2+x,-y,-z
-x,y,-z
-x,-y,-z
1/2+x,y,-z
1/2-x,y,z
x,-y,z
loop_
_atom_site_type_symbol
_atom_site_label
_atom_site_fract_x
_atom_site_fract_y
_atom_site_fract_z
Si Si1 0.115987 0.174747 0.218685
Si Si2 0.296245 0.173656 0.503582
Si Si3 0.472492 0.326566 0.629357
Si Si4 0.297307 0.325086 0.223978
Si Si5 0.110244 0.173403 0.527823
Si Si6 0.521889 0.823917 0.864125
O O1 0.159206 0.253309 0.170125
O O2 0.109267 0.205606 0.372840
O O3 0.072087 0.217910 0.147145
O O4 0.121889 0.000000 0.207600
O O5 0.250000 0.198024 0.569318
O O6 0.296123 0.265347 0.371381
O O7 0.341034 0.205876 0.573073
O O8 0.298509 0.000000 0.469520
O O9 0.500000 0.296467 0.500000
O O10 0.471094 0.500000 0.649444
O O11 0.425440 0.263231 0.602324
O O12 0.495744 0.249252 0.748410
O O13 0.250000 0.286299 0.167684
O O14 0.301069 0.500000 0.223019
O O15 0.101898 0.000000 0.542428
O O16 0.520178 0.000000 0.848861
O O17 0.500000 0.785716 0.000000
#
# Coordination Sequence:
#
# PCOD9405902 Si02
#       6
#     8   8   8   8   8   8
#     4   9  17  29  46  68  93 123 157 196 243 287
#     4   8  14  25  40  61  91 124 156 192 239 288
#     4  11  22  33  48  72 100 131 164 200 240 285
#     4   9  16  24  37  61  92 124 156 190 231 281
#     4   9  16  27  46  69  93 126 162 200 241 284
#     4  10  21  37  55  73  95 127 166 207 250 296
#
# _framework density 16.311057000000002
#
# number of rings (size 3 to 8) (size 9 to 14) (size 15 to 20)
#    0.000    2.667    1.667    2.000    0.000    5.333 
#    0.000    0.000    0.000    0.000    0.000    1.167 
#    0.000    4.000    0.000    0.000    0.000    0.000 
#
# Total GULP energy -267216.684081 kJ/mol
# GULP energy per Si atom -5567.014252 kJ/mol
# Density = 1.627393 g / cm^3
# Si number density = 16.311057 Si / 1000 Ang^3
#
#
#
# Elastic Constant Matrix: (Units=GPa)
#
#
# Indices 1 2 3 4 5 6 
#
# 1 201.8888 57.5844 53.3398 0.0000 0.0000 0.0000
# 2 57.5844 29.3617 33.0980 0.0000 0.0000 0.0000
# 3 53.3398 33.0980 51.2713 0.0000 0.0000 0.0000
# 4 0.0000 0.0000 0.0000 8.2554 0.0000 0.0000
# 5 0.0000 0.0000 0.0000 0.0000 11.5854 0.0000
# 6 0.0000 0.0000 0.0000 0.0000 0.0000 13.2092
#
#
#
# Elastic Compliance Matrix: (Units=1/GPa)
#
#
# Indices 1 2 3 4 5 6 
#
# 1 0.012600 -0.036485 0.010444 0.000000 0.000000 0.000000
# 2 -0.036485 0.230715 -0.110980 0.000000 0.000000 0.000000
# 3 0.010444 -0.110980 0.080281 0.000000 0.000000 0.000000
# 4 0.000000 0.000000 0.000000 0.121133 0.000000 0.000000
# 5 0.000000 0.000000 0.000000 0.000000 0.086315 0.000000
# 6 0.000000 0.000000 0.000000 0.000000 0.000000 0.075705
#
#
# Mechanical properties :
#
#
# Convention : Reuss Voigt Hill
#
# Bulk Modulus (GPa) = 20.17977 63.39626 41.78802
# Shear Modulus (GPa) = 5.57221 15.84331 10.70776
#
# Velocity S-wave (km/s) = 1.85031 3.11999 2.56495
# Velocity P-wave (km/s) = 4.11868 7.20628 5.86916
#
# Compressibility (1/GPa) = 0.04955457
#
# Stress axis : x y z
#
# Youngs Moduli (GPa) = 79.36204 4.33436 12.45621
#
# Poissons Ratio (x) = 0.15814 -0.13009
# Poissons Ratio (y) = 2.89553 1.38239
# Poissons Ratio (z) = -0.82886 0.48103
#
# Static dielectric constant tensor:
#      x y z
#    x 1.607530 0.000000 0.000000 
#    y 0.000000 1.541070 0.000000 
#    z 0.000000 0.000000 1.507750 
# 
# From -- ./inp_files/19265.got.cif
#   From: 2010.05.17/outbox.cif.g08.bks.cpg/sg51_10_cif.got.tgz:19265.got - 2010.06.03 11:52:47.
