data_PCOD9405424
_publ_section_title
;
Structure prediction by ZEFSAII (Michael W. Deem and Ramdas Pophale) SiO2 
 PCOD9405424
Probable space group: P M M A
;
_chemical_formula_sum "Si O2"
_cell_formula_units_Z 44
_cell_length_a 7.471496
_cell_length_b 30.499499
_cell_length_c 9.168294
_cell_angle_alpha 90.000000
_cell_angle_beta 90.000000
_cell_angle_gamma 90.000000
_cell_volume 2089.242275
_symmetry_space_group_name_H-M "P M M A"
_symmetry_group_IT_number 51
_symmetry_cell_setting 'orthorhombic'
loop_
_space_group_symop_operation_xyz
x,y,z
1/2-x,-y,z
1/2+x,-y,-z
-x,y,-z
-x,-y,-z
1/2+x,y,-z
1/2-x,y,z
x,-y,z
loop_
_atom_site_type_symbol
_atom_site_label
_atom_site_fract_x
_atom_site_fract_y
_atom_site_fract_z
Si Si1 0.964679 0.134812 0.827553
Si Si2 0.535553 0.500000 0.828378
Si Si3 0.535493 0.412301 0.671362
Si Si4 0.964781 0.675070 0.827068
Si Si5 0.035907 0.770335 0.173917
Si Si6 0.035578 0.047935 0.327911
O O1 0.750000 0.135386 0.807190
O O2 0.032891 0.182395 0.772442
O O3 0.035973 0.091187 0.750925
O O4 0.000000 0.132117 0.000000
O O5 0.750000 0.500000 0.808147
O O6 0.466226 0.455703 0.752660
O O7 0.500000 0.500000 0.000000
O O8 0.500000 0.414547 0.500000
O O9 0.750000 0.411784 0.692064
O O10 0.465580 0.367147 0.741357
O O11 0.750000 0.676137 0.809688
O O12 0.033297 0.722903 0.775072
O O13 0.000000 0.670414 0.000000
O O14 0.250000 0.770358 0.195516
O O15 0.000000 0.770428 0.000000
O O16 0.250000 0.047439 0.306641
O O17 0.000000 0.051233 0.500000
O O18 0.967493 0.000000 0.278206
#
# Coordination Sequence:
#
# PCOD9405424 Si02
#       6
#     8   4   8   8   8   8
#     4   9  17  29  46  68  92 117 147 185 228 271
#     4  10  21  36  54  76  98 122 157 196 232 274
#     4  10  21  35  50  71  99 128 157 190 230 274
#     4   9  17  30  49  71  93 120 156 192 225 267
#     4   8  14  26  44  65  90 118 147 183 225 266
#     4   9  18  32  47  63  86 117 151 185 223 269
#
# _framework density 21.060267
#
# number of rings (size 3 to 8) (size 9 to 14) (size 15 to 20)
#    0.000    2.909    0.000    0.818    0.000    2.545 
#    0.000    0.909    0.000    0.000    0.000    0.000 
#    0.000    0.000    0.000    0.000    0.000    0.000 
#
# Total GULP energy -245301.016629 kJ/mol
# GULP energy per Si atom -5575.023105 kJ/mol
# Density = 2.101233 g / cm^3
# Si number density = 21.060267 Si / 1000 Ang^3
#
#
#
# Elastic Constant Matrix: (Units=GPa)
#
#
# Indices 1 2 3 4 5 6 
#
# 1 66.2731 16.3965 -8.7880 0.0000 0.0000 0.0000
# 2 16.3965 308.1352 102.4736 0.0000 0.0000 0.0000
# 3 -8.7880 102.4736 75.9187 0.0000 0.0000 0.0000
# 4 0.0000 0.0000 0.0000 -48.3189 0.0000 0.0000
# 5 0.0000 0.0000 0.0000 0.0000 20.5380 0.0000
# 6 0.0000 0.0000 0.0000 0.0000 0.0000 -21.6603
#
#
#
# Elastic Compliance Matrix: (Units=1/GPa)
#
#
# Indices 1 2 3 4 5 6 
#
# 1 0.016514 -0.002748 0.005621 0.000000 0.000000 0.000000
# 2 -0.002748 0.006346 -0.008884 0.000000 0.000000 0.000000
# 3 0.005621 -0.008884 0.025814 0.000000 0.000000 0.000000
# 4 0.000000 0.000000 0.000000 -0.020696 0.000000 0.000000
# 5 0.000000 0.000000 0.000000 0.000000 0.048690 0.000000
# 6 0.000000 0.000000 0.000000 0.000000 0.000000 -0.046167
#
#
# Mechanical properties :
#
#
# Convention : Reuss Voigt Hill
#
# Bulk Modulus (GPa) = 27.28354 74.49905 50.89129
# Shear Modulus (GPa) = 91.34101 12.79476 52.06789
#
# Velocity S-wave (km/s) = 6.59283 2.46749 4.97765
# Velocity P-wave (km/s) = 8.42241 6.60068 7.56657
#
# Compressibility (1/GPa) = 0.03665214
#
# Stress axis : x y z
#
# Youngs Moduli (GPa) = 60.55356 157.58130 38.73915
#
# Poissons Ratio (x) = 0.43304 -0.21775
# Poissons Ratio (y) = 0.16640 0.34415
# Poissons Ratio (z) = -0.34036 1.39991
#
# Static dielectric constant tensor:
#      x y z
#    x 1.761970 0.000000 0.000000 
#    y 0.000000 1.837570 0.000000 
#    z 0.000000 0.000000 1.673240 
# 
# From -- ./inp_files/5797.got.cif
#   From: 2010.05.17/outbox.cif.g08.bks.cpg/sg51_3_cif.got.tgz:5797.got - 2010.06.03 11:52:47.
