data_PCOD9405162
_publ_section_title
;
Structure prediction by ZEFSAII (Michael W. Deem and Ramdas Pophale) SiO2 
 PCOD9405162
Probable space group: P M M A
;
_chemical_formula_sum "Si O2"
_cell_formula_units_Z 32
_cell_length_a 9.625163
_cell_length_b 13.649325
_cell_length_c 12.790800
_cell_angle_alpha 90.000000
_cell_angle_beta 90.000000
_cell_angle_gamma 90.000000
_cell_volume 1680.416650
_symmetry_space_group_name_H-M "P M M A"
_symmetry_group_IT_number 51
_symmetry_cell_setting 'orthorhombic'
loop_
_space_group_symop_operation_xyz
x,y,z
1/2-x,-y,z
1/2+x,-y,-z
-x,y,-z
-x,-y,-z
1/2+x,y,-z
1/2-x,y,z
x,-y,z
loop_
_atom_site_type_symbol
_atom_site_label
_atom_site_fract_x
_atom_site_fract_y
_atom_site_fract_z
Si Si1 0.082520 0.500000 0.609911
Si Si2 0.590268 0.319351 0.681365
Si Si3 0.916530 0.000000 0.826998
Si Si4 0.105195 0.000000 0.632402
Si Si5 0.586322 0.788081 0.903232
Si Si6 0.500000 0.173009 0.500000
O O1 0.250000 0.500000 0.598538
O O2 0.000000 0.500000 0.500000
O O3 0.023598 0.596242 0.667006
O O4 0.750000 0.356720 0.676129
O O5 0.570378 0.267417 0.793083
O O6 0.570381 0.241862 0.586928
O O7 0.960315 0.899998 0.882526
O O8 0.750000 0.000000 0.821060
O O9 0.977445 0.000000 0.710812
O O10 0.097318 0.096814 0.561724
O O11 0.250000 0.000000 0.693342
O O12 0.750000 0.788133 0.928646
O O13 0.500000 0.746499 0.000000
#
# Coordination Sequence:
#
# PCOD9405162 Si02
#       6
#     4   8   4   4   8   4
#     4  12  26  42  65  96 129 160 201 253 307 371
#     4  11  23  42  66  91 123 163 207 255 313 369
#     4  10  20  38  58  83 124 167 206 252 306 359
#     4  11  23  34  54  92 128 166 210 250 294 364
#     4  10  22  40  63  89 122 164 207 256 306 361
#     4  11  22  37  60  88 130 165 206 245 312 360
#
# _framework density 19.042897
#
# number of rings (size 3 to 8) (size 9 to 14) (size 15 to 20)
#    0.000    1.250    3.750    2.250    0.000    5.000 
#    0.000    0.625    0.000    0.000    0.000    0.000 
#    0.000    0.000    0.000    0.000    0.000    0.000 
#
# Total GULP energy -178642.172248 kJ/mol
# GULP energy per Si atom -5582.567883 kJ/mol
# Density = 1.899955 g / cm^3
# Si number density = 19.042897 Si / 1000 Ang^3
#
#
#
# Elastic Constant Matrix: (Units=GPa)
#
#
# Indices 1 2 3 4 5 6 
#
# 1 96.6717 45.3486 48.8225 0.0000 0.0000 0.0000
# 2 45.3486 87.6683 29.5052 0.0000 0.0000 0.0000
# 3 48.8225 29.5052 120.4466 0.0000 0.0000 0.0000
# 4 0.0000 0.0000 0.0000 1.0610 0.0000 0.0000
# 5 0.0000 0.0000 0.0000 0.0000 26.6252 0.0000
# 6 0.0000 0.0000 0.0000 0.0000 0.0000 468.2951
#
#
#
# Elastic Compliance Matrix: (Units=1/GPa)
#
#
# Indices 1 2 3 4 5 6 
#
# 1 0.015867 -0.006586 -0.004818 0.000000 0.000000 0.000000
# 2 -0.006586 0.015165 -0.001045 0.000000 0.000000 0.000000
# 3 -0.004818 -0.001045 0.010512 0.000000 0.000000 0.000000
# 4 0.000000 0.000000 0.000000 0.942505 0.000000 0.000000
# 5 0.000000 0.000000 0.000000 0.000000 0.037558 0.000000
# 6 0.000000 0.000000 0.000000 0.000000 0.000000 0.002135
#
#
# Mechanical properties :
#
#
# Convention : Reuss Voigt Hill
#
# Bulk Modulus (GPa) = 60.07961 61.34880 60.71420
# Shear Modulus (GPa) = 4.74298 111.27029 58.00663
#
# Velocity S-wave (km/s) = 1.57990 7.65234 5.52514
# Velocity P-wave (km/s) = 5.91153 10.50541 8.52379
#
# Compressibility (1/GPa) = 0.01664458
#
# Stress axis : x y z
#
# Youngs Moduli (GPa) = 63.02292 65.94024 95.13299
#
# Poissons Ratio (x) = 0.43429 0.45838
# Poissons Ratio (y) = 0.41507 0.09944
# Poissons Ratio (z) = 0.30367 0.06893
#
# Static dielectric constant tensor:
#      x y z
#    x 1.618300 0.000000 0.000000 
#    y 0.000000 1.671240 0.000000 
#    z 0.000000 0.000000 1.651260 
# 
# From -- ./inp_files/13840.got.cif
#   From: 2010.05.17/outbox.cif.g08.bks.cpg/sg51_7_cif.got.tgz:13840.got - 2010.06.03 11:52:47.
