data_PCOD9405031
_publ_section_title
;
Structure prediction by ZEFSAII (Michael W. Deem and Ramdas Pophale) SiO2 
 PCOD9405031
Probable space group: P M M A
;
_chemical_formula_sum "Si O2"
_cell_formula_units_Z 26
_cell_length_a 17.171035
_cell_length_b 7.315447
_cell_length_c 10.691989
_cell_angle_alpha 90.000000
_cell_angle_beta 90.000000
_cell_angle_gamma 90.000000
_cell_volume 1343.061330
_symmetry_space_group_name_H-M "P M M A"
_symmetry_group_IT_number 51
_symmetry_cell_setting 'orthorhombic'
loop_
_space_group_symop_operation_xyz
x,y,z
1/2-x,-y,z
1/2+x,-y,-z
-x,y,-z
-x,-y,-z
1/2+x,y,-z
1/2-x,y,z
x,-y,z
loop_
_atom_site_type_symbol
_atom_site_label
_atom_site_fract_x
_atom_site_fract_y
_atom_site_fract_z
Si Si1 0.391966 0.779272 0.072398
Si Si2 0.559067 0.219740 0.190178
Si Si3 0.422276 0.500000 0.590132
Si Si4 0.250000 0.500000 0.464006
Si Si5 0.250000 0.220462 0.245238
O O1 0.473662 0.731635 0.136377
O O2 0.323867 0.722180 0.163208
O O3 0.391185 0.000000 0.067461
O O4 0.386735 0.723447 0.927419
O O5 0.572925 0.325482 0.317603
O O6 0.563366 0.000000 0.207105
O O7 0.500000 0.500000 0.500000
O O8 0.335031 0.500000 0.531287
O O9 0.250000 0.321741 0.375933
O O10 0.250000 0.000000 0.259449
#
# Coordination Sequence:
#
# PCOD9405031 Si02
#       5
#     8   8   4   2   4
#     4   8  16  33  60  89 108 134 180 231 291 344
#     4   9  19  37  59  84 113 141 180 234 283 332
#     4  12  26  40  56  80 114 160 198 220 264 330
#     4  12  28  40  52  84 114 148 206 230 248 336
#     4  10  20  37  59  81 111 144 179 234 288 326
#
# _framework density 19.358758999999999
#
# number of rings (size 3 to 8) (size 9 to 14) (size 15 to 20)
#    0.000    2.462    0.000    3.692    0.000    6.769 
#    0.000    1.538    0.000    0.000    0.000    0.000 
#    0.000    0.000    0.000    0.000    0.000    0.000 
#
# Total GULP energy -144953.041498 kJ/mol
# GULP energy per Si atom -5575.116981 kJ/mol
# Density = 1.931470 g / cm^3
# Si number density = 19.358759 Si / 1000 Ang^3
#
#
#
# Elastic Constant Matrix: (Units=GPa)
#
#
# Indices 1 2 3 4 5 6 
#
# 1 114.5797 34.8921 92.8526 0.0000 0.0000 0.0000
# 2 34.8921 108.5726 63.8430 0.0000 0.0000 0.0000
# 3 92.8526 63.8430 173.6966 0.0000 0.0000 0.0000
# 4 0.0000 0.0000 0.0000 55.6366 0.0000 0.0000
# 5 0.0000 0.0000 0.0000 0.0000 37.3883 0.0000
# 6 0.0000 0.0000 0.0000 0.0000 0.0000 16.6052
#
#
#
# Elastic Compliance Matrix: (Units=1/GPa)
#
#
# Indices 1 2 3 4 5 6 
#
# 1 0.015400 -0.000138 -0.008181 0.000000 0.000000 0.000000
# 2 -0.000138 0.011751 -0.004245 0.000000 0.000000 0.000000
# 3 -0.008181 -0.004245 0.011691 0.000000 0.000000 0.000000
# 4 0.000000 0.000000 0.000000 0.017974 0.000000 0.000000
# 5 0.000000 0.000000 0.000000 0.000000 0.026746 0.000000
# 6 0.000000 0.000000 0.000000 0.000000 0.000000 0.060222
#
#
# Mechanical properties :
#
#
# Convention : Reuss Voigt Hill
#
# Bulk Modulus (GPa) = 72.92827 86.66935 79.79881
# Shear Modulus (GPa) = 28.82107 35.61011 32.21559
#
# Velocity S-wave (km/s) = 3.86267 4.29357 4.08381
# Velocity P-wave (km/s) = 7.59259 8.33349 7.97165
#
# Compressibility (1/GPa) = 0.01371210
#
# Stress axis : x y z
#
# Youngs Moduli (GPa) = 64.93690 85.09781 85.53575
#
# Poissons Ratio (x) = 0.01176 0.69979
# Poissons Ratio (y) = 0.00897 0.36313
# Poissons Ratio (z) = 0.53127 0.36127
#
# Static dielectric constant tensor:
#      x y z
#    x 1.693400 0.000000 0.000000 
#    y 0.000000 1.726070 0.000000 
#    z 0.000000 0.000000 1.656850 
# 
# From -- ./inp_files/8930.got.cif
#   From: 2010.05.17/outbox.cif.g08.bks.cpg/sg51_5_cif.got.tgz:8930.got - 2010.06.03 11:52:47.
