data_PCOD9405236
_publ_section_title
;
Structure prediction by ZEFSAII (Michael W. Deem and Ramdas Pophale) SiO2 
 PCOD9405236
Probable space group: P M M A
;
_chemical_formula_sum "Si O2"
_cell_formula_units_Z 48
_cell_length_a 28.604813
_cell_length_b 9.437745
_cell_length_c 10.045739
_cell_angle_alpha 90.000000
_cell_angle_beta 90.000000
_cell_angle_gamma 90.000000
_cell_volume 2711.997235
_symmetry_space_group_name_H-M "P M M A"
_symmetry_group_IT_number 51
_symmetry_cell_setting 'orthorhombic'
loop_
_space_group_symop_operation_xyz
x,y,z
1/2-x,-y,z
1/2+x,-y,-z
-x,y,-z
-x,-y,-z
1/2+x,y,-z
1/2-x,y,z
x,-y,z
loop_
_atom_site_type_symbol
_atom_site_label
_atom_site_fract_x
_atom_site_fract_y
_atom_site_fract_z
Si Si1 0.695392 0.831468 0.508837
Si Si2 0.865429 0.833222 0.982255
Si Si3 0.806095 0.336280 0.776232
Si Si4 0.382889 0.830362 0.709522
Si Si5 0.531131 0.836251 0.867783
Si Si6 0.021831 0.331871 0.645200
O O1 0.750000 0.799483 0.478366
O O2 0.681189 0.746042 0.640615
O O3 0.660719 0.799948 0.387301
O O4 0.692395 0.000000 0.536243
O O5 0.870997 0.795263 0.137371
O O6 0.852905 0.000000 0.975315
O O7 0.828786 0.740138 0.902063
O O8 0.915493 0.815338 0.910755
O O9 0.750000 0.330600 0.786441
O O10 0.820632 0.500000 0.768495
O O11 0.428765 0.746972 0.663498
O O12 0.392187 0.000000 0.704831
O O13 0.513040 0.731999 0.755096
O O14 0.525114 0.000000 0.823492
O O15 0.500000 0.817990 0.000000
O O16 0.027762 0.500000 0.663574
O O17 0.000000 0.306560 0.500000
#
# Coordination Sequence:
#
# PCOD9405236 Si02
#       6
#     8   8   8   8   8   8
#     4   9  19  37  61  87 113 145 188 235 283 335
#     4  10  21  37  60  88 114 146 188 236 286 334
#     4  10  22  39  58  83 117 154 189 228 279 339
#     4  10  21  39  61  86 114 147 189 236 286 337
#     4  10  20  39  62  84 113 149 190 234 281 334
#     4  11  25  40  55  83 119 154 191 233 280 335
#
# _framework density 17.699133
#
# number of rings (size 3 to 8) (size 9 to 14) (size 15 to 20)
#    0.000    2.000    1.667    1.000    2.333    5.333 
#    0.000    1.667    0.000    2.000    0.000    0.000 
#    0.000    0.000    0.000    0.000    0.000    0.000 
#
# Total GULP energy -268039.990911 kJ/mol
# GULP energy per Si atom -5584.166477 kJ/mol
# Density = 1.765885 g / cm^3
# Si number density = 17.699133 Si / 1000 Ang^3
#
#
#
# Elastic Constant Matrix: (Units=GPa)
#
#
# Indices 1 2 3 4 5 6 
#
# 1 59.8962 59.7684 77.4460 0.0000 0.0000 0.0000
# 2 59.7684 81.4613 93.7576 0.0000 0.0000 0.0000
# 3 77.4460 93.7576 150.8835 0.0000 0.0000 0.0000
# 4 0.0000 0.0000 0.0000 -32.8131 0.0000 0.0000
# 5 0.0000 0.0000 0.0000 0.0000 32.1264 0.0000
# 6 0.0000 0.0000 0.0000 0.0000 0.0000 -37.9057
#
#
#
# Elastic Compliance Matrix: (Units=1/GPa)
#
#
# Indices 1 2 3 4 5 6 
#
# 1 0.069928 -0.035095 -0.014085 0.000000 0.000000 0.000000
# 2 -0.035095 0.060715 -0.019714 0.000000 0.000000 0.000000
# 3 -0.014085 -0.019714 0.026107 0.000000 0.000000 0.000000
# 4 0.000000 0.000000 0.000000 -0.030476 0.000000 0.000000
# 5 0.000000 0.000000 0.000000 0.000000 0.031127 0.000000
# 6 0.000000 0.000000 0.000000 0.000000 0.000000 -0.026381
#
#
# Mechanical properties :
#
#
# Convention : Reuss Voigt Hill
#
# Bulk Modulus (GPa) = 52.73750 83.79834 68.26792
# Shear Modulus (GPa) = 18.17331 -3.63391 7.26970
#
# Velocity S-wave (km/s) = 3.20783 -1.43444 2.02887
# Velocity P-wave (km/s) = 6.60164 6.68620 6.64405
#
# Compressibility (1/GPa) = 0.01896184
#
# Stress axis : x y z
#
# Youngs Moduli (GPa) = 14.30047 16.47044 38.30355
#
# Poissons Ratio (x) = 0.57803 0.53950
# Poissons Ratio (y) = 0.50188 0.75511
# Poissons Ratio (z) = 0.20142 0.32470
#
# Static dielectric constant tensor:
#      x y z
#    x 1.592500 0.000000 0.000000 
#    y 0.000000 1.591510 0.000000 
#    z 0.000000 0.000000 1.580650 
# 
# From -- ./inp_files/12748.got.cif
#   From: 2010.05.17/outbox.cif.g08.bks.cpg/sg51_7_cif.got.tgz:12748.got - 2010.06.03 11:52:47.
