data_PCOD9405438
_publ_section_title
;
Structure prediction by ZEFSAII (Michael W. Deem and Ramdas Pophale) SiO2 
 PCOD9405438
Probable space group: P M M A
;
_chemical_formula_sum "Si O2"
_cell_formula_units_Z 48
_cell_length_a 8.676125
_cell_length_b 15.391601
_cell_length_c 19.684588
_cell_angle_alpha 90.000000
_cell_angle_beta 90.000000
_cell_angle_gamma 90.000000
_cell_volume 2628.669138
_symmetry_space_group_name_H-M "P M M A"
_symmetry_group_IT_number 51
_symmetry_cell_setting 'orthorhombic'
loop_
_space_group_symop_operation_xyz
x,y,z
1/2-x,-y,z
1/2+x,-y,-z
-x,y,-z
-x,-y,-z
1/2+x,y,-z
1/2-x,y,z
x,-y,z
loop_
_atom_site_type_symbol
_atom_site_label
_atom_site_fract_x
_atom_site_fract_y
_atom_site_fract_z
Si Si1 0.436513 0.750030 0.176223
Si Si2 0.935823 0.599907 0.926370
Si Si3 0.565145 0.754120 0.327525
Si Si4 0.065500 0.898549 0.426074
Si Si5 0.564198 0.900202 0.926417
Si Si6 0.435849 0.400576 0.574139
O O1 0.250000 0.750085 0.180848
O O2 0.484223 0.665606 0.132640
O O3 0.504455 0.751321 0.251112
O O4 0.484005 0.834165 0.132274
O O5 0.750000 0.602116 0.929857
O O6 0.983785 0.500000 0.913711
O O7 0.000000 0.626271 0.000000
O O8 0.750000 0.756610 0.327419
O O9 0.502141 0.836955 0.368392
O O10 0.514585 0.668463 0.369495
O O11 0.250000 0.891275 0.427272
O O12 0.000000 0.873244 0.500000
O O13 0.024928 0.000000 0.414824
O O14 0.750000 0.898205 0.929868
O O15 0.516101 0.000000 0.913477
O O16 0.500000 0.874022 0.000000
O O17 0.500000 0.376915 0.500000
O O18 0.250000 0.399149 0.570878
O O19 0.484260 0.500000 0.589039
#
# Coordination Sequence:
#
# PCOD9405438 Si02
#       6
#     8   8   8   8   8   8
#     4  10  21  35  50  72 105 140 172 210 259 315
#     4   9  18  33  53  76 101 132 173 220 268 318
#     4  11  23  36  53  79 110 143 179 220 264 312
#     4  10  21  38  60  83 108 140 177 218 264 314
#     4   9  18  33  53  75  98 127 165 208 253 302
#     4   9  19  36  56  78 104 135 173 216 261 309
#
# _framework density 18.260190999999999
#
# number of rings (size 3 to 8) (size 9 to 14) (size 15 to 20)
#    0.000    2.333    0.000    2.000    0.000    6.333 
#    0.000    1.667    0.000    0.000    0.000    0.000 
#    0.000    0.000    0.000    0.000    0.000    0.000 
#
# Total GULP energy -267978.550051 kJ/mol
# GULP energy per Si atom -5582.886459 kJ/mol
# Density = 1.821863 g / cm^3
# Si number density = 18.260191 Si / 1000 Ang^3
#
#
#
# Elastic Constant Matrix: (Units=GPa)
#
#
# Indices 1 2 3 4 5 6 
#
# 1 17.1537 34.7431 40.2411 0.0000 0.0000 0.0000
# 2 34.7431 120.1975 123.0521 0.0000 0.0000 0.0000
# 3 40.2411 123.0521 203.8765 0.0000 0.0000 0.0000
# 4 0.0000 0.0000 0.0000 -3.1826 0.0000 0.0000
# 5 0.0000 0.0000 0.0000 0.0000 37.4323 0.0000
# 6 0.0000 0.0000 0.0000 0.0000 0.0000 14.9548
#
#
#
# Elastic Compliance Matrix: (Units=1/GPa)
#
#
# Indices 1 2 3 4 5 6 
#
# 1 0.146392 -0.033325 -0.008781 0.000000 0.000000 0.000000
# 2 -0.033325 0.029359 -0.011143 0.000000 0.000000 0.000000
# 3 -0.008781 -0.011143 0.013363 0.000000 0.000000 0.000000
# 4 0.000000 0.000000 0.000000 -0.314212 0.000000 0.000000
# 5 0.000000 0.000000 0.000000 0.000000 0.026715 0.000000
# 6 0.000000 0.000000 0.000000 0.000000 0.000000 0.066868
#
#
# Mechanical properties :
#
#
# Convention : Reuss Voigt Hill
#
# Bulk Modulus (GPa) = 12.10394 81.92226 47.01310
# Shear Modulus (GPa) = 48.76960 19.38699 34.07830
#
# Velocity S-wave (km/s) = 5.17360 3.26192 4.32471
# Velocity P-wave (km/s) = 6.50624 7.69078 7.12318
#
# Compressibility (1/GPa) = 0.08261774
#
# Stress axis : x y z
#
# Youngs Moduli (GPa) = 6.83095 34.06066 74.83131
#
# Poissons Ratio (x) = 1.13507 0.65711
# Poissons Ratio (y) = 0.22764 0.83381
# Poissons Ratio (z) = 0.05998 0.37952
#
# Static dielectric constant tensor:
#      x y z
#    x 1.615240 0.000000 0.000000 
#    y 0.000000 1.646500 0.000000 
#    z 0.000000 0.000000 1.576580 
# 
# From -- ./inp_files/27569.got.cif
#   From: 2010.05.17/outbox.cif.g08.bks.cpg/sg51_14_cif.got.tgz:27569.got - 2010.06.03 11:52:47.
