data_PCOD9405964
_publ_section_title
;
Structure prediction by ZEFSAII (Michael W. Deem and Ramdas Pophale) SiO2 
 PCOD9405964
Probable space group: P M M A
;
_chemical_formula_sum "Si O2"
_cell_formula_units_Z 56
_cell_length_a 7.762739
_cell_length_b 14.121459
_cell_length_c 22.348470
_cell_angle_alpha 90.000000
_cell_angle_beta 90.000000
_cell_angle_gamma 90.000000
_cell_volume 2449.866111
_symmetry_space_group_name_H-M "P M M A"
_symmetry_group_IT_number 51
_symmetry_cell_setting 'orthorhombic'
loop_
_space_group_symop_operation_xyz
x,y,z
1/2-x,-y,z
1/2+x,-y,-z
-x,y,-z
-x,-y,-z
1/2+x,y,-z
1/2-x,y,z
x,-y,z
loop_
_atom_site_type_symbol
_atom_site_label
_atom_site_fract_x
_atom_site_fract_y
_atom_site_fract_z
Si Si1 0.955326 0.849012 0.778475
Si Si2 0.543101 0.104503 0.356430
Si Si3 0.957063 0.691139 0.064568
Si Si4 0.957057 0.713565 0.432428
Si Si5 0.955501 0.099242 0.090362
Si Si6 0.553169 0.641424 0.192426
Si Si7 0.933236 0.500000 0.713047
Si Si8 0.057490 0.500000 0.588935
O O1 0.750000 0.836998 0.780972
O O2 0.002377 0.890013 0.714147
O O3 0.012460 0.901707 0.838481
O O4 0.048270 0.749177 0.787059
O O5 0.750000 0.104964 0.363627
O O6 0.479251 0.201475 0.388742
O O7 0.481135 0.000000 0.378294
O O8 0.750000 0.695070 0.070473
O O9 0.025156 0.799858 0.067484
O O10 0.017355 0.638321 0.124609
O O11 0.000000 0.649827 0.000000
O O12 0.750000 0.707744 0.423572
O O13 0.021556 0.604078 0.425215
O O14 0.000000 0.742422 0.500000
O O15 0.750000 0.100481 0.079805
O O16 0.027915 0.000000 0.066246
O O17 0.750000 0.607090 0.192346
O O18 0.450536 0.586665 0.242332
O O19 0.750000 0.500000 0.681606
O O20 0.068910 0.500000 0.660691
O O21 0.250000 0.500000 0.561328
#
# Coordination Sequence:
#
# PCOD9405964 Si02
#       8
#     8   8   8   8   8   8   4   4
#     4  11  21  33  53  83 113 141 183 240 291 331
#     4  10  21  37  56  79 112 157 201 236 283 355
#     4   9  19  34  53  75 101 139 185 229 274 328
#     4  10  22  39  60  85 113 150 195 239 285 337
#     4   9  18  33  51  72 103 145 186 223 275 345
#     4  10  21  39  59  79 110 152 187 219 276 350
#     4  12  24  37  60  95 121 138 174 232 285 324
#     4  10  21  39  63  89 119 156 191 226 282 356
#
# _framework density 22.858391000000001
#
# number of rings (size 3 to 8) (size 9 to 14) (size 15 to 20)
#    0.000    2.000    0.000    4.714    0.000    8.000 
#    0.000    0.357    0.000    0.000    0.000    0.000 
#    0.000    0.000    0.000    0.000    0.000    0.000 
#
# Total GULP energy -312451.182810 kJ/mol
# GULP energy per Si atom -5579.485407 kJ/mol
# Density = 2.280636 g / cm^3
# Si number density = 22.858391 Si / 1000 Ang^3
#
#
#
# Elastic Constant Matrix: (Units=GPa)
#
#
# Indices 1 2 3 4 5 6 
#
# 1 45.9858 3.2437 -17.1043 0.0000 0.0000 0.0000
# 2 3.2437 107.0656 33.2222 0.0000 0.0000 0.0000
# 3 -17.1043 33.2222 115.4340 0.0000 0.0000 0.0000
# 4 0.0000 0.0000 0.0000 -60.9380 0.0000 0.0000
# 5 0.0000 0.0000 0.0000 0.0000 23.3613 0.0000
# 6 0.0000 0.0000 0.0000 0.0000 0.0000 -3.9477
#
#
#
# Elastic Compliance Matrix: (Units=1/GPa)
#
#
# Indices 1 2 3 4 5 6 
#
# 1 0.023382 -0.001958 0.004028 0.000000 0.000000 0.000000
# 2 -0.001958 0.010420 -0.003289 0.000000 0.000000 0.000000
# 3 0.004028 -0.003289 0.010206 0.000000 0.000000 0.000000
# 4 0.000000 0.000000 0.000000 -0.016410 0.000000 0.000000
# 5 0.000000 0.000000 0.000000 0.000000 0.042806 0.000000
# 6 0.000000 0.000000 0.000000 0.000000 0.000000 -0.253310
#
#
# Mechanical properties :
#
#
# Convention : Reuss Voigt Hill
#
# Bulk Modulus (GPa) = 24.05557 34.13427 29.09492
# Shear Modulus (GPa) = -30.01012 8.30339 -10.85337
#
# Velocity S-wave (km/s) = -3.62729 1.90799 -2.18138
# Velocity P-wave (km/s) = 2.64506 4.45188 2.53208
#
# Compressibility (1/GPa) = 0.04157041
#
# Stress axis : x y z
#
# Youngs Moduli (GPa) = 42.76741 95.96939 97.97732
#
# Poissons Ratio (x) = 0.18794 -0.39468
# Poissons Ratio (y) = 0.08375 0.32225
# Poissons Ratio (z) = -0.17228 0.31565
#
# Static dielectric constant tensor:
#      x y z
#    x 1.836780 0.000000 0.000000 
#    y 0.000000 2.041570 0.000000 
#    z 0.000000 0.000000 1.815340 
# 
# From -- ./inp_files/32058.got.cif
#   From: 2010.05.17/outbox.cif.g08.bks.cpg/sg51_17_cif.got.tgz:32058.got - 2010.06.03 11:52:47.
