data_PCOD9405631
_publ_section_title
;
Structure prediction by ZEFSAII (Michael W. Deem and Ramdas Pophale) SiO2 
 PCOD9405631
Probable space group: P M M A
;
_chemical_formula_sum "Si O2"
_cell_formula_units_Z 40
_cell_length_a 9.441618
_cell_length_b 7.574097
_cell_length_c 26.624664
_cell_angle_alpha 90.000000
_cell_angle_beta 90.000000
_cell_angle_gamma 90.000000
_cell_volume 1903.975798
_symmetry_space_group_name_H-M "P M M A"
_symmetry_group_IT_number 51
_symmetry_cell_setting 'orthorhombic'
loop_
_space_group_symop_operation_xyz
x,y,z
1/2-x,-y,z
1/2+x,-y,-z
-x,y,-z
-x,-y,-z
1/2+x,y,-z
1/2-x,y,z
x,-y,z
loop_
_atom_site_type_symbol
_atom_site_label
_atom_site_fract_x
_atom_site_fract_y
_atom_site_fract_z
Si Si1 0.588358 0.212062 0.047875
Si Si2 0.587289 0.212834 0.659481
Si Si3 0.088955 0.287855 0.147783
Si Si4 0.409963 0.710129 0.757863
Si Si5 0.585335 0.215059 0.548146
O O1 0.750000 0.279194 0.049412
O O2 0.503128 0.249976 0.098594
O O3 0.596551 0.000000 0.043023
O O4 0.500000 0.279392 0.000000
O O5 0.750000 0.273615 0.667744
O O6 0.485949 0.263938 0.704678
O O7 0.538872 0.272615 0.603925
O O8 0.591708 0.000000 0.658210
O O9 0.250000 0.220340 0.143717
O O10 0.098149 0.500000 0.152306
O O11 0.007719 0.219127 0.197099
O O12 0.250000 0.781838 0.758642
O O13 0.399717 0.500000 0.765868
O O14 0.500000 0.279747 0.500000
O O15 0.750000 0.261533 0.543207
O O16 0.576849 0.000000 0.547833
#
# Coordination Sequence:
#
# PCOD9405631 Si02
#       5
#     8   8   8   8   8
#     4  10  21  37  57  81 109 140 172 207 250 298
#     4   9  18  32  50  74 102 131 166 207 250 300
#     4  10  21  37  57  79 102 133 173 212 252 300
#     4  10  21  36  53  74 101 133 169 210 255 301
#     4   8  14  25  42  66  96 127 159 198 245 295
#
# _framework density 21.008672000000001
#
# number of rings (size 3 to 8) (size 9 to 14) (size 15 to 20)
#    0.000    2.600    0.000    3.000    0.000    6.000 
#    0.000    2.000    0.000    0.600    0.000    0.000 
#    0.000    0.000    0.000    0.000    0.000    0.000 
#
# Total GULP energy -223330.736412 kJ/mol
# GULP energy per Si atom -5583.268410 kJ/mol
# Density = 2.096086 g / cm^3
# Si number density = 21.008672 Si / 1000 Ang^3
#
#
#
# Elastic Constant Matrix: (Units=GPa)
#
#
# Indices 1 2 3 4 5 6 
#
# 1 197.2389 8.2851 142.4438 0.0000 0.0000 0.0000
# 2 8.2851 46.9297 -2.3985 0.0000 0.0000 0.0000
# 3 142.4438 -2.3985 227.2247 0.0000 0.0000 0.0000
# 4 0.0000 0.0000 0.0000 28.5827 0.0000 0.0000
# 5 0.0000 0.0000 0.0000 0.0000 42.9895 0.0000
# 6 0.0000 0.0000 0.0000 0.0000 0.0000 13.8381
#
#
#
# Elastic Compliance Matrix: (Units=1/GPa)
#
#
# Indices 1 2 3 4 5 6 
#
# 1 0.009443 -0.001971 -0.005940 0.000000 0.000000 0.000000
# 2 -0.001971 0.021731 0.001465 0.000000 0.000000 0.000000
# 3 -0.005940 0.001465 0.008140 0.000000 0.000000 0.000000
# 4 0.000000 0.000000 0.000000 0.034986 0.000000 0.000000
# 5 0.000000 0.000000 0.000000 0.000000 0.023262 0.000000
# 6 0.000000 0.000000 0.000000 0.000000 0.000000 0.072264
#
#
# Mechanical properties :
#
#
# Convention : Reuss Voigt Hill
#
# Bulk Modulus (GPa) = 37.84742 85.33933 61.59337
# Shear Modulus (GPa) = 26.10611 38.61960 32.36285
#
# Velocity S-wave (km/s) = 3.52893 4.29216 3.92912
# Velocity P-wave (km/s) = 5.88716 8.07915 7.06864
#
# Compressibility (1/GPa) = 0.02642188
#
# Stress axis : x y z
#
# Youngs Moduli (GPa) = 105.90018 46.01666 122.84510
#
# Poissons Ratio (x) = 0.09068 0.72975
# Poissons Ratio (y) = 0.20869 -0.17994
# Poissons Ratio (z) = 0.62909 -0.06740
#
# Static dielectric constant tensor:
#      x y z
#    x 1.732010 0.000000 0.000000 
#    y 0.000000 1.807370 0.000000 
#    z 0.000000 0.000000 1.724640 
# 
# From -- ./inp_files/34318.got.cif
#   From: 2010.05.17/outbox.cif.g08.bks.cpg/sg51_18_cif.got.tgz:34318.got - 2010.06.03 11:52:47.
