data_PCOD9405402
_publ_section_title
;
Structure prediction by ZEFSAII (Michael W. Deem and Ramdas Pophale) SiO2 
 PCOD9405402
Probable space group: P M M A
;
_chemical_formula_sum "Si O2"
_cell_formula_units_Z 48
_cell_length_a 14.452830
_cell_length_b 9.668920
_cell_length_c 15.875816
_cell_angle_alpha 90.000000
_cell_angle_beta 90.000000
_cell_angle_gamma 90.000000
_cell_volume 2218.538236
_symmetry_space_group_name_H-M "P M M A"
_symmetry_group_IT_number 51
_symmetry_cell_setting 'orthorhombic'
loop_
_space_group_symop_operation_xyz
x,y,z
1/2-x,-y,z
1/2+x,-y,-z
-x,y,-z
-x,-y,-z
1/2+x,y,-z
1/2-x,y,z
x,-y,z
loop_
_atom_site_type_symbol
_atom_site_label
_atom_site_fract_x
_atom_site_fract_y
_atom_site_fract_z
Si Si1 0.136838 0.659084 0.460082
Si Si2 0.862989 0.840203 0.382287
Si Si3 0.896045 0.344818 0.032455
Si Si4 0.636571 0.842294 0.700567
Si Si5 0.137858 0.841686 0.807481
Si Si6 0.144336 0.656464 0.149790
O O1 0.250000 0.657395 0.460810
O O2 0.106521 0.500000 0.454137
O O3 0.106214 0.735454 0.545442
O O4 0.109818 0.750846 0.379747
O O5 0.750000 0.839438 0.383433
O O6 0.891470 0.801179 0.287243
O O7 0.890124 0.000000 0.399102
O O8 0.860860 0.500000 0.049619
O O9 0.890476 0.254530 0.115488
O O10 0.850449 0.291762 0.946183
O O11 0.000000 0.353279 0.000000
O O12 0.750000 0.848804 0.701194
O O13 0.602904 0.765218 0.785177
O O14 0.603843 0.000000 0.695267
O O15 0.250000 0.840849 0.806945
O O16 0.107988 0.000000 0.821869
O O17 0.250000 0.640033 0.178576
O O18 0.102976 0.500000 0.150833
#
# Coordination Sequence:
#
# PCOD9405402 Si02
#       6
#     8   8   8   8   8   8
#     4   9  15  22  35  59  91 123 152 183 222 270
#     4   8  14  25  40  60  89 122 153 187 228 272
#     4  10  21  35  50  70  96 126 160 198 242 291
#     4   9  16  25  39  61  89 120 152 187 228 273
#     4   9  18  32  50  72  97 126 161 200 240 282
#     4   9  17  30  47  66  90 121 156 194 234 275
#
# _framework density 21.635869
#
# number of rings (size 3 to 8) (size 9 to 14) (size 15 to 20)
#    0.000    3.000    0.000    2.500    0.000    6.667 
#    0.000    3.333    0.000    0.000    0.000    1.167 
#    0.000    9.333    0.000    0.000    0.000    0.000 
#
# Total GULP energy -267873.877085 kJ/mol
# GULP energy per Si atom -5580.705773 kJ/mol
# Density = 2.158662 g / cm^3
# Si number density = 21.635869 Si / 1000 Ang^3
#
#
#
# Elastic Constant Matrix: (Units=GPa)
#
#
# Indices 1 2 3 4 5 6 
#
# 1 42.0296 6.9242 3.4121 0.0000 0.0000 0.0000
# 2 6.9242 173.7731 156.8990 0.0000 0.0000 0.0000
# 3 3.4121 156.8990 226.7907 0.0000 0.0000 0.0000
# 4 0.0000 0.0000 0.0000 47.8208 0.0000 0.0000
# 5 0.0000 0.0000 0.0000 0.0000 9.6008 0.0000
# 6 0.0000 0.0000 0.0000 0.0000 0.0000 -2.1441
#
#
#
# Elastic Compliance Matrix: (Units=1/GPa)
#
#
# Indices 1 2 3 4 5 6 
#
# 1 0.024004 -0.001679 0.000801 0.000000 0.000000 0.000000
# 2 -0.001679 0.015449 -0.010662 0.000000 0.000000 0.000000
# 3 0.000801 -0.010662 0.011774 0.000000 0.000000 0.000000
# 4 0.000000 0.000000 0.000000 0.020911 0.000000 0.000000
# 5 0.000000 0.000000 0.000000 0.000000 0.104159 0.000000
# 6 0.000000 0.000000 0.000000 0.000000 0.000000 -0.466388
#
#
# Mechanical properties :
#
#
# Convention : Reuss Voigt Hill
#
# Bulk Modulus (GPa) = 35.53083 86.34042 60.93562
# Shear Modulus (GPa) = -19.40789 29.41270 5.00241
#
# Velocity S-wave (km/s) = -2.99828 3.69106 1.52221
# Velocity P-wave (km/s) = 2.11461 7.62614 5.59596
#
# Compressibility (1/GPa) = 0.02814458
#
# Stress axis : x y z
#
# Youngs Moduli (GPa) = 41.65892 64.73068 84.93420
#
# Poissons Ratio (x) = 0.10871 -0.06801
# Poissons Ratio (y) = 0.06997 0.90561
# Poissons Ratio (z) = -0.03336 0.69019
#
# Static dielectric constant tensor:
#      x y z
#    x 1.731500 0.000000 0.000000 
#    y 0.000000 1.764350 0.000000 
#    z 0.000000 0.000000 1.765640 
# 
# From -- ./inp_files/25461.got.cif
#   From: 2010.05.17/outbox.cif.g08.bks.cpg/sg51_13_cif.got.tgz:25461.got - 2010.06.03 11:52:47.
