data_PCOD9405971
_publ_section_title
;
Structure prediction by ZEFSAII (Michael W. Deem and Ramdas Pophale) SiO2 
 PCOD9405971
Probable space group: P M M A
;
_chemical_formula_sum "Si O2"
_cell_formula_units_Z 64
_cell_length_a 8.642691
_cell_length_b 20.154166
_cell_length_c 20.893238
_cell_angle_alpha 90.000000
_cell_angle_beta 90.000000
_cell_angle_gamma 90.000000
_cell_volume 3639.314341
_symmetry_space_group_name_H-M "P M M A"
_symmetry_group_IT_number 51
_symmetry_cell_setting 'orthorhombic'
loop_
_space_group_symop_operation_xyz
x,y,z
1/2-x,-y,z
1/2+x,-y,-z
-x,y,-z
-x,-y,-z
1/2+x,y,-z
1/2-x,y,z
x,-y,z
loop_
_atom_site_type_symbol
_atom_site_label
_atom_site_fract_x
_atom_site_fract_y
_atom_site_fract_z
Si Si1 0.563000 0.824768 0.430600
Si Si2 0.934367 0.676013 0.069947
Si Si3 0.065922 0.177710 0.069738
Si Si4 0.561463 0.924149 0.319966
Si Si5 0.563394 0.422878 0.315103
Si Si6 0.434980 0.422566 0.175722
Si Si7 0.436228 0.922186 0.826031
Si Si8 0.936639 0.328602 0.430734
O O1 0.500000 0.845139 0.500000
O O2 0.750000 0.826734 0.432340
O O3 0.509054 0.872809 0.373812
O O4 0.516411 0.748078 0.419604
O O5 0.750000 0.678580 0.066868
O O6 0.998143 0.749519 0.085016
O O7 0.988932 0.624181 0.123033
O O8 0.000000 0.657752 0.000000
O O9 0.250000 0.182291 0.065792
O O10 0.015120 0.125190 0.122894
O O11 0.000000 0.158656 0.000000
O O12 0.750000 0.923996 0.320427
O O13 0.516335 0.906637 0.247253
O O14 0.512748 0.000000 0.333215
O O15 0.750000 0.418140 0.309555
O O16 0.524676 0.500000 0.328023
O O17 0.490337 0.404187 0.247070
O O18 0.512378 0.375937 0.373097
O O19 0.250000 0.417288 0.171715
O O20 0.478236 0.500000 0.165782
O O21 0.250000 0.914411 0.830342
O O22 0.470716 0.000000 0.837333
O O23 0.750000 0.330561 0.433058
O O24 0.000000 0.349155 0.500000
#
# Coordination Sequence:
#
# PCOD9405971 Si02
#       8
#     8   8   8   8   8   8   8   8
#     4   9  17  30  47  68  95 126 162 202 247 298
#     4  11  22  38  59  81 108 140 176 217 260 307
#     4  11  22  37  56  79 108 139 174 215 261 312
#     4   8  15  29  49  71  96 128 165 204 247 299
#     4   9  18  33  51  72  99 131 169 212 257 306
#     4  10  21  37  56  80 110 141 174 213 259 312
#     4   9  18  34  55  78 104 136 176 219 263 313
#     4   9  18  31  47  69  97 130 167 209 256 307
#
# _framework density 17.585730000000002
#
# number of rings (size 3 to 8) (size 9 to 14) (size 15 to 20)
#    0.000    2.500    0.000    4.125    0.000    3.500 
#    0.000    3.125    0.000    0.750    0.000    0.000 
#    0.000    0.000    0.000    0.000    0.000    0.000 
#
# Total GULP energy -357087.588424 kJ/mol
# GULP energy per Si atom -5579.493569 kJ/mol
# Density = 1.754570 g / cm^3
# Si number density = 17.585730 Si / 1000 Ang^3
#
#
#
# Elastic Constant Matrix: (Units=GPa)
#
#
# Indices 1 2 3 4 5 6 
#
# 1 58.5689 48.1006 61.1229 0.0000 0.0000 0.0000
# 2 48.1006 101.8821 125.5270 0.0000 0.0000 0.0000
# 3 61.1229 125.5270 183.7095 0.0000 0.0000 0.0000
# 4 0.0000 0.0000 0.0000 43.5140 0.0000 0.0000
# 5 0.0000 0.0000 0.0000 0.0000 31.1272 0.0000
# 6 0.0000 0.0000 0.0000 0.0000 0.0000 18.5315
#
#
#
# Elastic Compliance Matrix: (Units=1/GPa)
#
#
# Indices 1 2 3 4 5 6 
#
# 1 0.027979 -0.011003 -0.001791 0.000000 0.000000 0.000000
# 2 -0.011003 0.066398 -0.041708 0.000000 0.000000 0.000000
# 3 -0.001791 -0.041708 0.034538 0.000000 0.000000 0.000000
# 4 0.000000 0.000000 0.000000 0.022981 0.000000 0.000000
# 5 0.000000 0.000000 0.000000 0.000000 0.032126 0.000000
# 6 0.000000 0.000000 0.000000 0.000000 0.000000 0.053962
#
#
# Mechanical properties :
#
#
# Convention : Reuss Voigt Hill
#
# Bulk Modulus (GPa) = 50.22375 90.40683 70.31529
# Shear Modulus (GPa) = 14.13924 25.92854 20.03389
#
# Velocity S-wave (km/s) = 2.83860 3.84397 3.37888
# Velocity P-wave (km/s) = 6.27414 8.43933 7.43596
#
# Compressibility (1/GPa) = 0.01991090
#
# Stress axis : x y z
#
# Youngs Moduli (GPa) = 35.74067 15.06072 28.95375
#
# Poissons Ratio (x) = 0.16572 0.05184
# Poissons Ratio (y) = 0.39327 1.20760
# Poissons Ratio (z) = 0.06400 0.62815
#
# Static dielectric constant tensor:
#      x y z
#    x 1.594140 0.000000 0.000000 
#    y 0.000000 1.587440 0.000000 
#    z 0.000000 0.000000 1.573270 
# 
# From -- ./inp_files/32622.got.cif
#   From: 2010.05.17/outbox.cif.g08.bks.cpg/sg51_17_cif.got.tgz:32622.got - 2010.06.03 11:52:47.
