data_PCOD9405067
_publ_section_title
;
Structure prediction by ZEFSAII (Michael W. Deem and Ramdas Pophale) SiO2 
 PCOD9405067
Probable space group: P M M A
;
_chemical_formula_sum "Si O2"
_cell_formula_units_Z 44
_cell_length_a 8.728343
_cell_length_b 28.250600
_cell_length_c 9.614440
_cell_angle_alpha 90.000000
_cell_angle_beta 90.000000
_cell_angle_gamma 90.000000
_cell_volume 2370.737525
_symmetry_space_group_name_H-M "P M M A"
_symmetry_group_IT_number 51
_symmetry_cell_setting 'orthorhombic'
loop_
_space_group_symop_operation_xyz
x,y,z
1/2-x,-y,z
1/2+x,-y,-z
-x,y,-z
-x,-y,-z
1/2+x,y,-z
1/2-x,y,z
x,-y,z
loop_
_atom_site_type_symbol
_atom_site_label
_atom_site_fract_x
_atom_site_fract_y
_atom_site_fract_z
Si Si1 0.933195 0.555532 0.650987
Si Si2 0.065724 0.081296 0.847160
Si Si3 0.066208 0.634920 0.845687
Si Si4 0.434255 0.809299 0.848432
Si Si5 0.065192 0.724062 0.654207
Si Si6 0.066895 0.000000 0.345625
O O1 0.750000 0.560871 0.648784
O O2 0.969393 0.500000 0.672959
O O3 0.000000 0.569213 0.500000
O O4 0.004508 0.588235 0.769175
O O5 0.250000 0.076794 0.848338
O O6 0.024854 0.136169 0.817224
O O7 0.994163 0.045727 0.736952
O O8 0.000000 0.070063 0.000000
O O9 0.250000 0.633529 0.852469
O O10 0.020287 0.679672 0.750376
O O11 0.000000 0.639357 0.000000
O O12 0.250000 0.806920 0.857118
O O13 0.485343 0.772064 0.732313
O O14 0.500000 0.796973 0.000000
O O15 0.250000 0.724455 0.645919
O O16 0.000000 0.720177 0.500000
O O17 0.000000 0.000000 0.500000
O O18 0.250000 0.000000 0.348531
#
# Coordination Sequence:
#
# PCOD9405067 Si02
#       6
#     8   8   8   8   8   4
#     4  10  21  38  60  85 114 148 186 229 278 332
#     4  10  20  37  60  85 113 147 187 229 274 329
#     4  11  23  38  58  83 113 148 188 233 280 331
#     4   9  19  36  58  84 113 144 182 226 272 324
#     4  10  22  38  56  82 113 147 185 226 275 330
#     4  12  25  40  57  80 112 148 186 232 283 332
#
# _framework density 18.559623999999999
#
# number of rings (size 3 to 8) (size 9 to 14) (size 15 to 20)
#    0.000    1.818    0.000    3.818    0.000    6.545 
#    0.000    1.818    0.000    0.000    0.000    0.000 
#    0.000    0.000    0.000    0.000    0.000    0.000 
#
# Total GULP energy -245902.149263 kJ/mol
# GULP energy per Si atom -5588.685211 kJ/mol
# Density = 1.851738 g / cm^3
# Si number density = 18.559624 Si / 1000 Ang^3
#
#
#
# Elastic Constant Matrix: (Units=GPa)
#
#
# Indices 1 2 3 4 5 6 
#
# 1 58.7674 50.5059 60.0395 0.0000 0.0000 0.0000
# 2 50.5059 112.8747 117.4566 0.0000 0.0000 0.0000
# 3 60.0395 117.4566 200.7647 0.0000 0.0000 0.0000
# 4 0.0000 0.0000 0.0000 86.3133 0.0000 0.0000
# 5 0.0000 0.0000 0.0000 0.0000 40.1838 0.0000
# 6 0.0000 0.0000 0.0000 0.0000 0.0000 -171.4996
#
#
#
# Elastic Compliance Matrix: (Units=1/GPa)
#
#
# Indices 1 2 3 4 5 6 
#
# 1 0.028204 -0.009824 -0.002687 0.000000 0.000000 0.000000
# 2 -0.009824 0.026068 -0.012313 0.000000 0.000000 0.000000
# 3 -0.002687 -0.012313 0.012988 0.000000 0.000000 0.000000
# 4 0.000000 0.000000 0.000000 0.011586 0.000000 0.000000
# 5 0.000000 0.000000 0.000000 0.000000 0.024886 0.000000
# 6 0.000000 0.000000 0.000000 0.000000 0.000000 -0.005831
#
#
# Mechanical properties :
#
#
# Convention : Reuss Voigt Hill
#
# Bulk Modulus (GPa) = 56.77805 92.04562 74.41184
# Shear Modulus (GPa) = 32.59022 0.62648 16.60835
#
# Velocity S-wave (km/s) = 4.19498 0.58162 2.99467
# Velocity P-wave (km/s) = 7.35680 7.08190 7.22066
#
# Compressibility (1/GPa) = 0.01761244
#
# Stress axis : x y z
#
# Youngs Moduli (GPa) = 35.45545 38.36130 76.99196
#
# Poissons Ratio (x) = 0.37685 0.20690
# Poissons Ratio (y) = 0.34830 0.94801
# Poissons Ratio (z) = 0.09528 0.47235
#
# Static dielectric constant tensor:
#      x y z
#    x 1.621740 0.000000 0.000000 
#    y 0.000000 1.646400 0.000000 
#    z 0.000000 0.000000 1.593610 
# 
# From -- ./inp_files/5833.got.cif
#   From: 2010.05.17/outbox.cif.g08.bks.cpg/sg51_3_cif.got.tgz:5833.got - 2010.06.03 11:52:47.
