data_PCOD9405092
_publ_section_title
;
Structure prediction by ZEFSAII (Michael W. Deem and Ramdas Pophale) SiO2 
 PCOD9405092
Probable space group: P M M A
;
_chemical_formula_sum "Si O2"
_cell_formula_units_Z 40
_cell_length_a 20.878967
_cell_length_b 7.871556
_cell_length_c 11.932639
_cell_angle_alpha 90.000000
_cell_angle_beta 90.000000
_cell_angle_gamma 90.000000
_cell_volume 1961.128718
_symmetry_space_group_name_H-M "P M M A"
_symmetry_group_IT_number 51
_symmetry_cell_setting 'orthorhombic'
loop_
_space_group_symop_operation_xyz
x,y,z
1/2-x,-y,z
1/2+x,-y,-z
-x,y,-z
-x,-y,-z
1/2+x,y,-z
1/2-x,y,z
x,-y,z
loop_
_atom_site_type_symbol
_atom_site_label
_atom_site_fract_x
_atom_site_fract_y
_atom_site_fract_z
Si Si1 0.504864 0.202323 0.627595
Si Si2 0.625217 0.706307 0.248113
Si Si3 0.750000 0.295066 0.642479
Si Si4 0.622661 0.199935 0.774187
Si Si5 0.750000 0.706795 0.386036
Si Si6 0.823616 0.297608 0.010781
O O1 0.500000 0.270853 0.500000
O O2 0.439450 0.230330 0.694995
O O3 0.563472 0.272667 0.702287
O O4 0.516150 0.000000 0.616575
O O5 0.622476 0.500000 0.248452
O O6 0.686239 0.760454 0.321798
O O7 0.639851 0.765633 0.121526
O O8 0.750000 0.500000 0.646884
O O9 0.687007 0.231016 0.704284
O O10 0.750000 0.237918 0.514093
O O11 0.636676 0.268789 0.897952
O O12 0.611812 0.000000 0.787744
O O13 0.750000 0.500000 0.385171
O O14 0.750000 0.230890 0.001861
O O15 0.817552 0.500000 0.025238
#
# Coordination Sequence:
#
# PCOD9405092 Si02
#       6
#     8   8   4   8   4   8
#     4  10  23  42  59  81 119 160 195 238 291 344
#     4  10  20  37  62  88 115 150 193 239 288 344
#     4  11  21  34  57  86 114 145 188 241 292 341
#     4  11  23  38  58  83 115 154 196 238 283 343
#     4   9  18  34  57  86 114 143 186 239 290 339
#     4  10  20  37  61  87 118 152 189 239 292 342
#
# _framework density 20.396419000000002
#
# number of rings (size 3 to 8) (size 9 to 14) (size 15 to 20)
#    0.000    1.800    2.000    2.100    0.000    3.600 
#    0.000    5.500    0.000    0.000    0.000    0.000 
#    0.000    0.000    0.000    0.000    0.000    0.000 
#
# Total GULP energy -223426.358616 kJ/mol
# GULP energy per Si atom -5585.658965 kJ/mol
# Density = 2.035000 g / cm^3
# Si number density = 20.396419 Si / 1000 Ang^3
#
#
#
# Elastic Constant Matrix: (Units=GPa)
#
#
# Indices 1 2 3 4 5 6 
#
# 1 157.0617 -19.8382 90.1481 0.0000 0.0000 0.0000
# 2 -19.8382 12.7780 -8.2706 0.0000 0.0000 0.0000
# 3 90.1481 -8.2706 214.6528 0.0000 0.0000 0.0000
# 4 0.0000 0.0000 0.0000 4.6342 0.0000 0.0000
# 5 0.0000 0.0000 0.0000 0.0000 47.5572 0.0000
# 6 0.0000 0.0000 0.0000 0.0000 0.0000 28.7604
#
#
#
# Elastic Compliance Matrix: (Units=1/GPa)
#
#
# Indices 1 2 3 4 5 6 
#
# 1 0.010235 0.013443 -0.003780 0.000000 0.000000 0.000000
# 2 0.013443 0.097917 -0.001873 0.000000 0.000000 0.000000
# 3 -0.003780 -0.001873 0.006174 0.000000 0.000000 0.000000
# 4 0.000000 0.000000 0.000000 0.215789 0.000000 0.000000
# 5 0.000000 0.000000 0.000000 0.000000 0.021027 0.000000
# 6 0.000000 0.000000 0.000000 0.000000 0.000000 0.034770
#
#
# Mechanical properties :
#
#
# Convention : Reuss Voigt Hill
#
# Bulk Modulus (GPa) = 7.69791 56.50791 32.10291
# Shear Modulus (GPa) = 12.08795 37.68723 24.88759
#
# Velocity S-wave (km/s) = 2.43708 4.30320 3.49692
# Velocity P-wave (km/s) = 3.42075 7.24258 5.66376
#
# Compressibility (1/GPa) = 0.12990539
#
# Stress axis : x y z
#
# Youngs Moduli (GPa) = 97.70765 10.21269 161.96571
#
# Poissons Ratio (x) = -0.13729 0.61228
# Poissons Ratio (y) = -1.31345 0.30333
# Poissons Ratio (z) = 0.36936 0.01913
#
# Static dielectric constant tensor:
#      x y z
#    x 1.686250 0.000000 0.000000 
#    y 0.000000 1.751010 0.000000 
#    z 0.000000 0.000000 1.716740 
# 
# From -- ./inp_files/17943.got.cif
#   From: 2010.05.17/outbox.cif.g08.bks.cpg/sg51_9_cif.got.tgz:17943.got - 2010.06.03 11:52:47.
