data_PCOD9405864
_publ_section_title
;
Structure prediction by ZEFSAII (Michael W. Deem and Ramdas Pophale) SiO2 
 PCOD9405864
Probable space group: P M M A
;
_chemical_formula_sum "Si O2"
_cell_formula_units_Z 64
_cell_length_a 15.973946
_cell_length_b 22.015343
_cell_length_c 9.309803
_cell_angle_alpha 90.000000
_cell_angle_beta 90.000000
_cell_angle_gamma 90.000000
_cell_volume 3273.996112
_symmetry_space_group_name_H-M "P M M A"
_symmetry_group_IT_number 51
_symmetry_cell_setting 'orthorhombic'
loop_
_space_group_symop_operation_xyz
x,y,z
1/2-x,-y,z
1/2+x,-y,-z
-x,y,-z
-x,-y,-z
1/2+x,y,-z
1/2-x,y,z
x,-y,z
loop_
_atom_site_type_symbol
_atom_site_label
_atom_site_fract_x
_atom_site_fract_y
_atom_site_fract_z
Si Si1 0.651679 0.239119 0.327218
Si Si2 0.151466 0.571566 0.684665
Si Si3 0.403871 0.661220 0.459068
Si Si4 0.847130 0.068237 0.111669
Si Si5 0.079413 0.831609 0.100058
Si Si6 0.963964 0.121270 0.345794
Si Si7 0.342327 0.702364 0.171759
Si Si8 0.416408 0.333444 0.901701
O O1 0.750000 0.227672 0.292766
O O2 0.645553 0.284557 0.461772
O O3 0.597810 0.179480 0.361615
O O4 0.604479 0.275118 0.198351
O O5 0.250000 0.583566 0.713996
O O6 0.136626 0.500000 0.690997
O O7 0.130591 0.599533 0.528461
O O8 0.095159 0.609252 0.797361
O O9 0.500000 0.667893 0.500000
O O10 0.398131 0.669776 0.290206
O O11 0.750000 0.075343 0.153702
O O12 0.908081 0.076462 0.248227
O O13 0.858604 0.000000 0.052999
O O14 0.869787 0.119120 0.993508
O O15 0.128081 0.770467 0.137194
O O16 0.041900 0.859579 0.245434
O O17 0.000000 0.816225 0.000000
O O18 0.000000 0.101722 0.500000
O O19 0.250000 0.703912 0.232629
O O20 0.345837 0.666405 0.023540
O O21 0.500000 0.330061 0.000000
#
# Coordination Sequence:
#
# PCOD9405864 Si02
#       8
#     8   8   8   8   8   8   8   8
#     4  11  21  37  58  82 117 158 193 221 276 356
#     4  10  22  42  61  76 104 151 198 231 275 349
#     4  11  22  37  57  82 114 148 183 227 283 344
#     4  10  22  42  63  82 111 156 205 245 288 350
#     4  10  21  36  58  86 118 155 193 232 284 349
#     4  11  22  36  58  88 121 152 191 245 299 348
#     4  12  21  32  54  86 117 139 176 233 288 332
#     4  11  21  35  56  83 113 145 184 235 288 337
#
# _framework density 19.547975999999998
#
# number of rings (size 3 to 8) (size 9 to 14) (size 15 to 20)
#    0.000    1.250    0.000    9.750    0.000    3.000 
#    0.000    2.500    0.000    3.750    0.000    0.000 
#    0.000    0.000    0.000    0.000    0.000    0.000 
#
# Total GULP energy -357463.397091 kJ/mol
# GULP energy per Si atom -5585.365580 kJ/mol
# Density = 1.950348 g / cm^3
# Si number density = 19.547976 Si / 1000 Ang^3
#
#
#
# Elastic Constant Matrix: (Units=GPa)
#
#
# Indices 1 2 3 4 5 6 
#
# 1 83.8696 28.2978 10.3715 0.0000 0.0000 0.0000
# 2 28.2978 87.3158 23.3170 0.0000 0.0000 0.0000
# 3 10.3715 23.3170 104.8850 0.0000 0.0000 0.0000
# 4 0.0000 0.0000 0.0000 7.5707 0.0000 0.0000
# 5 0.0000 0.0000 0.0000 0.0000 -2.6587 0.0000
# 6 0.0000 0.0000 0.0000 0.0000 0.0000 28.4041
#
#
#
# Elastic Compliance Matrix: (Units=1/GPa)
#
#
# Indices 1 2 3 4 5 6 
#
# 1 0.013402 -0.004241 -0.000382 0.000000 0.000000 0.000000
# 2 -0.004241 0.013518 -0.002586 0.000000 0.000000 0.000000
# 3 -0.000382 -0.002586 0.010147 0.000000 0.000000 0.000000
# 4 0.000000 0.000000 0.000000 0.132088 0.000000 0.000000
# 5 0.000000 0.000000 0.000000 0.000000 -0.376118 0.000000
# 6 0.000000 0.000000 0.000000 0.000000 0.000000 0.035206
#
#
# Mechanical properties :
#
#
# Convention : Reuss Voigt Hill
#
# Bulk Modulus (GPa) = 44.15470 44.44921 44.30195
# Shear Modulus (GPa) = -33.38000 20.93550 -6.22225
#
# Velocity S-wave (km/s) = -4.13679 3.27613 -1.78605
# Velocity P-wave (km/s) = 0.42479 6.09086 4.29640
#
# Compressibility (1/GPa) = 0.02264765
#
# Stress axis : x y z
#
# Youngs Moduli (GPa) = 74.61843 73.97727 98.55230
#
# Poissons Ratio (x) = 0.31375 0.03768
# Poissons Ratio (y) = 0.31647 0.25483
# Poissons Ratio (z) = 0.02853 0.19129
#
# Static dielectric constant tensor:
#      x y z
#    x 1.738570 0.000000 0.000000 
#    y 0.000000 1.671270 0.000000 
#    z 0.000000 0.000000 1.698800 
# 
# From -- ./inp_files/8755.got.cif
#   From: 2010.05.17/outbox.cif.g08.bks.cpg/sg51_5_cif.got.tgz:8755.got - 2010.06.03 11:52:47.
