data_PCOD9405949
_publ_section_title
;
Structure prediction by ZEFSAII (Michael W. Deem and Ramdas Pophale) SiO2 
 PCOD9405949
Probable space group: P M M A
;
_chemical_formula_sum "Si O2"
_cell_formula_units_Z 64
_cell_length_a 14.611298
_cell_length_b 8.974238
_cell_length_c 27.127318
_cell_angle_alpha 90.000000
_cell_angle_beta 90.000000
_cell_angle_gamma 90.000000
_cell_volume 3557.076782
_symmetry_space_group_name_H-M "P M M A"
_symmetry_group_IT_number 51
_symmetry_cell_setting 'orthorhombic'
loop_
_space_group_symop_operation_xyz
x,y,z
1/2-x,-y,z
1/2+x,-y,-z
-x,y,-z
-x,-y,-z
1/2+x,y,-z
1/2-x,y,z
x,-y,z
loop_
_atom_site_type_symbol
_atom_site_label
_atom_site_fract_x
_atom_site_fract_y
_atom_site_fract_z
Si Si1 0.855404 0.820392 0.868108
Si Si2 0.861149 0.828587 0.498937
Si Si3 0.507249 0.320381 0.943249
Si Si4 0.001335 0.178762 0.325235
Si Si5 0.640637 0.324311 0.396657
Si Si6 0.644617 0.320436 0.136028
Si Si7 0.007113 0.179313 0.788997
Si Si8 0.640766 0.676154 0.601281
O O1 0.750000 0.773029 0.864160
O O2 0.907155 0.750590 0.914807
O O3 0.916674 0.779450 0.820451
O O4 0.857346 0.000000 0.872158
O O5 0.750000 0.828025 0.499134
O O6 0.888265 0.742383 0.449531
O O7 0.888977 0.748696 0.549381
O O8 0.891124 0.000000 0.497669
O O9 0.516040 0.500000 0.941991
O O10 0.416838 0.279977 0.911618
O O11 0.500000 0.273594 0.000000
O O12 0.000054 0.223224 0.267937
O O13 0.086983 0.246997 0.354445
O O14 0.912877 0.240221 0.353767
O O15 0.004193 0.000000 0.328144
O O16 0.750000 0.304495 0.391886
O O17 0.620748 0.500000 0.395127
O O18 0.750000 0.272605 0.132111
O O19 0.643020 0.500000 0.140022
O O20 0.592714 0.251562 0.182842
O O21 0.016090 0.000000 0.791072
O O22 0.750000 0.697804 0.606255
O O23 0.622520 0.500000 0.600326
#
# Coordination Sequence:
#
# PCOD9405949 Si02
#       8
#     8   8   8   8   8   8   8   8
#     4   9  18  34  55  77 103 138 178 217 260 309
#     4   9  17  32  55  80 106 136 171 212 257 309
#     4   9  18  32  51  78 112 145 176 214 257 302
#     4  11  23  37  55  79 105 135 174 219 265 314
#     4  10  21  37  56  78 106 139 173 212 262 318
#     4   9  18  33  53  76 103 138 178 217 259 308
#     4   9  20  37  54  74 101 133 172 220 266 308
#     4  10  21  37  56  79 108 139 171 210 258 314
#
# _framework density 17.992301000000001
#
# number of rings (size 3 to 8) (size 9 to 14) (size 15 to 20)
#    0.000    2.500    0.000    1.500    0.000    6.750 
#    0.000    7.500    0.000    0.000    0.000    0.000 
#    0.000    0.000    0.000    0.000    0.000    0.000 
#
# Total GULP energy -357231.198574 kJ/mol
# GULP energy per Si atom -5581.737478 kJ/mol
# Density = 1.795135 g / cm^3
# Si number density = 17.992301 Si / 1000 Ang^3
#
#
#
# Elastic Constant Matrix: (Units=GPa)
#
#
# Indices 1 2 3 4 5 6 
#
# 1 129.1545 35.4319 70.2394 0.0000 0.0000 0.0000
# 2 35.4319 52.3821 51.0529 0.0000 0.0000 0.0000
# 3 70.2394 51.0529 181.0591 0.0000 0.0000 0.0000
# 4 0.0000 0.0000 0.0000 25.7025 0.0000 0.0000
# 5 0.0000 0.0000 0.0000 0.0000 10.4467 0.0000
# 6 0.0000 0.0000 0.0000 0.0000 0.0000 27.5649
#
#
#
# Elastic Compliance Matrix: (Units=1/GPa)
#
#
# Indices 1 2 3 4 5 6 
#
# 1 0.010474 -0.004309 -0.002848 0.000000 0.000000 0.000000
# 2 -0.004309 0.028097 -0.006251 0.000000 0.000000 0.000000
# 3 -0.002848 -0.006251 0.008391 0.000000 0.000000 0.000000
# 4 0.000000 0.000000 0.000000 0.038907 0.000000 0.000000
# 5 0.000000 0.000000 0.000000 0.000000 0.095724 0.000000
# 6 0.000000 0.000000 0.000000 0.000000 0.000000 0.036278
#
#
# Mechanical properties :
#
#
# Convention : Reuss Voigt Hill
#
# Bulk Modulus (GPa) = 49.63813 75.11599 62.37706
# Shear Modulus (GPa) = 19.88850 26.46759 23.17804
#
# Velocity S-wave (km/s) = 3.32835 3.83959 3.59307
# Velocity P-wave (km/s) = 6.51298 7.84195 7.20816
#
# Compressibility (1/GPa) = 0.02014580
#
# Stress axis : x y z
#
# Youngs Moduli (GPa) = 95.47780 35.59060 119.18091
#
# Poissons Ratio (x) = 0.15334 0.33946
# Poissons Ratio (y) = 0.41137 0.74501
# Poissons Ratio (z) = 0.27194 0.22248
#
# Static dielectric constant tensor:
#      x y z
#    x 1.628120 0.000000 0.000000 
#    y 0.000000 1.602820 0.000000 
#    z 0.000000 0.000000 1.583890 
# 
# From -- ./inp_files/35860.got.cif
#   From: 2010.05.17/outbox.cif.g08.bks.cpg/sg51_18_cif.got.tgz:35860.got - 2010.06.03 11:52:47.
