data_PCOD9405819
_publ_section_title
;
Structure prediction by ZEFSAII (Michael W. Deem and Ramdas Pophale) SiO2 
 PCOD9405819
Probable space group: P M M A
;
_chemical_formula_sum "Si O2"
_cell_formula_units_Z 48
_cell_length_a 9.308200
_cell_length_b 9.717820
_cell_length_c 29.807443
_cell_angle_alpha 90.000000
_cell_angle_beta 90.000000
_cell_angle_gamma 90.000000
_cell_volume 2696.244541
_symmetry_space_group_name_H-M "P M M A"
_symmetry_group_IT_number 51
_symmetry_cell_setting 'orthorhombic'
loop_
_space_group_symop_operation_xyz
x,y,z
1/2-x,-y,z
1/2+x,-y,-z
-x,y,-z
-x,-y,-z
1/2+x,y,-z
1/2-x,y,z
x,-y,z
loop_
_atom_site_type_symbol
_atom_site_label
_atom_site_fract_x
_atom_site_fract_y
_atom_site_fract_z
Si Si1 0.418002 0.276260 0.101675
Si Si2 0.079110 0.337946 0.205786
Si Si3 0.076303 0.161774 0.718515
Si Si4 0.415813 0.000000 0.046701
Si Si5 0.577692 0.159801 0.452937
Si Si6 0.075247 0.341060 0.631747
Si Si7 0.918579 0.500000 0.046941
O O1 0.250000 0.318204 0.094462
O O2 0.443070 0.287446 0.154732
O O3 0.527184 0.372607 0.075807
O O4 0.438882 0.129722 0.078791
O O5 0.250000 0.328897 0.214989
O O6 0.038297 0.500000 0.209248
O O7 0.993326 0.241747 0.239846
O O8 0.250000 0.167266 0.721690
O O9 0.032955 0.246502 0.673917
O O10 0.035920 0.000000 0.716503
O O11 0.250000 0.000000 0.033093
O O12 0.500000 0.000000 0.000000
O O13 0.500000 0.186494 0.500000
O O14 0.750000 0.172101 0.458572
O O15 0.531306 0.264461 0.414015
O O16 0.548819 0.000000 0.439978
O O17 0.250000 0.343715 0.631632
O O18 0.026503 0.500000 0.635008
O O19 0.750000 0.500000 0.039579
O O20 0.000000 0.500000 0.000000
#
# Coordination Sequence:
#
# PCOD9405819 Si02
#       7
#     8   8   8   4   8   8   4
#     4  10  21  40  61  83 112 148 187 227 273 328
#     4  10  21  38  60  83 110 144 182 226 276 331
#     4  10  21  36  56  83 112 143 182 229 275 327
#     4  10  22  38  60  84 110 146 184 224 271 322
#     4   9  17  30  49  73 102 138 180 225 274 328
#     4   9  17  31  52  76 104 142 184 226 273 326
#     4  12  24  38  60  88 116 150 188 228 273 324
#
# _framework density 17.802538999999999
#
# number of rings (size 3 to 8) (size 9 to 14) (size 15 to 20)
#    0.000    2.167    0.833    2.250    1.167    6.333 
#    0.000    0.833    0.000    3.000    0.000    0.000 
#    0.000    0.000    0.000    0.000    0.000    0.000 
#
# Total GULP energy -267760.124650 kJ/mol
# GULP energy per Si atom -5578.335930 kJ/mol
# Density = 1.776202 g / cm^3
# Si number density = 17.802539 Si / 1000 Ang^3
#
#
#
# Elastic Constant Matrix: (Units=GPa)
#
#
# Indices 1 2 3 4 5 6 
#
# 1 49.2044 62.2757 59.9153 0.0000 0.0000 0.0000
# 2 62.2757 173.6339 105.3121 0.0000 0.0000 0.0000
# 3 59.9153 105.3121 151.3071 0.0000 0.0000 0.0000
# 4 0.0000 0.0000 0.0000 34.2422 0.0000 0.0000
# 5 0.0000 0.0000 0.0000 0.0000 34.0729 0.0000
# 6 0.0000 0.0000 0.0000 0.0000 0.0000 26.3596
#
#
#
# Elastic Compliance Matrix: (Units=1/GPa)
#
#
# Indices 1 2 3 4 5 6 
#
# 1 0.047036 -0.009645 -0.011913 0.000000 0.000000 0.000000
# 2 -0.009645 0.011944 -0.004494 0.000000 0.000000 0.000000
# 3 -0.011913 -0.004494 0.014454 0.000000 0.000000 0.000000
# 4 0.000000 0.000000 0.000000 0.029204 0.000000 0.000000
# 5 0.000000 0.000000 0.000000 0.000000 0.029349 0.000000
# 6 0.000000 0.000000 0.000000 0.000000 0.000000 0.037937
#
#
# Mechanical properties :
#
#
# Convention : Reuss Voigt Hill
#
# Bulk Modulus (GPa) = 46.87909 92.12795 69.50352
# Shear Modulus (GPa) = 21.82088 28.71107 25.26597
#
# Velocity S-wave (km/s) = 3.50482 4.02026 3.77136
# Velocity P-wave (km/s) = 6.53975 8.56810 7.62170
#
# Compressibility (1/GPa) = 0.02133147
#
# Stress axis : x y z
#
# Youngs Moduli (GPa) = 21.26020 83.72205 69.18328
#
# Poissons Ratio (x) = 0.80748 0.82416
# Poissons Ratio (y) = 0.20505 0.31092
# Poissons Ratio (z) = 0.25327 0.37626
#
# Static dielectric constant tensor:
#      x y z
#    x 1.593090 0.000000 0.000000 
#    y 0.000000 1.780510 0.000000 
#    z 0.000000 0.000000 1.586540 
# 
# From -- ./inp_files/37204.got.cif
#   From: 2010.05.17/outbox.cif.g08.bks.cpg/sg51_19_cif.got.tgz:37204.got - 2010.06.03 11:52:47.
