data_PCOD9405946
_publ_section_title
;
Structure prediction by ZEFSAII (Michael W. Deem and Ramdas Pophale) SiO2 
 PCOD9405946
Probable space group: P M M A
;
_chemical_formula_sum "Si O2"
_cell_formula_units_Z 48
_cell_length_a 19.346397
_cell_length_b 7.544997
_cell_length_c 17.342722
_cell_angle_alpha 90.000000
_cell_angle_beta 90.000000
_cell_angle_gamma 90.000000
_cell_volume 2531.491243
_symmetry_space_group_name_H-M "P M M A"
_symmetry_group_IT_number 51
_symmetry_cell_setting 'orthorhombic'
loop_
_space_group_symop_operation_xyz
x,y,z
1/2-x,-y,z
1/2+x,-y,-z
-x,y,-z
-x,-y,-z
1/2+x,y,-z
1/2-x,y,z
x,-y,z
loop_
_atom_site_type_symbol
_atom_site_label
_atom_site_fract_x
_atom_site_fract_y
_atom_site_fract_z
Si Si1 0.166600 0.000000 0.025664
Si Si2 0.435928 0.204855 0.451463
Si Si3 0.097372 0.284639 0.741563
Si Si4 0.666658 0.000000 0.150958
Si Si5 0.671052 0.713617 0.419725
Si Si6 0.331365 0.287532 0.150083
Si Si7 0.559656 0.293600 0.724143
O O1 0.147690 0.826491 0.075372
O O2 0.250000 0.000000 0.021296
O O3 0.142179 0.000000 0.937846
O O4 0.500000 0.285312 0.500000
O O5 0.369603 0.219753 0.505784
O O6 0.425704 0.281015 0.366726
O O7 0.453219 0.000000 0.437823
O O8 0.102125 0.500000 0.751403
O O9 0.138226 0.173527 0.805224
O O10 0.130102 0.240425 0.658124
O O11 0.017360 0.224749 0.740439
O O12 0.750000 0.000000 0.153851
O O13 0.750000 0.775650 0.416046
O O14 0.671527 0.500000 0.424132
O O15 0.250000 0.253722 0.165934
O O16 0.338191 0.500000 0.137805
O O17 0.379210 0.226222 0.221287
O O18 0.554974 0.500000 0.743071
#
# Coordination Sequence:
#
# PCOD9405946 Si02
#       7
#     4   8   8   4   8   8   8
#     4   9  20  39  61  88 116 152 191 233 299 359
#     4  11  23  35  53  83 115 151 195 240 288 345
#     4  10  22  39  59  86 120 157 195 239 295 350
#     4  11  24  39  63  91 116 150 195 242 291 352
#     4  10  21  37  56  77 108 153 199 243 291 340
#     4   9  19  37  61  88 118 152 194 243 292 348
#     4  10  21  37  60  85 115 157 198 239 291 349
#
# _framework density 18.961155999999999
#
# number of rings (size 3 to 8) (size 9 to 14) (size 15 to 20)
#    0.000    2.000    1.667    1.000    3.500    3.333 
#    0.000    5.000    0.000    3.000    0.000    0.000 
#    0.000    0.000    0.000    0.000    0.000    0.000 
#
# Total GULP energy -267834.513936 kJ/mol
# GULP energy per Si atom -5579.885707 kJ/mol
# Density = 1.891800 g / cm^3
# Si number density = 18.961156 Si / 1000 Ang^3
#
#
#
# Elastic Constant Matrix: (Units=GPa)
#
#
# Indices 1 2 3 4 5 6 
#
# 1 115.8569 33.0979 75.0647 0.0000 0.0000 0.0000
# 2 33.0979 59.7968 32.7811 0.0000 0.0000 0.0000
# 3 75.0647 32.7811 155.9655 0.0000 0.0000 0.0000
# 4 0.0000 0.0000 0.0000 23.5197 0.0000 0.0000
# 5 0.0000 0.0000 0.0000 0.0000 26.7063 0.0000
# 6 0.0000 0.0000 0.0000 0.0000 0.0000 21.0843
#
#
#
# Elastic Compliance Matrix: (Units=1/GPa)
#
#
# Indices 1 2 3 4 5 6 
#
# 1 0.013503 -0.004421 -0.005570 0.000000 0.000000 0.000000
# 2 -0.004421 0.020348 -0.002149 0.000000 0.000000 0.000000
# 3 -0.005570 -0.002149 0.009544 0.000000 0.000000 0.000000
# 4 0.000000 0.000000 0.000000 0.042518 0.000000 0.000000
# 5 0.000000 0.000000 0.000000 0.000000 0.037444 0.000000
# 6 0.000000 0.000000 0.000000 0.000000 0.000000 0.047429
#
#
# Mechanical properties :
#
#
# Convention : Reuss Voigt Hill
#
# Bulk Modulus (GPa) = 52.31158 68.16739 60.23948
# Shear Modulus (GPa) = 24.82166 26.97375 25.89771
#
# Velocity S-wave (km/s) = 3.62205 3.77580 3.69972
# Velocity P-wave (km/s) = 6.71870 7.41876 7.07739
#
# Compressibility (1/GPa) = 0.01911623
#
# Stress axis : x y z
#
# Youngs Moduli (GPa) = 74.05847 49.14395 104.77743
#
# Poissons Ratio (x) = 0.21724 0.58358
# Poissons Ratio (y) = 0.32738 0.22520
# Poissons Ratio (z) = 0.41248 0.10562
#
# Static dielectric constant tensor:
#      x y z
#    x 1.669020 0.000000 0.000000 
#    y 0.000000 1.687560 0.000000 
#    z 0.000000 0.000000 1.623780 
# 
# From -- ./inp_files/24957.got.cif
#   From: 2010.05.17/outbox.cif.g08.bks.cpg/sg51_13_cif.got.tgz:24957.got - 2010.06.03 11:52:47.
