data_PCOD9405305
_publ_section_title
;
Structure prediction by ZEFSAII (Michael W. Deem and Ramdas Pophale) SiO2 
 PCOD9405305
Probable space group: P M M A
;
_chemical_formula_sum "Si O2"
_cell_formula_units_Z 44
_cell_length_a 7.391140
_cell_length_b 31.128090
_cell_length_c 8.834946
_cell_angle_alpha 90.000000
_cell_angle_beta 90.000000
_cell_angle_gamma 90.000000
_cell_volume 2032.674324
_symmetry_space_group_name_H-M "P M M A"
_symmetry_group_IT_number 51
_symmetry_cell_setting 'orthorhombic'
loop_
_space_group_symop_operation_xyz
x,y,z
1/2-x,-y,z
1/2+x,-y,-z
-x,y,-z
-x,-y,-z
1/2+x,y,-z
1/2-x,y,z
x,-y,z
loop_
_atom_site_type_symbol
_atom_site_label
_atom_site_fract_x
_atom_site_fract_y
_atom_site_fract_z
Si Si1 0.033469 0.092414 0.181573
Si Si2 0.033958 0.365481 0.322960
Si Si3 0.466517 0.000000 0.181556
Si Si4 0.966362 0.277628 0.820616
Si Si5 0.966189 0.453275 0.820811
Si Si6 0.533638 0.815208 0.818599
O O1 0.250000 0.092369 0.203031
O O2 0.963782 0.138615 0.239394
O O3 0.963907 0.046206 0.239382
O O4 0.000000 0.092456 0.000000
O O5 0.250000 0.365464 0.294113
O O6 0.961589 0.321139 0.253116
O O7 0.961468 0.409927 0.253964
O O8 0.000000 0.365358 0.500000
O O9 0.250000 0.000000 0.203045
O O10 0.500000 0.000000 0.000000
O O11 0.750000 0.276930 0.797075
O O12 0.035929 0.231124 0.763359
O O13 0.000000 0.279861 0.000000
O O14 0.750000 0.453819 0.796567
O O15 0.035854 0.500000 0.767385
O O16 0.000000 0.450855 0.000000
O O17 0.750000 0.815432 0.796528
O O18 0.500000 0.815052 0.000000
#
# Coordination Sequence:
#
# PCOD9405305 Si02
#       6
#     8   8   4   8   8   8
#     4   8  12  17  25  38  58  85 116 149 185 226
#     4  10  21  34  47  66  92 119 146 177 213 253
#     4   8  12  16  22  34  54  82 115 146 178 222
#     4   9  17  29  45  64  84 108 141 178 213 251
#     4   9  18  33  52  73  95 118 146 179 212 248
#     4   8  13  21  33  49  69  93 123 160 199 236
#
# _framework density 21.646360000000001
#
# number of rings (size 3 to 8) (size 9 to 14) (size 15 to 20)
#    0.000    3.273    0.000    0.545    0.000    1.818 
#    0.000    0.000    0.000    0.000    0.000    0.000 
#    0.000    0.000    0.000    0.818    0.000    4.909 
#
# Total GULP energy -244992.568018 kJ/mol
# GULP energy per Si atom -5568.012910 kJ/mol
# Density = 2.159709 g / cm^3
# Si number density = 21.646360 Si / 1000 Ang^3
#
#
#
# Elastic Constant Matrix: (Units=GPa)
#
#
# Indices 1 2 3 4 5 6 
#
# 1 83.5377 17.9528 -8.4634 0.0000 0.0000 0.0000
# 2 17.9528 343.4682 62.1140 0.0000 0.0000 0.0000
# 3 -8.4634 62.1140 22.7456 0.0000 0.0000 0.0000
# 4 0.0000 0.0000 0.0000 -6.8868 0.0000 0.0000
# 5 0.0000 0.0000 0.0000 0.0000 10.9967 0.0000
# 6 0.0000 0.0000 0.0000 0.0000 0.0000 -11.5654
#
#
#
# Elastic Compliance Matrix: (Units=1/GPa)
#
#
# Indices 1 2 3 4 5 6 
#
# 1 0.014147 -0.003342 0.014389 0.000000 0.000000 0.000000
# 2 -0.003342 0.006542 -0.019107 0.000000 0.000000 0.000000
# 3 0.014389 -0.019107 0.101496 0.000000 0.000000 0.000000
# 4 0.000000 0.000000 0.000000 -0.145206 0.000000 0.000000
# 5 0.000000 0.000000 0.000000 0.000000 0.090936 0.000000
# 6 0.000000 0.000000 0.000000 0.000000 0.000000 -0.086465
#
#
# Mechanical properties :
#
#
# Convention : Reuss Voigt Hill
#
# Bulk Modulus (GPa) = 9.42818 65.88427 37.65623
# Shear Modulus (GPa) = 151.86694 23.71879 87.79286
#
# Velocity S-wave (km/s) = 8.38514 3.31379 6.37541
# Velocity P-wave (km/s) = 9.90517 6.71895 8.46335
#
# Compressibility (1/GPa) = 0.10606496
#
# Stress axis : x y z
#
# Youngs Moduli (GPa) = 70.68865 152.86972 9.85259
#
# Poissons Ratio (x) = 0.51083 -0.14177
# Poissons Ratio (y) = 0.23621 0.18825
# Poissons Ratio (z) = -1.01714 2.92088
#
# Static dielectric constant tensor:
#      x y z
#    x 1.777530 0.000000 0.000000 
#    y 0.000000 1.911270 0.000000 
#    z 0.000000 0.000000 1.684740 
# 
# From -- ./inp_files/5708.got.cif
#   From: 2010.05.17/outbox.cif.g08.bks.cpg/sg51_3_cif.got.tgz:5708.got - 2010.06.03 11:52:47.
