data_PCOD9405745
_publ_section_title
;
Structure prediction by ZEFSAII (Michael W. Deem and Ramdas Pophale) SiO2 
 PCOD9405745
Probable space group: P M M A
;
_chemical_formula_sum "Si O2"
_cell_formula_units_Z 56
_cell_length_a 8.950033
_cell_length_b 19.674661
_cell_length_c 16.072990
_cell_angle_alpha 90.000000
_cell_angle_beta 90.000000
_cell_angle_gamma 90.000000
_cell_volume 2830.274570
_symmetry_space_group_name_H-M "P M M A"
_symmetry_group_IT_number 51
_symmetry_cell_setting 'orthorhombic'
loop_
_space_group_symop_operation_xyz
x,y,z
1/2-x,-y,z
1/2+x,-y,-z
-x,y,-z
-x,-y,-z
1/2+x,y,-z
1/2-x,y,z
x,-y,z
loop_
_atom_site_type_symbol
_atom_site_label
_atom_site_fract_x
_atom_site_fract_y
_atom_site_fract_z
Si Si1 0.076390 0.291820 0.846062
Si Si2 0.928048 0.574750 0.908592
Si Si3 0.075138 0.918542 0.250000
Si Si4 0.571952 0.425250 0.591408
Si Si5 0.076390 0.708180 0.653938
Si Si6 0.069834 0.852310 0.913100
Si Si7 0.069834 0.147690 0.586900
O O1 0.250000 0.306679 0.864832
O O2 0.066529 0.270039 0.750000
O O3 0.029120 0.227444 0.900605
O O4 0.985318 0.360300 0.859298
O O5 0.750000 0.577675 0.915716
O O6 0.968240 0.500000 0.873174
O O7 0.000000 0.578735 0.000000
O O8 0.250000 0.897866 0.250000
O O9 0.995615 0.890751 0.166958
O O10 0.995615 0.890750 0.333042
O O11 0.067878 0.000000 0.250000
O O12 0.500000 0.421265 0.500000
O O13 0.750000 0.422325 0.584284
O O14 0.531760 0.500000 0.626825
O O15 0.514682 0.360300 0.640702
O O16 0.250000 0.693321 0.635168
O O17 0.029120 0.772556 0.599395
O O18 0.250000 0.857508 0.913970
O O19 0.000000 0.876627 0.000000
O O20 0.250000 0.142492 0.586030
O O21 0.000000 0.123373 0.500000
#
# Coordination Sequence:
#
# PCOD9405745 Si02
#       7
#     8   8   8   8   8   8   8
#     4  10  21  38  59  86 119 156 203 255 308 367
#     4  10  21  36  54  79 112 153 202 254 309 368
#     4  11  25  45  69  99 132 167 210 257 309 372
#     4  10  21  36  54  79 112 153 202 254 309 368
#     4  10  21  38  59  86 119 156 203 255 308 367
#     4  11  23  42  67  97 131 169 213 260 313 374
#     4  11  23  42  67  97 131 169 213 260 313 374
#
# _framework density 19.786066000000002
#
# number of rings (size 3 to 8) (size 9 to 14) (size 15 to 20)
#    0.000    1.571    1.429    3.000    0.000    9.143 
#    0.000    2.857    0.000    0.000    0.000    0.000 
#    0.000    0.000    0.000    0.000    0.000    0.000 
#
# Total GULP energy -312865.058102 kJ/mol
# GULP energy per Si atom -5586.876038 kJ/mol
# Density = 1.974103 g / cm^3
# Si number density = 19.786066 Si / 1000 Ang^3
#
#
#
# Elastic Constant Matrix: (Units=GPa)
#
#
# Indices 1 2 3 4 5 6 
#
# 1 72.8538 48.6745 48.9709 0.0000 0.0000 0.0000
# 2 48.6745 80.8582 47.6189 0.0000 0.0000 0.0000
# 3 48.9709 47.6189 120.9260 0.0000 0.0000 0.0000
# 4 0.0000 0.0000 0.0000 10.0227 0.0000 0.0000
# 5 0.0000 0.0000 0.0000 0.0000 34.3515 0.0000
# 6 0.0000 0.0000 0.0000 0.0000 0.0000 31.4565
#
#
#
# Elastic Compliance Matrix: (Units=1/GPa)
#
#
# Indices 1 2 3 4 5 6 
#
# 1 0.025566 -0.012099 -0.005589 0.000000 0.000000 0.000000
# 2 -0.012099 0.021827 -0.003696 0.000000 0.000000 0.000000
# 3 -0.005589 -0.003696 0.011988 0.000000 0.000000 0.000000
# 4 0.000000 0.000000 0.000000 0.099773 0.000000 0.000000
# 5 0.000000 0.000000 0.000000 0.000000 0.029111 0.000000
# 6 0.000000 0.000000 0.000000 0.000000 0.000000 0.031790
#
#
# Mechanical properties :
#
#
# Convention : Reuss Voigt Hill
#
# Bulk Modulus (GPa) = 60.18834 62.79628 61.49231
# Shear Modulus (GPa) = 18.63165 23.79105 21.21135
#
# Velocity S-wave (km/s) = 3.07197 3.47135 3.27775
# Velocity P-wave (km/s) = 6.56264 6.91907 6.74321
#
# Compressibility (1/GPa) = 0.01661451
#
# Stress axis : x y z
#
# Youngs Moduli (GPa) = 39.11390 45.81528 83.41533
#
# Poissons Ratio (x) = 0.55430 0.46623
# Poissons Ratio (y) = 0.47323 0.30826
# Poissons Ratio (z) = 0.21862 0.16931
#
# Static dielectric constant tensor:
#      x y z
#    x 1.670070 0.000000 0.000000 
#    y 0.000000 1.705890 0.000000 
#    z 0.000000 0.000000 1.689320 
# 
# From -- ./inp_files/21839.got.cif
#   From: 2010.05.17/outbox.cif.g08.bks.cpg/sg51_11_cif.got.tgz:21839.got - 2010.06.03 11:52:47.
