data_PCOD9405594
_publ_section_title
;
Structure prediction by ZEFSAII (Michael W. Deem and Ramdas Pophale) SiO2 
 PCOD9405594
Probable space group: P M M A
;
_chemical_formula_sum "Si O2"
_cell_formula_units_Z 48
_cell_length_a 8.260764
_cell_length_b 32.340009
_cell_length_c 9.362233
_cell_angle_alpha 90.000000
_cell_angle_beta 90.000000
_cell_angle_gamma 90.000000
_cell_volume 2501.150338
_symmetry_space_group_name_H-M "P M M A"
_symmetry_group_IT_number 51
_symmetry_cell_setting 'orthorhombic'
loop_
_space_group_symop_operation_xyz
x,y,z
1/2-x,-y,z
1/2+x,-y,-z
-x,y,-z
-x,-y,-z
1/2+x,y,-z
1/2-x,y,z
x,-y,z
loop_
_atom_site_type_symbol
_atom_site_label
_atom_site_fract_x
_atom_site_fract_y
_atom_site_fract_z
Si Si1 0.943148 0.875617 0.661991
Si Si2 0.943599 0.046809 0.160529
Si Si3 0.945554 0.544371 0.834433
Si Si4 0.054063 0.365357 0.164656
Si Si5 0.445752 0.204215 0.163231
Si Si6 0.445726 0.285111 0.336875
O O1 0.750000 0.874168 0.663864
O O2 0.004388 0.837270 0.757552
O O3 0.000000 0.871495 0.500000
O O4 0.996628 0.918810 0.730561
O O5 0.750000 0.046501 0.162258
O O6 0.001737 0.000000 0.192682
O O7 0.000000 0.057144 0.000000
O O8 0.750000 0.544268 0.829477
O O9 0.001751 0.500000 0.772199
O O10 0.000499 0.589275 0.779235
O O11 0.000000 0.544267 0.000000
O O12 0.250000 0.365060 0.165417
O O13 0.996616 0.327006 0.259259
O O14 0.000000 0.360747 0.000000
O O15 0.250000 0.204000 0.165774
O O16 0.501121 0.244865 0.248912
O O17 0.500000 0.205335 0.000000
O O18 0.500000 0.283138 0.500000
O O19 0.250000 0.285320 0.333798
#
# Coordination Sequence:
#
# PCOD9405594 Si02
#       6
#     8   8   8   8   8   8
#     4  11  23  38  57  82 112 145 180 218 263 313
#     4  10  21  38  60  85 113 146 184 225 267 311
#     4   8  13  22  38  62  91 121 154 196 245 292
#     4   9  17  29  47  71  97 126 163 205 248 298
#     4  10  22  38  57  81 106 134 170 212 257 307
#     4  10  21  36  52  73 101 132 168 207 250 301
#
# _framework density 19.191168000000001
#
# number of rings (size 3 to 8) (size 9 to 14) (size 15 to 20)
#    0.000    2.333    0.000    2.500    0.000    5.333 
#    0.000    0.000    0.000    0.500    0.000    0.000 
#    0.000    0.000    0.000    0.000    0.000    0.000 
#
# Total GULP energy -267774.959588 kJ/mol
# GULP energy per Si atom -5578.644991 kJ/mol
# Density = 1.914749 g / cm^3
# Si number density = 19.191168 Si / 1000 Ang^3
#
#
#
# Elastic Constant Matrix: (Units=GPa)
#
#
# Indices 1 2 3 4 5 6 
#
# 1 15.3403 20.3158 10.6636 0.0000 0.0000 0.0000
# 2 20.3158 178.8763 107.7044 0.0000 0.0000 0.0000
# 3 10.6636 107.7044 136.7339 0.0000 0.0000 0.0000
# 4 0.0000 0.0000 0.0000 -3.5084 0.0000 0.0000
# 5 0.0000 0.0000 0.0000 0.0000 31.0842 0.0000
# 6 0.0000 0.0000 0.0000 0.0000 0.0000 0.2617
#
#
#
# Elastic Compliance Matrix: (Units=1/GPa)
#
#
# Indices 1 2 3 4 5 6 
#
# 1 0.076931 -0.009748 0.001679 0.000000 0.000000 0.000000
# 2 -0.009748 0.011869 -0.008589 0.000000 0.000000 0.000000
# 3 0.001679 -0.008589 0.013948 0.000000 0.000000 0.000000
# 4 0.000000 0.000000 0.000000 -0.285033 0.000000 0.000000
# 5 0.000000 0.000000 0.000000 0.000000 0.032171 0.000000
# 6 0.000000 0.000000 0.000000 0.000000 0.000000 3.821875
#
#
# Mechanical properties :
#
#
# Convention : Reuss Voigt Hill
#
# Bulk Modulus (GPa) = 14.40269 67.59088 40.99679
# Shear Modulus (GPa) = 1.34112 18.38528 9.86320
#
# Velocity S-wave (km/s) = 0.83686 3.09853 2.26949
# Velocity P-wave (km/s) = 2.90774 6.93523 5.31753
#
# Compressibility (1/GPa) = 0.06943145
#
# Stress axis : x y z
#
# Youngs Moduli (GPa) = 12.99868 84.25137 71.69444
#
# Poissons Ratio (x) = 0.82131 -0.12038
# Poissons Ratio (y) = 0.12672 0.61579
# Poissons Ratio (z) = -0.02183 0.72364
#
# Static dielectric constant tensor:
#      x y z
#    x 1.667350 0.000000 0.000000 
#    y 0.000000 1.721880 0.000000 
#    z 0.000000 0.000000 1.607410 
# 
# From -- ./inp_files/6049.got.cif
#   From: 2010.05.17/outbox.cif.g08.bks.cpg/sg51_4_cif.got.tgz:6049.got - 2010.06.03 11:52:47.
