data_PCOD9405563
_publ_section_title
;
Structure prediction by ZEFSAII (Michael W. Deem and Ramdas Pophale) SiO2 
 PCOD9405563
Probable space group: P M M A
;
_chemical_formula_sum "Si O2"
_cell_formula_units_Z 56
_cell_length_a 16.037634
_cell_length_b 14.073457
_cell_length_c 11.654107
_cell_angle_alpha 90.000000
_cell_angle_beta 90.000000
_cell_angle_gamma 90.000000
_cell_volume 2630.389667
_symmetry_space_group_name_H-M "P M M A"
_symmetry_group_IT_number 51
_symmetry_cell_setting 'orthorhombic'
loop_
_space_group_symop_operation_xyz
x,y,z
1/2-x,-y,z
1/2+x,-y,-z
-x,y,-z
-x,-y,-z
1/2+x,y,-z
1/2-x,y,z
x,-y,z
loop_
_atom_site_type_symbol
_atom_site_label
_atom_site_fract_x
_atom_site_fract_y
_atom_site_fract_z
Si Si1 0.156814 0.242274 0.818492
Si Si2 0.094773 0.107336 0.000391
Si Si3 0.151383 0.110061 0.618537
Si Si4 0.919275 0.237157 0.577971
Si Si5 0.844942 0.892441 0.741134
Si Si6 0.650435 0.389705 0.750246
Si Si7 0.400970 0.392836 0.995818
O O1 0.250000 0.267808 0.781309
O O2 0.115827 0.181137 0.716394
O O3 0.119833 0.334013 0.881481
O O4 0.154309 0.167207 0.921054
O O5 0.133980 0.104793 0.125379
O O6 0.087984 0.000000 0.954858
O O7 0.000000 0.147216 0.000000
O O8 0.250000 0.100610 0.641426
O O9 0.139772 0.173148 0.504551
O O10 0.118664 0.000000 0.613304
O O11 0.920124 0.164732 0.684287
O O12 0.886668 0.330930 0.643146
O O13 0.000000 0.254586 0.500000
O O14 0.750000 0.853321 0.725101
O O15 0.844064 0.000000 0.696129
O O16 0.750000 0.387345 0.740754
O O17 0.622111 0.500000 0.746385
O O18 0.628154 0.352719 0.879410
O O19 0.365783 0.500000 0.988178
O O20 0.500000 0.397797 0.000000
#
# Coordination Sequence:
#
# PCOD9405563 Si02
#       7
#     8   8   8   8   8   8   8
#     4  11  22  36  59  88 123 165 207 249 306 380
#     4  10  21  35  57  88 123 158 199 257 320 382
#     4  10  23  42  61  85 124 172 217 260 309 371
#     4  12  26  39  62  90 120 165 213 272 319 373
#     4  10  21  38  60  86 118 160 213 265 314 378
#     4  10  22  43  70  98 127 164 213 263 317 382
#     4  10  22  40  68 100 132 163 198 253 318 383
#
# _framework density 21.289621
#
# number of rings (size 3 to 8) (size 9 to 14) (size 15 to 20)
#    0.000    1.571    0.000    4.286    4.000    4.857 
#    0.000    0.714    0.000    0.857    0.000    0.000 
#    0.000    0.000    0.000    0.000    0.000    0.000 
#
# Total GULP energy -312108.136795 kJ/mol
# GULP energy per Si atom -5573.359586 kJ/mol
# Density = 2.124116 g / cm^3
# Si number density = 21.289621 Si / 1000 Ang^3
#
#
#
# Elastic Constant Matrix: (Units=GPa)
#
#
# Indices 1 2 3 4 5 6 
#
# 1 75.8143 7.2685 4.1962 0.0000 0.0000 0.0000
# 2 7.2685 101.2578 38.7241 0.0000 0.0000 0.0000
# 3 4.1962 38.7241 83.0441 0.0000 0.0000 0.0000
# 4 0.0000 0.0000 0.0000 22.9078 0.0000 0.0000
# 5 0.0000 0.0000 0.0000 0.0000 37.3460 0.0000
# 6 0.0000 0.0000 0.0000 0.0000 0.0000 -100.5281
#
#
#
# Elastic Compliance Matrix: (Units=1/GPa)
#
#
# Indices 1 2 3 4 5 6 
#
# 1 0.013287 -0.000848 -0.000276 0.000000 0.000000 0.000000
# 2 -0.000848 0.012073 -0.005587 0.000000 0.000000 0.000000
# 3 -0.000276 -0.005587 0.014661 0.000000 0.000000 0.000000
# 4 0.000000 0.000000 0.000000 0.043653 0.000000 0.000000
# 5 0.000000 0.000000 0.000000 0.000000 0.026777 0.000000
# 6 0.000000 0.000000 0.000000 0.000000 0.000000 -0.009947
#
#
# Mechanical properties :
#
#
# Convention : Reuss Voigt Hill
#
# Bulk Modulus (GPa) = 37.59565 40.05488 38.82526
# Shear Modulus (GPa) = 40.71927 5.94030 23.32979
#
# Velocity S-wave (km/s) = 4.37811 1.67221 3.31392
# Velocity P-wave (km/s) = 6.57683 4.75221 5.73751
#
# Compressibility (1/GPa) = 0.02659882
#
# Stress axis : x y z
#
# Youngs Moduli (GPa) = 75.26318 82.82722 68.20814
#
# Poissons Ratio (x) = 0.07026 0.01881
# Poissons Ratio (y) = 0.06384 0.38108
# Poissons Ratio (z) = 0.02076 0.46276
#
# Static dielectric constant tensor:
#      x y z
#    x 2.573140 0.000000 0.000000 
#    y 0.000000 1.825680 0.000000 
#    z 0.000000 0.000000 1.814930 
# 
# From -- ./inp_files/16682.got.cif
#   From: 2010.05.17/outbox.cif.g08.bks.cpg/sg51_9_cif.got.tgz:16682.got - 2010.06.03 11:52:47.
