data_PCOD9405831
_publ_section_title
;
Structure prediction by ZEFSAII (Michael W. Deem and Ramdas Pophale) SiO2 
 PCOD9405831
Probable space group: P M M A
;
_chemical_formula_sum "Si O2"
_cell_formula_units_Z 40
_cell_length_a 7.711240
_cell_length_b 15.200167
_cell_length_c 15.844605
_cell_angle_alpha 90.000000
_cell_angle_beta 90.000000
_cell_angle_gamma 90.000000
_cell_volume 1857.179993
_symmetry_space_group_name_H-M "P M M A"
_symmetry_group_IT_number 51
_symmetry_cell_setting 'orthorhombic'
loop_
_space_group_symop_operation_xyz
x,y,z
1/2-x,-y,z
1/2+x,-y,-z
-x,y,-z
-x,-y,-z
1/2+x,y,-z
1/2-x,y,z
x,-y,z
loop_
_atom_site_type_symbol
_atom_site_label
_atom_site_fract_x
_atom_site_fract_y
_atom_site_fract_z
Si Si1 0.541465 0.716089 0.592504
Si Si2 0.543453 0.599124 0.747232
Si Si3 0.459195 0.903881 0.844091
Si Si4 0.044009 0.717649 0.906112
Si Si5 0.957960 0.095644 0.644999
O O1 0.500000 0.681082 0.500000
O O2 0.750000 0.720595 0.600873
O O3 0.473886 0.655979 0.668668
O O4 0.473202 0.816154 0.601774
O O5 0.750000 0.592453 0.734433
O O6 0.472885 0.500000 0.751222
O O7 0.517711 0.652626 0.833254
O O8 0.250000 0.904736 0.850503
O O9 0.526183 0.816801 0.890427
O O10 0.505564 0.896207 0.745096
O O11 0.522972 0.000000 0.873893
O O12 0.250000 0.722256 0.898340
O O13 0.000000 0.687739 0.000000
O O14 0.750000 0.093932 0.634047
O O15 0.026901 0.000000 0.616928
#
# Coordination Sequence:
#
# PCOD9405831 Si02
#       5
#     8   8   8   8   8
#     4  10  21  36  56  84 116 149 188 231 280 338
#     4  10  22  42  64  84 111 147 188 239 294 342
#     4   9  18  33  54  82 115 150 188 229 274 327
#     4  11  23  38  60  88 118 151 189 232 281 338
#     4   9  17  31  53  80 111 149 190 230 275 330
#
# _framework density 21.538029999999999
#
# number of rings (size 3 to 8) (size 9 to 14) (size 15 to 20)
#    0.000    2.200    2.000    0.600    0.000    4.400 
#    0.000    0.000    0.000    0.000    0.000    0.000 
#    0.000    0.000    0.000    0.000    0.000    0.000 
#
# Total GULP energy -223369.345459 kJ/mol
# GULP energy per Si atom -5584.233636 kJ/mol
# Density = 2.148901 g / cm^3
# Si number density = 21.538030 Si / 1000 Ang^3
#
#
#
# Elastic Constant Matrix: (Units=GPa)
#
#
# Indices 1 2 3 4 5 6 
#
# 1 36.7151 12.7914 -12.6377 0.0000 0.0000 0.0000
# 2 12.7914 177.9244 91.5923 0.0000 0.0000 0.0000
# 3 -12.6377 91.5923 142.7861 0.0000 0.0000 0.0000
# 4 0.0000 0.0000 0.0000 49.3692 0.0000 0.0000
# 5 0.0000 0.0000 0.0000 0.0000 24.8351 0.0000
# 6 0.0000 0.0000 0.0000 0.0000 0.0000 7.0342
#
#
#
# Elastic Compliance Matrix: (Units=1/GPa)
#
#
# Indices 1 2 3 4 5 6 
#
# 1 0.031317 -0.005492 0.006295 0.000000 0.000000 0.000000
# 2 -0.005492 0.009354 -0.006487 0.000000 0.000000 0.000000
# 3 0.006295 -0.006487 0.011721 0.000000 0.000000 0.000000
# 4 0.000000 0.000000 0.000000 0.020256 0.000000 0.000000
# 5 0.000000 0.000000 0.000000 0.000000 0.040266 0.000000
# 6 0.000000 0.000000 0.000000 0.000000 0.000000 0.142163
#
#
# Mechanical properties :
#
#
# Convention : Reuss Voigt Hill
#
# Bulk Modulus (GPa) = 24.37534 60.10196 42.23865
# Shear Modulus (GPa) = 17.84952 33.95965 25.90458
#
# Velocity S-wave (km/s) = 2.88192 3.97511 3.47181
# Velocity P-wave (km/s) = 4.73454 7.00245 5.97705
#
# Compressibility (1/GPa) = 0.04102506
#
# Stress axis : x y z
#
# Youngs Moduli (GPa) = 31.93180 106.90228 85.31335
#
# Poissons Ratio (x) = 0.58708 -0.53701
# Poissons Ratio (y) = 0.17536 0.55339
# Poissons Ratio (z) = -0.20100 0.69343
#
# Static dielectric constant tensor:
#      x y z
#    x 1.795080 0.000000 0.000000 
#    y 0.000000 1.818740 0.000000 
#    z 0.000000 0.000000 1.700860 
# 
# From -- ./inp_files/20473.got.cif
#   From: 2010.05.17/outbox.cif.g08.bks.cpg/sg51_11_cif.got.tgz:20473.got - 2010.06.03 11:52:47.
