data_PCOD9405374
_publ_section_title
;
Structure prediction by ZEFSAII (Michael W. Deem and Ramdas Pophale) SiO2 
 PCOD9405374
Probable space group: P M M A
;
_chemical_formula_sum "Si O2"
_cell_formula_units_Z 64
_cell_length_a 14.186864
_cell_length_b 10.461650
_cell_length_c 20.573742
_cell_angle_alpha 90.000000
_cell_angle_beta 90.000000
_cell_angle_gamma 90.000000
_cell_volume 3053.513759
_symmetry_space_group_name_H-M "P M M A"
_symmetry_group_IT_number 51
_symmetry_cell_setting 'orthorhombic'
loop_
_space_group_symop_operation_xyz
x,y,z
1/2-x,-y,z
1/2+x,-y,-z
-x,y,-z
-x,-y,-z
1/2+x,y,-z
1/2-x,y,z
x,-y,z
loop_
_atom_site_type_symbol
_atom_site_label
_atom_site_fract_x
_atom_site_fract_y
_atom_site_fract_z
Si Si1 0.134888 0.645111 0.964571
Si Si2 0.605244 0.643312 0.526008
Si Si3 0.636041 0.144423 0.633987
Si Si4 0.365051 0.145051 0.217043
Si Si5 0.634976 0.854824 0.138566
Si Si6 0.865418 0.143885 0.287675
Si Si7 0.356709 0.642295 0.617517
Si Si8 0.865131 0.354549 0.886497
O O1 0.250000 0.646054 0.963885
O O2 0.105796 0.500000 0.948350
O O3 0.102825 0.749321 0.912658
O O4 0.106593 0.672487 0.038963
O O5 0.500000 0.634565 0.500000
O O6 0.363075 0.500000 0.454299
O O7 0.611184 0.746372 0.582544
O O8 0.652498 0.680512 0.457744
O O9 0.750000 0.141230 0.634980
O O10 0.606388 0.171011 0.708439
O O11 0.604430 0.000000 0.616024
O O12 0.250000 0.146404 0.216186
O O13 0.397213 0.249638 0.165211
O O14 0.394025 0.000000 0.200367
O O15 0.750000 0.853882 0.137568
O O16 0.608096 0.827482 0.213229
O O17 0.606092 0.000000 0.122187
O O18 0.750000 0.141425 0.289823
O O19 0.901208 0.248341 0.338571
O O20 0.896409 0.000000 0.303666
O O21 0.250000 0.629137 0.642460
O O22 0.400901 0.500000 0.620789
O O23 0.750000 0.352833 0.886062
O O24 0.893279 0.500000 0.869969
#
# Coordination Sequence:
#
# PCOD9405374 Si02
#       8
#     8   8   8   8   8   8   8   8
#     4   8  13  19  26  39  63  96 132 167 201 239
#     4  10  21  35  49  67  92 119 146 179 220 266
#     4   9  18  32  49  69  91 115 147 186 224 264
#     4   8  14  24  37  54  76 101 132 172 213 250
#     4   8  13  20  29  43  65  94 129 166 202 242
#     4   8  14  24  37  54  76 101 132 172 213 250
#     4   9  17  29  45  64  84 108 141 178 214 255
#     4   8  13  20  29  44  68  98 133 170 205 243
#
# _framework density 20.959458999999999
#
# number of rings (size 3 to 8) (size 9 to 14) (size 15 to 20)
#    0.000    3.500    0.000    2.625    0.000    3.000 
#    0.000    7.500    0.000    0.000    0.000    0.000 
#    0.000    0.000    0.000    1.125    0.000   23.250 
#
# Total GULP energy -356987.255859 kJ/mol
# GULP energy per Si atom -5577.925873 kJ/mol
# Density = 2.091175 g / cm^3
# Si number density = 20.959459 Si / 1000 Ang^3
#
#
#
# Elastic Constant Matrix: (Units=GPa)
#
#
# Indices 1 2 3 4 5 6 
#
# 1 55.3104 12.5953 10.7576 0.0000 0.0000 0.0000
# 2 12.5953 210.3616 178.0568 0.0000 0.0000 0.0000
# 3 10.7576 178.0568 175.8713 0.0000 0.0000 0.0000
# 4 0.0000 0.0000 0.0000 48.9081 0.0000 0.0000
# 5 0.0000 0.0000 0.0000 0.0000 16.6995 0.0000
# 6 0.0000 0.0000 0.0000 0.0000 0.0000 -1.1852
#
#
#
# Elastic Compliance Matrix: (Units=1/GPa)
#
#
# Indices 1 2 3 4 5 6 
#
# 1 0.018330 -0.001038 -0.000070 0.000000 0.000000 0.000000
# 2 -0.001038 0.033290 -0.033640 0.000000 0.000000 0.000000
# 3 -0.000070 -0.033640 0.039749 0.000000 0.000000 0.000000
# 4 0.000000 0.000000 0.000000 0.020447 0.000000 0.000000
# 5 0.000000 0.000000 0.000000 0.000000 0.059882 0.000000
# 6 0.000000 0.000000 0.000000 0.000000 0.000000 -0.843744
#
#
# Mechanical properties :
#
#
# Convention : Reuss Voigt Hill
#
# Bulk Modulus (GPa) = 45.72185 93.81809 69.76997
# Shear Modulus (GPa) = -8.39970 28.89338 10.24684
#
# Velocity S-wave (km/s) = -2.00407 3.71689 2.21348
# Velocity P-wave (km/s) = 4.06285 7.95483 6.31609
#
# Compressibility (1/GPa) = 0.02187138
#
# Stress axis : x y z
#
# Youngs Moduli (GPa) = 54.55584 30.03894 25.15810
#
# Poissons Ratio (x) = 0.03118 0.00177
# Poissons Ratio (y) = 0.05663 0.84633
# Poissons Ratio (z) = 0.00384 1.01052
#
# Static dielectric constant tensor:
#      x y z
#    x 1.591040 0.000000 0.000000 
#    y 0.000000 1.757390 0.000000 
#    z 0.000000 0.000000 1.714260 
# 
# From -- ./inp_files/34155.got.cif
#   From: 2010.05.17/outbox.cif.g08.bks.cpg/sg51_18_cif.got.tgz:34155.got - 2010.06.03 11:52:47.
