data_PCOD9405624
_publ_section_title
;
Structure prediction by ZEFSAII (Michael W. Deem and Ramdas Pophale) SiO2 
 PCOD9405624
Probable space group: P M M A
;
_chemical_formula_sum "Si O2"
_cell_formula_units_Z 40
_cell_length_a 9.445697
_cell_length_b 7.658193
_cell_length_c 27.109252
_cell_angle_alpha 90.000000
_cell_angle_beta 90.000000
_cell_angle_gamma 90.000000
_cell_volume 1961.001166
_symmetry_space_group_name_H-M "P M M A"
_symmetry_group_IT_number 51
_symmetry_cell_setting 'orthorhombic'
loop_
_space_group_symop_operation_xyz
x,y,z
1/2-x,-y,z
1/2+x,-y,-z
-x,y,-z
-x,-y,-z
1/2+x,y,-z
1/2-x,y,z
x,-y,z
loop_
_atom_site_type_symbol
_atom_site_label
_atom_site_fract_x
_atom_site_fract_y
_atom_site_fract_z
Si Si1 0.412750 0.713867 0.548318
Si Si2 0.086271 0.789210 0.142707
Si Si3 0.909521 0.291627 0.045933
Si Si4 0.915010 0.790223 0.749697
Si Si5 0.911719 0.707631 0.642261
O O1 0.500000 0.767166 0.500000
O O2 0.250000 0.770481 0.546335
O O3 0.411737 0.500000 0.548725
O O4 0.492114 0.774448 0.597824
O O5 0.250000 0.730289 0.136572
O O6 0.030798 0.730435 0.196755
O O7 0.990853 0.736307 0.097040
O O8 0.089844 0.000000 0.143646
O O9 0.750000 0.220664 0.047090
O O10 0.899050 0.500000 0.038844
O O11 0.000000 0.220511 0.000000
O O12 0.750000 0.734106 0.748884
O O13 0.974818 0.734781 0.696980
O O14 0.918136 0.000000 0.749923
O O15 0.750000 0.778823 0.640715
O O16 0.900594 0.500000 0.635285
#
# Coordination Sequence:
#
# PCOD9405624 Si02
#       5
#     8   8   8   8   8
#     4   9  16  26  41  62  89 119 149 185 230 275
#     4   9  18  33  53  76 100 128 164 202 239 283
#     4  10  21  36  53  74 100 130 163 199 242 290
#     4   8  15  29  48  69  94 124 156 189 227 273
#     4   9  16  26  43  68  93 117 150 189 226 268
#
# _framework density 20.397743999999999
#
# number of rings (size 3 to 8) (size 9 to 14) (size 15 to 20)
#    0.000    3.000    0.000    2.400    0.000    5.200 
#    0.000    3.000    0.000    4.800    0.000    0.000 
#    0.000    0.000    0.000    0.000    0.000    0.000 
#
# Total GULP energy -222987.498334 kJ/mol
# GULP energy per Si atom -5574.687458 kJ/mol
# Density = 2.035132 g / cm^3
# Si number density = 20.397744 Si / 1000 Ang^3
#
#
#
# Elastic Constant Matrix: (Units=GPa)
#
#
# Indices 1 2 3 4 5 6 
#
# 1 128.6925 6.9661 115.3626 0.0000 0.0000 0.0000
# 2 6.9661 32.9223 1.5504 0.0000 0.0000 0.0000
# 3 115.3626 1.5504 242.8180 0.0000 0.0000 0.0000
# 4 0.0000 0.0000 0.0000 30.4796 0.0000 0.0000
# 5 0.0000 0.0000 0.0000 0.0000 31.6794 0.0000
# 6 0.0000 0.0000 0.0000 0.0000 0.0000 8.0160
#
#
#
# Elastic Compliance Matrix: (Units=1/GPa)
#
#
# Indices 1 2 3 4 5 6 
#
# 1 0.013754 -0.002603 -0.006518 0.000000 0.000000 0.000000
# 2 -0.002603 0.030876 0.001040 0.000000 0.000000 0.000000
# 3 -0.006518 0.001040 0.007208 0.000000 0.000000 0.000000
# 4 0.000000 0.000000 0.000000 0.032809 0.000000 0.000000
# 5 0.000000 0.000000 0.000000 0.000000 0.031566 0.000000
# 6 0.000000 0.000000 0.000000 0.000000 0.000000 0.124750
#
#
# Mechanical properties :
#
#
# Convention : Reuss Voigt Hill
#
# Bulk Modulus (GPa) = 28.03022 72.46567 50.24794
# Shear Modulus (GPa) = 18.58599 32.73857 25.66228
#
# Velocity S-wave (km/s) = 3.02185 4.01060 3.55081
# Velocity P-wave (km/s) = 5.09383 7.55315 6.44194
#
# Compressibility (1/GPa) = 0.03567578
#
# Stress axis : x y z
#
# Youngs Moduli (GPa) = 72.70469 32.38713 138.72747
#
# Poissons Ratio (x) = 0.08431 0.90423
# Poissons Ratio (y) = 0.18928 -0.14424
# Poissons Ratio (z) = 0.47389 -0.03367
#
# Static dielectric constant tensor:
#      x y z
#    x 1.705130 0.000000 0.000000 
#    y 0.000000 1.762200 0.000000 
#    z 0.000000 0.000000 1.738480 
# 
# From -- ./inp_files/31368.got.cif
#   From: 2010.05.17/outbox.cif.g08.bks.cpg/sg51_16_cif.got.tgz:31368.got - 2010.06.03 11:52:47.
