data_PCOD9405476
_publ_section_title
;
Structure prediction by ZEFSAII (Michael W. Deem and Ramdas Pophale) SiO2 
 PCOD9405476
Probable space group: P M M A
;
_chemical_formula_sum "Si O2"
_cell_formula_units_Z 64
_cell_length_a 8.930124
_cell_length_b 14.986311
_cell_length_c 25.644592
_cell_angle_alpha 90.000000
_cell_angle_beta 90.000000
_cell_angle_gamma 90.000000
_cell_volume 3432.005888
_symmetry_space_group_name_H-M "P M M A"
_symmetry_group_IT_number 51
_symmetry_cell_setting 'orthorhombic'
loop_
_space_group_symop_operation_xyz
x,y,z
1/2-x,-y,z
1/2+x,-y,-z
-x,y,-z
-x,-y,-z
1/2+x,y,-z
1/2-x,y,z
x,-y,z
loop_
_atom_site_type_symbol
_atom_site_label
_atom_site_fract_x
_atom_site_fract_y
_atom_site_fract_z
Si Si1 0.076363 0.099878 0.924805
Si Si2 0.569714 0.252381 0.362052
Si Si3 0.578463 0.899189 0.200882
Si Si4 0.069761 0.895976 0.555663
Si Si5 0.427174 0.732047 0.248892
Si Si6 0.932571 0.603255 0.843610
Si Si7 0.428805 0.712934 0.053281
Si Si8 0.929705 0.602679 0.446075
O O1 0.250000 0.110969 0.941639
O O2 0.075914 0.101304 0.861815
O O3 0.979893 0.184000 0.942041
O O4 0.025521 0.000000 0.940264
O O5 0.750000 0.249237 0.357341
O O6 0.522912 0.165480 0.395698
O O7 0.501623 0.264707 0.305330
O O8 0.526927 0.335993 0.398091
O O9 0.750000 0.878433 0.217166
O O10 0.467054 0.825817 0.221992
O O11 0.543787 0.000000 0.218271
O O12 0.250000 0.888850 0.551225
O O13 0.000000 0.868498 0.500000
O O14 0.031177 0.000000 0.564252
O O15 0.250000 0.721678 0.254667
O O16 0.481478 0.655288 0.208693
O O17 0.750000 0.603982 0.843532
O O18 0.980624 0.500000 0.845055
O O19 0.978855 0.658616 0.895157
O O20 0.250000 0.708384 0.050364
O O21 0.500000 0.676464 0.000000
O O22 0.750000 0.605667 0.450796
O O23 0.975839 0.500000 0.438462
O O24 0.000000 0.635235 0.500000
#
# Coordination Sequence:
#
# PCOD9405476 Si02
#       8
#     8   8   8   8   8   8   8   8
#     4   9  18  34  57  84 114 148 183 219 264 321
#     4  10  21  35  51  75 109 145 178 219 272 329
#     4   9  18  34  57  81 108 144 179 215 265 323
#     4   9  18  33  53  76 104 141 183 223 266 317
#     4  11  22  36  56  83 110 142 186 232 275 322
#     4   9  20  40  61  80 108 145 183 228 285 340
#     4  11  22  37  59  86 115 148 184 230 281 330
#     4   9  18  33  53  76 103 135 173 220 274 329
#
# _framework density 18.647987000000001
#
# number of rings (size 3 to 8) (size 9 to 14) (size 15 to 20)
#    0.000    2.375    1.250    1.875    0.000    3.000 
#    0.000    2.500    0.000    5.250    0.000    0.000 
#    0.000    0.000    0.000    0.000    0.000    0.000 
#
# Total GULP energy -357058.820984 kJ/mol
# GULP energy per Si atom -5579.044078 kJ/mol
# Density = 1.860554 g / cm^3
# Si number density = 18.647987 Si / 1000 Ang^3
#
#
#
# Elastic Constant Matrix: (Units=GPa)
#
#
# Indices 1 2 3 4 5 6 
#
# 1 21.5728 30.0148 37.4165 0.0000 0.0000 0.0000
# 2 30.0148 114.3767 79.1613 0.0000 0.0000 0.0000
# 3 37.4165 79.1613 158.6250 0.0000 0.0000 0.0000
# 4 0.0000 0.0000 0.0000 17.4214 0.0000 0.0000
# 5 0.0000 0.0000 0.0000 0.0000 33.1161 0.0000
# 6 0.0000 0.0000 0.0000 0.0000 0.0000 -5.4286
#
#
#
# Elastic Compliance Matrix: (Units=1/GPa)
#
#
# Indices 1 2 3 4 5 6 
#
# 1 0.090672 -0.013736 -0.014533 0.000000 0.000000 0.000000
# 2 -0.013736 0.015437 -0.004464 0.000000 0.000000 0.000000
# 3 -0.014533 -0.004464 0.011960 0.000000 0.000000 0.000000
# 4 0.000000 0.000000 0.000000 0.057401 0.000000 0.000000
# 5 0.000000 0.000000 0.000000 0.000000 0.030197 0.000000
# 6 0.000000 0.000000 0.000000 0.000000 0.000000 -0.184209
#
#
# Mechanical properties :
#
#
# Convention : Reuss Voigt Hill
#
# Bulk Modulus (GPa) = 19.00998 65.30663 42.15830
# Shear Modulus (GPa) = 47.86606 18.88722 33.37664
#
# Velocity S-wave (km/s) = 5.07188 3.18595 4.23522
# Velocity P-wave (km/s) = 6.67194 6.97356 6.82442
#
# Compressibility (1/GPa) = 0.05260396
#
# Stress axis : x y z
#
# Youngs Moduli (GPa) = 11.02872 64.77919 83.61312
#
# Poissons Ratio (x) = 0.88980 1.21514
# Poissons Ratio (y) = 0.15149 0.37323
# Poissons Ratio (z) = 0.16028 0.28916
#
# Static dielectric constant tensor:
#      x y z
#    x 1.633260 0.000000 0.000000 
#    y 0.000000 1.650670 0.000000 
#    z 0.000000 0.000000 1.644310 
# 
# From -- ./inp_files/35011.got.cif
#   From: 2010.05.17/outbox.cif.g08.bks.cpg/sg51_18_cif.got.tgz:35011.got - 2010.06.03 11:52:47.
