data_PCOD9405565
_publ_section_title
;
Structure prediction by ZEFSAII (Michael W. Deem and Ramdas Pophale) SiO2 
 PCOD9405565
Probable space group: P M M A
;
_chemical_formula_sum "Si O2"
_cell_formula_units_Z 58
_cell_length_a 14.879216
_cell_length_b 24.610508
_cell_length_c 8.743303
_cell_angle_alpha 90.000000
_cell_angle_beta 90.000000
_cell_angle_gamma 90.000000
_cell_volume 3201.666972
_symmetry_space_group_name_H-M "P M M A"
_symmetry_group_IT_number 51
_symmetry_cell_setting 'orthorhombic'
loop_
_space_group_symop_operation_xyz
x,y,z
1/2-x,-y,z
1/2+x,-y,-z
-x,y,-z
-x,-y,-z
1/2+x,y,-z
1/2-x,y,z
x,-y,z
loop_
_atom_site_type_symbol
_atom_site_label
_atom_site_fract_x
_atom_site_fract_y
_atom_site_fract_z
Si Si1 0.566261 0.941555 0.356787
Si Si2 0.984812 0.164483 0.179479
Si Si3 0.144508 0.771686 0.306631
Si Si4 0.644116 0.343017 0.848153
Si Si5 0.355259 0.750328 0.665482
Si Si6 0.487431 0.439067 0.184711
Si Si7 0.645357 0.635201 0.208779
Si Si8 0.750000 0.000000 0.416253
O O1 0.500000 0.932628 0.500000
O O2 0.554207 0.891531 0.244531
O O3 0.538348 0.000000 0.284947
O O4 0.668729 0.953265 0.408889
O O5 0.080324 0.180233 0.253440
O O6 0.916684 0.211894 0.230426
O O7 0.000000 0.162533 0.000000
O O8 0.250000 0.781150 0.273819
O O9 0.117920 0.715400 0.221087
O O10 0.133328 0.764685 0.488075
O O11 0.750000 0.350184 0.816598
O O12 0.587298 0.393368 0.783596
O O13 0.631620 0.345543 0.032089
O O14 0.250000 0.756904 0.706808
O O15 0.377490 0.687258 0.689732
O O16 0.466768 0.500000 0.237658
O O17 0.581227 0.414982 0.243578
O O18 0.500000 0.441510 0.000000
O O19 0.750000 0.621534 0.226260
#
# Coordination Sequence:
#
# PCOD9405565 Si02
#       8
#     8   8   8   8   8   8   8   2
#     4   9  20  40  64  90 116 153 199 231 275 319
#     4  12  24  37  57  87 123 152 184 229 275 329
#     4  10  21  38  56  83 111 146 186 228 276 331
#     4   9  17  30  50  71 102 133 171 222 273 325
#     4  10  21  35  58  80 108 145 187 228 277 335
#     4   9  17  28  44  68  96 129 171 218 270 326
#     4   9  17  30  47  73  99 133 173 219 275 328
#     4   8  18  40  70  88 114 156 196 238 268 322
#
# _framework density 18.115562000000001
#
# number of rings (size 3 to 8) (size 9 to 14) (size 15 to 20)
#    0.414    1.931    0.000    2.897    0.966    3.586 
#    1.241    2.759    0.000    2.483    0.000    3.862 
#    0.000    0.000    0.000    0.000    0.000    0.000 
#
# Total GULP energy -322889.038069 kJ/mol
# GULP energy per Si atom -5567.052380 kJ/mol
# Density = 1.807433 g / cm^3
# Si number density = 18.115562 Si / 1000 Ang^3
#
#
#
# Elastic Constant Matrix: (Units=GPa)
#
#
# Indices 1 2 3 4 5 6 
#
# 1 83.7495 36.8034 32.5099 0.0000 0.0000 0.0000
# 2 36.8034 53.4646 10.5917 0.0000 0.0000 0.0000
# 3 32.5099 10.5917 24.5577 0.0000 0.0000 0.0000
# 4 0.0000 0.0000 0.0000 24.6496 0.0000 0.0000
# 5 0.0000 0.0000 0.0000 0.0000 16.5802 0.0000
# 6 0.0000 0.0000 0.0000 0.0000 0.0000 18.2609
#
#
#
# Elastic Compliance Matrix: (Units=1/GPa)
#
#
# Indices 1 2 3 4 5 6 
#
# 1 0.033225 -0.015480 -0.037308 0.000000 0.000000 0.000000
# 2 -0.015480 0.027664 0.008562 0.000000 0.000000 0.000000
# 3 -0.037308 0.008562 0.086416 0.000000 0.000000 0.000000
# 4 0.000000 0.000000 0.000000 0.040569 0.000000 0.000000
# 5 0.000000 0.000000 0.000000 0.000000 0.060313 0.000000
# 6 0.000000 0.000000 0.000000 0.000000 0.000000 0.054762
#
#
# Mechanical properties :
#
#
# Convention : Reuss Voigt Hill
#
# Bulk Modulus (GPa) = 16.99142 35.73130 26.36136
# Shear Modulus (GPa) = 12.16489 17.35594 14.76041
#
# Velocity S-wave (km/s) = 2.59417 3.09862 2.85755
# Velocity P-wave (km/s) = 4.28635 5.70692 5.04686
#
# Compressibility (1/GPa) = 0.05885322
#
# Stress axis : x y z
#
# Youngs Moduli (GPa) = 30.09760 36.14798 11.57189
#
# Poissons Ratio (x) = 0.55958 0.43172
# Poissons Ratio (y) = 0.46592 -0.09908
# Poissons Ratio (z) = 1.12287 -0.30949
#
# Static dielectric constant tensor:
#      x y z
#    x 1.636050 0.000000 0.000000 
#    y 0.000000 1.617310 0.000000 
#    z 0.000000 0.000000 1.628160 
# 
# From -- ./inp_files/8647.got.cif
#   From: 2010.05.17/outbox.cif.g08.bks.cpg/sg51_5_cif.got.tgz:8647.got - 2010.06.03 11:52:47.
