data_PCOD9405384
_publ_section_title
;
Structure prediction by ZEFSAII (Michael W. Deem and Ramdas Pophale) SiO2 
 PCOD9405384
Probable space group: P M M A
;
_chemical_formula_sum "Si O2"
_cell_formula_units_Z 40
_cell_length_a 8.578170
_cell_length_b 27.301183
_cell_length_c 9.535054
_cell_angle_alpha 90.000000
_cell_angle_beta 90.000000
_cell_angle_gamma 90.000000
_cell_volume 2233.054238
_symmetry_space_group_name_H-M "P M M A"
_symmetry_group_IT_number 51
_symmetry_cell_setting 'orthorhombic'
loop_
_space_group_symop_operation_xyz
x,y,z
1/2-x,-y,z
1/2+x,-y,-z
-x,y,-z
-x,-y,-z
1/2+x,y,-z
1/2-x,y,z
x,-y,z
loop_
_atom_site_type_symbol
_atom_site_label
_atom_site_fract_x
_atom_site_fract_y
_atom_site_fract_z
Si Si1 0.438211 0.444561 0.344070
Si Si2 0.061341 0.353438 0.156951
Si Si3 0.563508 0.946749 0.339944
Si Si4 0.563571 0.153462 0.659595
Si Si5 0.061828 0.738809 0.341559
O O1 0.500000 0.434211 0.500000
O O2 0.250000 0.443769 0.348530
O O3 0.487318 0.500000 0.305638
O O4 0.490292 0.402720 0.237139
O O5 0.250000 0.353226 0.154809
O O6 0.009043 0.305868 0.244862
O O7 0.000000 0.352060 0.000000
O O8 0.500000 0.947326 0.500000
O O9 0.750000 0.944109 0.345319
O O10 0.500679 0.896533 0.273360
O O11 0.518824 0.000000 0.277894
O O12 0.500000 0.154167 0.500000
O O13 0.750000 0.150247 0.656206
O O14 0.517507 0.207111 0.715990
O O15 0.250000 0.737654 0.348494
O O16 0.000000 0.733459 0.500000
#
# Coordination Sequence:
#
# PCOD9405384 Si02
#       5
#     8   8   8   8   8
#     4   9  18  33  53  76 100 126 158 195 232 273
#     4  10  21  35  49  69  98 127 157 194 234 277
#     4   9  15  21  30  47  74 107 140 174 214 262
#     4   9  15  23  36  54  77 106 141 180 221 265
#     4   9  18  31  47  67  90 118 154 195 234 275
#
# _framework density 17.912686000000001
#
# number of rings (size 3 to 8) (size 9 to 14) (size 15 to 20)
#    0.000    2.800    0.000    3.000    0.000    4.000 
#    0.000    0.000    0.000    0.000    0.000    0.000 
#    0.000    0.800    0.000    1.800    0.000   10.200 
#
# Total GULP energy -222747.444017 kJ/mol
# GULP energy per Si atom -5568.686100 kJ/mol
# Density = 1.787192 g / cm^3
# Si number density = 17.912686 Si / 1000 Ang^3
#
#
#
# Elastic Constant Matrix: (Units=GPa)
#
#
# Indices 1 2 3 4 5 6 
#
# 1 21.0602 36.8280 11.8919 0.0000 0.0000 0.0000
# 2 36.8280 216.8464 88.1755 0.0000 0.0000 0.0000
# 3 11.8919 88.1755 62.8129 0.0000 0.0000 0.0000
# 4 0.0000 0.0000 0.0000 -2.1776 0.0000 0.0000
# 5 0.0000 0.0000 0.0000 0.0000 19.8115 0.0000
# 6 0.0000 0.0000 0.0000 0.0000 0.0000 5.1199
#
#
#
# Elastic Compliance Matrix: (Units=1/GPa)
#
#
# Indices 1 2 3 4 5 6 
#
# 1 0.069190 -0.014969 0.007914 0.000000 0.000000 0.000000
# 2 -0.014969 0.013983 -0.016796 0.000000 0.000000 0.000000
# 3 0.007914 -0.016796 0.037999 0.000000 0.000000 0.000000
# 4 0.000000 0.000000 0.000000 -0.459221 0.000000 0.000000
# 5 0.000000 0.000000 0.000000 0.000000 0.050476 0.000000
# 6 0.000000 0.000000 0.000000 0.000000 0.000000 0.195316
#
#
# Mechanical properties :
#
#
# Convention : Reuss Voigt Hill
#
# Bulk Modulus (GPa) = 13.61075 63.83447 38.72261
# Shear Modulus (GPa) = -249.18752 15.47238 -116.85757
#
# Velocity S-wave (km/s) = -11.80738 2.94218 -8.08572
# Velocity P-wave (km/s) = 13.35181 6.87428 8.09368
#
# Compressibility (1/GPa) = 0.07347136
#
# Stress axis : x y z
#
# Youngs Moduli (GPa) = 14.45291 71.51410 26.31629
#
# Poissons Ratio (x) = 1.07048 -0.20825
# Poissons Ratio (y) = 0.21634 0.44200
# Poissons Ratio (z) = -0.11437 1.20112
#
# Static dielectric constant tensor:
#      x y z
#    x 1.616540 0.000000 0.000000 
#    y 0.000000 1.701350 0.000000 
#    z 0.000000 0.000000 1.548980 
# 
# From -- ./inp_files/5487.got.cif
#   From: 2010.05.17/outbox.cif.g08.bks.cpg/sg51_3_cif.got.tgz:5487.got - 2010.06.03 11:52:47.
