data_PCOD9405558
_publ_section_title
;
Structure prediction by ZEFSAII (Michael W. Deem and Ramdas Pophale) SiO2 
 PCOD9405558
Probable space group: P M M A
;
_chemical_formula_sum "Si O2"
_cell_formula_units_Z 40
_cell_length_a 17.775592
_cell_length_b 7.509154
_cell_length_c 13.099797
_cell_angle_alpha 90.000000
_cell_angle_beta 90.000000
_cell_angle_gamma 90.000000
_cell_volume 1748.556420
_symmetry_space_group_name_H-M "P M M A"
_symmetry_group_IT_number 51
_symmetry_cell_setting 'orthorhombic'
loop_
_space_group_symop_operation_xyz
x,y,z
1/2-x,-y,z
1/2+x,-y,-z
-x,y,-z
-x,-y,-z
1/2+x,y,-z
1/2-x,y,z
x,-y,z
loop_
_atom_site_type_symbol
_atom_site_label
_atom_site_fract_x
_atom_site_fract_y
_atom_site_fract_z
Si Si1 0.160470 0.208851 0.398839
Si Si2 0.336200 0.782511 0.181923
Si Si3 0.162471 0.710612 0.759983
Si Si4 0.563939 0.699538 0.424367
Si Si5 0.914972 0.784453 0.023233
O O1 0.250000 0.220861 0.391020
O O2 0.127812 0.272079 0.289922
O O3 0.132714 0.308941 0.496987
O O4 0.142022 0.000000 0.411702
O O5 0.250000 0.726593 0.181594
O O6 0.337855 0.000000 0.183528
O O7 0.371281 0.722751 0.077054
O O8 0.250000 0.778300 0.755743
O O9 0.167240 0.500000 0.737584
O O10 0.101674 0.783421 0.676867
O O11 0.125955 0.730466 0.872213
O O12 0.500000 0.781413 0.500000
O O13 0.536265 0.500000 0.397920
O O14 0.915027 0.000000 0.025111
O O15 0.000000 0.726347 0.000000
#
# Coordination Sequence:
#
# PCOD9405558 Si02
#       5
#     8   8   8   8   8
#     4   9  18  33  55  81 107 139 180 225 275 331
#     4   8  15  30  51  75 107 142 173 215 272 326
#     4  10  22  40  59  80 112 154 194 234 284 339
#     4  10  22  38  56  80 112 149 188 231 282 334
#     4  10  21  35  56  86 115 145 185 230 279 335
#
# _framework density 22.876013
#
# number of rings (size 3 to 8) (size 9 to 14) (size 15 to 20)
#    0.000    2.600    0.000    2.400    2.800    4.000 
#    0.000    1.000    0.000    1.200    0.000    0.000 
#    0.000    0.000    0.000    0.000    0.000    0.000 
#
# Total GULP energy -222943.204645 kJ/mol
# GULP energy per Si atom -5573.580116 kJ/mol
# Density = 2.282395 g / cm^3
# Si number density = 22.876013 Si / 1000 Ang^3
#
#
#
# Elastic Constant Matrix: (Units=GPa)
#
#
# Indices 1 2 3 4 5 6 
#
# 1 66.5179 9.7083 18.0857 0.0000 0.0000 0.0000
# 2 9.7083 57.3948 5.4314 0.0000 0.0000 0.0000
# 3 18.0857 5.4314 142.3453 0.0000 0.0000 0.0000
# 4 0.0000 0.0000 0.0000 6.8421 0.0000 0.0000
# 5 0.0000 0.0000 0.0000 0.0000 40.4771 0.0000
# 6 0.0000 0.0000 0.0000 0.0000 0.0000 11.1227
#
#
#
# Elastic Compliance Matrix: (Units=1/GPa)
#
#
# Indices 1 2 3 4 5 6 
#
# 1 0.015924 -0.002511 -0.001927 0.000000 0.000000 0.000000
# 2 -0.002511 0.017882 -0.000363 0.000000 0.000000 0.000000
# 3 -0.001927 -0.000363 0.007284 0.000000 0.000000 0.000000
# 4 0.000000 0.000000 0.000000 0.146155 0.000000 0.000000
# 5 0.000000 0.000000 0.000000 0.000000 0.024705 0.000000
# 6 0.000000 0.000000 0.000000 0.000000 0.000000 0.089906
#
#
# Mechanical properties :
#
#
# Convention : Reuss Voigt Hill
#
# Bulk Modulus (GPa) = 31.75950 36.96765 34.36358
# Shear Modulus (GPa) = 15.53007 27.22388 21.37697
#
# Velocity S-wave (km/s) = 2.60836 3.45347 3.06023
# Velocity P-wave (km/s) = 4.79425 5.66542 5.24795
#
# Compressibility (1/GPa) = 0.03148664
#
# Stress axis : x y z
#
# Youngs Moduli (GPa) = 62.79784 55.92115 137.28869
#
# Poissons Ratio (x) = 0.14043 0.26461
# Poissons Ratio (y) = 0.15770 0.04987
# Poissons Ratio (z) = 0.12104 0.02031
#
# Static dielectric constant tensor:
#      x y z
#    x 1.866360 0.000000 0.000000 
#    y 0.000000 1.899550 0.000000 
#    z 0.000000 0.000000 1.863900 
# 
# From -- ./inp_files/9259.got.cif
#   From: 2010.05.17/outbox.cif.g08.bks.cpg/sg51_5_cif.got.tgz:9259.got - 2010.06.03 11:52:47.
