data_PCOD9405899
_publ_section_title
;
Structure prediction by ZEFSAII (Michael W. Deem and Ramdas Pophale) SiO2 
 PCOD9405899
Probable space group: P M M A
;
_chemical_formula_sum "Si O2"
_cell_formula_units_Z 44
_cell_length_a 9.324779
_cell_length_b 12.408362
_cell_length_c 25.546713
_cell_angle_alpha 90.000000
_cell_angle_beta 90.000000
_cell_angle_gamma 90.000000
_cell_volume 2955.888390
_symmetry_space_group_name_H-M "P M M A"
_symmetry_group_IT_number 51
_symmetry_cell_setting 'orthorhombic'
loop_
_space_group_symop_operation_xyz
x,y,z
1/2-x,-y,z
1/2+x,-y,-z
-x,y,-z
-x,-y,-z
1/2+x,y,-z
1/2-x,y,z
x,-y,z
loop_
_atom_site_type_symbol
_atom_site_label
_atom_site_fract_x
_atom_site_fract_y
_atom_site_fract_z
Si Si1 0.579657 0.500000 0.444754
Si Si2 0.585332 0.631451 0.051744
Si Si3 0.579223 0.629299 0.727863
Si Si4 0.084573 0.368987 0.154026
Si Si5 0.081972 0.870854 0.446213
Si Si6 0.921802 0.290705 0.373522
O O1 0.750000 0.500000 0.454466
O O2 0.500000 0.500000 0.500000
O O3 0.545895 0.605522 0.410275
O O4 0.750000 0.664868 0.049003
O O5 0.582399 0.500000 0.052075
O O6 0.511740 0.667510 0.105705
O O7 0.500000 0.665790 0.000000
O O8 0.750000 0.648822 0.720630
O O9 0.558069 0.500000 0.723885
O O10 0.540722 0.663187 0.787233
O O11 0.486207 0.685298 0.683444
O O12 0.250000 0.337252 0.145642
O O13 0.082254 0.500000 0.154108
O O14 0.250000 0.840507 0.449236
O O15 0.000000 0.842580 0.500000
O O16 0.001418 0.809641 0.399916
O O17 0.073978 0.000000 0.439929
O O18 0.750000 0.276742 0.371938
#
# Coordination Sequence:
#
# PCOD9405899 Si02
#       6
#     4   8   8   8   8   8
#     4  10  22  34  44  64  90 116 141 172 211 254
#     4   9  15  21  30  45  65  92 128 171 216 254
#     4   9  17  29  44  61  83 114 147 178 216 259
#     4   8  14  24  36  50  70  98 134 173 211 252
#     4  10  21  37  55  73  91 112 142 179 219 264
#     4  11  21  33  48  68  93 118 147 179 216 261
#
# _framework density 14.885541
#
# number of rings (size 3 to 8) (size 9 to 14) (size 15 to 20)
#    0.000    2.545    0.909    3.273    0.000    6.909 
#    0.000    1.818    0.000    0.000    0.000    0.000 
#    0.000    0.000    0.000    0.000    0.000    0.909 
#
# Total GULP energy -245232.053794 kJ/mol
# GULP energy per Si atom -5573.455768 kJ/mol
# Density = 1.485166 g / cm^3
# Si number density = 14.885541 Si / 1000 Ang^3
#
#
#
# Elastic Constant Matrix: (Units=GPa)
#
#
# Indices 1 2 3 4 5 6 
#
# 1 107.0205 26.7193 96.3623 0.0000 0.0000 0.0000
# 2 26.7193 16.3082 25.2587 0.0000 0.0000 0.0000
# 3 96.3623 25.2587 159.2447 0.0000 0.0000 0.0000
# 4 0.0000 0.0000 0.0000 10.1179 0.0000 0.0000
# 5 0.0000 0.0000 0.0000 0.0000 33.7277 0.0000
# 6 0.0000 0.0000 0.0000 0.0000 0.0000 13.4437
#
#
#
# Elastic Compliance Matrix: (Units=1/GPa)
#
#
# Indices 1 2 3 4 5 6 
#
# 1 0.026260 -0.024409 -0.012019 0.000000 0.000000 0.000000
# 2 -0.024409 0.103978 -0.001722 0.000000 0.000000 0.000000
# 3 -0.012019 -0.001722 0.013826 0.000000 0.000000 0.000000
# 4 0.000000 0.000000 0.000000 0.098835 0.000000 0.000000
# 5 0.000000 0.000000 0.000000 0.000000 0.029649 0.000000
# 6 0.000000 0.000000 0.000000 0.000000 0.000000 0.074384
#
#
# Mechanical properties :
#
#
# Convention : Reuss Voigt Hill
#
# Bulk Modulus (GPa) = 14.75721 64.36156 39.55939
# Shear Modulus (GPa) = 11.21530 20.40672 15.81101
#
# Velocity S-wave (km/s) = 2.74786 3.70660 3.26263
# Velocity P-wave (km/s) = 4.47246 7.85175 6.38956
#
# Compressibility (1/GPa) = 0.06776347
#
# Stress axis : x y z
#
# Youngs Moduli (GPa) = 38.08075 9.61743 72.32955
#
# Poissons Ratio (x) = 0.23475 0.86931
# Poissons Ratio (y) = 0.92952 0.12455
# Poissons Ratio (z) = 0.45768 0.01656
#
# Static dielectric constant tensor:
#      x y z
#    x 1.493870 0.000000 0.000000 
#    y 0.000000 1.470750 0.000000 
#    z 0.000000 0.000000 1.495040 
# 
# From -- ./inp_files/34526.got.cif
#   From: 2010.05.17/outbox.cif.g08.bks.cpg/sg51_18_cif.got.tgz:34526.got - 2010.06.03 11:52:47.
