data_PCOD9405985
_publ_section_title
;
Structure prediction by ZEFSAII (Michael W. Deem and Ramdas Pophale) SiO2 
 PCOD9405985
Probable space group: P M M A
;
_chemical_formula_sum "Si O2"
_cell_formula_units_Z 36
_cell_length_a 7.618145
_cell_length_b 11.499461
_cell_length_c 18.472019
_cell_angle_alpha 90.000000
_cell_angle_beta 90.000000
_cell_angle_gamma 90.000000
_cell_volume 1618.233121
_symmetry_space_group_name_H-M "P M M A"
_symmetry_group_IT_number 51
_symmetry_cell_setting 'orthorhombic'
loop_
_space_group_symop_operation_xyz
x,y,z
1/2-x,-y,z
1/2+x,-y,-z
-x,y,-z
-x,-y,-z
1/2+x,y,-z
1/2-x,y,z
x,-y,z
loop_
_atom_site_type_symbol
_atom_site_label
_atom_site_fract_x
_atom_site_fract_y
_atom_site_fract_z
Si Si1 0.040809 0.000000 0.415854
Si Si2 0.039117 0.371511 0.085379
Si Si3 0.452863 0.129493 0.151239
Si Si4 0.451972 0.198575 0.691868
Si Si5 0.461202 0.631034 0.578486
O O1 0.000000 0.000000 0.500000
O O2 0.960262 0.891480 0.373953
O O3 0.250000 0.000000 0.405324
O O4 0.250000 0.371868 0.096400
O O5 0.975014 0.500000 0.111709
O O6 0.970539 0.250079 0.119130
O O7 0.000000 0.367538 0.000000
O O8 0.250000 0.125169 0.126937
O O9 0.456497 0.148008 0.237741
O O10 0.529263 0.000000 0.135271
O O11 0.250000 0.218136 0.713297
O O12 0.529148 0.310749 0.651870
O O13 0.500000 0.687508 0.500000
O O14 0.250000 0.630469 0.584554
O O15 0.528840 0.500000 0.574529
#
# Coordination Sequence:
#
# PCOD9405985 Si02
#       5
#     4   8   8   8   8
#     4  12  24  38  56  78 107 144 187 236 286 334
#     4   9  19  37  60  86 116 150 191 236 284 340
#     4  10  21  37  56  80 114 153 188 231 285 340
#     4  11  22  36  55  80 109 143 186 232 279 336
#     4   9  19  35  53  75 104 137 176 226 280 333
#
# _framework density 22.246486999999998
#
# number of rings (size 3 to 8) (size 9 to 14) (size 15 to 20)
#    0.000    2.000    1.111    2.333    0.000    5.778 
#    0.000    0.000    0.000    0.000    0.000    0.000 
#    0.000    0.000    0.000    0.000    0.000    0.000 
#
# Total GULP energy -200700.664462 kJ/mol
# GULP energy per Si atom -5575.018457 kJ/mol
# Density = 2.219585 g / cm^3
# Si number density = 22.246487 Si / 1000 Ang^3
#
#
#
# Elastic Constant Matrix: (Units=GPa)
#
#
# Indices 1 2 3 4 5 6 
#
# 1 60.2777 1.2528 -10.4002 0.0000 0.0000 0.0000
# 2 1.2528 187.4416 61.5073 0.0000 0.0000 0.0000
# 3 -10.4002 61.5073 63.4607 0.0000 0.0000 0.0000
# 4 0.0000 0.0000 0.0000 16.4004 0.0000 0.0000
# 5 0.0000 0.0000 0.0000 0.0000 24.3663 0.0000
# 6 0.0000 0.0000 0.0000 0.0000 0.0000 3.3926
#
#
#
# Elastic Compliance Matrix: (Units=1/GPa)
#
#
# Indices 1 2 3 4 5 6 
#
# 1 0.017371 -0.001540 0.004339 0.000000 0.000000 0.000000
# 2 -0.001540 0.007960 -0.007967 0.000000 0.000000 0.000000
# 3 0.004339 -0.007967 0.024191 0.000000 0.000000 0.000000
# 4 0.000000 0.000000 0.000000 0.060974 0.000000 0.000000
# 5 0.000000 0.000000 0.000000 0.000000 0.041040 0.000000
# 6 0.000000 0.000000 0.000000 0.000000 0.000000 0.294763
#
#
# Mechanical properties :
#
#
# Convention : Reuss Voigt Hill
#
# Bulk Modulus (GPa) = 25.51954 46.21108 35.86531
# Shear Modulus (GPa) = 10.64519 26.08653 18.36586
#
# Velocity S-wave (km/s) = 2.18986 3.42806 2.87638
# Velocity P-wave (km/s) = 4.22968 6.04038 5.21423
#
# Compressibility (1/GPa) = 0.03918565
#
# Stress axis : x y z
#
# Youngs Moduli (GPa) = 57.56849 125.63492 41.33830
#
# Poissons Ratio (x) = 0.19348 -0.17938
# Poissons Ratio (y) = 0.08866 0.32934
# Poissons Ratio (z) = -0.24981 1.00093
#
# Static dielectric constant tensor:
#      x y z
#    x 1.830850 0.000000 0.000000 
#    y 0.000000 1.995540 0.000000 
#    z 0.000000 0.000000 1.771660 
# 
# From -- ./inp_files/27038.got.cif
#   From: 2010.05.17/outbox.cif.g08.bks.cpg/sg51_14_cif.got.tgz:27038.got - 2010.06.03 11:52:47.
