data_PCOD9405295
_publ_section_title
;
Structure prediction by ZEFSAII (Michael W. Deem and Ramdas Pophale) SiO2 
 PCOD9405295
Probable space group: P M M A
;
_chemical_formula_sum "Si O2"
_cell_formula_units_Z 64
_cell_length_a 7.928426
_cell_length_b 20.917126
_cell_length_c 20.546565
_cell_angle_alpha 90.000000
_cell_angle_beta 90.000000
_cell_angle_gamma 90.000000
_cell_volume 3407.439990
_symmetry_space_group_name_H-M "P M M A"
_symmetry_group_IT_number 51
_symmetry_cell_setting 'orthorhombic'
loop_
_space_group_symop_operation_xyz
x,y,z
1/2-x,-y,z
1/2+x,-y,-z
-x,y,-z
-x,-y,-z
1/2+x,y,-z
1/2-x,y,z
x,-y,z
loop_
_atom_site_type_symbol
_atom_site_label
_atom_site_fract_x
_atom_site_fract_y
_atom_site_fract_z
Si Si1 0.044964 0.431668 0.104796
Si Si2 0.050870 0.928233 0.571518
Si Si3 0.544163 0.747951 0.789923
Si Si4 0.052231 0.180822 0.330747
Si Si5 0.952234 0.291972 0.428160
Si Si6 0.552174 0.431137 0.392365
Si Si7 0.452988 0.291356 0.070029
Si Si8 0.047281 0.395411 0.250711
O O1 0.250000 0.431242 0.099503
O O2 0.982577 0.500000 0.079039
O O3 0.983064 0.365070 0.074651
O O4 0.006079 0.427425 0.181782
O O5 0.250000 0.934069 0.569849
O O6 0.000000 0.903467 0.500000
O O7 0.010749 0.879724 0.629139
O O8 0.976761 0.000000 0.579487
O O9 0.750000 0.750369 0.791015
O O10 0.480992 0.802290 0.740781
O O11 0.487547 0.745272 0.865003
O O12 0.501309 0.679042 0.758627
O O13 0.250000 0.171361 0.322812
O O14 0.023138 0.243488 0.375060
O O15 0.750000 0.292684 0.420912
O O16 0.019752 0.364571 0.419486
O O17 0.000000 0.269490 0.500000
O O18 0.750000 0.431970 0.409563
O O19 0.477897 0.500000 0.412425
O O20 0.535653 0.424549 0.314340
O O21 0.250000 0.294014 0.074033
O O22 0.500000 0.264190 0.000000
O O23 0.250000 0.399792 0.259109
#
# Coordination Sequence:
#
# PCOD9405295 Si02
#       8
#     8   8   8   8   8   8   8   8
#     4   8  14  24  40  61  84 113 150 193 240 296
#     4  10  21  37  56  81 115 150 179 205 238 285
#     4   8  16  30  49  71  96 124 158 203 248 291
#     4  11  20  34  57  80 103 132 170 211 248 290
#     4  11  23  37  51  68  93 125 162 206 255 306
#     4  10  21  34  46  63  89 117 148 200 265 312
#     4   9  17  30  45  63  91 124 158 198 246 299
#     4   9  15  28  48  67  84 110 154 198 242 299
#
# _framework density 18.782429
#
# number of rings (size 3 to 8) (size 9 to 14) (size 15 to 20)
#    0.000    2.500    1.250    3.375    0.000    2.500 
#    0.000    3.750    0.000    0.750    0.000    0.000 
#    0.000    0.500    0.000    1.125    0.000    2.000 
#
# Total GULP energy -356964.695585 kJ/mol
# GULP energy per Si atom -5577.573369 kJ/mol
# Density = 1.873968 g / cm^3
# Si number density = 18.782429 Si / 1000 Ang^3
#
#
#
# Elastic Constant Matrix: (Units=GPa)
#
#
# Indices 1 2 3 4 5 6 
#
# 1 21.4831 9.6241 0.0191 0.0000 0.0000 0.0000
# 2 9.6241 80.7231 50.6496 0.0000 0.0000 0.0000
# 3 0.0191 50.6496 124.7555 0.0000 0.0000 0.0000
# 4 0.0000 0.0000 0.0000 6.7381 0.0000 0.0000
# 5 0.0000 0.0000 0.0000 0.0000 18.4031 0.0000
# 6 0.0000 0.0000 0.0000 0.0000 0.0000 29.3384
#
#
#
# Elastic Compliance Matrix: (Units=1/GPa)
#
#
# Indices 1 2 3 4 5 6 
#
# 1 0.050135 -0.008014 0.003246 0.000000 0.000000 0.000000
# 2 -0.008014 0.017903 -0.007267 0.000000 0.000000 0.000000
# 3 0.003246 -0.007267 0.010966 0.000000 0.000000 0.000000
# 4 0.000000 0.000000 0.000000 0.148410 0.000000 0.000000
# 5 0.000000 0.000000 0.000000 0.000000 0.054339 0.000000
# 6 0.000000 0.000000 0.000000 0.000000 0.000000 0.034085
#
#
# Mechanical properties :
#
#
# Convention : Reuss Voigt Hill
#
# Bulk Modulus (GPa) = 18.20380 38.61635 28.41008
# Shear Modulus (GPa) = 13.95791 22.00720 17.98256
#
# Velocity S-wave (km/s) = 2.72901 3.42671 3.09757
# Velocity P-wave (km/s) = 4.43204 6.02170 5.28696
#
# Compressibility (1/GPa) = 0.05493358
#
# Stress axis : x y z
#
# Youngs Moduli (GPa) = 19.94601 55.85542 91.19371
#
# Poissons Ratio (x) = 0.44762 -0.29601
# Poissons Ratio (y) = 0.15985 0.66274
# Poissons Ratio (z) = -0.06474 0.40592
#
# Static dielectric constant tensor:
#      x y z
#    x 1.676360 0.000000 0.000000 
#    y 0.000000 1.682540 0.000000 
#    z 0.000000 0.000000 1.665440 
# 
# From -- ./inp_files/32610.got.cif
#   From: 2010.05.17/outbox.cif.g08.bks.cpg/sg51_17_cif.got.tgz:32610.got - 2010.06.03 11:52:47.
