data_PCOD9405691
_publ_section_title
;
Structure prediction by ZEFSAII (Michael W. Deem and Ramdas Pophale) SiO2 
 PCOD9405691
Probable space group: P M M A
;
_chemical_formula_sum "Si O2"
_cell_formula_units_Z 64
_cell_length_a 9.355054
_cell_length_b 24.689953
_cell_length_c 15.362880
_cell_angle_alpha 90.000000
_cell_angle_beta 90.000000
_cell_angle_gamma 90.000000
_cell_volume 3548.454168
_symmetry_space_group_name_H-M "P M M A"
_symmetry_group_IT_number 51
_symmetry_cell_setting 'orthorhombic'
loop_
_space_group_symop_operation_xyz
x,y,z
1/2-x,-y,z
1/2+x,-y,-z
-x,y,-z
-x,-y,-z
1/2+x,y,-z
1/2-x,y,z
x,-y,z
loop_
_atom_site_type_symbol
_atom_site_label
_atom_site_fract_x
_atom_site_fract_y
_atom_site_fract_z
Si Si1 0.414788 0.271821 0.084603
Si Si2 0.581652 0.436250 0.259113
Si Si3 0.085631 0.434089 0.085939
Si Si4 0.585876 0.859878 0.917160
Si Si5 0.421247 0.650515 0.592429
Si Si6 0.418796 0.062215 0.591502
Si Si7 0.578703 0.731312 0.719469
Si Si8 0.421047 0.860541 0.276686
O O1 0.250000 0.288181 0.077122
O O2 0.417501 0.205972 0.082527
O O3 0.465948 0.285856 0.182091
O O4 0.500000 0.290872 0.000000
O O5 0.750000 0.430720 0.237499
O O6 0.553145 0.500000 0.274245
O O7 0.490014 0.417897 0.175861
O O8 0.553483 0.401421 0.345181
O O9 0.250000 0.416735 0.083151
O O10 0.084033 0.500000 0.085515
O O11 0.000000 0.416882 0.000000
O O12 0.750000 0.876202 0.925195
O O13 0.533689 0.875654 0.821625
O O14 0.500000 0.879729 0.000000
O O15 0.500000 0.645424 0.500000
O O16 0.250000 0.656999 0.581122
O O17 0.489836 0.699835 0.647047
O O18 0.500000 0.066571 0.500000
O O19 0.250000 0.072247 0.580474
O O20 0.490267 0.104450 0.656292
O O21 0.436613 0.000000 0.622413
O O22 0.750000 0.721033 0.711543
O O23 0.557962 0.796017 0.711712
O O24 0.250000 0.870104 0.284753
#
# Coordination Sequence:
#
# PCOD9405691 Si02
#       8
#     8   8   8   8   8   8   8   8
#     4   8  14  26  46  72 102 135 168 204 246 293
#     4   9  19  37  58  79 104 134 172 217 260 308
#     4   9  16  27  48  79 111 141 171 205 250 304
#     4   8  14  25  43  70 102 134 169 207 248 294
#     4  11  24  40  58  78 101 133 171 214 267 318
#     4  10  21  36  54  77 104 134 170 215 266 315
#     4   9  19  36  55  77 108 142 175 212 254 304
#     4   9  18  33  54  79 106 139 177 214 255 304
#
# _framework density 18.036021999999999
#
# number of rings (size 3 to 8) (size 9 to 14) (size 15 to 20)
#    0.000    2.875    0.000    2.625    0.000    5.500 
#    0.000    3.125    0.000    1.875    0.000    0.000 
#    0.000    0.000    0.000    0.000    0.000    0.000 
#
# Total GULP energy -356917.980290 kJ/mol
# GULP energy per Si atom -5576.843442 kJ/mol
# Density = 1.799497 g / cm^3
# Si number density = 18.036022 Si / 1000 Ang^3
#
#
#
# Elastic Constant Matrix: (Units=GPa)
#
#
# Indices 1 2 3 4 5 6 
#
# 1 98.5597 52.9557 101.9853 0.0000 0.0000 0.0000
# 2 52.9557 66.5219 61.0520 0.0000 0.0000 0.0000
# 3 101.9853 61.0520 176.1315 0.0000 0.0000 0.0000
# 4 0.0000 0.0000 0.0000 96.8224 0.0000 0.0000
# 5 0.0000 0.0000 0.0000 0.0000 39.3680 0.0000
# 6 0.0000 0.0000 0.0000 0.0000 0.0000 -1.4869
#
#
#
# Elastic Compliance Matrix: (Units=1/GPa)
#
#
# Indices 1 2 3 4 5 6 
#
# 1 0.030605 -0.011878 -0.013604 0.000000 0.000000 0.000000
# 2 -0.011878 0.026656 -0.002362 0.000000 0.000000 0.000000
# 3 -0.013604 -0.002362 0.014373 0.000000 0.000000 0.000000
# 4 0.000000 0.000000 0.000000 0.010328 0.000000 0.000000
# 5 0.000000 0.000000 0.000000 0.000000 0.025401 0.000000
# 6 0.000000 0.000000 0.000000 0.000000 0.000000 -0.672558
#
#
# Mechanical properties :
#
#
# Convention : Reuss Voigt Hill
#
# Bulk Modulus (GPa) = 62.70998 85.91103 74.31050
# Shear Modulus (GPa) = -9.91688 35.28871 12.68591
#
# Velocity S-wave (km/s) = -2.34740 4.42811 2.65498
# Velocity P-wave (km/s) = 5.24382 8.59538 7.11963
#
# Compressibility (1/GPa) = 0.01594643
#
# Stress axis : x y z
#
# Youngs Moduli (GPa) = 32.67449 37.51472 69.57358
#
# Poissons Ratio (x) = 0.44561 0.94647
# Poissons Ratio (y) = 0.38812 0.16433
# Poissons Ratio (z) = 0.44450 0.08861
#
# Static dielectric constant tensor:
#      x y z
#    x 1.601630 0.000000 0.000000 
#    y 0.000000 1.629570 0.000000 
#    z 0.000000 0.000000 1.602710 
# 
# From -- ./inp_files/22198.got.cif
#   From: 2010.05.17/outbox.cif.g08.bks.cpg/sg51_12_cif.got.tgz:22198.got - 2010.06.03 11:52:47.
