data_PCOD9405403
_publ_section_title
;
Structure prediction by ZEFSAII (Michael W. Deem and Ramdas Pophale) SiO2 
 PCOD9405403
Probable space group: P M M A
;
_chemical_formula_sum "Si O2"
_cell_formula_units_Z 36
_cell_length_a 7.484483
_cell_length_b 24.848054
_cell_length_c 9.058975
_cell_angle_alpha 90.000000
_cell_angle_beta 90.000000
_cell_angle_gamma 90.000000
_cell_volume 1684.741406
_symmetry_space_group_name_H-M "P M M A"
_symmetry_group_IT_number 51
_symmetry_cell_setting 'orthorhombic'
loop_
_space_group_symop_operation_xyz
x,y,z
1/2-x,-y,z
1/2+x,-y,-z
-x,y,-z
-x,-y,-z
1/2+x,y,-z
1/2-x,y,z
x,-y,z
loop_
_atom_site_type_symbol
_atom_site_label
_atom_site_fract_x
_atom_site_fract_y
_atom_site_fract_z
Si Si1 0.964120 0.282822 0.326899
Si Si2 0.464397 0.825386 0.825099
Si Si3 0.964107 0.500000 0.326496
Si Si4 0.535943 0.942202 0.176276
Si Si5 0.964083 0.608655 0.173420
O O1 0.750000 0.282072 0.305207
O O2 0.034280 0.227019 0.258727
O O3 0.033635 0.336214 0.245536
O O4 0.000000 0.285978 0.500000
O O5 0.250000 0.826645 0.806979
O O6 0.532684 0.883997 0.771557
O O7 0.500000 0.820216 0.000000
O O8 0.750000 0.500000 0.305494
O O9 0.033714 0.554585 0.251312
O O10 0.000000 0.500000 0.500000
O O11 0.750000 0.942449 0.196770
O O12 0.467067 0.000000 0.233796
O O13 0.500000 0.942144 0.000000
O O14 0.750000 0.608904 0.194553
O O15 0.000000 0.607386 0.000000
#
# Coordination Sequence:
#
# PCOD9405403 Si02
#       5
#     8   8   4   8   8
#     4  10  21  35  50  70  96 126 161 198 237 284
#     4   9  17  29  46  69  94 120 154 194 235 282
#     4  10  21  36  54  78 106 134 165 198 234 280
#     4   8  13  22  38  61  88 116 146 184 230 276
#     4  10  21  36  54  77 102 128 162 201 239 282
#
# _framework density 21.368262999999999
#
# number of rings (size 3 to 8) (size 9 to 14) (size 15 to 20)
#    0.000    2.667    0.000    1.667    0.000    2.667 
#    0.000    0.000    0.000    0.667    0.000    0.000 
#    0.000    0.000    0.000    0.000    0.000    0.000 
#
# Total GULP energy -200847.141860 kJ/mol
# GULP energy per Si atom -5579.087274 kJ/mol
# Density = 2.131963 g / cm^3
# Si number density = 21.368263 Si / 1000 Ang^3
#
#
#
# Elastic Constant Matrix: (Units=GPa)
#
#
# Indices 1 2 3 4 5 6 
#
# 1 64.8281 16.1177 -12.7865 0.0000 0.0000 0.0000
# 2 16.1177 304.9658 116.8947 0.0000 0.0000 0.0000
# 3 -12.7865 116.8947 114.9819 0.0000 0.0000 0.0000
# 4 0.0000 0.0000 0.0000 -45.1098 0.0000 0.0000
# 5 0.0000 0.0000 0.0000 0.0000 22.7049 0.0000
# 6 0.0000 0.0000 0.0000 0.0000 0.0000 15.8978
#
#
#
# Elastic Compliance Matrix: (Units=1/GPa)
#
#
# Indices 1 2 3 4 5 6 
#
# 1 0.016992 -0.002658 0.004592 0.000000 0.000000 0.000000
# 2 -0.002658 0.005789 -0.006180 0.000000 0.000000 0.000000
# 3 0.004592 -0.006180 0.015491 0.000000 0.000000 0.000000
# 4 0.000000 0.000000 0.000000 -0.022168 0.000000 0.000000
# 5 0.000000 0.000000 0.000000 0.000000 0.044043 0.000000
# 6 0.000000 0.000000 0.000000 0.000000 0.000000 0.062902
#
#
# Mechanical properties :
#
#
# Convention : Reuss Voigt Hill
#
# Bulk Modulus (GPa) = 33.58160 80.58086 57.08123
# Shear Modulus (GPa) = 35.34372 23.00192 29.17282
#
# Velocity S-wave (km/s) = 4.07139 3.28449 3.69892
# Velocity P-wave (km/s) = 6.15235 7.22331 6.70923
#
# Compressibility (1/GPa) = 0.02977822
#
# Stress axis : x y z
#
# Youngs Moduli (GPa) = 58.85121 172.75556 64.55400
#
# Poissons Ratio (x) = 0.45921 -0.29643
# Poissons Ratio (y) = 0.15644 0.39897
# Poissons Ratio (z) = -0.27024 1.06770
#
# Static dielectric constant tensor:
#      x y z
#    x 1.777530 0.000000 0.000000 
#    y 0.000000 1.839740 0.000000 
#    z 0.000000 0.000000 1.675380 
# 
# From -- ./inp_files/5245.got.cif
#   From: 2010.05.17/outbox.cif.g08.bks.cpg/sg51_3_cif.got.tgz:5245.got - 2010.06.03 11:52:47.
