data_PCOD9405244
_publ_section_title
;
Structure prediction by ZEFSAII (Michael W. Deem and Ramdas Pophale) SiO2 
 PCOD9405244
Probable space group: P M M A
;
_chemical_formula_sum "Si O2"
_cell_formula_units_Z 48
_cell_length_a 18.173065
_cell_length_b 15.549178
_cell_length_c 8.985464
_cell_angle_alpha 90.000000
_cell_angle_beta 90.000000
_cell_angle_gamma 90.000000
_cell_volume 2539.078474
_symmetry_space_group_name_H-M "P M M A"
_symmetry_group_IT_number 51
_symmetry_cell_setting 'orthorhombic'
loop_
_space_group_symop_operation_xyz
x,y,z
1/2-x,-y,z
1/2+x,-y,-z
-x,y,-z
-x,-y,-z
1/2+x,y,-z
1/2-x,y,z
x,-y,z
loop_
_atom_site_type_symbol
_atom_site_label
_atom_site_fract_x
_atom_site_fract_y
_atom_site_fract_z
Si Si1 0.663265 0.000000 0.198408
Si Si2 0.570761 0.167583 0.701929
Si Si3 0.164827 0.352045 0.633371
Si Si4 0.928976 0.500000 0.212785
Si Si5 0.576279 0.000000 0.906124
Si Si6 0.096900 0.500000 0.139892
Si Si7 0.100231 0.831406 0.643800
Si Si8 0.664362 0.667485 0.720657
O O1 0.628844 0.084760 0.272934
O O2 0.750000 0.000000 0.220278
O O3 0.640958 0.000000 0.026161
O O4 0.483990 0.186481 0.689285
O O5 0.599511 0.151644 0.533791
O O6 0.614376 0.250626 0.759036
O O7 0.579806 0.084289 0.803779
O O8 0.250000 0.373977 0.666114
O O9 0.109067 0.417302 0.711744
O O10 0.147486 0.253563 0.676499
O O11 0.154273 0.354533 0.454603
O O12 0.017497 0.500000 0.222453
O O13 0.913475 0.500000 0.036877
O O14 0.500000 0.000000 0.000000
O O15 0.140424 0.415298 0.187795
O O16 0.750000 0.688015 0.743027
#
# Coordination Sequence:
#
# PCOD9405244 Si02
#       8
#     4   8   8   4   4   4   8   8
#     4  12  25  39  59  89 123 160 198 246 309 363
#     4  10  21  39  66  90 117 158 206 246 302 356
#     4  10  21  38  61  89 119 152 196 252 307 355
#     4  11  24  39  58  86 118 157 206 245 298 364
#     4  12  23  41  60  89 126 167 197 250 297 365
#     4  11  24  41  58  86 122 163 200 247 298 364
#     4  10  20  39  64  91 116 153 203 254 297 360
#     4  10  22  40  63  90 120 155 198 250 304 358
#
# _framework density 18.904495000000001
#
# number of rings (size 3 to 8) (size 9 to 14) (size 15 to 20)
#    0.000    1.500    1.667    3.000    0.000    9.333 
#    3.000    0.833    0.000    0.000    0.000    0.000 
#    0.000    0.000    0.000    0.000    0.000    0.000 
#
# Total GULP energy -268312.970667 kJ/mol
# GULP energy per Si atom -5589.853556 kJ/mol
# Density = 1.886147 g / cm^3
# Si number density = 18.904495 Si / 1000 Ang^3
#
#
#
# Elastic Constant Matrix: (Units=GPa)
#
#
# Indices 1 2 3 4 5 6 
#
# 1 89.6891 45.0001 29.4737 0.0000 0.0000 0.0000
# 2 45.0001 130.6730 47.0389 0.0000 0.0000 0.0000
# 3 29.4737 47.0389 38.1099 0.0000 0.0000 0.0000
# 4 0.0000 0.0000 0.0000 -108.7455 0.0000 0.0000
# 5 0.0000 0.0000 0.0000 0.0000 26.0741 0.0000
# 6 0.0000 0.0000 0.0000 0.0000 0.0000 -23.1833
#
#
#
# Elastic Compliance Matrix: (Units=1/GPa)
#
#
# Indices 1 2 3 4 5 6 
#
# 1 0.015181 -0.001802 -0.009516 0.000000 0.000000 0.000000
# 2 -0.001802 0.013986 -0.015868 0.000000 0.000000 0.000000
# 3 -0.009516 -0.015868 0.053186 0.000000 0.000000 0.000000
# 4 0.000000 0.000000 0.000000 -0.009196 0.000000 0.000000
# 5 0.000000 0.000000 0.000000 0.000000 0.038352 0.000000
# 6 0.000000 0.000000 0.000000 0.000000 0.000000 -0.043134
#
#
# Mechanical properties :
#
#
# Convention : Reuss Voigt Hill
#
# Bulk Modulus (GPa) = 35.74155 55.72192 45.73173
# Shear Modulus (GPa) = 37.85721 -12.04032 12.90844
#
# Velocity S-wave (km/s) = 4.47984 -2.52643 2.61593
# Velocity P-wave (km/s) = 6.76063 4.58574 5.77646
#
# Compressibility (1/GPa) = 0.02797865
#
# Stress axis : x y z
#
# Youngs Moduli (GPa) = 65.87096 71.50218 18.80192
#
# Poissons Ratio (x) = 0.12887 0.17892
# Poissons Ratio (y) = 0.11872 0.29836
# Poissons Ratio (z) = 0.62685 1.13463
#
# Static dielectric constant tensor:
#      x y z
#    x 1.642630 0.000000 0.000000 
#    y 0.000000 1.620250 0.000000 
#    z 0.000000 0.000000 1.642390 
# 
# From -- ./inp_files/9754.got.cif
#   From: 2010.05.17/outbox.cif.g08.bks.cpg/sg51_5_cif.got.tgz:9754.got - 2010.06.03 11:52:47.
