data_PCOD9405832
_publ_section_title
;
Structure prediction by ZEFSAII (Michael W. Deem and Ramdas Pophale) SiO2 
 PCOD9405832
Probable space group: P M M A
;
_chemical_formula_sum "Si O2"
_cell_formula_units_Z 56
_cell_length_a 19.115542
_cell_length_b 9.212373
_cell_length_c 16.882225
_cell_angle_alpha 90.000000
_cell_angle_beta 90.000000
_cell_angle_gamma 90.000000
_cell_volume 2972.951432
_symmetry_space_group_name_H-M "P M M A"
_symmetry_group_IT_number 51
_symmetry_cell_setting 'orthorhombic'
loop_
_space_group_symop_operation_xyz
x,y,z
1/2-x,-y,z
1/2+x,-y,-z
-x,y,-z
-x,-y,-z
1/2+x,y,-z
1/2-x,y,z
x,-y,z
loop_
_atom_site_type_symbol
_atom_site_label
_atom_site_fract_x
_atom_site_fract_y
_atom_site_fract_z
Si Si1 0.165923 0.665866 0.182790
Si Si2 0.830785 0.674134 0.360234
Si Si3 0.917923 0.173403 0.498641
Si Si4 0.087531 0.172629 0.321401
Si Si5 0.946007 0.326246 0.070030
Si Si6 0.166626 0.169690 0.021537
Si Si7 0.043311 0.673049 0.748181
O O1 0.250000 0.663536 0.185994
O O2 0.139912 0.500000 0.180128
O O3 0.136724 0.748384 0.258534
O O4 0.146016 0.748605 0.102522
O O5 0.750000 0.722204 0.354164
O O6 0.830671 0.500000 0.371225
O O7 0.871632 0.746182 0.433589
O O8 0.878299 0.703552 0.282647
O O9 0.891410 0.200535 0.587913
O O10 0.000000 0.216867 0.500000
O O11 0.916070 0.000000 0.483372
O O12 0.010711 0.236862 0.304548
O O13 0.087387 0.000000 0.308960
O O14 0.936073 0.500000 0.066494
O O15 0.968336 0.290899 0.159522
O O16 0.874698 0.245028 0.049025
O O17 0.000000 0.286330 0.000000
O O18 0.250000 0.184237 0.012370
O O19 0.149537 0.000000 0.027349
O O20 0.030928 0.500000 0.738103
#
# Coordination Sequence:
#
# PCOD9405832 Si02
#       7
#     8   8   8   8   8   8   8
#     4  10  21  37  57  82 114 151 190 234 287 346
#     4  10  22  39  59  86 118 153 197 245 291 342
#     4  10  21  39  60  84 115 151 192 235 285 350
#     4  11  22  36  59  86 115 149 189 235 285 343
#     4  10  21  36  56  84 116 151 195 242 288 344
#     4  10  21  37  57  82 113 149 190 236 287 343
#     4  10  21  37  58  84 116 154 193 239 291 343
#
# _framework density 18.836500000000001
#
# number of rings (size 3 to 8) (size 9 to 14) (size 15 to 20)
#    0.000    1.857    1.429    2.143    0.000    6.571 
#    0.000    4.286    0.000    0.000    0.000    0.000 
#    0.000    0.000    0.000    0.000    0.000    0.000 
#
# Total GULP energy -312736.000265 kJ/mol
# GULP energy per Si atom -5584.571433 kJ/mol
# Density = 1.879363 g / cm^3
# Si number density = 18.836500 Si / 1000 Ang^3
#
#
#
# Elastic Constant Matrix: (Units=GPa)
#
#
# Indices 1 2 3 4 5 6 
#
# 1 68.6570 21.7858 30.6972 0.0000 0.0000 0.0000
# 2 21.7858 36.5183 36.2727 0.0000 0.0000 0.0000
# 3 30.6972 36.2727 87.9047 0.0000 0.0000 0.0000
# 4 0.0000 0.0000 0.0000 25.8667 0.0000 0.0000
# 5 0.0000 0.0000 0.0000 0.0000 34.9606 0.0000
# 6 0.0000 0.0000 0.0000 0.0000 0.0000 30.4271
#
#
#
# Elastic Compliance Matrix: (Units=1/GPa)
#
#
# Indices 1 2 3 4 5 6 
#
# 1 0.018492 -0.007825 -0.003229 0.000000 0.000000 0.000000
# 2 -0.007825 0.049713 -0.017781 0.000000 0.000000 0.000000
# 3 -0.003229 -0.017781 0.019840 0.000000 0.000000 0.000000
# 4 0.000000 0.000000 0.000000 0.038660 0.000000 0.000000
# 5 0.000000 0.000000 0.000000 0.000000 0.028604 0.000000
# 6 0.000000 0.000000 0.000000 0.000000 0.000000 0.032865
#
#
# Mechanical properties :
#
#
# Convention : Reuss Voigt Hill
#
# Bulk Modulus (GPa) = 32.92023 41.17681 37.04852
# Shear Modulus (GPa) = 19.53376 25.20584 22.36980
#
# Velocity S-wave (km/s) = 3.22377 3.66203 3.44986
# Velocity P-wave (km/s) = 5.60104 6.30778 5.96489
#
# Compressibility (1/GPa) = 0.03037645
#
# Stress axis : x y z
#
# Youngs Moduli (GPa) = 54.07858 20.11564 50.40205
#
# Poissons Ratio (x) = 0.15740 0.16274
# Poissons Ratio (y) = 0.42314 0.89619
# Poissons Ratio (z) = 0.17461 0.35767
#
# Static dielectric constant tensor:
#      x y z
#    x 1.674190 0.000000 0.000000 
#    y 0.000000 1.622990 0.000000 
#    z 0.000000 0.000000 1.633140 
# 
# From -- ./inp_files/25638.got.cif
#   From: 2010.05.17/outbox.cif.g08.bks.cpg/sg51_13_cif.got.tgz:25638.got - 2010.06.03 11:52:47.
