data_PCOD9405645
_publ_section_title
;
Structure prediction by ZEFSAII (Michael W. Deem and Ramdas Pophale) SiO2 
 PCOD9405645
Probable space group: P M M A
;
_chemical_formula_sum "Si O2"
_cell_formula_units_Z 48
_cell_length_a 23.760285
_cell_length_b 9.198760
_cell_length_c 10.931082
_cell_angle_alpha 90.000000
_cell_angle_beta 90.000000
_cell_angle_gamma 90.000000
_cell_volume 2389.153678
_symmetry_space_group_name_H-M "P M M A"
_symmetry_group_IT_number 51
_symmetry_cell_setting 'orthorhombic'
loop_
_space_group_symop_operation_xyz
x,y,z
1/2-x,-y,z
1/2+x,-y,-z
-x,y,-z
-x,-y,-z
1/2+x,y,-z
1/2-x,y,z
x,-y,z
loop_
_atom_site_type_symbol
_atom_site_label
_atom_site_fract_x
_atom_site_fract_y
_atom_site_fract_z
Si Si1 0.683777 0.668459 0.677194
Si Si2 0.577999 0.326927 0.312676
Si Si3 0.686325 0.676508 0.174910
Si Si4 0.018994 0.831097 0.187423
Si Si5 0.381107 0.670872 0.065650
Si Si6 0.413558 0.832575 0.444095
O O1 0.750000 0.698048 0.677954
O O2 0.675119 0.500000 0.638177
O O3 0.657839 0.681048 0.813253
O O4 0.647944 0.773668 0.591806
O O5 0.571911 0.500000 0.310870
O O6 0.642499 0.286740 0.281489
O O7 0.537759 0.258035 0.210040
O O8 0.563845 0.263408 0.445039
O O9 0.750000 0.731001 0.187516
O O10 0.689261 0.500000 0.171002
O O11 0.656062 0.721306 0.048831
O O12 0.062333 0.760416 0.091949
O O13 0.050623 0.821776 0.319466
O O14 0.008446 0.000000 0.160553
O O15 0.395266 0.500000 0.048368
O O16 0.413351 0.000000 0.482865
#
# Coordination Sequence:
#
# PCOD9405645 Si02
#       6
#     8   8   8   8   8   8
#     4   9  17  30  52  81 107 134 174 223 269 313
#     4  11  22  35  55  81 108 141 181 222 263 315
#     4   9  19  36  57  81 109 141 176 216 263 312
#     4  10  21  37  56  79 109 141 174 219 273 322
#     4   9  17  33  58  83 106 135 175 220 264 314
#     4  10  21  36  53  75 106 144 181 219 270 324
#
# _framework density 20.090796000000001
#
# number of rings (size 3 to 8) (size 9 to 14) (size 15 to 20)
#    0.000    2.333    0.000    2.500    0.000    7.667 
#    0.000    6.667    0.000    5.000    0.000    0.000 
#    0.000    0.000    0.000    0.000    0.000    0.000 
#
# Total GULP energy -268099.779740 kJ/mol
# GULP energy per Si atom -5585.412078 kJ/mol
# Density = 2.004507 g / cm^3
# Si number density = 20.090796 Si / 1000 Ang^3
#
#
#
# Elastic Constant Matrix: (Units=GPa)
#
#
# Indices 1 2 3 4 5 6 
#
# 1 99.1901 45.6350 19.4294 0.0000 0.0000 0.0000
# 2 45.6350 75.4784 25.6880 0.0000 0.0000 0.0000
# 3 19.4294 25.6880 55.5650 0.0000 0.0000 0.0000
# 4 0.0000 0.0000 0.0000 10.8159 0.0000 0.0000
# 5 0.0000 0.0000 0.0000 0.0000 21.2684 0.0000
# 6 0.0000 0.0000 0.0000 0.0000 0.0000 10.3520
#
#
#
# Elastic Compliance Matrix: (Units=1/GPa)
#
#
# Indices 1 2 3 4 5 6 
#
# 1 0.014030 -0.008085 -0.001168 0.000000 0.000000 0.000000
# 2 -0.008085 0.020382 -0.006596 0.000000 0.000000 0.000000
# 3 -0.001168 -0.006596 0.021455 0.000000 0.000000 0.000000
# 4 0.000000 0.000000 0.000000 0.092457 0.000000 0.000000
# 5 0.000000 0.000000 0.000000 0.000000 0.047018 0.000000
# 6 0.000000 0.000000 0.000000 0.000000 0.000000 0.096600
#
#
# Mechanical properties :
#
#
# Convention : Reuss Voigt Hill
#
# Bulk Modulus (GPa) = 41.37535 45.74870 43.56203
# Shear Modulus (GPa) = 15.07408 17.78600 16.43004
#
# Velocity S-wave (km/s) = 2.74213 2.97859 2.86280
# Velocity P-wave (km/s) = 5.53756 5.88641 5.71465
#
# Compressibility (1/GPa) = 0.02416898
#
# Stress axis : x y z
#
# Youngs Moduli (GPa) = 71.27422 49.06298 46.61018
#
# Poissons Ratio (x) = 0.39669 0.05445
# Poissons Ratio (y) = 0.57627 0.30742
# Poissons Ratio (z) = 0.08326 0.32360
#
# Static dielectric constant tensor:
#      x y z
#    x 1.710780 0.000000 0.000000 
#    y 0.000000 1.670570 0.000000 
#    z 0.000000 0.000000 1.721810 
# 
# From -- ./inp_files/18559.got.cif
#   From: 2010.05.17/outbox.cif.g08.bks.cpg/sg51_10_cif.got.tgz:18559.got - 2010.06.03 11:52:47.
