data_PCOD9405813
_publ_section_title
;
Structure prediction by ZEFSAII (Michael W. Deem and Ramdas Pophale) SiO2 
 PCOD9405813
Probable space group: P M M A
;
_chemical_formula_sum "Si O2"
_cell_formula_units_Z 56
_cell_length_a 8.483160
_cell_length_b 19.946585
_cell_length_c 16.423878
_cell_angle_alpha 90.000000
_cell_angle_beta 90.000000
_cell_angle_gamma 90.000000
_cell_volume 2779.085579
_symmetry_space_group_name_H-M "P M M A"
_symmetry_group_IT_number 51
_symmetry_cell_setting 'orthorhombic'
loop_
_space_group_symop_operation_xyz
x,y,z
1/2-x,-y,z
1/2+x,-y,-z
-x,y,-z
-x,-y,-z
1/2+x,y,-z
1/2-x,y,z
x,-y,z
loop_
_atom_site_type_symbol
_atom_site_label
_atom_site_fract_x
_atom_site_fract_y
_atom_site_fract_z
Si Si1 0.060870 0.074402 0.592727
Si Si2 0.561936 0.787117 0.657493
Si Si3 0.057542 0.422274 0.748456
Si Si4 0.059613 0.784628 0.157924
Si Si5 0.062575 0.344767 0.586576
Si Si6 0.440486 0.927097 0.092541
Si Si7 0.062149 0.651491 0.913214
O O1 0.250000 0.079115 0.592958
O O2 0.000000 0.078591 0.500000
O O3 0.989712 0.137168 0.639764
O O4 0.015821 0.000000 0.623996
O O5 0.750000 0.782755 0.650647
O O6 0.513832 0.768806 0.749454
O O7 0.485763 0.732721 0.598359
O O8 0.250000 0.419158 0.748511
O O9 0.012024 0.500000 0.746242
O O10 0.002944 0.384312 0.666657
O O11 0.003935 0.388017 0.832829
O O12 0.250000 0.782466 0.152084
O O13 0.006144 0.860035 0.137583
O O14 0.989412 0.728489 0.099597
O O15 0.250000 0.349713 0.585666
O O16 0.000000 0.369964 0.500000
O O17 0.250000 0.926421 0.092601
O O18 0.491589 0.000000 0.126083
O O19 0.500000 0.923364 0.000000
O O20 0.250000 0.647624 0.914363
O O21 0.000000 0.626377 0.000000
#
# Coordination Sequence:
#
# PCOD9405813 Si02
#       7
#     8   8   8   8   8   8   8
#     4  10  21  37  56  79 110 149 196 248 301 358
#     4  11  22  36  57  84 116 152 196 250 301 355
#     4   9  20  40  64  90 122 159 197 239 293 357
#     4  10  21  36  56  82 113 150 195 247 294 348
#     4  11  22  39  63  90 121 159 200 244 296 355
#     4   9  18  33  51  73 103 141 185 233 285 339
#     4  11  22  38  62  90 121 159 199 244 294 352
#
# _framework density 20.150511999999999
#
# number of rings (size 3 to 8) (size 9 to 14) (size 15 to 20)
#    0.000    1.857    1.429    2.571    0.000    4.286 
#    0.000    1.429    0.000    7.714    0.000    0.000 
#    0.000    0.000    0.000    0.000    0.000    0.000 
#
# Total GULP energy -312735.872882 kJ/mol
# GULP energy per Si atom -5584.569159 kJ/mol
# Density = 2.010465 g / cm^3
# Si number density = 20.150512 Si / 1000 Ang^3
#
#
#
# Elastic Constant Matrix: (Units=GPa)
#
#
# Indices 1 2 3 4 5 6 
#
# 1 21.0971 10.4536 24.0268 0.0000 0.0000 0.0000
# 2 10.4536 114.3633 59.7412 0.0000 0.0000 0.0000
# 3 24.0268 59.7412 140.5843 0.0000 0.0000 0.0000
# 4 0.0000 0.0000 0.0000 21.1773 0.0000 0.0000
# 5 0.0000 0.0000 0.0000 0.0000 26.7970 0.0000
# 6 0.0000 0.0000 0.0000 0.0000 0.0000 11.5185
#
#
#
# Elastic Compliance Matrix: (Units=1/GPa)
#
#
# Indices 1 2 3 4 5 6 
#
# 1 0.058858 -0.000161 -0.009991 0.000000 0.000000 0.000000
# 2 -0.000161 0.011239 -0.004749 0.000000 0.000000 0.000000
# 3 -0.009991 -0.004749 0.010839 0.000000 0.000000 0.000000
# 4 0.000000 0.000000 0.000000 0.047220 0.000000 0.000000
# 5 0.000000 0.000000 0.000000 0.000000 0.037318 0.000000
# 6 0.000000 0.000000 0.000000 0.000000 0.000000 0.086817
#
#
# Mechanical properties :
#
#
# Convention : Reuss Voigt Hill
#
# Bulk Modulus (GPa) = 19.55606 51.60976 35.58291
# Shear Modulus (GPa) = 16.71475 24.02009 20.36742
#
# Velocity S-wave (km/s) = 2.88322 3.45633 3.18270
# Velocity P-wave (km/s) = 4.56180 6.44950 5.58597
#
# Compressibility (1/GPa) = 0.05113504
#
# Stress axis : x y z
#
# Youngs Moduli (GPa) = 16.99005 88.97285 92.26277
#
# Poissons Ratio (x) = 0.01432 0.92178
# Poissons Ratio (y) = 0.00274 0.43812
# Poissons Ratio (z) = 0.16974 0.42250
#
# Static dielectric constant tensor:
#      x y z
#    x 1.684110 0.000000 0.000000 
#    y 0.000000 1.708670 0.000000 
#    z 0.000000 0.000000 1.591400 
# 
# From -- ./inp_files/21831.got.cif
#   From: 2010.05.17/outbox.cif.g08.bks.cpg/sg51_11_cif.got.tgz:21831.got - 2010.06.03 11:52:47.
