data_PCOD9405799
_publ_section_title
;
Structure prediction by ZEFSAII (Michael W. Deem and Ramdas Pophale) SiO2 
 PCOD9405799
Probable space group: P M M A
;
_chemical_formula_sum "Si O2"
_cell_formula_units_Z 48
_cell_length_a 20.479419
_cell_length_b 20.389545
_cell_length_c 6.666543
_cell_angle_alpha 90.000000
_cell_angle_beta 90.000000
_cell_angle_gamma 90.000000
_cell_volume 2783.721929
_symmetry_space_group_name_H-M "P M M A"
_symmetry_group_IT_number 51
_symmetry_cell_setting 'orthorhombic'
loop_
_space_group_symop_operation_xyz
x,y,z
1/2-x,-y,z
1/2+x,-y,-z
-x,y,-z
-x,-y,-z
1/2+x,y,-z
1/2-x,y,z
x,-y,z
loop_
_atom_site_type_symbol
_atom_site_label
_atom_site_fract_x
_atom_site_fract_y
_atom_site_fract_z
Si Si1 0.971961 0.500000 0.254176
Si Si2 0.676045 0.275485 0.005991
Si Si3 0.057052 0.644622 0.834476
Si Si4 0.676858 0.142738 0.264460
Si Si5 0.376625 0.815933 0.324945
Si Si6 0.000000 0.258682 0.500000
Si Si7 0.577543 0.076797 0.988157
O O1 0.938142 0.570567 0.246506
O O2 0.000000 0.500000 0.500000
O O3 0.000000 0.500000 0.000000
O O4 0.750000 0.299877 0.009549
O O5 0.658454 0.242787 0.793681
O O6 0.623568 0.329278 0.068470
O O7 0.670497 0.213408 0.156250
O O8 0.034779 0.694673 0.661733
O O9 0.000000 0.647416 0.000000
O O10 0.750000 0.117468 0.219428
O O11 0.667009 0.157137 0.496498
O O12 0.618739 0.096720 0.185081
O O13 0.444632 0.786755 0.404050
O O14 0.392391 0.875871 0.178429
O O15 0.585680 0.000000 0.945261
O O16 0.500000 0.090270 0.000000
#
# Coordination Sequence:
#
# PCOD9405799 Si02
#       7
#     4   8   8   8   8   4   8
#     4  10  22  38  61  92 131 170 217 266 317 378
#     4  10  21  36  55  84 120 155 193 248 310 365
#     4  11  21  37  59  89 121 160 205 253 305 367
#     4  10  21  37  56  81 111 146 191 242 295 358
#     4  11  21  34  59  86 114 149 198 249 306 365
#     4  12  20  31  61  92 114 150 202 256 304 366
#     4  10  23  40  56  79 114 151 190 240 300 362
#
# _framework density 17.243103000000001
#
# number of rings (size 3 to 8) (size 9 to 14) (size 15 to 20)
#    0.000    1.500    4.167    1.500    2.333    1.667 
#    0.000    2.500    0.000    0.000    0.000    1.167 
#    0.000    0.000    0.000    0.000    0.000    0.000 
#
# Total GULP energy -267231.784170 kJ/mol
# GULP energy per Si atom -5567.328837 kJ/mol
# Density = 1.720386 g / cm^3
# Si number density = 17.243103 Si / 1000 Ang^3
#
#
#
# Elastic Constant Matrix: (Units=GPa)
#
#
# Indices 1 2 3 4 5 6 
#
# 1 129.6608 50.0120 31.7951 0.0000 0.0000 0.0000
# 2 50.0120 75.5713 28.0504 0.0000 0.0000 0.0000
# 3 31.7951 28.0504 82.5842 0.0000 0.0000 0.0000
# 4 0.0000 0.0000 0.0000 10.4537 0.0000 0.0000
# 5 0.0000 0.0000 0.0000 0.0000 18.5480 0.0000
# 6 0.0000 0.0000 0.0000 0.0000 0.0000 12.9560
#
#
#
# Elastic Compliance Matrix: (Units=1/GPa)
#
#
# Indices 1 2 3 4 5 6 
#
# 1 0.010623 -0.006307 -0.001948 0.000000 0.000000 0.000000
# 2 -0.006307 0.018886 -0.003987 0.000000 0.000000 0.000000
# 3 -0.001948 -0.003987 0.014213 0.000000 0.000000 0.000000
# 4 0.000000 0.000000 0.000000 0.095660 0.000000 0.000000
# 5 0.000000 0.000000 0.000000 0.000000 0.053914 0.000000
# 6 0.000000 0.000000 0.000000 0.000000 0.000000 0.077184
#
#
# Mechanical properties :
#
#
# Convention : Reuss Voigt Hill
#
# Bulk Modulus (GPa) = 51.97713 56.39238 54.18476
# Shear Modulus (GPa) = 16.59058 20.25544 18.42301
#
# Velocity S-wave (km/s) = 3.10523 3.43111 3.27223
# Velocity P-wave (km/s) = 6.56245 6.96218 6.76527
#
# Compressibility (1/GPa) = 0.01923923
#
# Stress axis : x y z
#
# Youngs Moduli (GPa) = 94.13766 52.94857 70.35943
#
# Poissons Ratio (x) = 0.33395 0.13703
# Poissons Ratio (y) = 0.59374 0.28050
# Poissons Ratio (z) = 0.18333 0.21109
#
# Static dielectric constant tensor:
#      x y z
#    x 1.589670 0.000000 0.000000 
#    y 0.000000 1.547610 0.000000 
#    z 0.000000 0.000000 1.821610 
# 
# From -- ./inp_files/2557.got.cif
#   From: 2010.05.17/outbox.cif.g08.bks.cpg/sg51_2_cif.got.tgz:2557.got - 2010.06.03 11:52:47.
