data_PCOD9405050
_publ_section_title
;
Structure prediction by ZEFSAII (Michael W. Deem and Ramdas Pophale) SiO2 
 PCOD9405050
Probable space group: P M M A
;
_chemical_formula_sum "Si O2"
_cell_formula_units_Z 64
_cell_length_a 16.088667
_cell_length_b 14.429137
_cell_length_c 14.006082
_cell_angle_alpha 90.000000
_cell_angle_beta 90.000000
_cell_angle_gamma 90.000000
_cell_volume 3251.450033
_symmetry_space_group_name_H-M "P M M A"
_symmetry_group_IT_number 51
_symmetry_cell_setting 'orthorhombic'
loop_
_space_group_symop_operation_xyz
x,y,z
1/2-x,-y,z
1/2+x,-y,-z
-x,y,-z
-x,-y,-z
1/2+x,y,-z
1/2-x,y,z
x,-y,z
loop_
_atom_site_type_symbol
_atom_site_label
_atom_site_fract_x
_atom_site_fract_y
_atom_site_fract_z
Si Si1 0.048044 0.603760 0.599850
Si Si2 0.080525 0.762173 0.065356
Si Si3 0.348305 0.111007 0.229203
Si Si4 0.655719 0.787276 0.407979
Si Si5 0.345076 0.289619 0.875655
Si Si6 0.499364 0.394707 0.192575
Si Si7 0.850733 0.101925 0.229186
Si Si8 0.419238 0.110743 0.432715
O O1 0.086416 0.500000 0.607162
O O2 0.107780 0.691666 0.601979
O O3 0.990335 0.613008 0.693346
O O4 0.000000 0.607551 0.500000
O O5 0.117632 0.840936 0.133356
O O6 0.053417 0.679035 0.134629
O O7 0.144977 0.721664 0.988655
O O8 0.000000 0.788615 0.000000
O O9 0.250000 0.135435 0.245438
O O10 0.407552 0.134434 0.320734
O O11 0.351290 0.000000 0.218747
O O12 0.750000 0.769598 0.380262
O O13 0.649832 0.830357 0.512289
O O14 0.250000 0.305106 0.848450
O O15 0.405789 0.366763 0.833278
O O16 0.373832 0.189439 0.834697
O O17 0.482334 0.500000 0.163642
O O18 0.750000 0.095619 0.224561
O O19 0.875807 0.132934 0.335438
O O20 0.884236 0.000000 0.204995
O O21 0.500000 0.133026 0.500000
O O22 0.406951 0.000000 0.439883
#
# Coordination Sequence:
#
# PCOD9405050 Si02
#       8
#     8   8   8   8   8   8   8   8
#     4  10  22  39  61  86 114 152 194 236 288 357
#     4  10  23  38  60  89 119 157 202 254 305 362
#     4  10  22  41  63  89 123 165 210 252 301 360
#     4  11  21  34  57  88 120 153 189 238 298 354
#     4  10  20  37  59  88 119 150 198 251 303 356
#     4  10  22  41  62  85 116 153 194 244 301 361
#     4   9  18  32  52  81 117 151 182 223 282 347
#     4  10  22  37  57  86 120 160 203 245 287 347
#
# _framework density 19.683524999999999
#
# number of rings (size 3 to 8) (size 9 to 14) (size 15 to 20)
#    0.000    2.000    1.250    1.500    3.500    4.750 
#    0.000    5.625    0.000    1.125    0.000    0.000 
#    0.000    0.000    0.000    0.000    0.000    0.000 
#
# Total GULP energy -356884.120165 kJ/mol
# GULP energy per Si atom -5576.314378 kJ/mol
# Density = 1.963872 g / cm^3
# Si number density = 19.683525 Si / 1000 Ang^3
#
#
#
# Elastic Constant Matrix: (Units=GPa)
#
#
# Indices 1 2 3 4 5 6 
#
# 1 40.8699 16.7206 14.6788 0.0000 0.0000 0.0000
# 2 16.7206 50.8310 20.4152 0.0000 0.0000 0.0000
# 3 14.6788 20.4152 119.8170 0.0000 0.0000 0.0000
# 4 0.0000 0.0000 0.0000 15.3990 0.0000 0.0000
# 5 0.0000 0.0000 0.0000 0.0000 18.9479 0.0000
# 6 0.0000 0.0000 0.0000 0.0000 0.0000 20.5157
#
#
#
# Elastic Compliance Matrix: (Units=1/GPa)
#
#
# Indices 1 2 3 4 5 6 
#
# 1 0.028734 -0.008629 -0.002050 0.000000 0.000000 0.000000
# 2 -0.008629 0.023709 -0.002983 0.000000 0.000000 0.000000
# 3 -0.002050 -0.002983 0.009105 0.000000 0.000000 0.000000
# 4 0.000000 0.000000 0.000000 0.064939 0.000000 0.000000
# 5 0.000000 0.000000 0.000000 0.000000 0.052776 0.000000
# 6 0.000000 0.000000 0.000000 0.000000 0.000000 0.048743
#
#
# Mechanical properties :
#
#
# Convention : Reuss Voigt Hill
#
# Bulk Modulus (GPa) = 29.21725 35.01635 32.11680
# Shear Modulus (GPa) = 18.74492 21.61942 20.18217
#
# Velocity S-wave (km/s) = 3.08931 3.31773 3.20556
# Velocity P-wave (km/s) = 5.25365 5.70130 5.48204
#
# Compressibility (1/GPa) = 0.03422636
#
# Stress axis : x y z
#
# Youngs Moduli (GPa) = 34.80163 42.17761 109.82474
#
# Poissons Ratio (x) = 0.36393 0.22515
# Poissons Ratio (y) = 0.30029 0.32757
# Poissons Ratio (z) = 0.07134 0.12580
#
# Static dielectric constant tensor:
#      x y z
#    x 1.734140 0.000000 0.000000 
#    y 0.000000 1.666120 0.000000 
#    z 0.000000 0.000000 1.718720 
# 
# From -- ./inp_files/17519.got.cif
#   From: 2010.05.17/outbox.cif.g08.bks.cpg/sg51_9_cif.got.tgz:17519.got - 2010.06.03 11:52:47.
