data_PCOD9405017
_publ_section_title
;
Structure prediction by ZEFSAII (Michael W. Deem and Ramdas Pophale) SiO2 
 PCOD9405017
Probable space group: P M M A
;
_chemical_formula_sum "Si O2"
_cell_formula_units_Z 52
_cell_length_a 9.282432
_cell_length_b 19.993744
_cell_length_c 15.385855
_cell_angle_alpha 90.000000
_cell_angle_beta 90.000000
_cell_angle_gamma 90.000000
_cell_volume 2855.469586
_symmetry_space_group_name_H-M "P M M A"
_symmetry_group_IT_number 51
_symmetry_cell_setting 'orthorhombic'
loop_
_space_group_symop_operation_xyz
x,y,z
1/2-x,-y,z
1/2+x,-y,-z
-x,y,-z
-x,-y,-z
1/2+x,y,-z
1/2-x,y,z
x,-y,z
loop_
_atom_site_type_symbol
_atom_site_label
_atom_site_fract_x
_atom_site_fract_y
_atom_site_fract_z
Si Si1 0.084673 0.422454 0.151347
Si Si2 0.582619 0.500000 0.588259
Si Si3 0.080324 0.759487 0.592633
Si Si4 0.421712 0.077411 0.910264
Si Si5 0.082689 0.385897 0.681983
Si Si6 0.923647 0.193625 0.223874
Si Si7 0.584233 0.280256 0.915340
O O1 0.250000 0.421634 0.188480
O O2 0.059170 0.500000 0.124676
O O3 0.084956 0.361300 0.084096
O O4 0.963856 0.397998 0.218929
O O5 0.750000 0.500000 0.575971
O O6 0.500000 0.500000 0.500000
O O7 0.528062 0.564945 0.636670
O O8 0.250000 0.769698 0.575670
O O9 0.064398 0.686478 0.638089
O O10 0.035911 0.806996 0.673955
O O11 0.000000 0.764104 0.500000
O O12 0.250000 0.081385 0.924493
O O13 0.455334 0.126426 0.830284
O O14 0.458778 0.000000 0.891061
O O15 0.500000 0.096146 0.000000
O O16 0.250000 0.404925 0.670140
O O17 0.750000 0.206403 0.220562
O O18 0.006380 0.251147 0.170151
O O19 0.750000 0.257948 0.916274
O O20 0.500000 0.256170 0.000000
#
# Coordination Sequence:
#
# PCOD9405017 Si02
#       7
#     8   4   8   8   8   8   8
#     4  10  21  37  55  75 101 137 179 227 279 332
#     4  12  24  36  50  72 101 132 173 224 282 342
#     4  10  22  37  55  79 107 140 180 227 274 326
#     4   9  18  33  56  86 119 152 184 220 267 323
#     4  11  21  35  54  76 100 132 175 223 282 337
#     4  10  20  37  58  82 114 147 184 229 275 324
#     4  11  23  37  56  81 109 143 185 229 278 332
#
# _framework density 18.210666
#
# number of rings (size 3 to 8) (size 9 to 14) (size 15 to 20)
#    0.000    1.692    2.308    2.538    0.000    5.846 
#    0.000    0.000    0.000    0.462    0.000    0.000 
#    0.000    0.000    0.000    0.000    0.000    0.000 
#
# Total GULP energy -289786.692399 kJ/mol
# GULP energy per Si atom -5572.821008 kJ/mol
# Density = 1.816922 g / cm^3
# Si number density = 18.210666 Si / 1000 Ang^3
#
#
#
# Elastic Constant Matrix: (Units=GPa)
#
#
# Indices 1 2 3 4 5 6 
#
# 1 89.1295 34.0298 54.3438 0.0000 0.0000 0.0000
# 2 34.0298 96.4364 37.0208 0.0000 0.0000 0.0000
# 3 54.3438 37.0208 102.7983 0.0000 0.0000 0.0000
# 4 0.0000 0.0000 0.0000 25.8965 0.0000 0.0000
# 5 0.0000 0.0000 0.0000 0.0000 28.5794 0.0000
# 6 0.0000 0.0000 0.0000 0.0000 0.0000 18.1735
#
#
#
# Elastic Compliance Matrix: (Units=1/GPa)
#
#
# Indices 1 2 3 4 5 6 
#
# 1 0.017276 -0.003006 -0.008050 0.000000 0.000000 0.000000
# 2 -0.003006 0.012556 -0.002933 0.000000 0.000000 0.000000
# 3 -0.008050 -0.002933 0.015040 0.000000 0.000000 0.000000
# 4 0.000000 0.000000 0.000000 0.038615 0.000000 0.000000
# 5 0.000000 0.000000 0.000000 0.000000 0.034990 0.000000
# 6 0.000000 0.000000 0.000000 0.000000 0.000000 0.055025
#
#
# Mechanical properties :
#
#
# Convention : Reuss Voigt Hill
#
# Bulk Modulus (GPa) = 59.19338 59.90589 59.54963
# Shear Modulus (GPa) = 24.14168 25.39453 24.76811
#
# Velocity S-wave (km/s) = 3.64495 3.73833 3.69194
# Velocity P-wave (km/s) = 7.09151 7.18338 7.13760
#
# Compressibility (1/GPa) = 0.01689378
#
# Stress axis : x y z
#
# Youngs Moduli (GPa) = 57.88532 79.64287 66.49078
#
# Poissons Ratio (x) = 0.23938 0.53526
# Poissons Ratio (y) = 0.17399 0.19501
# Poissons Ratio (z) = 0.46599 0.23358
#
# Static dielectric constant tensor:
#      x y z
#    x 1.618450 0.000000 0.000000 
#    y 0.000000 1.660160 0.000000 
#    z 0.000000 0.000000 1.607310 
# 
# From -- ./inp_files/21630.got.cif
#   From: 2010.05.17/outbox.cif.g08.bks.cpg/sg51_11_cif.got.tgz:21630.got - 2010.06.03 11:52:47.
