data_PCOD9405711
_publ_section_title
;
Structure prediction by ZEFSAII (Michael W. Deem and Ramdas Pophale) SiO2 
 PCOD9405711
Probable space group: P M M A
;
_chemical_formula_sum "Si O2"
_cell_formula_units_Z 48
_cell_length_a 9.741052
_cell_length_b 8.233243
_cell_length_c 31.577218
_cell_angle_alpha 90.000000
_cell_angle_beta 90.000000
_cell_angle_gamma 90.000000
_cell_volume 2532.507036
_symmetry_space_group_name_H-M "P M M A"
_symmetry_group_IT_number 51
_symmetry_cell_setting 'orthorhombic'
loop_
_space_group_symop_operation_xyz
x,y,z
1/2-x,-y,z
1/2+x,-y,-z
-x,y,-z
-x,-y,-z
1/2+x,y,-z
1/2-x,y,z
x,-y,z
loop_
_atom_site_type_symbol
_atom_site_label
_atom_site_fract_x
_atom_site_fract_y
_atom_site_fract_z
Si Si1 0.593206 0.696229 0.384432
Si Si2 0.591885 0.303907 0.133768
Si Si3 0.093100 0.195590 0.460990
Si Si4 0.908735 0.301892 0.038917
Si Si5 0.905855 0.303971 0.287550
Si Si6 0.594511 0.806425 0.788757
O O1 0.750000 0.747308 0.395189
O O2 0.590816 0.500000 0.385339
O O3 0.483962 0.760324 0.417738
O O4 0.565058 0.747468 0.335931
O O5 0.750000 0.250669 0.141093
O O6 0.593403 0.500000 0.133883
O O7 0.549397 0.250559 0.086350
O O8 0.491615 0.247966 0.170452
O O9 0.250000 0.256314 0.462649
O O10 0.000000 0.256579 0.500000
O O11 0.098437 0.000000 0.464082
O O12 0.750000 0.256472 0.032990
O O13 0.914246 0.500000 0.038682
O O14 0.000000 0.242848 0.000000
O O15 0.750000 0.250882 0.276766
O O16 0.905649 0.500000 0.287160
O O17 0.013859 0.245616 0.253318
O O18 0.750000 0.740885 0.789479
O O19 0.600939 0.000000 0.789191
#
# Coordination Sequence:
#
# PCOD9405711 Si02
#       6
#     8   8   8   8   8   8
#     4   9  19  36  57  81 107 134 167 209 256 305
#     4   9  18  33  53  76 101 131 169 210 251 299
#     4  10  21  36  54  77 106 141 179 216 254 298
#     4   8  14  25  43  70 101 128 157 198 246 295
#     4   9  19  37  59  80 102 131 169 210 252 304
#     4  11  24  37  49  72 105 136 169 211 255 300
#
# _framework density 18.95355
#
# number of rings (size 3 to 8) (size 9 to 14) (size 15 to 20)
#    0.000    2.667    0.000    3.500    0.000    7.667 
#    0.000    6.667    0.000    0.500    0.000    0.000 
#    0.000    0.000    0.000    0.000    0.000    0.000 
#
# Total GULP energy -267794.464759 kJ/mol
# GULP energy per Si atom -5579.051349 kJ/mol
# Density = 1.891041 g / cm^3
# Si number density = 18.953550 Si / 1000 Ang^3
#
#
#
# Elastic Constant Matrix: (Units=GPa)
#
#
# Indices 1 2 3 4 5 6 
#
# 1 169.1106 18.7741 135.4341 0.0000 0.0000 0.0000
# 2 18.7741 8.2806 16.0234 0.0000 0.0000 0.0000
# 3 135.4341 16.0234 166.4915 0.0000 0.0000 0.0000
# 4 0.0000 0.0000 0.0000 59.8336 0.0000 0.0000
# 5 0.0000 0.0000 0.0000 0.0000 38.0830 0.0000
# 6 0.0000 0.0000 0.0000 0.0000 0.0000 15.3211
#
#
#
# Elastic Compliance Matrix: (Units=1/GPa)
#
#
# Indices 1 2 3 4 5 6 
#
# 1 0.018501 -0.015759 -0.013533 0.000000 0.000000 0.000000
# 2 -0.015759 0.161823 -0.002755 0.000000 0.000000 0.000000
# 3 -0.013533 -0.002755 0.017280 0.000000 0.000000 0.000000
# 4 0.000000 0.000000 0.000000 0.016713 0.000000 0.000000
# 5 0.000000 0.000000 0.000000 0.000000 0.026258 0.000000
# 6 0.000000 0.000000 0.000000 0.000000 0.000000 0.065269
#
#
# Mechanical properties :
#
#
# Convention : Reuss Voigt Hill
#
# Bulk Modulus (GPa) = 7.49005 76.03845 41.76425
# Shear Modulus (GPa) = 12.06441 34.22429 23.14435
#
# Velocity S-wave (km/s) = 2.52568 4.25395 3.49823
# Velocity P-wave (km/s) = 3.53069 8.02082 6.19675
#
# Compressibility (1/GPa) = 0.13351053
#
# Stress axis : x y z
#
# Youngs Moduli (GPa) = 54.05151 6.17958 57.87007
#
# Poissons Ratio (x) = 0.09738 0.78316
# Poissons Ratio (y) = 0.85177 0.15944
# Poissons Ratio (z) = 0.73148 0.01703
#
# Static dielectric constant tensor:
#      x y z
#    x 1.648880 0.000000 0.000000 
#    y 0.000000 1.671650 0.000000 
#    z 0.000000 0.000000 1.645950 
# 
# From -- ./inp_files/36962.got.cif
#   From: 2010.05.17/outbox.cif.g08.bks.cpg/sg51_19_cif.got.tgz:36962.got - 2010.06.03 11:52:47.
