data_PCOD9405601
_publ_section_title
;
Structure prediction by ZEFSAII (Michael W. Deem and Ramdas Pophale) SiO2 
 PCOD9405601
Probable space group: P M M A
;
_chemical_formula_sum "Si O2"
_cell_formula_units_Z 56
_cell_length_a 9.095515
_cell_length_b 21.273201
_cell_length_c 15.352320
_cell_angle_alpha 90.000000
_cell_angle_beta 90.000000
_cell_angle_gamma 90.000000
_cell_volume 2970.531432
_symmetry_space_group_name_H-M "P M M A"
_symmetry_group_IT_number 51
_symmetry_cell_setting 'orthorhombic'
loop_
_space_group_symop_operation_xyz
x,y,z
1/2-x,-y,z
1/2+x,-y,-z
-x,y,-z
-x,-y,-z
1/2+x,y,-z
1/2-x,y,z
x,-y,z
loop_
_atom_site_type_symbol
_atom_site_label
_atom_site_fract_x
_atom_site_fract_y
_atom_site_fract_z
Si Si1 0.917331 0.622453 0.649956
Si Si2 0.078981 0.075034 0.406821
Si Si3 0.081254 0.260963 0.578422
Si Si4 0.075468 0.500000 0.594513
Si Si5 0.579827 0.837836 0.268237
Si Si6 0.072249 0.500000 0.093699
Si Si7 0.927190 0.767438 0.091228
Si Si8 0.918891 0.640226 0.851813
O O1 0.750000 0.607732 0.623244
O O2 0.914712 0.647337 0.748149
O O3 0.989925 0.676079 0.592861
O O4 0.016014 0.561004 0.643487
O O5 0.250000 0.093107 0.415265
O O6 0.000000 0.086575 0.500000
O O7 0.009562 0.110766 0.323758
O O8 0.069592 0.000000 0.391989
O O9 0.250000 0.273462 0.556112
O O10 0.077887 0.221868 0.666988
O O11 0.000000 0.225716 0.500000
O O12 0.250000 0.500000 0.587092
O O13 0.000000 0.500000 0.500000
O O14 0.750000 0.858643 0.259917
O O15 0.530196 0.812288 0.173435
O O16 0.250000 0.500000 0.092955
O O17 0.030320 0.568006 0.133443
O O18 0.000000 0.500000 0.000000
O O19 0.750000 0.767411 0.085840
O O20 0.983719 0.696159 0.109511
O O21 0.000000 0.787718 0.000000
O O22 0.750000 0.645984 0.885262
#
# Coordination Sequence:
#
# PCOD9405601 Si02
#       8
#     8   8   8   4   8   4   8   8
#     4  11  22  38  58  79 104 140 187 238 292 351
#     4  10  21  37  61  95 133 170 207 245 289 345
#     4  11  22  37  55  82 116 150 190 236 288 345
#     4  12  25  40  56  74 102 142 189 239 294 353
#     4  10  22  39  60  87 122 160 202 248 292 346
#     4  10  21  36  52  76 104 134 177 231 291 359
#     4  11  23  40  61  88 120 155 201 252 305 362
#     4  10  21  38  59  81 109 145 188 241 301 362
#
# _framework density 18.851845999999998
#
# number of rings (size 3 to 8) (size 9 to 14) (size 15 to 20)
#    0.000    1.429    1.429    4.071    0.000    7.714 
#    0.000    0.714    0.000    0.429    0.000    0.000 
#    0.000    0.000    0.000    0.000    0.000    0.000 
#
# Total GULP energy -312608.644122 kJ/mol
# GULP energy per Si atom -5582.297216 kJ/mol
# Density = 1.880894 g / cm^3
# Si number density = 18.851846 Si / 1000 Ang^3
#
#
#
# Elastic Constant Matrix: (Units=GPa)
#
#
# Indices 1 2 3 4 5 6 
#
# 1 123.2408 51.3252 57.2234 0.0000 0.0000 0.0000
# 2 51.3252 83.8355 40.5163 0.0000 0.0000 0.0000
# 3 57.2234 40.5163 136.9074 0.0000 0.0000 0.0000
# 4 0.0000 0.0000 0.0000 43.1470 0.0000 0.0000
# 5 0.0000 0.0000 0.0000 0.0000 32.1067 0.0000
# 6 0.0000 0.0000 0.0000 0.0000 0.0000 36.6462
#
#
#
# Elastic Compliance Matrix: (Units=1/GPa)
#
#
# Indices 1 2 3 4 5 6 
#
# 1 0.012068 -0.005777 -0.003335 0.000000 0.000000 0.000000
# 2 -0.005777 0.016684 -0.002523 0.000000 0.000000 0.000000
# 3 -0.003335 -0.002523 0.009445 0.000000 0.000000 0.000000
# 4 0.000000 0.000000 0.000000 0.023177 0.000000 0.000000
# 5 0.000000 0.000000 0.000000 0.000000 0.031146 0.000000
# 6 0.000000 0.000000 0.000000 0.000000 0.000000 0.027288
#
#
# Mechanical properties :
#
#
# Convention : Reuss Voigt Hill
#
# Bulk Modulus (GPa) = 66.98704 71.34595 69.16650
# Shear Modulus (GPa) = 33.77176 35.37456 34.57316
#
# Velocity S-wave (km/s) = 4.23712 4.33650 4.28710
# Velocity P-wave (km/s) = 7.71674 7.93734 7.82782
#
# Compressibility (1/GPa) = 0.01492826
#
# Stress axis : x y z
#
# Youngs Moduli (GPa) = 82.86109 59.93741 105.88029
#
# Poissons Ratio (x) = 0.34625 0.35307
# Poissons Ratio (y) = 0.47868 0.26713
# Poissons Ratio (z) = 0.27631 0.15122
#
# Static dielectric constant tensor:
#      x y z
#    x 1.659040 0.000000 0.000000 
#    y 0.000000 1.675930 0.000000 
#    z 0.000000 0.000000 1.801990 
# 
# From -- ./inp_files/21907.got.cif
#   From: 2010.05.17/outbox.cif.g08.bks.cpg/sg51_11_cif.got.tgz:21907.got - 2010.06.03 11:52:47.
