data_PCOD9405516
_publ_section_title
;
Structure prediction by ZEFSAII (Michael W. Deem and Ramdas Pophale) SiO2 
 PCOD9405516
Probable space group: P M M A
;
_chemical_formula_sum "Si O2"
_cell_formula_units_Z 64
_cell_length_a 14.920483
_cell_length_b 8.881461
_cell_length_c 27.072298
_cell_angle_alpha 90.000000
_cell_angle_beta 90.000000
_cell_angle_gamma 90.000000
_cell_volume 3587.504192
_symmetry_space_group_name_H-M "P M M A"
_symmetry_group_IT_number 51
_symmetry_cell_setting 'orthorhombic'
loop_
_space_group_symop_operation_xyz
x,y,z
1/2-x,-y,z
1/2+x,-y,-z
-x,y,-z
-x,-y,-z
1/2+x,y,-z
1/2-x,y,z
x,-y,z
loop_
_atom_site_type_symbol
_atom_site_label
_atom_site_fract_x
_atom_site_fract_y
_atom_site_fract_z
Si Si1 0.356910 0.177723 0.735933
Si Si2 0.991742 0.680414 0.187970
Si Si3 0.646768 0.318911 0.737617
Si Si4 0.493547 0.818147 0.556917
Si Si5 0.352832 0.816931 0.002785
Si Si6 0.495458 0.182031 0.920426
Si Si7 0.853229 0.181038 0.632759
Si Si8 0.356467 0.677835 0.631093
O O1 0.250000 0.199444 0.741139
O O2 0.409425 0.259476 0.779496
O O3 0.383518 0.244393 0.682660
O O4 0.375837 0.000000 0.736988
O O5 0.989012 0.500000 0.185433
O O6 0.080679 0.726358 0.218552
O O7 0.991732 0.748187 0.133464
O O8 0.750000 0.273292 0.746613
O O9 0.644050 0.500000 0.733659
O O10 0.618357 0.250457 0.685100
O O11 0.500000 0.770892 0.500000
O O12 0.581305 0.774782 0.588501
O O13 0.410220 0.748290 0.585884
O O14 0.486145 0.000000 0.557966
O O15 0.250000 0.763475 0.003794
O O16 0.409940 0.773742 0.954232
O O17 0.350450 0.000000 0.002944
O O18 0.414735 0.772957 0.049416
O O19 0.495196 0.000000 0.917020
O O20 0.750000 0.226292 0.623725
O O21 0.855853 0.000000 0.636989
O O22 0.250000 0.701208 0.624968
O O23 0.373651 0.500000 0.634631
#
# Coordination Sequence:
#
# PCOD9405516 Si02
#       8
#     8   8   8   8   8   8   8   8
#     4  10  21  37  57  79 103 136 177 216 257 310
#     4  11  22  34  51  77 111 143 169 210 262 308
#     4   9  19  35  52  71  98 135 174 205 244 304
#     4  10  21  35  53  78 105 136 175 217 261 310
#     4   8  15  31  54  75  97 130 173 219 261 300
#     4   9  18  32  51  76 102 131 172 215 255 305
#     4   9  18  33  52  74 100 129 165 212 260 303
#     4  10  21  37  56  78 106 139 174 215 264 316
#
# _framework density 17.839700000000001
#
# number of rings (size 3 to 8) (size 9 to 14) (size 15 to 20)
#    0.000    2.500    0.000    2.625    0.000    6.750 
#    0.000    3.750    0.000    2.250    0.000    0.000 
#    0.000    0.000    0.000    0.000    0.000    0.000 
#
# Total GULP energy -357134.115975 kJ/mol
# GULP energy per Si atom -5580.220562 kJ/mol
# Density = 1.779910 g / cm^3
# Si number density = 17.839700 Si / 1000 Ang^3
#
#
#
# Elastic Constant Matrix: (Units=GPa)
#
#
# Indices 1 2 3 4 5 6 
#
# 1 101.7857 42.7523 84.7592 0.0000 0.0000 0.0000
# 2 42.7523 27.8267 53.7968 0.0000 0.0000 0.0000
# 3 84.7592 53.7968 192.0468 0.0000 0.0000 0.0000
# 4 0.0000 0.0000 0.0000-9252.0063 0.0000 0.0000
# 5 0.0000 0.0000 0.0000 0.0000 -175.1146 0.0000
# 6 0.0000 0.0000 0.0000 0.0000 0.0000 13.4034
#
#
#
# Elastic Compliance Matrix: (Units=1/GPa)
#
#
# Indices 1 2 3 4 5 6 
#
# 1 0.027738 -0.041333 -0.000664 0.000000 0.000000 0.000000
# 2 -0.041333 0.139979 -0.020969 0.000000 0.000000 0.000000
# 3 -0.000664 -0.020969 0.011374 0.000000 0.000000 0.000000
# 4 0.000000 0.000000 0.000000 -0.000108 0.000000 0.000000
# 5 0.000000 0.000000 0.000000 0.000000 -0.005711 0.000000
# 6 0.000000 0.000000 0.000000 0.000000 0.000000 0.074608
#
#
# Mechanical properties :
#
#
# Convention : Reuss Voigt Hill
#
# Bulk Modulus (GPa) = 18.81138 76.03064 47.42101
# Shear Modulus (GPa) = 12.77035 -1873.38677 -930.30821
#
# Velocity S-wave (km/s) = 2.67842 -32.44075 -22.86075
# Velocity P-wave (km/s) = 4.48696 36.88484 25.88782
#
# Compressibility (1/GPa) = 0.05315931
#
# Stress axis : x y z
#
# Youngs Moduli (GPa) = 36.05161 7.14393 87.91958
#
# Poissons Ratio (x) = 0.29528 0.05836
# Poissons Ratio (y) = 1.49011 1.84362
# Poissons Ratio (z) = 0.02393 0.14980
#
# Static dielectric constant tensor:
#      x y z
#    x 1.623610 0.000000 0.000000 
#    y 0.000000 1.594230 0.000000 
#    z 0.000000 0.000000 1.570770 
# 
# From -- ./inp_files/35700.got.cif
#   From: 2010.05.17/outbox.cif.g08.bks.cpg/sg51_18_cif.got.tgz:35700.got - 2010.06.03 11:52:47.
