data_PCOD9405535
_publ_section_title
;
Structure prediction by ZEFSAII (Michael W. Deem and Ramdas Pophale) SiO2 
 PCOD9405535
Probable space group: P M M A
;
_chemical_formula_sum "Si O2"
_cell_formula_units_Z 64
_cell_length_a 18.852197
_cell_length_b 30.616428
_cell_length_c 5.490555
_cell_angle_alpha 90.000000
_cell_angle_beta 90.000000
_cell_angle_gamma 90.000000
_cell_volume 3169.076596
_symmetry_space_group_name_H-M "P M M A"
_symmetry_group_IT_number 51
_symmetry_cell_setting 'orthorhombic'
loop_
_space_group_symop_operation_xyz
x,y,z
1/2-x,-y,z
1/2+x,-y,-z
-x,y,-z
-x,-y,-z
1/2+x,y,-z
1/2-x,y,z
x,-y,z
loop_
_atom_site_type_symbol
_atom_site_label
_atom_site_fract_x
_atom_site_fract_y
_atom_site_fract_z
Si Si1 0.663293 0.901544 0.813564
Si Si2 0.835795 0.750972 0.339370
Si Si3 0.071595 0.317432 0.910708
Si Si4 0.067599 0.405970 0.651348
Si Si5 0.163555 0.050629 0.686260
Si Si6 0.329344 0.365318 0.269532
Si Si7 0.664441 0.198771 0.835341
Si Si8 0.826741 0.547280 0.054234
O O1 0.750000 0.901774 0.813331
O O2 0.641219 0.925859 0.062654
O O3 0.639485 0.851206 0.817828
O O4 0.641088 0.925232 0.562901
O O5 0.750000 0.742851 0.339336
O O6 0.852120 0.780192 0.098135
O O7 0.883111 0.708394 0.289419
O O8 0.855932 0.773848 0.594354
O O9 0.045420 0.364133 0.808982
O O10 0.125562 0.329041 0.128418
O O11 0.000000 0.293879 0.000000
O O12 0.130512 0.384001 0.499115
O O13 0.103839 0.446008 0.786330
O O14 0.000000 0.419928 0.500000
O O15 0.250000 0.051433 0.686113
O O16 0.141778 0.000000 0.684393
O O17 0.250000 0.349631 0.318927
O O18 0.325847 0.408923 0.103537
O O19 0.750000 0.197397 0.825698
O O20 0.750000 0.547554 0.188148
O O21 0.830280 0.500000 0.926190
#
# Coordination Sequence:
#
# PCOD9405535 Si02
#       8
#     8   8   8   8   8   8   8   8
#     4   9  15  24  38  54  84 126 168 222 276 320
#     4  10  21  35  54  79 106 137 185 236 278 337
#     4  11  23  39  57  80 111 144 176 227 284 342
#     4  11  22  37  59  84 113 147 185 228 279 338
#     4   9  15  21  32  54  83 122 174 223 267 323
#     4  10  21  38  60  83 110 147 186 224 273 330
#     4   9  18  32  48  71  99 134 182 233 282 334
#     4   9  20  38  58  84 116 148 186 229 273 329
#
# _framework density 20.195156999999998
#
# number of rings (size 3 to 8) (size 9 to 14) (size 15 to 20)
#    0.000    2.250    1.250    1.875    1.750    6.750 
#    0.000    1.875    0.000    0.000    0.000    0.000 
#    0.000    0.000    0.000    0.000    0.000   43.750 
#
# Total GULP energy -356803.890032 kJ/mol
# GULP energy per Si atom -5575.060782 kJ/mol
# Density = 2.014919 g / cm^3
# Si number density = 20.195157 Si / 1000 Ang^3
#
#
#
# Elastic Constant Matrix: (Units=GPa)
#
#
# Indices 1 2 3 4 5 6 
#
# 1 58.8757 15.8425 18.1604 0.0000 0.0000 0.0000
# 2 15.8425 113.5556 46.0882 0.0000 0.0000 0.0000
# 3 18.1604 46.0882 107.9075 0.0000 0.0000 0.0000
# 4 0.0000 0.0000 0.0000 4.3984 0.0000 0.0000
# 5 0.0000 0.0000 0.0000 0.0000 -21.6662 0.0000
# 6 0.0000 0.0000 0.0000 0.0000 0.0000 4.0684
#
#
#
# Elastic Compliance Matrix: (Units=1/GPa)
#
#
# Indices 1 2 3 4 5 6 
#
# 1 0.018141 -0.001563 -0.002386 0.000000 0.000000 0.000000
# 2 -0.001563 0.010788 -0.004344 0.000000 0.000000 0.000000
# 3 -0.002386 -0.004344 0.011524 0.000000 0.000000 0.000000
# 4 0.000000 0.000000 0.000000 0.227354 0.000000 0.000000
# 5 0.000000 0.000000 0.000000 0.000000 -0.046155 0.000000
# 6 0.000000 0.000000 0.000000 0.000000 0.000000 0.245799
#
#
# Mechanical properties :
#
#
# Convention : Reuss Voigt Hill
#
# Bulk Modulus (GPa) = 41.89804 48.94677 45.42241
# Shear Modulus (GPa) = 10.16276 10.70997 10.43637
#
# Velocity S-wave (km/s) = 2.24571 2.30537 2.27574
# Velocity P-wave (km/s) = 5.24556 5.60141 5.42640
#
# Compressibility (1/GPa) = 0.02386747
#
# Stress axis : x y z
#
# Youngs Moduli (GPa) = 55.12281 92.69957 86.77355
#
# Poissons Ratio (x) = 0.14486 0.20701
# Poissons Ratio (y) = 0.08614 0.37698
# Poissons Ratio (z) = 0.13151 0.40273
#
# Static dielectric constant tensor:
#      x y z
#    x 1.724080 0.000000 0.000000 
#    y 0.000000 1.728280 0.000000 
#    z 0.000000 0.000000 1.771760 
# 
# From -- ./inp_files/2103.got.cif
#   From: 2010.05.17/outbox.cif.g08.bks.cpg/sg51_2_cif.got.tgz:2103.got - 2010.06.03 11:52:47.
