data_PCOD9405014
_publ_section_title
;
Structure prediction by ZEFSAII (Michael W. Deem and Ramdas Pophale) SiO2 
 PCOD9405014
Probable space group: P M M A
;
_chemical_formula_sum "Si O2"
_cell_formula_units_Z 48
_cell_length_a 8.700554
_cell_length_b 31.263712
_cell_length_c 9.557248
_cell_angle_alpha 90.000000
_cell_angle_beta 90.000000
_cell_angle_gamma 90.000000
_cell_volume 2599.682459
_symmetry_space_group_name_H-M "P M M A"
_symmetry_group_IT_number 51
_symmetry_cell_setting 'orthorhombic'
loop_
_space_group_symop_operation_xyz
x,y,z
1/2-x,-y,z
1/2+x,-y,-z
-x,y,-z
-x,-y,-z
1/2+x,y,-z
1/2-x,y,z
x,-y,z
loop_
_atom_site_type_symbol
_atom_site_label
_atom_site_fract_x
_atom_site_fract_y
_atom_site_fract_z
Si Si1 0.935030 0.784977 0.656249
Si Si2 0.564847 0.296067 0.843968
Si Si3 0.433557 0.876315 0.655593
Si Si4 0.933900 0.449926 0.152455
Si Si5 0.065979 0.048477 0.156333
Si Si6 0.934545 0.377058 0.655570
O O1 0.750000 0.787186 0.648220
O O2 0.979891 0.746764 0.759964
O O3 0.000000 0.777182 0.500000
O O4 0.000553 0.830604 0.705408
O O5 0.750000 0.296667 0.852043
O O6 0.516574 0.337115 0.752668
O O7 0.500000 0.297311 0.000000
O O8 0.500000 0.882262 0.500000
O O9 0.250000 0.874431 0.651014
O O10 0.490275 0.915250 0.749822
O O11 0.750000 0.445383 0.150656
O O12 0.971249 0.500000 0.175635
O O13 0.005152 0.419834 0.270041
O O14 0.000000 0.437831 0.000000
O O15 0.250000 0.053753 0.154017
O O16 0.032272 0.000000 0.206779
O O17 0.000000 0.051848 0.000000
O O18 0.750000 0.377672 0.649458
O O19 0.000000 0.372651 0.500000
#
# Coordination Sequence:
#
# PCOD9405014 Si02
#       6
#     8   8   8   8   8   8
#     4  10  20  37  58  82 112 145 184 228 277 332
#     4  10  23  39  58  84 113 146 185 230 278 333
#     4  11  22  37  58  84 114 149 188 231 280 332
#     4  10  21  38  60  86 116 151 190 233 282 335
#     4  10  21  38  59  83 112 147 187 231 280 334
#     4  11  23  39  59  85 115 150 191 234 284 337
#
# _framework density 18.463792000000002
#
# number of rings (size 3 to 8) (size 9 to 14) (size 15 to 20)
#    0.000    1.667    0.000    5.500    0.000    7.333 
#    0.000    1.667    0.000    0.000    0.000    0.000 
#    0.000    0.000    0.000    0.000    0.000    0.000 
#
# Total GULP energy -268271.169634 kJ/mol
# GULP energy per Si atom -5588.982701 kJ/mol
# Density = 1.842177 g / cm^3
# Si number density = 18.463792 Si / 1000 Ang^3
#
#
#
# Elastic Constant Matrix: (Units=GPa)
#
#
# Indices 1 2 3 4 5 6 
#
# 1 85.6956 61.0752 50.2203 0.0000 0.0000 0.0000
# 2 61.0752 143.3875 103.2616 0.0000 0.0000 0.0000
# 3 50.2203 103.2616 131.3460 0.0000 0.0000 0.0000
# 4 0.0000 0.0000 0.0000 43.2826 0.0000 0.0000
# 5 0.0000 0.0000 0.0000 0.0000 39.1782 0.0000
# 6 0.0000 0.0000 0.0000 0.0000 0.0000 317.9626
#
#
#
# Elastic Compliance Matrix: (Units=1/GPa)
#
#
# Indices 1 2 3 4 5 6 
#
# 1 0.016950 -0.005884 -0.001855 0.000000 0.000000 0.000000
# 2 -0.005884 0.018118 -0.011994 0.000000 0.000000 0.000000
# 3 -0.001855 -0.011994 0.017753 0.000000 0.000000 0.000000
# 4 0.000000 0.000000 0.000000 0.023104 0.000000 0.000000
# 5 0.000000 0.000000 0.000000 0.000000 0.025524 0.000000
# 6 0.000000 0.000000 0.000000 0.000000 0.000000 0.003145
#
#
# Mechanical properties :
#
#
# Convention : Reuss Voigt Hill
#
# Bulk Modulus (GPa) = 74.88460 87.72704 81.30582
# Shear Modulus (GPa) = 33.66741 89.80948 61.73844
#
# Velocity S-wave (km/s) = 4.27480 6.98187 5.78880
# Velocity P-wave (km/s) = 8.06292 10.61185 9.42396
#
# Compressibility (1/GPa) = 0.01335388
#
# Stress axis : x y z
#
# Youngs Moduli (GPa) = 58.99838 55.19330 56.32976
#
# Poissons Ratio (x) = 0.32474 0.10450
# Poissons Ratio (y) = 0.34713 0.67565
# Poissons Ratio (z) = 0.10945 0.66202
#
# Static dielectric constant tensor:
#      x y z
#    x 1.618170 0.000000 0.000000 
#    y 0.000000 1.635690 0.000000 
#    z 0.000000 0.000000 1.606300 
# 
# From -- ./inp_files/6043.got.cif
#   From: 2010.05.17/outbox.cif.g08.bks.cpg/sg51_4_cif.got.tgz:6043.got - 2010.06.03 11:52:47.
