data_PCOD9405257
_publ_section_title
;
Structure prediction by ZEFSAII (Michael W. Deem and Ramdas Pophale) SiO2 
 PCOD9405257
Probable space group: P M M A
;
_chemical_formula_sum "Si O2"
_cell_formula_units_Z 64
_cell_length_a 19.174986
_cell_length_b 7.715306
_cell_length_c 20.615655
_cell_angle_alpha 90.000000
_cell_angle_beta 90.000000
_cell_angle_gamma 90.000000
_cell_volume 3049.898236
_symmetry_space_group_name_H-M "P M M A"
_symmetry_group_IT_number 51
_symmetry_cell_setting 'orthorhombic'
loop_
_space_group_symop_operation_xyz
x,y,z
1/2-x,-y,z
1/2+x,-y,-z
-x,y,-z
-x,-y,-z
1/2+x,y,-z
1/2-x,y,z
x,-y,z
loop_
_atom_site_type_symbol
_atom_site_label
_atom_site_fract_x
_atom_site_fract_y
_atom_site_fract_z
Si Si1 0.424602 0.212049 0.027430
Si Si2 0.921433 0.701093 0.473743
Si Si3 0.407615 0.698398 0.278096
Si Si4 0.669507 0.204599 0.852509
Si Si5 0.331220 0.790238 0.765977
Si Si6 0.051471 0.297889 0.667656
Si Si7 0.329132 0.201970 0.405714
Si Si8 0.829292 0.210978 0.090785
O O1 0.387558 0.271040 0.094592
O O2 0.428644 0.000000 0.031321
O O3 0.500000 0.268990 0.000000
O O4 0.372981 0.265863 0.970140
O O5 0.899132 0.500000 0.468429
O O6 0.927015 0.779433 0.401808
O O7 0.871523 0.781650 0.527550
O O8 0.000000 0.706103 0.500000
O O9 0.419136 0.500000 0.257865
O O10 0.362928 0.777210 0.219456
O O11 0.483395 0.777630 0.296210
O O12 0.366078 0.704235 0.345857
O O13 0.750000 0.274109 0.856298
O O14 0.675648 0.000000 0.866255
O O15 0.250000 0.742137 0.757880
O O16 0.382343 0.713057 0.713608
O O17 0.354891 0.736834 0.838137
O O18 0.334631 0.000000 0.761972
O O19 0.033163 0.500000 0.654116
O O20 0.250000 0.263166 0.414377
O O21 0.327975 0.000000 0.387387
O O22 0.750000 0.268514 0.084557
O O23 0.829244 0.000000 0.090793
#
# Coordination Sequence:
#
# PCOD9405257 Si02
#       8
#     8   8   8   8   8   8   8   8
#     4   9  17  28  47  78 112 144 181 226 279 338
#     4  10  20  40  62  81 110 148 191 231 271 331
#     4  11  23  40  60  83 113 153 197 237 281 340
#     4  10  21  36  55  83 117 149 187 240 295 344
#     4   9  19  34  54  82 113 145 184 229 275 330
#     4  10  22  38  58  82 111 147 188 233 278 331
#     4  11  24  40  60  90 122 148 184 235 287 341
#     4   8  14  27  47  71 102 140 178 216 263 321
#
# _framework density 20.984307000000001
#
# number of rings (size 3 to 8) (size 9 to 14) (size 15 to 20)
#    0.000    2.250    1.250    2.250    1.750    6.750 
#    0.000    2.500    0.000    1.125    0.000    1.750 
#    0.000    0.000    0.000    0.000    0.000    0.000 
#
# Total GULP energy -356969.811077 kJ/mol
# GULP energy per Si atom -5577.653298 kJ/mol
# Density = 2.093655 g / cm^3
# Si number density = 20.984307 Si / 1000 Ang^3
#
#
#
# Elastic Constant Matrix: (Units=GPa)
#
#
# Indices 1 2 3 4 5 6 
#
# 1 101.9579 2.2624 81.1229 0.0000 0.0000 0.0000
# 2 2.2624 32.0327 -1.1485 0.0000 0.0000 0.0000
# 3 81.1229 -1.1485 156.7541 0.0000 0.0000 0.0000
# 4 0.0000 0.0000 0.0000 30.5781 0.0000 0.0000
# 5 0.0000 0.0000 0.0000 0.0000 34.6071 0.0000
# 6 0.0000 0.0000 0.0000 0.0000 0.0000 16.2993
#
#
#
# Elastic Compliance Matrix: (Units=1/GPa)
#
#
# Indices 1 2 3 4 5 6 
#
# 1 0.016745 -0.001494 -0.008677 0.000000 0.000000 0.000000
# 2 -0.001494 0.031360 0.001003 0.000000 0.000000 0.000000
# 3 -0.008677 0.001003 0.010877 0.000000 0.000000 0.000000
# 4 0.000000 0.000000 0.000000 0.032703 0.000000 0.000000
# 5 0.000000 0.000000 0.000000 0.000000 0.028896 0.000000
# 6 0.000000 0.000000 0.000000 0.000000 0.000000 0.061352
#
#
# Mechanical properties :
#
#
# Convention : Reuss Voigt Hill
#
# Bulk Modulus (GPa) = 24.60254 50.57980 37.59117
# Shear Modulus (GPa) = 23.38458 30.19743 26.79100
#
# Velocity S-wave (km/s) = 3.34186 3.79759 3.57699
# Velocity P-wave (km/s) = 5.16144 6.58672 5.91715
#
# Compressibility (1/GPa) = 0.04064621
#
# Stress axis : x y z
#
# Youngs Moduli (GPa) = 59.72061 31.88821 91.93676
#
# Poissons Ratio (x) = 0.04763 0.79770
# Poissons Ratio (y) = 0.08921 -0.09219
# Poissons Ratio (z) = 0.51817 -0.03198
#
# Static dielectric constant tensor:
#      x y z
#    x 1.642800 0.000000 0.000000 
#    y 0.000000 1.805910 0.000000 
#    z 0.000000 0.000000 1.739040 
# 
# From -- ./inp_files/33884.got.cif
#   From: 2010.05.17/outbox.cif.g08.bks.cpg/sg51_17_cif.got.tgz:33884.got - 2010.06.03 11:52:47.
