data_PCOD9405845
_publ_section_title
;
Structure prediction by ZEFSAII (Michael W. Deem and Ramdas Pophale) SiO2 
 PCOD9405845
Probable space group: P M M A
;
_chemical_formula_sum "Si O2"
_cell_formula_units_Z 48
_cell_length_a 17.625363
_cell_length_b 15.496745
_cell_length_c 9.717450
_cell_angle_alpha 90.000000
_cell_angle_beta 90.000000
_cell_angle_gamma 90.000000
_cell_volume 2654.183052
_symmetry_space_group_name_H-M "P M M A"
_symmetry_group_IT_number 51
_symmetry_cell_setting 'orthorhombic'
loop_
_space_group_symop_operation_xyz
x,y,z
1/2-x,-y,z
1/2+x,-y,-z
-x,y,-z
-x,-y,-z
1/2+x,y,-z
1/2-x,y,z
x,-y,z
loop_
_atom_site_type_symbol
_atom_site_label
_atom_site_fract_x
_atom_site_fract_y
_atom_site_fract_z
Si Si1 0.158551 0.347826 0.302169
Si Si2 0.590517 0.652392 0.998061
Si Si3 0.658414 0.500000 0.179107
Si Si4 0.840491 0.148341 0.687889
Si Si5 0.910178 0.000000 0.503666
Si Si6 0.342157 0.500000 0.503757
Si Si7 0.158588 0.159799 0.993975
Si Si8 0.658470 0.000000 0.199805
O O1 0.250000 0.353706 0.284491
O O2 0.141383 0.248701 0.339792
O O3 0.134581 0.415543 0.418062
O O4 0.120867 0.367156 0.155571
O O5 0.626619 0.583816 0.101780
O O6 0.618282 0.749235 0.032768
O O7 0.500000 0.647323 0.000000
O O8 0.750000 0.500000 0.172825
O O9 0.633469 0.500000 0.338411
O O10 0.750000 0.136762 0.672256
O O11 0.881341 0.083286 0.586904
O O12 0.858903 0.132261 0.848775
O O13 0.000000 0.000000 0.500000
O O14 0.877295 0.000000 0.349926
O O15 0.250000 0.500000 0.505648
O O16 0.250000 0.172996 0.988113
O O17 0.137457 0.084994 0.887682
O O18 0.750000 0.000000 0.212160
#
# Coordination Sequence:
#
# PCOD9405845 Si02
#       8
#     8   8   4   8   4   4   8   4
#     4   9  18  36  60  81 103 141 188 228 266 320
#     4  11  22  36  56  85 116 146 180 223 278 335
#     4  11  22  37  57  82 111 145 186 233 278 320
#     4   9  18  36  60  79 101 140 188 228 266 322
#     4  12  25  36  50  78 116 152 183 220 278 336
#     4   9  19  35  58  84 106 135 182 231 270 310
#     4   9  19  38  63  86 105 137 186 235 277 322
#     4  10  21  36  57  84 111 140 181 232 282 326
#
# _framework density 18.084661000000001
#
# number of rings (size 3 to 8) (size 9 to 14) (size 15 to 20)
#    0.000    2.167    0.000    4.500    0.000    6.000 
#    0.000    6.250    0.000    0.000    0.000    0.000 
#    0.000    0.000    0.000    0.000    0.000    0.000 
#
# Total GULP energy -268060.223555 kJ/mol
# GULP energy per Si atom -5584.587991 kJ/mol
# Density = 1.804350 g / cm^3
# Si number density = 18.084661 Si / 1000 Ang^3
#
#
#
# Elastic Constant Matrix: (Units=GPa)
#
#
# Indices 1 2 3 4 5 6 
#
# 1 57.4600 65.0977 68.5744 0.0000 0.0000 0.0000
# 2 65.0977 149.0667 142.8208 0.0000 0.0000 0.0000
# 3 68.5744 142.8208 180.6011 0.0000 0.0000 0.0000
# 4 0.0000 0.0000 0.0000 -8.3643 0.0000 0.0000
# 5 0.0000 0.0000 0.0000 0.0000 -7.0010 0.0000
# 6 0.0000 0.0000 0.0000 0.0000 0.0000 -2.5966
#
#
#
# Elastic Compliance Matrix: (Units=1/GPa)
#
#
# Indices 1 2 3 4 5 6 
#
# 1 0.035521 -0.010688 -0.005036 0.000000 0.000000 0.000000
# 2 -0.010688 0.030899 -0.020377 0.000000 0.000000 0.000000
# 3 -0.005036 -0.020377 0.023563 0.000000 0.000000 0.000000
# 4 0.000000 0.000000 0.000000 -0.119556 0.000000 0.000000
# 5 0.000000 0.000000 0.000000 0.000000 -0.142837 0.000000
# 6 0.000000 0.000000 0.000000 0.000000 0.000000 -0.385126
#
#
# Mechanical properties :
#
#
# Convention : Reuss Voigt Hill
#
# Bulk Modulus (GPa) = 56.23304 104.45709 80.34507
# Shear Modulus (GPa) = -10.42955 3.78329 -3.32313
#
# Velocity S-wave (km/s) = -2.40408 1.44794 -1.35703
# Velocity P-wave (km/s) = 4.84311 7.78979 6.48601
#
# Compressibility (1/GPa) = 0.01778314
#
# Stress axis : x y z
#
# Youngs Moduli (GPa) = 28.15212 32.36357 42.43858
#
# Poissons Ratio (x) = 0.34589 0.21371
# Poissons Ratio (y) = 0.30088 0.86477
# Poissons Ratio (z) = 0.14177 0.65947
#
# Static dielectric constant tensor:
#      x y z
#    x 1.594690 0.000000 0.000000 
#    y 0.000000 1.611750 0.000000 
#    z 0.000000 0.000000 1.594720 
# 
# From -- ./inp_files/9764.got.cif
#   From: 2010.05.17/outbox.cif.g08.bks.cpg/sg51_5_cif.got.tgz:9764.got - 2010.06.03 11:52:47.
