data_PCOD9405907
_publ_section_title
;
Structure prediction by ZEFSAII (Michael W. Deem and Ramdas Pophale) SiO2 
 PCOD9405907
Probable space group: P M M A
;
_chemical_formula_sum "Si O2"
_cell_formula_units_Z 32
_cell_length_a 18.098144
_cell_length_b 9.196207
_cell_length_c 10.549602
_cell_angle_alpha 90.000000
_cell_angle_beta 90.000000
_cell_angle_gamma 90.000000
_cell_volume 1755.815398
_symmetry_space_group_name_H-M "P M M A"
_symmetry_group_IT_number 51
_symmetry_cell_setting 'orthorhombic'
loop_
_space_group_symop_operation_xyz
x,y,z
1/2-x,-y,z
1/2+x,-y,-z
-x,y,-z
-x,-y,-z
1/2+x,y,-z
1/2-x,y,z
x,-y,z
loop_
_atom_site_type_symbol
_atom_site_label
_atom_site_fract_x
_atom_site_fract_y
_atom_site_fract_z
Si Si1 0.936199 0.825231 0.219776
Si Si2 0.094125 0.327182 0.251662
Si Si3 0.589990 0.833659 0.496010
Si Si4 0.164771 0.829513 0.020871
O O1 0.893314 0.791612 0.351091
O O2 0.013385 0.740698 0.221111
O O3 0.950958 0.000000 0.222406
O O4 0.888717 0.792060 0.095858
O O5 0.090692 0.500000 0.251581
O O6 0.116091 0.267920 0.390599
O O7 0.147015 0.266247 0.142870
O O8 0.500000 0.832099 0.500000
O O9 0.613692 0.000000 0.519010
O O10 0.250000 0.814277 0.982775
O O11 0.151632 0.000000 0.052307
#
# Coordination Sequence:
#
# PCOD9405907 Si02
#       4
#     8   8   8   8
#     4   9  18  34  56  79 102 130 170 217 258 299
#     4  11  21  32  51  79 108 137 169 205 250 306
#     4   8  15  30  52  77 103 130 165 211 256 296
#     4  10  21  37  55  74  99 134 174 214 256 301
#
# _framework density 18.225149999999999
#
# number of rings (size 3 to 8) (size 9 to 14) (size 15 to 20)
#    0.000    2.500    0.000    4.500    0.000    9.000 
#    0.000    1.250    0.000    4.500    0.000    0.000 
#    0.000    0.000    0.000    0.000    0.000    0.000 
#
# Total GULP energy -178506.187604 kJ/mol
# GULP energy per Si atom -5578.318363 kJ/mol
# Density = 1.818367 g / cm^3
# Si number density = 18.225150 Si / 1000 Ang^3
#
#
#
# Elastic Constant Matrix: (Units=GPa)
#
#
# Indices 1 2 3 4 5 6 
#
# 1 15.3016 10.5341 -0.8038 0.0000 0.0000 0.0000
# 2 10.5341 51.0764 26.3306 0.0000 0.0000 0.0000
# 3 -0.8038 26.3306 71.2739 0.0000 0.0000 0.0000
# 4 0.0000 0.0000 0.0000 2.4921 0.0000 0.0000
# 5 0.0000 0.0000 0.0000 0.0000 -0.6157 0.0000
# 6 0.0000 0.0000 0.0000 0.0000 0.0000 -13.0862
#
#
#
# Elastic Compliance Matrix: (Units=1/GPa)
#
#
# Indices 1 2 3 4 5 6 
#
# 1 0.080286 -0.021030 0.008675 0.000000 0.000000 0.000000
# 2 -0.021030 0.029693 -0.011207 0.000000 0.000000 0.000000
# 3 0.008675 -0.011207 0.018268 0.000000 0.000000 0.000000
# 4 0.000000 0.000000 0.000000 0.401263 0.000000 0.000000
# 5 0.000000 0.000000 0.000000 0.000000 -1.624208 0.000000
# 6 0.000000 0.000000 0.000000 0.000000 0.000000 -0.076416
#
#
# Mechanical properties :
#
#
# Convention : Reuss Voigt Hill
#
# Bulk Modulus (GPa) = 12.32694 23.30817 17.81756
# Shear Modulus (GPa) = -4.55810 4.53077 -0.01366
#
# Velocity S-wave (km/s) = -1.58317 1.57842 -0.08668
# Velocity P-wave (km/s) = 1.85378 4.01729 3.12851
#
# Compressibility (1/GPa) = 0.08112311
#
# Stress axis : x y z
#
# Youngs Moduli (GPa) = 12.45541 33.67795 54.73973
#
# Poissons Ratio (x) = 0.70826 -0.47485
# Poissons Ratio (y) = 0.26194 0.61345
# Poissons Ratio (z) = -0.10805 0.37742
#
# Static dielectric constant tensor:
#      x y z
#    x 1.611770 0.000000 0.000000 
#    y 0.000000 1.603650 0.000000 
#    z 0.000000 0.000000 1.652960 
# 
# From -- ./inp_files/10283.got.cif
#   From: 2010.05.17/outbox.cif.g08.bks.cpg/sg51_6_cif.got.tgz:10283.got - 2010.06.03 11:52:47.
