data_PCOD9405504
_publ_section_title
;
Structure prediction by ZEFSAII (Michael W. Deem and Ramdas Pophale) SiO2 
 PCOD9405504
Probable space group: P M M A
;
_chemical_formula_sum "Si O2"
_cell_formula_units_Z 44
_cell_length_a 9.703713
_cell_length_b 7.643094
_cell_length_c 30.499304
_cell_angle_alpha 90.000000
_cell_angle_beta 90.000000
_cell_angle_gamma 90.000000
_cell_volume 2262.023294
_symmetry_space_group_name_H-M "P M M A"
_symmetry_group_IT_number 51
_symmetry_cell_setting 'orthorhombic'
loop_
_space_group_symop_operation_xyz
x,y,z
1/2-x,-y,z
1/2+x,-y,-z
-x,y,-z
-x,-y,-z
1/2+x,y,-z
1/2-x,y,z
x,-y,z
loop_
_atom_site_type_symbol
_atom_site_label
_atom_site_fract_x
_atom_site_fract_y
_atom_site_fract_z
Si Si1 0.912511 0.292152 0.115725
Si Si2 0.906462 0.211158 0.379205
Si Si3 0.405382 0.210608 0.720099
Si Si4 0.594641 0.291845 0.539167
Si Si5 0.413545 0.000000 0.955782
Si Si6 0.905309 0.708647 0.801854
O O1 0.750000 0.270578 0.126284
O O2 0.935577 0.500000 0.107565
O O3 0.003636 0.231224 0.156928
O O4 0.943009 0.170790 0.074035
O O5 0.750000 0.269293 0.390312
O O6 0.937650 0.270413 0.329480
O O7 0.016088 0.266949 0.415109
O O8 0.904995 0.000000 0.378847
O O9 0.250000 0.272053 0.731301
O O10 0.514669 0.259576 0.756703
O O11 0.400953 0.000000 0.718753
O O12 0.500000 0.218854 0.500000
O O13 0.750000 0.220138 0.539419
O O14 0.605656 0.500000 0.531925
O O15 0.250000 0.000000 0.965400
O O16 0.500000 0.000000 0.000000
O O17 0.750000 0.780265 0.801498
O O18 0.896154 0.500000 0.806933
#
# Coordination Sequence:
#
# PCOD9405504 Si02
#       6
#     8   8   8   8   4   8
#     4   9  19  37  58  80 111 150 190 233 279 331
#     4   9  19  36  55  76 103 135 173 215 260 314
#     4   9  19  35  54  76 104 140 179 217 260 315
#     4  10  21  36  54  76 101 131 169 213 262 316
#     4  10  22  38  58  86 114 146 190 234 281 340
#     4  10  21  35  52  79 112 143 179 224 273 323
#
# _framework density 19.451613999999999
#
# number of rings (size 3 to 8) (size 9 to 14) (size 15 to 20)
#    0.000    2.545    0.000    2.182    1.273    5.818 
#    0.000    5.455    0.000    0.000    0.000    0.000 
#    0.000    0.000    0.000    0.000    0.000    0.000 
#
# Total GULP energy -245556.046444 kJ/mol
# GULP energy per Si atom -5580.819237 kJ/mol
# Density = 1.940734 g / cm^3
# Si number density = 19.451614 Si / 1000 Ang^3
#
#
#
# Elastic Constant Matrix: (Units=GPa)
#
#
# Indices 1 2 3 4 5 6 
#
# 1 166.3328 32.4553 133.2005 0.0000 0.0000 0.0000
# 2 32.4553 48.1761 24.5208 0.0000 0.0000 0.0000
# 3 133.2005 24.5208 163.3286 0.0000 0.0000 0.0000
# 4 0.0000 0.0000 0.0000 29.0561 0.0000 0.0000
# 5 0.0000 0.0000 0.0000 0.0000 35.6184 0.0000
# 6 0.0000 0.0000 0.0000 0.0000 0.0000 18.4149
#
#
#
# Elastic Compliance Matrix: (Units=1/GPa)
#
#
# Indices 1 2 3 4 5 6 
#
# 1 0.018445 -0.005164 -0.014267 0.000000 0.000000 0.000000
# 2 -0.005164 0.023920 0.000620 0.000000 0.000000 0.000000
# 3 -0.014267 0.000620 0.017665 0.000000 0.000000 0.000000
# 4 0.000000 0.000000 0.000000 0.034416 0.000000 0.000000
# 5 0.000000 0.000000 0.000000 0.000000 0.028075 0.000000
# 6 0.000000 0.000000 0.000000 0.000000 0.000000 0.054304
#
#
# Mechanical properties :
#
#
# Convention : Reuss Voigt Hill
#
# Bulk Modulus (GPa) = 44.62644 84.24341 64.43493
# Shear Modulus (GPa) = 22.53087 29.12861 25.82974
#
# Velocity S-wave (km/s) = 3.40708 3.87394 3.64799
# Velocity P-wave (km/s) = 6.20239 7.96324 7.13732
#
# Compressibility (1/GPa) = 0.02240824
#
# Stress axis : x y z
#
# Youngs Moduli (GPa) = 54.21491 41.80518 56.60900
#
# Poissons Ratio (x) = 0.21589 0.80766
# Poissons Ratio (y) = 0.27998 -0.03512
# Poissons Ratio (z) = 0.77350 -0.02594
#
# Static dielectric constant tensor:
#      x y z
#    x 1.680850 0.000000 0.000000 
#    y 0.000000 1.717870 0.000000 
#    z 0.000000 0.000000 1.645070 
# 
# From -- ./inp_files/36776.got.cif
#   From: 2010.05.17/outbox.cif.g08.bks.cpg/sg51_19_cif.got.tgz:36776.got - 2010.06.03 11:52:47.
