data_PCOD9405659
_publ_section_title
;
Structure prediction by ZEFSAII (Michael W. Deem and Ramdas Pophale) SiO2 
 PCOD9405659
Probable space group: P M M A
;
_chemical_formula_sum "Si O2"
_cell_formula_units_Z 64
_cell_length_a 8.935151
_cell_length_b 14.311171
_cell_length_c 26.849267
_cell_angle_alpha 90.000000
_cell_angle_beta 90.000000
_cell_angle_gamma 90.000000
_cell_volume 3433.282193
_symmetry_space_group_name_H-M "P M M A"
_symmetry_group_IT_number 51
_symmetry_cell_setting 'orthorhombic'
loop_
_space_group_symop_operation_xyz
x,y,z
1/2-x,-y,z
1/2+x,-y,-z
-x,y,-z
-x,-y,-z
1/2+x,y,-z
1/2-x,y,z
x,-y,z
loop_
_atom_site_type_symbol
_atom_site_label
_atom_site_fract_x
_atom_site_fract_y
_atom_site_fract_z
Si Si1 0.426234 0.887428 0.255509
Si Si2 0.428531 0.390479 0.304137
Si Si3 0.071743 0.390213 0.095255
Si Si4 0.071569 0.889255 0.848512
Si Si5 0.428882 0.216203 0.949539
Si Si6 0.579584 0.613163 0.199863
Si Si7 0.429540 0.781389 0.651387
Si Si8 0.070016 0.108632 0.552163
O O1 0.250000 0.866535 0.258169
O O2 0.490949 0.856683 0.201920
O O3 0.509623 0.840030 0.301629
O O4 0.446028 0.000000 0.258490
O O5 0.250000 0.380284 0.302972
O O6 0.463369 0.500000 0.312190
O O7 0.496622 0.361304 0.250629
O O8 0.501767 0.321632 0.343768
O O9 0.250000 0.377623 0.092574
O O10 0.038644 0.500000 0.086920
O O11 0.988073 0.321372 0.058072
O O12 0.011535 0.364053 0.150268
O O13 0.250000 0.876198 0.842396
O O14 0.025441 0.838884 0.899472
O O15 0.043105 0.000000 0.853636
O O16 0.250000 0.214672 0.952992
O O17 0.500000 0.176951 0.000000
O O18 0.750000 0.649278 0.197823
O O19 0.587534 0.500000 0.200553
O O20 0.250000 0.777571 0.653835
O O21 0.474677 0.831504 0.600084
O O22 0.250000 0.111856 0.548339
O O23 0.000000 0.140376 0.500000
O O24 0.026200 0.000000 0.559798
#
# Coordination Sequence:
#
# PCOD9405659 Si02
#       8
#     8   8   8   8   8   8   8   8
#     4  10  21  36  56  85 118 150 185 227 278 337
#     4  10  21  36  53  77 112 152 194 240 286 332
#     4  10  21  37  57  80 108 143 180 222 274 330
#     4   9  20  40  62  82 108 143 180 222 277 338
#     4  11  24  40  59  82 107 138 180 228 279 336
#     4   9  17  31  52  77 105 139 180 223 270 329
#     4  11  22  35  56  85 118 156 195 236 285 341
#     4   9  19  36  58  85 117 154 194 237 286 338
#
# _framework density 18.641054
#
# number of rings (size 3 to 8) (size 9 to 14) (size 15 to 20)
#    0.000    2.125    0.000    2.625    1.750    6.750 
#    0.000    1.250    0.000    0.375    0.000    0.000 
#    0.000    0.000    0.000    0.000    0.000    0.000 
#
# Total GULP energy -357570.478869 kJ/mol
# GULP energy per Si atom -5587.038732 kJ/mol
# Density = 1.859863 g / cm^3
# Si number density = 18.641054 Si / 1000 Ang^3
#
#
#
# Elastic Constant Matrix: (Units=GPa)
#
#
# Indices 1 2 3 4 5 6 
#
# 1 60.1994 35.2644 49.3428 0.0000 0.0000 0.0000
# 2 35.2644 75.4264 65.0041 0.0000 0.0000 0.0000
# 3 49.3428 65.0041 150.8650 0.0000 0.0000 0.0000
# 4 0.0000 0.0000 0.0000 28.4992 0.0000 0.0000
# 5 0.0000 0.0000 0.0000 0.0000 34.0903 0.0000
# 6 0.0000 0.0000 0.0000 0.0000 0.0000 23.9542
#
#
#
# Elastic Compliance Matrix: (Units=1/GPa)
#
#
# Indices 1 2 3 4 5 6 
#
# 1 0.025047 -0.007397 -0.005005 0.000000 0.000000 0.000000
# 2 -0.007397 0.023274 -0.007609 0.000000 0.000000 0.000000
# 3 -0.005005 -0.007609 0.011544 0.000000 0.000000 0.000000
# 4 0.000000 0.000000 0.000000 0.035089 0.000000 0.000000
# 5 0.000000 0.000000 0.000000 0.000000 0.029334 0.000000
# 6 0.000000 0.000000 0.000000 0.000000 0.000000 0.041746
#
#
# Mechanical properties :
#
#
# Convention : Reuss Voigt Hill
#
# Bulk Modulus (GPa) = 50.39516 65.07924 57.73720
# Shear Modulus (GPa) = 23.51077 26.43404 24.97241
#
# Velocity S-wave (km/s) = 3.55524 3.76979 3.66409
# Velocity P-wave (km/s) = 6.62919 7.34411 6.99579
#
# Compressibility (1/GPa) = 0.01984318
#
# Stress axis : x y z
#
# Youngs Moduli (GPa) = 39.92536 42.96694 86.62689
#
# Poissons Ratio (x) = 0.31783 0.43354
# Poissons Ratio (y) = 0.29533 0.65912
# Poissons Ratio (z) = 0.19982 0.32693
#
# Static dielectric constant tensor:
#      x y z
#    x 1.621900 0.000000 0.000000 
#    y 0.000000 1.679710 0.000000 
#    z 0.000000 0.000000 1.621520 
# 
# From -- ./inp_files/34911.got.cif
#   From: 2010.05.17/outbox.cif.g08.bks.cpg/sg51_18_cif.got.tgz:34911.got - 2010.06.03 11:52:47.
