data_PCOD9405327
_publ_section_title
;
Structure prediction by ZEFSAII (Michael W. Deem and Ramdas Pophale) SiO2 
 PCOD9405327
Probable space group: P M M A
;
_chemical_formula_sum "Si O2"
_cell_formula_units_Z 64
_cell_length_a 9.268575
_cell_length_b 17.883951
_cell_length_c 21.105546
_cell_angle_alpha 90.000000
_cell_angle_beta 90.000000
_cell_angle_gamma 90.000000
_cell_volume 3498.428736
_symmetry_space_group_name_H-M "P M M A"
_symmetry_group_IT_number 51
_symmetry_cell_setting 'orthorhombic'
loop_
_space_group_symop_operation_xyz
x,y,z
1/2-x,-y,z
1/2+x,-y,-z
-x,y,-z
-x,-y,-z
1/2+x,y,-z
1/2-x,y,z
x,-y,z
loop_
_atom_site_type_symbol
_atom_site_label
_atom_site_fract_x
_atom_site_fract_y
_atom_site_fract_z
Si Si1 0.922737 0.415192 0.682845
Si Si2 0.082185 0.882542 0.436887
Si Si3 0.578526 0.128937 0.313149
Si Si4 0.084429 0.410250 0.814203
Si Si5 0.083069 0.351472 0.063582
Si Si6 0.417780 0.740026 0.364710
Si Si7 0.584575 0.171055 0.937221
Si Si8 0.420731 0.086086 0.829357
O O1 0.750000 0.416264 0.693710
O O2 0.965007 0.500000 0.663984
O O3 0.952320 0.347464 0.634216
O O4 0.002868 0.395188 0.748192
O O5 0.250000 0.902950 0.438674
O O6 0.072263 0.791538 0.427428
O O7 0.000000 0.905238 0.500000
O O8 0.004619 0.908656 0.372236
O O9 0.750000 0.124467 0.323036
O O10 0.522126 0.214632 0.317380
O O11 0.542863 0.096722 0.244636
O O12 0.250000 0.383002 0.812817
O O13 0.087270 0.500000 0.820513
O O14 0.998538 0.378401 0.873839
O O15 0.250000 0.376235 0.062908
O O16 0.081581 0.261184 0.064007
O O17 0.000000 0.376496 0.000000
O O18 0.250000 0.747487 0.343834
O O19 0.750000 0.146657 0.940560
O O20 0.509639 0.139215 0.874950
O O21 0.500000 0.146161 0.000000
O O22 0.250000 0.102170 0.835654
O O23 0.445501 0.000000 0.847072
#
# Coordination Sequence:
#
# PCOD9405327 Si02
#       8
#     8   8   8   8   8   8   8   8
#     4   9  17  31  49  69  97 134 172 212 260 309
#     4   9  17  30  50  77 108 139 175 220 262 307
#     4   9  18  32  52  79 106 138 174 212 259 307
#     4  10  21  34  48  70  99 131 168 211 260 314
#     4  10  21  36  53  73  96 126 165 210 257 308
#     4   8  17  30  47  73 102 133 171 215 257 302
#     4  10  22  39  59  82 107 138 178 221 265 316
#     4  10  22  39  58  82 112 143 174 211 259 316
#
# _framework density 18.293928000000001
#
# number of rings (size 3 to 8) (size 9 to 14) (size 15 to 20)
#    0.750    1.875    0.000    1.500    1.750    4.500 
#    0.000    0.000    0.000    0.750    0.000    0.000 
#    0.000    0.000    0.000    0.000    0.000    0.000 
#
# Total GULP energy -356447.962046 kJ/mol
# GULP energy per Si atom -5569.499407 kJ/mol
# Density = 1.825229 g / cm^3
# Si number density = 18.293928 Si / 1000 Ang^3
#
#
#
# Elastic Constant Matrix: (Units=GPa)
#
#
# Indices 1 2 3 4 5 6 
#
# 1 72.6911 14.9832 40.1532 0.0000 0.0000 0.0000
# 2 14.9832 37.2095 10.3685 0.0000 0.0000 0.0000
# 3 40.1532 10.3685 73.5435 0.0000 0.0000 0.0000
# 4 0.0000 0.0000 0.0000 216.0928 0.0000 0.0000
# 5 0.0000 0.0000 0.0000 0.0000 28.5486 0.0000
# 6 0.0000 0.0000 0.0000 0.0000 0.0000 -67.9948
#
#
#
# Elastic Compliance Matrix: (Units=1/GPa)
#
#
# Indices 1 2 3 4 5 6 
#
# 1 0.020688 -0.005395 -0.010535 0.000000 0.000000 0.000000
# 2 -0.005395 0.029381 -0.001197 0.000000 0.000000 0.000000
# 3 -0.010535 -0.001197 0.019518 0.000000 0.000000 0.000000
# 4 0.000000 0.000000 0.000000 0.004628 0.000000 0.000000
# 5 0.000000 0.000000 0.000000 0.000000 0.035028 0.000000
# 6 0.000000 0.000000 0.000000 0.000000 0.000000 -0.014707
#
#
# Mechanical properties :
#
#
# Convention : Reuss Voigt Hill
#
# Bulk Modulus (GPa) = 28.30137 34.93931 31.62034
# Shear Modulus (GPa) = 35.57056 43.19192 39.38124
#
# Velocity S-wave (km/s) = 4.41431 4.86428 4.64475
# Velocity P-wave (km/s) = 6.44092 7.11959 6.78874
#
# Compressibility (1/GPa) = 0.03533398
#
# Stress axis : x y z
#
# Youngs Moduli (GPa) = 48.33721 34.03592 51.23532
#
# Poissons Ratio (x) = 0.18362 0.53974
# Poissons Ratio (y) = 0.26078 0.06131
# Poissons Ratio (z) = 0.50921 0.04073
#
# Static dielectric constant tensor:
#      x y z
#    x 1.619760 0.000000 0.000000 
#    y 0.000000 1.652630 0.000000 
#    z 0.000000 0.000000 1.591520 
# 
# From -- ./inp_files/32596.got.cif
#   From: 2010.05.17/outbox.cif.g08.bks.cpg/sg51_17_cif.got.tgz:32596.got - 2010.06.03 11:52:47.
