data_PCOD9405808
_publ_section_title
;
Structure prediction by ZEFSAII (Michael W. Deem and Ramdas Pophale) SiO2 
 PCOD9405808
Probable space group: P M M A
;
_chemical_formula_sum "Si O2"
_cell_formula_units_Z 48
_cell_length_a 8.270514
_cell_length_b 32.268273
_cell_length_c 9.211382
_cell_angle_alpha 90.000000
_cell_angle_beta 90.000000
_cell_angle_gamma 90.000000
_cell_volume 2458.289447
_symmetry_space_group_name_H-M "P M M A"
_symmetry_group_IT_number 51
_symmetry_cell_setting 'orthorhombic'
loop_
_space_group_symop_operation_xyz
x,y,z
1/2-x,-y,z
1/2+x,-y,-z
-x,y,-z
-x,-y,-z
1/2+x,y,-z
1/2-x,y,z
x,-y,z
loop_
_atom_site_type_symbol
_atom_site_label
_atom_site_fract_x
_atom_site_fract_y
_atom_site_fract_z
Si Si1 0.556460 0.747017 0.334337
Si Si2 0.554563 0.417547 0.333879
Si Si3 0.944972 0.000000 0.667695
Si Si4 0.945456 0.500000 0.166150
Si Si5 0.556534 0.828348 0.834911
Si Si6 0.554494 0.335097 0.166070
Si Si7 0.445809 0.909743 0.332612
O O1 0.500000 0.745602 0.500000
O O2 0.750000 0.746510 0.332159
O O3 0.499085 0.788784 0.256707
O O4 0.497377 0.706532 0.246877
O O5 0.500000 0.417832 0.500000
O O6 0.750000 0.417559 0.331474
O O7 0.498421 0.458701 0.249581
O O8 0.498537 0.376088 0.251407
O O9 0.000225 0.044866 0.725256
O O10 0.000000 0.000000 0.500000
O O11 0.750000 0.000000 0.673579
O O12 0.750000 0.500000 0.168533
O O13 0.000000 0.500000 0.000000
O O14 0.750000 0.829356 0.832868
O O15 0.495646 0.870898 0.760976
O O16 0.500000 0.824932 0.000000
O O17 0.750000 0.335030 0.168690
O O18 0.500000 0.335819 0.000000
O O19 0.500000 0.905484 0.500000
O O20 0.250000 0.909402 0.331609
#
# Coordination Sequence:
#
# PCOD9405808 Si02
#       7
#     8   8   4   4   8   8   8
#     4  11  23  39  59  83 109 141 180 223 269 321
#     4  10  21  37  56  82 112 144 183 226 269 320
#     4   8  14  28  49  74 102 132 168 212 259 310
#     4  10  21  36  56  82 112 144 183 226 272 324
#     4  11  23  38  55  78 108 143 180 222 270 321
#     4  10  22  38  57  82 112 144 181 222 268 320
#     4   9  18  32  53  78 104 135 173 216 263 314
#
# _framework density 19.525772
#
# number of rings (size 3 to 8) (size 9 to 14) (size 15 to 20)
#    0.000    2.000    0.000    3.250    0.000    6.667 
#    0.000    0.417    0.000    0.000    0.000    0.000 
#    0.000    0.000    0.000    0.000    0.000    0.000 
#
# Total GULP energy -268069.740723 kJ/mol
# GULP energy per Si atom -5584.786265 kJ/mol
# Density = 1.948133 g / cm^3
# Si number density = 19.525772 Si / 1000 Ang^3
#
#
#
# Elastic Constant Matrix: (Units=GPa)
#
#
# Indices 1 2 3 4 5 6 
#
# 1 16.9127 26.0265 13.1908 0.0000 0.0000 0.0000
# 2 26.0265 240.8259 125.2618 0.0000 0.0000 0.0000
# 3 13.1908 125.2618 178.2726 0.0000 0.0000 0.0000
# 4 0.0000 0.0000 0.0000 -0.1966 0.0000 0.0000
# 5 0.0000 0.0000 0.0000 0.0000 35.4199 0.0000
# 6 0.0000 0.0000 0.0000 0.0000 0.0000 19.5522
#
#
#
# Elastic Compliance Matrix: (Units=1/GPa)
#
#
# Indices 1 2 3 4 5 6 
#
# 1 0.070928 -0.007778 0.000217 0.000000 0.000000 0.000000
# 2 -0.007778 0.007397 -0.004622 0.000000 0.000000 0.000000
# 3 0.000217 -0.004622 0.008841 0.000000 0.000000 0.000000
# 4 0.000000 0.000000 0.000000 -5.087727 0.000000 0.000000
# 5 0.000000 0.000000 0.000000 0.000000 0.028233 0.000000
# 6 0.000000 0.000000 0.000000 0.000000 0.000000 0.051145
#
#
# Mechanical properties :
#
#
# Convention : Reuss Voigt Hill
#
# Bulk Modulus (GPa) = 15.92364 84.99658 50.46011
# Shear Modulus (GPa) = -1.02545 29.05723 14.01589
#
# Velocity S-wave (km/s) = -0.72548 3.86184 2.68211
# Velocity P-wave (km/s) = 2.73334 7.96932 5.95740
#
# Compressibility (1/GPa) = 0.06279969
#
# Stress axis : x y z
#
# Youngs Moduli (GPa) = 14.09886 135.18977 113.11113
#
# Poissons Ratio (x) = 1.05155 -0.02458
# Poissons Ratio (y) = 0.10967 0.52279
# Poissons Ratio (z) = -0.00306 0.62484
#
# Static dielectric constant tensor:
#      x y z
#    x 1.689720 0.000000 0.000000 
#    y 0.000000 1.711970 0.000000 
#    z 0.000000 0.000000 1.616130 
# 
# From -- ./inp_files/6172.got.cif
#   From: 2010.05.17/outbox.cif.g08.bks.cpg/sg51_4_cif.got.tgz:6172.got - 2010.06.03 11:52:47.
