data_PCOD9405269
_publ_section_title
;
Structure prediction by ZEFSAII (Michael W. Deem and Ramdas Pophale) SiO2 
 PCOD9405269
Probable space group: P M M A
;
_chemical_formula_sum "Si O2"
_cell_formula_units_Z 56
_cell_length_a 9.050084
_cell_length_b 16.650705
_cell_length_c 19.688352
_cell_angle_alpha 90.000000
_cell_angle_beta 90.000000
_cell_angle_gamma 90.000000
_cell_volume 2966.843254
_symmetry_space_group_name_H-M "P M M A"
_symmetry_group_IT_number 51
_symmetry_cell_setting 'orthorhombic'
loop_
_space_group_symop_operation_xyz
x,y,z
1/2-x,-y,z
1/2+x,-y,-z
-x,y,-z
-x,-y,-z
1/2+x,y,-z
1/2-x,y,z
x,-y,z
loop_
_atom_site_type_symbol
_atom_site_label
_atom_site_fract_x
_atom_site_fract_y
_atom_site_fract_z
Si Si1 0.419366 0.000000 0.260842
Si Si2 0.575518 0.824404 0.805448
Si Si3 0.916425 0.839563 0.559815
Si Si4 0.926697 0.412367 0.925224
Si Si5 0.578160 0.000000 0.398577
Si Si6 0.073953 0.252182 0.925779
Si Si7 0.080507 0.286412 0.320452
Si Si8 0.924712 0.595639 0.426105
O O1 0.434693 0.915878 0.221329
O O2 0.539935 0.000000 0.319296
O O3 0.250000 0.000000 0.289990
O O4 0.750000 0.809615 0.819425
O O5 0.479886 0.814080 0.872937
O O6 0.528711 0.757377 0.749036
O O7 0.750000 0.856525 0.539113
O O8 0.914894 0.787872 0.627299
O O9 0.000000 0.793872 0.500000
O O10 0.002754 0.920920 0.572690
O O11 0.750000 0.399642 0.930603
O O12 0.950376 0.500000 0.892500
O O13 0.007370 0.335408 0.895208
O O14 0.000000 0.417018 0.000000
O O15 0.750000 0.000000 0.411940
O O16 0.250000 0.256652 0.932441
O O17 0.000000 0.241352 0.000000
O O18 0.250000 0.314649 0.309706
O O19 0.991489 0.353828 0.362710
O O20 0.750000 0.613146 0.431863
O O21 0.943580 0.500000 0.413252
O O22 0.000000 0.611225 0.500000
#
# Coordination Sequence:
#
# PCOD9405269 Si02
#       8
#     4   8   8   8   4   8   8   8
#     4  10  20  41  66  85 112 151 190 235 290 353
#     4  10  21  40  64  88 114 148 189 235 293 353
#     4  11  22  37  54  79 113 149 188 231 284 335
#     4   9  16  28  50  80 113 148 184 222 268 326
#     4  12  23  35  54  81 112 149 188 231 278 333
#     4  11  22  37  59  87 119 154 193 240 291 348
#     4  10  21  37  60  85 112 147 189 237 288 346
#     4  10  21  37  58  84 117 157 201 248 295 342
#
# _framework density 18.875281000000001
#
# number of rings (size 3 to 8) (size 9 to 14) (size 15 to 20)
#    0.000    1.714    1.429    4.714    0.000    5.143 
#    0.000    1.071    0.000    0.857    0.000    0.000 
#    0.000    0.000    0.000    0.000    0.000    0.000 
#
# Total GULP energy -312284.514129 kJ/mol
# GULP energy per Si atom -5576.509181 kJ/mol
# Density = 1.883232 g / cm^3
# Si number density = 18.875281 Si / 1000 Ang^3
#
#
#
# Elastic Constant Matrix: (Units=GPa)
#
#
# Indices 1 2 3 4 5 6 
#
# 1 129.6675 51.2886 47.7154 0.0000 0.0000 0.0000
# 2 51.2886 88.3163 31.2726 0.0000 0.0000 0.0000
# 3 47.7154 31.2726 87.2427 0.0000 0.0000 0.0000
# 4 0.0000 0.0000 0.0000 27.0064 0.0000 0.0000
# 5 0.0000 0.0000 0.0000 0.0000 27.7421 0.0000
# 6 0.0000 0.0000 0.0000 0.0000 0.0000 22.1466
#
#
#
# Elastic Compliance Matrix: (Units=1/GPa)
#
#
# Indices 1 2 3 4 5 6 
#
# 1 0.011310 -0.005014 -0.004388 0.000000 0.000000 0.000000
# 2 -0.005014 0.015192 -0.002703 0.000000 0.000000 0.000000
# 3 -0.004388 -0.002703 0.014831 0.000000 0.000000 0.000000
# 4 0.000000 0.000000 0.000000 0.037028 0.000000 0.000000
# 5 0.000000 0.000000 0.000000 0.000000 0.036046 0.000000
# 6 0.000000 0.000000 0.000000 0.000000 0.000000 0.045154
#
#
# Mechanical properties :
#
#
# Convention : Reuss Voigt Hill
#
# Bulk Modulus (GPa) = 58.40516 62.86442 60.63479
# Shear Modulus (GPa) = 26.38778 27.04233 26.71505
#
# Velocity S-wave (km/s) = 3.74305 3.78919 3.76619
# Velocity P-wave (km/s) = 7.04914 7.24716 7.14884
#
# Compressibility (1/GPa) = 0.01712177
#
# Stress axis : x y z
#
# Youngs Moduli (GPa) = 88.41491 65.82333 67.42426
#
# Poissons Ratio (x) = 0.33006 0.29589
# Poissons Ratio (y) = 0.44335 0.18226
# Poissons Ratio (z) = 0.38801 0.17794
#
# Static dielectric constant tensor:
#      x y z
#    x 1.643790 0.000000 0.000000 
#    y 0.000000 1.699950 0.000000 
#    z 0.000000 0.000000 1.682000 
# 
# From -- ./inp_files/32084.got.cif
#   From: 2010.05.17/outbox.cif.g08.bks.cpg/sg51_17_cif.got.tgz:32084.got - 2010.06.03 11:52:47.
