data_PCOD9405426
_publ_section_title
;
Structure prediction by ZEFSAII (Michael W. Deem and Ramdas Pophale) SiO2 
 PCOD9405426
Probable space group: P M M A
;
_chemical_formula_sum "Si O2"
_cell_formula_units_Z 44
_cell_length_a 7.527903
_cell_length_b 30.026662
_cell_length_c 9.194027
_cell_angle_alpha 90.000000
_cell_angle_beta 90.000000
_cell_angle_gamma 90.000000
_cell_volume 2078.197627
_symmetry_space_group_name_H-M "P M M A"
_symmetry_group_IT_number 51
_symmetry_cell_setting 'orthorhombic'
loop_
_space_group_symop_operation_xyz
x,y,z
1/2-x,-y,z
1/2+x,-y,-z
-x,y,-z
-x,-y,-z
1/2+x,y,-z
1/2-x,y,z
x,-y,z
loop_
_atom_site_type_symbol
_atom_site_label
_atom_site_fract_x
_atom_site_fract_y
_atom_site_fract_z
Si Si1 0.036908 0.225935 0.829201
Si Si2 0.536910 0.950592 0.170701
Si Si3 0.036864 0.862748 0.670276
Si Si4 0.463441 0.596733 0.827797
Si Si5 0.463165 0.685237 0.670625
Si Si6 0.962645 0.500000 0.172984
O O1 0.250000 0.225852 0.810146
O O2 0.968296 0.180769 0.754624
O O3 0.968372 0.270654 0.751775
O O4 0.000000 0.226454 0.000000
O O5 0.750000 0.951874 0.188487
O O6 0.467538 0.909056 0.262951
O O7 0.468354 0.000000 0.209997
O O8 0.500000 0.943353 0.000000
O O9 0.250000 0.863375 0.689876
O O10 0.000000 0.859368 0.500000
O O11 0.250000 0.595743 0.811657
O O12 0.532323 0.639508 0.741607
O O13 0.531108 0.548146 0.775421
O O14 0.500000 0.601464 0.000000
O O15 0.500000 0.687320 0.500000
O O16 0.250000 0.684772 0.690087
O O17 0.750000 0.500000 0.194196
O O18 0.000000 0.500000 0.000000
#
# Coordination Sequence:
#
# PCOD9405426 Si02
#       6
#     8   8   8   8   8   4
#     4  10  21  36  54  76  99 125 161 202 242 287
#     4   9  18  33  52  74 100 130 166 206 244 285
#     4  10  21  35  51  74 103 132 163 200 242 289
#     4   9  17  30  49  72  96 124 160 199 239 284
#     4  10  21  35  50  71  99 129 161 197 239 287
#     4   8  14  26  45  68  94 122 154 196 239 278
#
# _framework density 21.172191999999999
#
# number of rings (size 3 to 8) (size 9 to 14) (size 15 to 20)
#    0.000    2.545    0.000    1.636    0.000    3.273 
#    0.000    0.455    0.000    0.000    0.000    0.000 
#    0.000    0.000    0.000    0.000    0.000    0.000 
#
# Total GULP energy -245614.272882 kJ/mol
# GULP energy per Si atom -5582.142566 kJ/mol
# Density = 2.112400 g / cm^3
# Si number density = 21.172192 Si / 1000 Ang^3
#
#
#
# Elastic Constant Matrix: (Units=GPa)
#
#
# Indices 1 2 3 4 5 6 
#
# 1 56.5629 14.4166 -11.0783 0.0000 0.0000 0.0000
# 2 14.4166 277.9932 137.9688 0.0000 0.0000 0.0000
# 3 -11.0783 137.9688 138.2687 0.0000 0.0000 0.0000
# 4 0.0000 0.0000 0.0000 -12.5126 0.0000 0.0000
# 5 0.0000 0.0000 0.0000 0.0000 26.9748 0.0000
# 6 0.0000 0.0000 0.0000 0.0000 0.0000 -11.7884
#
#
#
# Elastic Compliance Matrix: (Units=1/GPa)
#
#
# Indices 1 2 3 4 5 6 
#
# 1 0.019588 -0.003556 0.005117 0.000000 0.000000 0.000000
# 2 -0.003556 0.007772 -0.008040 0.000000 0.000000 0.000000
# 3 0.005117 -0.008040 0.015665 0.000000 0.000000 0.000000
# 4 0.000000 0.000000 0.000000 -0.079920 0.000000 0.000000
# 5 0.000000 0.000000 0.000000 0.000000 0.037072 0.000000
# 6 0.000000 0.000000 0.000000 0.000000 0.000000 -0.084829
#
#
# Mechanical properties :
#
#
# Convention : Reuss Voigt Hill
#
# Bulk Modulus (GPa) = 33.25781 83.93768 58.59775
# Shear Modulus (GPa) = -81.07110 22.63596 -29.21757
#
# Velocity S-wave (km/s) = -6.19471 3.27331 -3.71886
# Velocity P-wave (km/s) = 5.95177 7.34965 3.04909
#
# Compressibility (1/GPa) = 0.03006812
#
# Stress axis : x y z
#
# Youngs Moduli (GPa) = 51.05195 128.67099 63.83810
#
# Poissons Ratio (x) = 0.45749 -0.32667
# Poissons Ratio (y) = 0.18152 0.51324
# Poissons Ratio (z) = -0.26124 1.03449
#
# Static dielectric constant tensor:
#      x y z
#    x 1.787170 0.000000 0.000000 
#    y 0.000000 1.809940 0.000000 
#    z 0.000000 0.000000 1.676090 
# 
# From -- ./inp_files/5734.got.cif
#   From: 2010.05.17/outbox.cif.g08.bks.cpg/sg51_3_cif.got.tgz:5734.got - 2010.06.03 11:52:47.
