data_PCOD9405749
_publ_section_title
;
Structure prediction by ZEFSAII (Michael W. Deem and Ramdas Pophale) SiO2 
 PCOD9405749
Probable space group: P M M A
;
_chemical_formula_sum "Si O2"
_cell_formula_units_Z 64
_cell_length_a 8.614073
_cell_length_b 14.736607
_cell_length_c 25.221373
_cell_angle_alpha 90.000000
_cell_angle_beta 90.000000
_cell_angle_gamma 90.000000
_cell_volume 3201.656789
_symmetry_space_group_name_H-M "P M M A"
_symmetry_group_IT_number 51
_symmetry_cell_setting 'orthorhombic'
loop_
_space_group_symop_operation_xyz
x,y,z
1/2-x,-y,z
1/2+x,-y,-z
-x,y,-z
-x,-y,-z
1/2+x,y,-z
1/2-x,y,z
x,-y,z
loop_
_atom_site_type_symbol
_atom_site_label
_atom_site_fract_x
_atom_site_fract_y
_atom_site_fract_z
Si Si1 0.435225 0.659742 0.946799
Si Si2 0.562747 0.394926 0.718813
Si Si3 0.919897 0.894414 0.166038
Si Si4 0.576928 0.890790 0.730445
Si Si5 0.438033 0.102388 0.559526
Si Si6 0.926103 0.607927 0.835718
Si Si7 0.569660 0.764440 0.350272
Si Si8 0.568463 0.860252 0.945431
O O1 0.250000 0.673166 0.952106
O O2 0.473215 0.621863 0.888492
O O3 0.531145 0.753417 0.946788
O O4 0.500000 0.610336 0.000000
O O5 0.750000 0.395300 0.720971
O O6 0.512139 0.500000 0.710148
O O7 0.511227 0.361941 0.777980
O O8 0.509473 0.325203 0.673654
O O9 0.750000 0.850030 0.169626
O O10 0.041916 0.861200 0.209231
O O11 0.981834 0.891587 0.106896
O O12 0.902449 0.000000 0.179479
O O13 0.750000 0.860795 0.715022
O O14 0.452227 0.842286 0.694050
O O15 0.571662 0.000000 0.725636
O O16 0.500000 0.112542 0.500000
O O17 0.250000 0.104147 0.559351
O O18 0.492792 0.184339 0.597242
O O19 0.484341 0.000000 0.578172
O O20 0.750000 0.644531 0.844330
O O21 0.912229 0.500000 0.829097
O O22 0.750000 0.743928 0.358476
O O23 0.750000 0.878356 0.942094
O O24 0.500000 0.897887 0.000000
#
# Coordination Sequence:
#
# PCOD9405749 Si02
#       8
#     8   8   8   8   8   8   8   8
#     4  11  22  36  54  76 103 133 171 219 275 339
#     4   9  20  39  60  83 114 152 197 248 297 347
#     4  10  21  37  55  75 101 133 171 219 274 328
#     4  10  21  36  54  80 114 151 191 233 278 336
#     4   9  19  36  58  87 125 166 204 243 288 336
#     4   9  19  37  58  78 103 136 175 223 281 341
#     4  11  22  35  57  88 121 158 196 239 292 348
#     4  11  22  37  55  73  97 129 169 217 267 326
#
# _framework density 19.989650999999999
#
# number of rings (size 3 to 8) (size 9 to 14) (size 15 to 20)
#    0.000    2.000    0.000    5.250    1.750    4.500 
#    0.000    2.500    0.000    0.375    0.000    0.000 
#    0.000    0.000    0.000    0.000    0.000    0.000 
#
# Total GULP energy -356928.410114 kJ/mol
# GULP energy per Si atom -5577.006408 kJ/mol
# Density = 1.994415 g / cm^3
# Si number density = 19.989651 Si / 1000 Ang^3
#
#
#
# Elastic Constant Matrix: (Units=GPa)
#
#
# Indices 1 2 3 4 5 6 
#
# 1 50.0215 9.8853 9.5793 0.0000 0.0000 0.0000
# 2 9.8853 81.6903 42.7081 0.0000 0.0000 0.0000
# 3 9.5793 42.7081 108.8974 0.0000 0.0000 0.0000
# 4 0.0000 0.0000 0.0000 66.7932 0.0000 0.0000
# 5 0.0000 0.0000 0.0000 0.0000 26.6050 0.0000
# 6 0.0000 0.0000 0.0000 0.0000 0.0000 27.1605
#
#
#
# Elastic Compliance Matrix: (Units=1/GPa)
#
#
# Indices 1 2 3 4 5 6 
#
# 1 0.020576 -0.001942 -0.001048 0.000000 0.000000 0.000000
# 2 -0.001942 0.015582 -0.005940 0.000000 0.000000 0.000000
# 3 -0.001048 -0.005940 0.011605 0.000000 0.000000 0.000000
# 4 0.000000 0.000000 0.000000 0.014972 0.000000 0.000000
# 5 0.000000 0.000000 0.000000 0.000000 0.037587 0.000000
# 6 0.000000 0.000000 0.000000 0.000000 0.000000 0.036818
#
#
# Mechanical properties :
#
#
# Convention : Reuss Voigt Hill
#
# Bulk Modulus (GPa) = 33.44275 40.55053 36.99664
# Shear Modulus (GPa) = 30.30900 36.00749 33.15824
#
# Velocity S-wave (km/s) = 3.89811 4.24878 4.07722
# Velocity P-wave (km/s) = 6.08496 6.66328 6.38068
#
# Compressibility (1/GPa) = 0.02990184
#
# Stress axis : x y z
#
# Youngs Moduli (GPa) = 48.60052 64.17706 86.17085
#
# Poissons Ratio (x) = 0.12462 0.09035
# Poissons Ratio (y) = 0.09437 0.51187
# Poissons Ratio (z) = 0.05096 0.38122
#
# Static dielectric constant tensor:
#      x y z
#    x 1.699820 0.000000 0.000000 
#    y 0.000000 1.768070 0.000000 
#    z 0.000000 0.000000 1.737630 
# 
# From -- ./inp_files/34856.got.cif
#   From: 2010.05.17/outbox.cif.g08.bks.cpg/sg51_18_cif.got.tgz:34856.got - 2010.06.03 11:52:47.
