data_PCOD9405654
_publ_section_title
;
Structure prediction by ZEFSAII (Michael W. Deem and Ramdas Pophale) SiO2 
 PCOD9405654
Probable space group: P M M A
;
_chemical_formula_sum "Si O2"
_cell_formula_units_Z 64
_cell_length_a 9.036615
_cell_length_b 14.287149
_cell_length_c 26.811391
_cell_angle_alpha 90.000000
_cell_angle_beta 90.000000
_cell_angle_gamma 90.000000
_cell_volume 3461.550724
_symmetry_space_group_name_H-M "P M M A"
_symmetry_group_IT_number 51
_symmetry_cell_setting 'orthorhombic'
loop_
_space_group_symop_operation_xyz
x,y,z
1/2-x,-y,z
1/2+x,-y,-z
-x,y,-z
-x,-y,-z
1/2+x,y,-z
1/2-x,y,z
x,-y,z
loop_
_atom_site_type_symbol
_atom_site_label
_atom_site_fract_x
_atom_site_fract_y
_atom_site_fract_z
Si Si1 0.074647 0.610872 0.691048
Si Si2 0.072713 0.607269 0.897717
Si Si3 0.426039 0.889177 0.553294
Si Si4 0.424000 0.887581 0.846162
Si Si5 0.072709 0.207041 0.949053
Si Si6 0.072644 0.890779 0.256040
Si Si7 0.081946 0.613611 0.205565
Si Si8 0.572328 0.221096 0.643963
O O1 0.250000 0.627361 0.689351
O O2 0.048342 0.500000 0.683931
O O3 0.011151 0.637501 0.745544
O O4 0.990226 0.674884 0.651527
O O5 0.250000 0.608860 0.889969
O O6 0.029715 0.500000 0.909257
O O7 0.037259 0.683545 0.939426
O O8 0.995742 0.638146 0.846281
O O9 0.500000 0.867823 0.500000
O O10 0.250000 0.872781 0.551369
O O11 0.501078 0.829838 0.596839
O O12 0.450077 0.000000 0.563022
O O13 0.250000 0.864673 0.841425
O O14 0.476753 0.845304 0.898590
O O15 0.505240 0.855137 0.795962
O O16 0.439358 0.000000 0.848659
O O17 0.250000 0.196618 0.952664
O O18 0.000000 0.173527 0.000000
O O19 0.250000 0.887232 0.252254
O O20 0.029119 0.834886 0.305498
O O21 0.028724 0.000000 0.261749
O O22 0.250000 0.649440 0.209202
O O23 0.088477 0.500000 0.205067
O O24 0.750000 0.220932 0.640334
#
# Coordination Sequence:
#
# PCOD9405654 Si02
#       8
#     8   8   8   8   8   8   8   8
#     4  10  21  36  53  76 111 154 196 237 282 334
#     4   9  18  33  51  71  98 131 165 205 258 320
#     4  10  21  38  61  89 122 161 203 245 289 338
#     4   9  19  36  55  74  99 131 168 213 264 318
#     4  10  22  37  52  73  96 125 166 214 264 320
#     4   9  19  35  54  80 113 145 177 216 269 331
#     4   9  17  30  49  74 102 133 173 219 267 321
#     4  11  22  35  56  87 120 155 194 240 288 337
#
# _framework density 18.488824000000001
#
# number of rings (size 3 to 8) (size 9 to 14) (size 15 to 20)
#    0.000    2.375    0.000    1.875    1.750    6.000 
#    0.000    1.250    0.000    0.375    0.000    0.000 
#    0.000    0.000    0.000    0.000    0.000    0.000 
#
# Total GULP energy -357334.082861 kJ/mol
# GULP energy per Si atom -5583.345045 kJ/mol
# Density = 1.844674 g / cm^3
# Si number density = 18.488824 Si / 1000 Ang^3
#
#
#
# Elastic Constant Matrix: (Units=GPa)
#
#
# Indices 1 2 3 4 5 6 
#
# 1 55.3000 35.7021 57.8334 0.0000 0.0000 0.0000
# 2 35.7021 51.7246 50.8789 0.0000 0.0000 0.0000
# 3 57.8334 50.8789 141.8639 0.0000 0.0000 0.0000
# 4 0.0000 0.0000 0.0000 32.0208 0.0000 0.0000
# 5 0.0000 0.0000 0.0000 0.0000 33.5681 0.0000
# 6 0.0000 0.0000 0.0000 0.0000 0.0000 19.6073
#
#
#
# Elastic Compliance Matrix: (Units=1/GPa)
#
#
# Indices 1 2 3 4 5 6 
#
# 1 0.039940 -0.017849 -0.009881 0.000000 0.000000 0.000000
# 2 -0.017849 0.037847 -0.006298 0.000000 0.000000 0.000000
# 3 -0.009881 -0.006298 0.013336 0.000000 0.000000 0.000000
# 4 0.000000 0.000000 0.000000 0.031230 0.000000 0.000000
# 5 0.000000 0.000000 0.000000 0.000000 0.029790 0.000000
# 6 0.000000 0.000000 0.000000 0.000000 0.000000 0.051001
#
#
# Mechanical properties :
#
#
# Convention : Reuss Voigt Hill
#
# Bulk Modulus (GPa) = 43.34814 59.74638 51.54726
# Shear Modulus (GPa) = 17.92834 24.00419 20.96627
#
# Velocity S-wave (km/s) = 3.11736 3.60711 3.37114
# Velocity P-wave (km/s) = 6.03769 7.05219 6.56457
#
# Compressibility (1/GPa) = 0.02306904
#
# Stress axis : x y z
#
# Youngs Moduli (GPa) = 25.03761 26.42188 74.98652
#
# Poissons Ratio (x) = 0.47159 0.74094
# Poissons Ratio (y) = 0.44689 0.47223
# Poissons Ratio (z) = 0.24739 0.16639
#
# Static dielectric constant tensor:
#      x y z
#    x 1.619630 0.000000 0.000000 
#    y 0.000000 1.677540 0.000000 
#    z 0.000000 0.000000 1.600050 
# 
# From -- ./inp_files/34963.got.cif
#   From: 2010.05.17/outbox.cif.g08.bks.cpg/sg51_18_cif.got.tgz:34963.got - 2010.06.03 11:52:47.
