data_PCOD9405622
_publ_section_title
;
Structure prediction by ZEFSAII (Michael W. Deem and Ramdas Pophale) SiO2 
 PCOD9405622
Probable space group: P M M A
;
_chemical_formula_sum "Si O2"
_cell_formula_units_Z 48
_cell_length_a 9.759765
_cell_length_b 7.536836
_cell_length_c 32.357960
_cell_angle_alpha 90.000000
_cell_angle_beta 90.000000
_cell_angle_gamma 90.000000
_cell_volume 2380.178674
_symmetry_space_group_name_H-M "P M M A"
_symmetry_group_IT_number 51
_symmetry_cell_setting 'orthorhombic'
loop_
_space_group_symop_operation_xyz
x,y,z
1/2-x,-y,z
1/2+x,-y,-z
-x,y,-z
-x,-y,-z
1/2+x,y,-z
1/2-x,y,z
x,-y,z
loop_
_atom_site_type_symbol
_atom_site_label
_atom_site_fract_x
_atom_site_fract_y
_atom_site_fract_z
Si Si1 0.594333 0.213445 0.206002
Si Si2 0.906163 0.709701 0.112283
Si Si3 0.591367 0.217654 0.718532
Si Si4 0.416665 0.207416 0.371481
Si Si5 0.095537 0.208707 0.036187
Si Si6 0.408780 0.782604 0.461549
O O1 0.750000 0.279567 0.210561
O O2 0.549426 0.256668 0.159462
O O3 0.498318 0.277823 0.242877
O O4 0.597475 0.000000 0.208940
O O5 0.750000 0.781905 0.107190
O O6 0.898431 0.500000 0.106207
O O7 0.013437 0.778145 0.078985
O O8 0.750000 0.268942 0.723564
O O9 0.540939 0.279919 0.673228
O O10 0.589063 0.000000 0.717575
O O11 0.250000 0.213726 0.371406
O O12 0.458393 0.280283 0.416213
O O13 0.456325 0.000000 0.371536
O O14 0.250000 0.282897 0.037965
O O15 0.109980 0.000000 0.027023
O O16 0.000000 0.286668 0.000000
O O17 0.500000 0.725010 0.500000
O O18 0.250000 0.731465 0.466860
O O19 0.411294 0.000000 0.460541
#
# Coordination Sequence:
#
# PCOD9405622 Si02
#       6
#     8   8   8   8   8   8
#     4   9  17  29  45  65  89 115 144 184 231 270
#     4  10  21  36  53  73  99 132 165 194 229 275
#     4   8  13  22  37  55  73  97 133 174 214 259
#     4   7  10  17  28  41  59  85 118 158 202 246
#     4  10  21  37  58  82 105 130 161 196 233 272
#     4   8  12  17  24  34  51  78 113 152 194 240
#
# _framework density 20.166551999999999
#
# number of rings (size 3 to 8) (size 9 to 14) (size 15 to 20)
#    0.000    3.333    0.000    3.000    0.000    3.000 
#    0.000    2.500    0.000    5.000    0.000    0.000 
#    0.000    0.000    0.000    0.000    0.000    0.833 
#
# Total GULP energy -267460.412946 kJ/mol
# GULP energy per Si atom -5572.091936 kJ/mol
# Density = 2.012065 g / cm^3
# Si number density = 20.166552 Si / 1000 Ang^3
#
#
#
# Elastic Constant Matrix: (Units=GPa)
#
#
# Indices 1 2 3 4 5 6 
#
# 1 99.3737 5.0777 117.7817 0.0000 0.0000 0.0000
# 2 5.0777 49.2908 -2.3217 0.0000 0.0000 0.0000
# 3 117.7817 -2.3217 218.0614 0.0000 0.0000 0.0000
# 4 0.0000 0.0000 0.0000 -101.3205 0.0000 0.0000
# 5 0.0000 0.0000 0.0000 0.0000 37.1053 0.0000
# 6 0.0000 0.0000 0.0000 0.0000 0.0000 -4.3759
#
#
#
# Elastic Compliance Matrix: (Units=1/GPa)
#
#
# Indices 1 2 3 4 5 6 
#
# 1 0.028619 -0.003678 -0.015497 0.000000 0.000000 0.000000
# 2 -0.003678 0.020771 0.002208 0.000000 0.000000 0.000000
# 3 -0.015497 0.002208 0.012980 0.000000 0.000000 0.000000
# 4 0.000000 0.000000 0.000000 -0.009870 0.000000 0.000000
# 5 0.000000 0.000000 0.000000 0.000000 0.026950 0.000000
# 6 0.000000 0.000000 0.000000 0.000000 0.000000 -0.228526
#
#
# Mechanical properties :
#
#
# Convention : Reuss Voigt Hill
#
# Bulk Modulus (GPa) = 35.16853 67.53348 51.35100
# Shear Modulus (GPa) = -47.31979 2.69435 -22.31272
#
# Velocity S-wave (km/s) = -4.84927 1.15713 -3.32990
# Velocity P-wave (km/s) = 3.72519 5.94524 3.27634
#
# Compressibility (1/GPa) = 0.02843451
#
# Stress axis : x y z
#
# Youngs Moduli (GPa) = 34.94239 48.14485 77.04318
#
# Poissons Ratio (x) = 0.17708 1.19393
# Poissons Ratio (y) = 0.12852 -0.17010
# Poissons Ratio (z) = 0.54150 -0.10629
#
# Static dielectric constant tensor:
#      x y z
#    x 1.691770 0.000000 0.000000 
#    y 0.000000 1.750150 0.000000 
#    z 0.000000 0.000000 1.725990 
# 
# From -- ./inp_files/36972.got.cif
#   From: 2010.05.17/outbox.cif.g08.bks.cpg/sg51_19_cif.got.tgz:36972.got - 2010.06.03 11:52:47.
