data_PCOD9405989
_publ_section_title
;
Structure prediction by ZEFSAII (Michael W. Deem and Ramdas Pophale) SiO2 
 PCOD9405989
Probable space group: P M M A
;
_chemical_formula_sum "Si O2"
_cell_formula_units_Z 48
_cell_length_a 7.920503
_cell_length_b 10.313580
_cell_length_c 29.898858
_cell_angle_alpha 90.000000
_cell_angle_beta 90.000000
_cell_angle_gamma 90.000000
_cell_volume 2442.400077
_symmetry_space_group_name_H-M "P M M A"
_symmetry_group_IT_number 51
_symmetry_cell_setting 'orthorhombic'
loop_
_space_group_symop_operation_xyz
x,y,z
1/2-x,-y,z
1/2+x,-y,-z
-x,y,-z
-x,-y,-z
1/2+x,y,-z
1/2-x,y,z
x,-y,z
loop_
_atom_site_type_symbol
_atom_site_label
_atom_site_fract_x
_atom_site_fract_y
_atom_site_fract_z
Si Si1 0.049462 0.352021 0.202254
Si Si2 0.051737 0.249930 0.893506
Si Si3 0.545950 0.852910 0.376546
Si Si4 0.545772 0.000000 0.052353
Si Si5 0.546393 0.647633 0.449484
Si Si6 0.546646 0.147282 0.725532
Si Si7 0.451430 0.500000 0.051558
O O1 0.250000 0.363166 0.209895
O O2 0.980750 0.500000 0.201776
O O3 0.980402 0.256339 0.240542
O O4 0.025983 0.284076 0.154346
O O5 0.250000 0.228988 0.885866
O O6 0.024678 0.373951 0.924641
O O7 0.984189 0.126106 0.920609
O O8 0.750000 0.853743 0.378386
O O9 0.483692 0.748800 0.412555
O O10 0.495379 0.821153 0.325801
O O11 0.487119 0.000000 0.386091
O O12 0.750000 0.000000 0.053512
O O13 0.500000 0.000000 0.000000
O O14 0.500000 0.685929 0.500000
O O15 0.750000 0.644794 0.446675
O O16 0.484710 0.500000 0.442158
O O17 0.750000 0.143569 0.729853
O O18 0.484324 0.000000 0.734805
O O19 0.250000 0.500000 0.056926
O O20 0.500000 0.500000 0.000000
#
# Coordination Sequence:
#
# PCOD9405989 Si02
#       7
#     8   8   8   4   8   8   4
#     4  10  21  37  56  81 112 144 182 224 272 326
#     4  11  23  40  60  86 117 148 186 230 275 328
#     4   9  18  33  51  73 102 135 173 218 268 320
#     4  10  24  42  60  86 116 146 184 228 271 324
#     4   9  18  32  49  71 101 136 174 216 262 316
#     4   9  19  35  54  77 106 141 181 224 271 324
#     4  12  24  40  62  88 116 150 188 228 275 328
#
# _framework density 19.652801
#
# number of rings (size 3 to 8) (size 9 to 14) (size 15 to 20)
#    0.000    2.167    0.833    1.750    1.167    5.000 
#    0.000    0.000    0.000    0.000    0.000    0.000 
#    0.000    0.000    0.000    0.000    0.000    0.000 
#
# Total GULP energy -267929.362791 kJ/mol
# GULP energy per Si atom -5581.861725 kJ/mol
# Density = 1.960807 g / cm^3
# Si number density = 19.652801 Si / 1000 Ang^3
#
#
#
# Elastic Constant Matrix: (Units=GPa)
#
#
# Indices 1 2 3 4 5 6 
#
# 1 16.9631 1.3779 -6.4606 0.0000 0.0000 0.0000
# 2 1.3779 180.8096 132.4093 0.0000 0.0000 0.0000
# 3 -6.4606 132.4093 176.3145 0.0000 0.0000 0.0000
# 4 0.0000 0.0000 0.0000 48.0414 0.0000 0.0000
# 5 0.0000 0.0000 0.0000 0.0000 30.1347 0.0000
# 6 0.0000 0.0000 0.0000 0.0000 0.0000 20.4960
#
#
#
# Elastic Compliance Matrix: (Units=1/GPa)
#
#
# Indices 1 2 3 4 5 6 
#
# 1 0.061541 -0.004711 0.005793 0.000000 0.000000 0.000000
# 2 -0.004711 0.012650 -0.009672 0.000000 0.000000 0.000000
# 3 0.005793 -0.009672 0.013148 0.000000 0.000000 0.000000
# 4 0.000000 0.000000 0.000000 0.020815 0.000000 0.000000
# 5 0.000000 0.000000 0.000000 0.000000 0.033184 0.000000
# 6 0.000000 0.000000 0.000000 0.000000 0.000000 0.048790
#
#
# Mechanical properties :
#
#
# Convention : Reuss Voigt Hill
#
# Bulk Modulus (GPa) = 14.25374 69.86005 42.05690
# Shear Modulus (GPa) = 21.67361 36.18512 28.92937
#
# Velocity S-wave (km/s) = 3.32448 4.29560 3.84086
# Velocity P-wave (km/s) = 4.69093 7.76062 6.41217
#
# Compressibility (1/GPa) = 0.07015702
#
# Stress axis : x y z
#
# Youngs Moduli (GPa) = 16.24940 79.05216 76.05813
#
# Poissons Ratio (x) = 0.37245 -0.44062
# Poissons Ratio (y) = 0.07656 0.73567
# Poissons Ratio (z) = -0.09414 0.76463
#
# Static dielectric constant tensor:
#      x y z
#    x 1.714690 0.000000 0.000000 
#    y 0.000000 1.702470 0.000000 
#    z 0.000000 0.000000 1.642850 
# 
# From -- ./inp_files/37209.got.cif
#   From: 2010.05.17/outbox.cif.g08.bks.cpg/sg51_19_cif.got.tgz:37209.got - 2010.06.03 11:52:47.
