data_PCOD9405759
_publ_section_title
;
Structure prediction by ZEFSAII (Michael W. Deem and Ramdas Pophale) SiO2 
 PCOD9405759
Probable space group: P M M A
;
_chemical_formula_sum "Si O2"
_cell_formula_units_Z 64
_cell_length_a 22.707393
_cell_length_b 9.376644
_cell_length_c 15.372673
_cell_angle_alpha 90.000000
_cell_angle_beta 90.000000
_cell_angle_gamma 90.000000
_cell_volume 3273.136320
_symmetry_space_group_name_H-M "P M M A"
_symmetry_group_IT_number 51
_symmetry_cell_setting 'orthorhombic'
loop_
_space_group_symop_operation_xyz
x,y,z
1/2-x,-y,z
1/2+x,-y,-z
-x,y,-z
-x,-y,-z
1/2+x,y,-z
1/2-x,y,z
x,-y,z
loop_
_atom_site_type_symbol
_atom_site_label
_atom_site_fract_x
_atom_site_fract_y
_atom_site_fract_z
Si Si1 0.602554 0.832146 0.121654
Si Si2 0.182454 0.329410 0.014563
Si Si3 0.819188 0.342195 0.456263
Si Si4 0.024840 0.333459 0.402633
Si Si5 0.180073 0.164963 0.706238
Si Si6 0.144270 0.831022 0.378747
Si Si7 0.139501 0.332709 0.208119
Si Si8 0.998317 0.334039 0.212753
O O1 0.645242 0.813736 0.205043
O O2 0.540906 0.763394 0.150948
O O3 0.596243 0.000000 0.103809
O O4 0.634815 0.752608 0.042969
O O5 0.250000 0.288595 0.993203
O O6 0.176737 0.500000 0.000603
O O7 0.169594 0.302634 0.116180
O O8 0.750000 0.357313 0.440085
O O9 0.845339 0.500000 0.469565
O O10 0.843076 0.265141 0.370706
O O11 0.824694 0.244651 0.540502
O O12 0.044786 0.500000 0.393228
O O13 0.077210 0.221314 0.392362
O O14 0.000000 0.319663 0.500000
O O15 0.985702 0.309326 0.315992
O O16 0.250000 0.189141 0.720445
O O17 0.173276 0.000000 0.678824
O O18 0.162662 0.763859 0.286596
O O19 0.150605 0.000000 0.380050
O O20 0.148884 0.500000 0.229324
O O21 0.068586 0.311675 0.200761
O O22 0.985709 0.500000 0.193826
#
# Coordination Sequence:
#
# PCOD9405759 Si02
#       8
#     8   8   8   8   8   8   8   8
#     4  11  23  37  57  86 122 156 189 236 293 357
#     4  10  22  41  66  92 114 144 193 248 299 355
#     4  10  21  36  55  79 108 148 197 242 285 341
#     4   9  19  36  57  82 113 153 199 243 284 332
#     4   9  19  36  54  75 109 150 188 233 292 352
#     4  11  22  35  55  84 117 151 186 233 291 349
#     4   9  20  41  63  84 115 153 196 245 296 348
#     4   9  19  36  57  83 116 156 199 241 287 342
#
# _framework density 19.553113
#
# number of rings (size 3 to 8) (size 9 to 14) (size 15 to 20)
#    0.000    2.250    0.000    3.000    1.750    6.250 
#    0.000    5.000    0.000    0.000    0.000    0.000 
#    0.000    0.000    0.000    0.000    0.000    0.000 
#
# Total GULP energy -357183.425908 kJ/mol
# GULP energy per Si atom -5580.991030 kJ/mol
# Density = 1.950861 g / cm^3
# Si number density = 19.553113 Si / 1000 Ang^3
#
#
#
# Elastic Constant Matrix: (Units=GPa)
#
#
# Indices 1 2 3 4 5 6 
#
# 1 14.7904 2.9414 -8.8079 0.0000 0.0000 0.0000
# 2 2.9414 78.7352 32.3078 0.0000 0.0000 0.0000
# 3 -8.8079 32.3078 52.6159 0.0000 0.0000 0.0000
# 4 0.0000 0.0000 0.0000 -0.9926 0.0000 0.0000
# 5 0.0000 0.0000 0.0000 0.0000 29.2493 0.0000
# 6 0.0000 0.0000 0.0000 0.0000 0.0000 24.8602
#
#
#
# Elastic Compliance Matrix: (Units=1/GPa)
#
#
# Indices 1 2 3 4 5 6 
#
# 1 0.082425 -0.011685 0.020973 0.000000 0.000000 0.000000
# 2 -0.011685 0.018635 -0.013399 0.000000 0.000000 0.000000
# 3 0.020973 -0.013399 0.030744 0.000000 0.000000 0.000000
# 4 0.000000 0.000000 0.000000 -1.007409 0.000000 0.000000
# 5 0.000000 0.000000 0.000000 0.000000 0.034189 0.000000
# 6 0.000000 0.000000 0.000000 0.000000 0.000000 0.040225
#
#
# Mechanical properties :
#
#
# Convention : Reuss Voigt Hill
#
# Bulk Modulus (GPa) = 8.09182 22.11380 15.10281
# Shear Modulus (GPa) = -6.65092 18.60339 5.97624
#
# Velocity S-wave (km/s) = -1.84631 3.08787 1.75016
# Velocity P-wave (km/s) = 0.63069 4.90382 3.43872
#
# Compressibility (1/GPa) = 0.12358167
#
# Stress axis : x y z
#
# Youngs Moduli (GPa) = 12.13230 53.66169 32.52698
#
# Poissons Ratio (x) = 0.62704 -0.68218
# Poissons Ratio (y) = 0.14177 0.43582
# Poissons Ratio (z) = -0.25445 0.71900
#
# Static dielectric constant tensor:
#      x y z
#    x 1.715170 0.000000 0.000000 
#    y 0.000000 1.670990 0.000000 
#    z 0.000000 0.000000 1.678030 
# 
# From -- ./inp_files/26338.got.cif
#   From: 2010.05.17/outbox.cif.g08.bks.cpg/sg51_14_cif.got.tgz:26338.got - 2010.06.03 11:52:47.
