data_PCOD9405783
_publ_section_title
;
Structure prediction by ZEFSAII (Michael W. Deem and Ramdas Pophale) SiO2 
 PCOD9405783
Probable space group: P M M A
;
_chemical_formula_sum "Si O2"
_cell_formula_units_Z 56
_cell_length_a 9.271269
_cell_length_b 15.915646
_cell_length_c 20.090306
_cell_angle_alpha 90.000000
_cell_angle_beta 90.000000
_cell_angle_gamma 90.000000
_cell_volume 2964.490101
_symmetry_space_group_name_H-M "P M M A"
_symmetry_group_IT_number 51
_symmetry_cell_setting 'orthorhombic'
loop_
_space_group_symop_operation_xyz
x,y,z
1/2-x,-y,z
1/2+x,-y,-z
-x,y,-z
-x,-y,-z
1/2+x,y,-z
1/2-x,y,z
x,-y,z
loop_
_atom_site_type_symbol
_atom_site_label
_atom_site_fract_x
_atom_site_fract_y
_atom_site_fract_z
Si Si1 0.082072 0.650148 0.709743
Si Si2 0.577035 0.406050 0.841137
Si Si3 0.921171 0.094129 0.830633
Si Si4 0.915169 0.398519 0.435324
Si Si5 0.417143 0.150315 0.700500
Si Si6 0.582891 0.898140 0.566855
Si Si7 0.923849 0.754005 0.929210
O O1 0.250000 0.622522 0.712359
O O2 0.024453 0.627630 0.636362
O O3 0.077722 0.750502 0.716123
O O4 0.995409 0.609371 0.769787
O O5 0.750000 0.400688 0.833481
O O6 0.540938 0.500000 0.865141
O O7 0.533528 0.331673 0.891049
O O8 0.750000 0.103867 0.816570
O O9 0.962099 0.166779 0.882435
O O10 0.007178 0.104731 0.762174
O O11 0.944141 0.000000 0.857406
O O12 0.750000 0.368294 0.438590
O O13 0.914059 0.500000 0.437072
O O14 0.000000 0.368141 0.500000
O O15 0.250000 0.125033 0.693445
O O16 0.501572 0.133336 0.632377
O O17 0.500000 0.871130 0.500000
O O18 0.750000 0.871432 0.565931
O O19 0.580470 0.000000 0.568491
O O20 0.750000 0.753845 0.937319
O O21 0.000000 0.759658 0.000000
#
# Coordination Sequence:
#
# PCOD9405783 Si02
#       7
#     8   8   8   8   8   8   8
#     4  10  21  36  55  81 113 149 192 239 288 343
#     4  10  21  38  61  88 117 152 194 237 285 341
#     4  10  21  39  62  86 115 155 197 235 285 346
#     4   9  18  33  51  72 102 140 183 231 280 331
#     4  11  22  35  55  84 116 149 192 244 295 348
#     4  10  21  37  56  78 108 149 196 246 300 355
#     4  10  22  40  61  88 122 153 188 234 282 340
#
# _framework density 18.890263000000001
#
# number of rings (size 3 to 8) (size 9 to 14) (size 15 to 20)
#    0.000    2.000    1.429    1.714    0.000    7.143 
#    0.000    2.857    0.000    0.000    0.000    0.000 
#    0.000    0.000    0.000    0.000    0.000    0.000 
#
# Total GULP energy -312740.995127 kJ/mol
# GULP energy per Si atom -5584.660627 kJ/mol
# Density = 1.884727 g / cm^3
# Si number density = 18.890263 Si / 1000 Ang^3
#
#
#
# Elastic Constant Matrix: (Units=GPa)
#
#
# Indices 1 2 3 4 5 6 
#
# 1 65.2587 44.1492 61.9513 0.0000 0.0000 0.0000
# 2 44.1492 96.6379 63.7440 0.0000 0.0000 0.0000
# 3 61.9513 63.7440 153.3945 0.0000 0.0000 0.0000
# 4 0.0000 0.0000 0.0000 -10.8793 0.0000 0.0000
# 5 0.0000 0.0000 0.0000 0.0000 41.3736 0.0000
# 6 0.0000 0.0000 0.0000 0.0000 0.0000 6.5738
#
#
#
# Elastic Compliance Matrix: (Units=1/GPa)
#
#
# Indices 1 2 3 4 5 6 
#
# 1 0.028241 -0.007410 -0.008327 0.000000 0.000000 0.000000
# 2 -0.007410 0.016199 -0.003739 0.000000 0.000000 0.000000
# 3 -0.008327 -0.003739 0.011436 0.000000 0.000000 0.000000
# 4 0.000000 0.000000 0.000000 -0.091918 0.000000 0.000000
# 5 0.000000 0.000000 0.000000 0.000000 0.024170 0.000000
# 6 0.000000 0.000000 0.000000 0.000000 0.000000 0.152120
#
#
# Mechanical properties :
#
#
# Convention : Reuss Voigt Hill
#
# Bulk Modulus (GPa) = 59.08264 72.77555 65.92909
# Shear Modulus (GPa) = 27.05024 17.11005 22.08015
#
# Velocity S-wave (km/s) = 3.78824 3.01285 3.42257
# Velocity P-wave (km/s) = 7.10486 7.12124 7.11306
#
# Compressibility (1/GPa) = 0.01692545
#
# Stress axis : x y z
#
# Youngs Moduli (GPa) = 35.40953 61.73040 87.44421
#
# Poissons Ratio (x) = 0.45740 0.72811
# Poissons Ratio (y) = 0.26237 0.32698
# Poissons Ratio (z) = 0.29484 0.23083
#
# Static dielectric constant tensor:
#      x y z
#    x 1.642360 0.000000 0.000000 
#    y 0.000000 1.676450 0.000000 
#    z 0.000000 0.000000 1.608790 
# 
# From -- ./inp_files/32020.got.cif
#   From: 2010.05.17/outbox.cif.g08.bks.cpg/sg51_17_cif.got.tgz:32020.got - 2010.06.03 11:52:47.
