data_PCOD9405491
_publ_section_title
;
Structure prediction by ZEFSAII (Michael W. Deem and Ramdas Pophale) SiO2 
 PCOD9405491
Probable space group: P M M A
;
_chemical_formula_sum "Si O2"
_cell_formula_units_Z 48
_cell_length_a 8.382072
_cell_length_b 31.770897
_cell_length_c 9.360241
_cell_angle_alpha 90.000000
_cell_angle_beta 90.000000
_cell_angle_gamma 90.000000
_cell_volume 2492.687836
_symmetry_space_group_name_H-M "P M M A"
_symmetry_group_IT_number 51
_symmetry_cell_setting 'orthorhombic'
loop_
_space_group_symop_operation_xyz
x,y,z
1/2-x,-y,z
1/2+x,-y,-z
-x,y,-z
-x,-y,-z
1/2+x,y,-z
1/2-x,y,z
x,-y,z
loop_
_atom_site_type_symbol
_atom_site_label
_atom_site_fract_x
_atom_site_fract_y
_atom_site_fract_z
Si Si1 0.058735 0.337229 0.661514
Si Si2 0.442773 0.162088 0.839059
Si Si3 0.942745 0.000000 0.162080
Si Si4 0.557116 0.918166 0.338533
Si Si5 0.557186 0.500000 0.662898
Si Si6 0.942763 0.256999 0.161116
Si Si7 0.441348 0.582443 0.162563
O O1 0.250000 0.337199 0.661396
O O2 0.002008 0.293315 0.731824
O O3 0.000000 0.341873 0.500000
O O4 0.000582 0.375709 0.758644
O O5 0.250000 0.161894 0.839035
O O6 0.498439 0.125356 0.733956
O O7 0.495906 0.209537 0.800479
O O8 0.500000 0.153478 0.000000
O O9 0.996816 0.041850 0.245305
O O10 0.750000 0.000000 0.162283
O O11 0.000000 0.000000 0.000000
O O12 0.500000 0.921852 0.500000
O O13 0.750000 0.918071 0.337600
O O14 0.750000 0.500000 0.661930
O O15 0.500000 0.500000 0.500000
O O16 0.503479 0.541615 0.747891
O O17 0.750000 0.257227 0.160478
O O18 0.000000 0.265849 0.000000
O O19 0.250000 0.582546 0.161979
O O20 0.500000 0.580631 0.000000
#
# Coordination Sequence:
#
# PCOD9405491 Si02
#       7
#     8   8   4   8   4   8   8
#     4  11  23  38  56  81 112 146 183 227 275 325
#     4   9  18  34  54  77 104 137 177 220 263 315
#     4  10  21  36  54  78 104 134 173 218 262 312
#     4  10  21  35  52  76 107 138 173 215 262 314
#     4  10  23  40  60  86 116 148 183 224 271 320
#     4   9  19  35  55  78 106 139 178 222 268 317
#     4  11  23  40  61  86 114 147 186 227 271 322
#
# _framework density 19.256322999999998
#
# number of rings (size 3 to 8) (size 9 to 14) (size 15 to 20)
#    0.000    2.000    0.000    3.000    0.000    7.333 
#    0.000    0.000    0.000    0.000    0.000    0.000 
#    0.000    0.000    0.000    0.000    0.000    0.000 
#
# Total GULP energy -268154.693091 kJ/mol
# GULP energy per Si atom -5586.556106 kJ/mol
# Density = 1.921249 g / cm^3
# Si number density = 19.256323 Si / 1000 Ang^3
#
#
#
# Elastic Constant Matrix: (Units=GPa)
#
#
# Indices 1 2 3 4 5 6 
#
# 1 17.0597 28.0987 21.4085 0.0000 0.0000 0.0000
# 2 28.0987 176.5948 131.4814 0.0000 0.0000 0.0000
# 3 21.4085 131.4814 191.9745 0.0000 0.0000 0.0000
# 4 0.0000 0.0000 0.0000 20.5638 0.0000 0.0000
# 5 0.0000 0.0000 0.0000 0.0000 37.9048 0.0000
# 6 0.0000 0.0000 0.0000 0.0000 0.0000 -0.3810
#
#
#
# Elastic Compliance Matrix: (Units=1/GPa)
#
#
# Indices 1 2 3 4 5 6 
#
# 1 0.079452 -0.012335 -0.000412 0.000000 0.000000 0.000000
# 2 -0.012335 0.013470 -0.007850 0.000000 0.000000 0.000000
# 3 -0.000412 -0.007850 0.010631 0.000000 0.000000 0.000000
# 4 0.000000 0.000000 0.000000 0.048629 0.000000 0.000000
# 5 0.000000 0.000000 0.000000 0.000000 0.026382 0.000000
# 6 0.000000 0.000000 0.000000 0.000000 0.000000 -2.624446
#
#
# Mechanical properties :
#
#
# Convention : Reuss Voigt Hill
#
# Bulk Modulus (GPa) = 16.03619 83.06734 49.55177
# Shear Modulus (GPa) = -2.09740 25.26021 11.58140
#
# Velocity S-wave (km/s) = -1.04478 3.62579 2.45508
# Velocity P-wave (km/s) = 2.62496 7.79486 5.81594
#
# Compressibility (1/GPa) = 0.06235895
#
# Stress axis : x y z
#
# Youngs Moduli (GPa) = 12.58625 74.24027 94.06282
#
# Poissons Ratio (x) = 0.91576 0.03877
# Poissons Ratio (y) = 0.15525 0.73837
# Poissons Ratio (z) = 0.00519 0.58277
#
# Static dielectric constant tensor:
#      x y z
#    x 1.665020 0.000000 0.000000 
#    y 0.000000 1.684760 0.000000 
#    z 0.000000 0.000000 1.610300 
# 
# From -- ./inp_files/6284.got.cif
#   From: 2010.05.17/outbox.cif.g08.bks.cpg/sg51_4_cif.got.tgz:6284.got - 2010.06.03 11:52:47.
