data_PCOD9405686
_publ_section_title
;
Structure prediction by ZEFSAII (Michael W. Deem and Ramdas Pophale) SiO2 
 PCOD9405686
Probable space group: P M M A
;
_chemical_formula_sum "Si O2"
_cell_formula_units_Z 48
_cell_length_a 9.802380
_cell_length_b 7.593728
_cell_length_c 32.357801
_cell_angle_alpha 90.000000
_cell_angle_beta 90.000000
_cell_angle_gamma 90.000000
_cell_volume 2408.604932
_symmetry_space_group_name_H-M "P M M A"
_symmetry_group_IT_number 51
_symmetry_cell_setting 'orthorhombic'
loop_
_space_group_symop_operation_xyz
x,y,z
1/2-x,-y,z
1/2+x,-y,-z
-x,y,-z
-x,-y,-z
1/2+x,y,-z
1/2-x,y,z
x,-y,z
loop_
_atom_site_type_symbol
_atom_site_label
_atom_site_fract_x
_atom_site_fract_y
_atom_site_fract_z
Si Si1 0.904585 0.709040 0.463472
Si Si2 0.596354 0.211525 0.706151
Si Si3 0.404252 0.711049 0.782656
Si Si4 0.092059 0.715881 0.961813
Si Si5 0.583715 0.295171 0.128344
Si Si6 0.406310 0.787397 0.386719
O O1 0.750000 0.780557 0.462810
O O2 0.892755 0.500000 0.470839
O O3 0.000000 0.783235 0.500000
O O4 0.985145 0.731619 0.420696
O O5 0.750000 0.275301 0.714718
O O6 0.496288 0.256089 0.743140
O O7 0.558132 0.272507 0.659898
O O8 0.601175 0.000000 0.703967
O O9 0.250000 0.777328 0.776031
O O10 0.395766 0.500000 0.787588
O O11 0.457853 0.780555 0.827088
O O12 0.250000 0.766547 0.967471
O O13 0.089579 0.500000 0.960762
O O14 0.044152 0.779033 0.916384
O O15 0.000000 0.773003 0.000000
O O16 0.750000 0.292271 0.128836
O O17 0.540641 0.500000 0.127709
O O18 0.250000 0.729345 0.396039
O O19 0.404299 0.000000 0.386772
#
# Coordination Sequence:
#
# PCOD9405686 Si02
#       6
#     8   8   8   8   8   8
#     4  10  21  36  54  77 104 132 161 193 230 272
#     4   9  19  35  51  68  94 126 157 191 233 279
#     4   9  17  29  46  68  92 119 154 193 230 273
#     4   8  12  18  29  45  68 101 138 172 209 256
#     4   7  11  21  35  51  76 110 142 174 217 266
#     4   9  19  36  55  73  95 126 162 196 232 276
#
# _framework density 19.928546999999998
#
# number of rings (size 3 to 8) (size 9 to 14) (size 15 to 20)
#    0.000    3.333    0.000    3.500    0.000    3.667 
#    0.000    5.833    0.000    3.000    0.000    0.000 
#    0.000    0.667    0.000    1.500    0.000    4.333 
#
# Total GULP energy -267394.162023 kJ/mol
# GULP energy per Si atom -5570.711709 kJ/mol
# Density = 1.988319 g / cm^3
# Si number density = 19.928547 Si / 1000 Ang^3
#
#
#
# Elastic Constant Matrix: (Units=GPa)
#
#
# Indices 1 2 3 4 5 6 
#
# 1 116.7022 5.6063 125.8505 0.0000 0.0000 0.0000
# 2 5.6063 41.0119 2.8062 0.0000 0.0000 0.0000
# 3 125.8505 2.8062 220.8468 0.0000 0.0000 0.0000
# 4 0.0000 0.0000 0.0000 31.8544 0.0000 0.0000
# 5 0.0000 0.0000 0.0000 0.0000 37.3285 0.0000
# 6 0.0000 0.0000 0.0000 0.0000 0.0000 17.6142
#
#
#
# Elastic Compliance Matrix: (Units=1/GPa)
#
#
# Indices 1 2 3 4 5 6 
#
# 1 0.022425 -0.002193 -0.012751 0.000000 0.000000 0.000000
# 2 -0.002193 0.024619 0.000937 0.000000 0.000000 0.000000
# 3 -0.012751 0.000937 0.011782 0.000000 0.000000 0.000000
# 4 0.000000 0.000000 0.000000 0.031393 0.000000 0.000000
# 5 0.000000 0.000000 0.000000 0.000000 0.026789 0.000000
# 6 0.000000 0.000000 0.000000 0.000000 0.000000 0.056772
#
#
# Mechanical properties :
#
#
# Convention : Reuss Voigt Hill
#
# Bulk Modulus (GPa) = 32.45520 71.89854 52.17687
# Shear Modulus (GPa) = 23.57770 33.64594 28.61182
#
# Velocity S-wave (km/s) = 3.44337 4.11339 3.79320
# Velocity P-wave (km/s) = 5.66835 7.66266 6.73968
#
# Compressibility (1/GPa) = 0.03081171
#
# Stress axis : x y z
#
# Youngs Moduli (GPa) = 44.59384 40.61934 84.87323
#
# Poissons Ratio (x) = 0.08908 1.08221
# Poissons Ratio (y) = 0.09779 -0.07951
# Poissons Ratio (z) = 0.56861 -0.03805
#
# Static dielectric constant tensor:
#      x y z
#    x 1.676000 0.000000 0.000000 
#    y 0.000000 1.776550 0.000000 
#    z 0.000000 0.000000 1.731570 
# 
# From -- ./inp_files/36990.got.cif
#   From: 2010.05.17/outbox.cif.g08.bks.cpg/sg51_19_cif.got.tgz:36990.got - 2010.06.03 11:52:47.
