data_PCOD9405492
_publ_section_title
;
Structure prediction by ZEFSAII (Michael W. Deem and Ramdas Pophale) SiO2 
 PCOD9405492
Probable space group: P M M A
;
_chemical_formula_sum "Si O2"
_cell_formula_units_Z 48
_cell_length_a 8.402602
_cell_length_b 31.754951
_cell_length_c 9.362233
_cell_angle_alpha 90.000000
_cell_angle_beta 90.000000
_cell_angle_gamma 90.000000
_cell_volume 2498.070469
_symmetry_space_group_name_H-M "P M M A"
_symmetry_group_IT_number 51
_symmetry_cell_setting 'orthorhombic'
loop_
_space_group_symop_operation_xyz
x,y,z
1/2-x,-y,z
1/2+x,-y,-z
-x,y,-z
-x,-y,-z
1/2+x,y,-z
1/2-x,y,z
x,-y,z
loop_
_atom_site_type_symbol
_atom_site_label
_atom_site_fract_x
_atom_site_fract_y
_atom_site_fract_z
Si Si1 0.057611 0.500000 0.837406
Si Si2 0.939414 0.000000 0.661934
Si Si3 0.057677 0.255403 0.660777
Si Si4 0.559069 0.080139 0.161279
Si Si5 0.942334 0.417596 0.337661
Si Si6 0.942237 0.839601 0.339254
Si Si7 0.942420 0.335629 0.161376
O O1 0.250000 0.500000 0.838800
O O2 0.004328 0.458358 0.752244
O O3 0.000000 0.500000 0.000000
O O4 0.000000 0.000000 0.500000
O O5 0.000021 0.041236 0.744322
O O6 0.750000 0.000000 0.661933
O O7 0.250000 0.255689 0.660089
O O8 0.004914 0.207897 0.699150
O O9 0.002597 0.291872 0.767268
O O10 0.000000 0.264175 0.500000
O O11 0.750000 0.079876 0.161619
O O12 0.503017 0.123948 0.232670
O O13 0.500000 0.076145 0.000000
O O14 0.750000 0.417685 0.338894
O O15 0.995563 0.375055 0.257874
O O16 0.000000 0.419218 0.500000
O O17 0.750000 0.839803 0.340090
O O18 0.000000 0.848440 0.500000
O O19 0.750000 0.335603 0.161198
O O20 0.000000 0.339967 0.000000
#
# Coordination Sequence:
#
# PCOD9405492 Si02
#       7
#     4   4   8   8   8   8   8
#     4  10  21  36  54  78 108 138 175 218 264 316
#     4  12  25  42  63  86 112 144 182 224 269 320
#     4   9  18  34  54  78 106 138 177 221 265 316
#     4  11  23  39  58  83 114 147 182 223 270 320
#     4  10  21  36  54  78 105 137 177 221 264 315
#     4   9  19  35  56  80 108 141 179 221 266 316
#     4  10  21  35  52  76 107 139 176 219 266 318
#
# _framework density 19.214829999999999
#
# number of rings (size 3 to 8) (size 9 to 14) (size 15 to 20)
#    0.000    2.000    0.000    3.250    0.000    5.333 
#    0.000    0.000    0.000    0.000    0.000    0.000 
#    0.000    0.000    0.000    0.000    0.000    0.000 
#
# Total GULP energy -268155.476940 kJ/mol
# GULP energy per Si atom -5586.572436 kJ/mol
# Density = 1.917110 g / cm^3
# Si number density = 19.214830 Si / 1000 Ang^3
#
#
#
# Elastic Constant Matrix: (Units=GPa)
#
#
# Indices 1 2 3 4 5 6 
#
# 1 22.6012 31.2522 23.9952 0.0000 0.0000 0.0000
# 2 31.2522 176.9514 133.2619 0.0000 0.0000 0.0000
# 3 23.9952 133.2619 194.6383 0.0000 0.0000 0.0000
# 4 0.0000 0.0000 0.0000 11.6754 0.0000 0.0000
# 5 0.0000 0.0000 0.0000 0.0000 38.1685 0.0000
# 6 0.0000 0.0000 0.0000 0.0000 0.0000 -0.9949
#
#
#
# Elastic Compliance Matrix: (Units=1/GPa)
#
#
# Indices 1 2 3 4 5 6 
#
# 1 0.058550 -0.010126 -0.000285 0.000000 0.000000 0.000000
# 2 -0.010126 0.013418 -0.007939 0.000000 0.000000 0.000000
# 3 -0.000285 -0.007939 0.010608 0.000000 0.000000 0.000000
# 4 0.000000 0.000000 0.000000 0.085650 0.000000 0.000000
# 5 0.000000 0.000000 0.000000 0.000000 0.026200 0.000000
# 6 0.000000 0.000000 0.000000 0.000000 0.000000 -1.005096
#
#
# Mechanical properties :
#
#
# Convention : Reuss Voigt Hill
#
# Bulk Modulus (GPa) = 21.79752 85.68995 53.74374
# Shear Modulus (GPa) = -6.59042 23.48191 8.44575
#
# Velocity S-wave (km/s) = -1.85400 3.49961 2.09880
# Velocity P-wave (km/s) = 2.60493 7.81167 5.82271
#
# Compressibility (1/GPa) = 0.04587677
#
# Stress axis : x y z
#
# Youngs Moduli (GPa) = 17.07942 74.52528 94.26662
#
# Poissons Ratio (x) = 0.75464 0.02688
# Poissons Ratio (y) = 0.17295 0.74835
# Poissons Ratio (z) = 0.00487 0.59163
#
# Static dielectric constant tensor:
#      x y z
#    x 1.656810 0.000000 0.000000 
#    y 0.000000 1.683150 0.000000 
#    z 0.000000 0.000000 1.608040 
# 
# From -- ./inp_files/6208.got.cif
#   From: 2010.05.17/outbox.cif.g08.bks.cpg/sg51_4_cif.got.tgz:6208.got - 2010.06.03 11:52:47.
