data_PCOD9405921
_publ_section_title
;
Structure prediction by ZEFSAII (Michael W. Deem and Ramdas Pophale) SiO2 
 PCOD9405921
Probable space group: P M M A
;
_chemical_formula_sum "Si O2"
_cell_formula_units_Z 56
_cell_length_a 14.427252
_cell_length_b 9.048606
_cell_length_c 21.604888
_cell_angle_alpha 90.000000
_cell_angle_beta 90.000000
_cell_angle_gamma 90.000000
_cell_volume 2820.442922
_symmetry_space_group_name_H-M "P M M A"
_symmetry_group_IT_number 51
_symmetry_cell_setting 'orthorhombic'
loop_
_space_group_symop_operation_xyz
x,y,z
1/2-x,-y,z
1/2+x,-y,-z
-x,y,-z
-x,-y,-z
1/2+x,y,-z
1/2-x,y,z
x,-y,z
loop_
_atom_site_type_symbol
_atom_site_label
_atom_site_fract_x
_atom_site_fract_y
_atom_site_fract_z
Si Si1 0.637134 0.330647 0.034469
Si Si2 0.638808 0.330144 0.545555
Si Si3 0.640672 0.825356 0.162370
Si Si4 0.031465 0.174319 0.346168
Si Si5 0.143331 0.320226 0.101143
Si Si6 0.858307 0.323999 0.401289
Si Si7 0.473269 0.323267 0.221022
O O1 0.750000 0.336354 0.030066
O O2 0.604900 0.500000 0.045475
O O3 0.605800 0.276845 0.966730
O O4 0.615773 0.230939 0.093284
O O5 0.750000 0.324943 0.552040
O O6 0.608575 0.500000 0.556941
O O7 0.590874 0.225621 0.594828
O O8 0.618801 0.295422 0.473756
O O9 0.750000 0.796290 0.171533
O O10 0.576625 0.736159 0.209299
O O11 0.624696 0.000000 0.168052
O O12 0.927761 0.231670 0.359862
O O13 0.065164 0.254196 0.283898
O O14 0.033768 0.000000 0.338526
O O15 0.250000 0.271120 0.107428
O O16 0.144005 0.500000 0.099521
O O17 0.084720 0.275512 0.160501
O O18 0.750000 0.289772 0.391562
O O19 0.870614 0.500000 0.390959
O O20 0.472238 0.500000 0.224785
#
# Coordination Sequence:
#
# PCOD9405921 Si02
#       7
#     8   8   8   8   8   8   8
#     4   8  14  29  55  82 105 132 171 220 273 328
#     4   9  19  38  64  90 114 144 185 230 272 318
#     4  10  21  37  55  77 109 144 178 223 278 332
#     4  12  25  38  54  81 119 155 185 224 277 334
#     4   8  16  33  57  83 107 133 174 228 276 319
#     4   9  19  38  64  90 113 142 185 232 274 321
#     4  11  23  38  57  79 105 145 193 231 268 321
#
# _framework density 19.855038
#
# number of rings (size 3 to 8) (size 9 to 14) (size 15 to 20)
#    0.000    2.429    0.000    4.286    0.000    5.429 
#    0.000    7.143    0.000    3.000    0.000    0.000 
#    0.000    0.000    0.000    0.000    0.000    0.000 
#
# Total GULP energy -312824.224951 kJ/mol
# GULP energy per Si atom -5586.146874 kJ/mol
# Density = 1.980985 g / cm^3
# Si number density = 19.855038 Si / 1000 Ang^3
#
#
#
# Elastic Constant Matrix: (Units=GPa)
#
#
# Indices 1 2 3 4 5 6 
#
# 1 40.3522 16.2909 16.4889 0.0000 0.0000 0.0000
# 2 16.2909 52.6106 30.5866 0.0000 0.0000 0.0000
# 3 16.4889 30.5866 59.3990 0.0000 0.0000 0.0000
# 4 0.0000 0.0000 0.0000 -64.9316 0.0000 0.0000
# 5 0.0000 0.0000 0.0000 0.0000 17.3416 0.0000
# 6 0.0000 0.0000 0.0000 0.0000 0.0000 -24.1576
#
#
#
# Elastic Compliance Matrix: (Units=1/GPa)
#
#
# Indices 1 2 3 4 5 6 
#
# 1 0.029305 -0.006201 -0.004942 0.000000 0.000000 0.000000
# 2 -0.006201 0.028442 -0.012924 0.000000 0.000000 0.000000
# 3 -0.004942 -0.012924 0.024862 0.000000 0.000000 0.000000
# 4 0.000000 0.000000 0.000000 -0.015401 0.000000 0.000000
# 5 0.000000 0.000000 0.000000 0.000000 0.057665 0.000000
# 6 0.000000 0.000000 0.000000 0.000000 0.000000 -0.041395
#
#
# Mechanical properties :
#
#
# Convention : Reuss Voigt Hill
#
# Bulk Modulus (GPa) = 29.00701 31.01050 30.00876
# Shear Modulus (GPa) = 34.93990 -8.41649 13.26170
#
# Velocity S-wave (km/s) = 4.19949 -2.06111 2.58723
# Velocity P-wave (km/s) = 6.17700 3.16040 4.90630
#
# Compressibility (1/GPa) = 0.03447443
#
# Stress axis : x y z
#
# Youngs Moduli (GPa) = 34.12428 35.15983 40.22181
#
# Poissons Ratio (x) = 0.21804 0.19876
# Poissons Ratio (y) = 0.21161 0.51983
# Poissons Ratio (z) = 0.16863 0.45441
#
# Static dielectric constant tensor:
#      x y z
#    x 1.730310 0.000000 0.000000 
#    y 0.000000 1.653290 0.000000 
#    z 0.000000 0.000000 1.706070 
# 
# From -- ./inp_files/33374.got.cif
#   From: 2010.05.17/outbox.cif.g08.bks.cpg/sg51_17_cif.got.tgz:33374.got - 2010.06.03 11:52:47.
