data_PCOD9405002
_publ_section_title
;
Structure prediction by ZEFSAII (Michael W. Deem and Ramdas Pophale) SiO2 
 PCOD9405002
Probable space group: P M M A
;
_chemical_formula_sum "Si O2"
_cell_formula_units_Z 28
_cell_length_a 8.543315
_cell_length_b 18.162995
_cell_length_c 9.983903
_cell_angle_alpha 90.000000
_cell_angle_beta 90.000000
_cell_angle_gamma 90.000000
_cell_volume 1549.224070
_symmetry_space_group_name_H-M "P M M A"
_symmetry_group_IT_number 51
_symmetry_cell_setting 'orthorhombic'
loop_
_space_group_symop_operation_xyz
x,y,z
1/2-x,-y,z
1/2+x,-y,-z
-x,y,-z
-x,-y,-z
1/2+x,y,-z
1/2-x,y,z
x,-y,z
loop_
_atom_site_type_symbol
_atom_site_label
_atom_site_fract_x
_atom_site_fract_y
_atom_site_fract_z
Si Si1 0.938743 0.792554 0.353156
Si Si2 0.439066 0.082576 0.850038
Si Si3 0.938201 0.622972 0.351156
Si Si4 0.436641 0.500000 0.151716
O O1 0.750000 0.793917 0.354682
O O2 0.994819 0.852371 0.246293
O O3 0.985255 0.707996 0.324815
O O4 0.000000 0.811581 0.500000
O O5 0.250000 0.084374 0.852286
O O6 0.486449 0.000000 0.805651
O O7 0.500000 0.093209 0.000000
O O8 0.750000 0.617897 0.352546
O O9 0.000000 0.603155 0.500000
O O10 0.004249 0.569974 0.237204
O O11 0.250000 0.500000 0.147605
O O12 0.500000 0.500000 0.000000
#
# Coordination Sequence:
#
# PCOD9405002 Si02
#       4
#     8   8   8   4
#     4   9  19  34  53  78 106 136 172 214 257 304
#     4   9  18  33  51  73 103 138 175 214 257 306
#     4  10  20  37  58  80 107 140 177 215 260 313
#     4  12  25  40  57  80 108 138 174 216 263 312
#
# _framework density 18.073563
#
# number of rings (size 3 to 8) (size 9 to 14) (size 15 to 20)
#    0.000    2.286    0.000    2.571    0.000    4.000 
#    0.000    2.857    0.000    0.000    0.000    0.000 
#    0.000    0.000    0.000    0.000    0.000    0.000 
#
# Total GULP energy -156264.659637 kJ/mol
# GULP energy per Si atom -5580.880701 kJ/mol
# Density = 1.803243 g / cm^3
# Si number density = 18.073563 Si / 1000 Ang^3
#
#
#
# Elastic Constant Matrix: (Units=GPa)
#
#
# Indices 1 2 3 4 5 6 
#
# 1 45.2545 37.5524 40.7421 0.0000 0.0000 0.0000
# 2 37.5524 144.5748 125.4451 0.0000 0.0000 0.0000
# 3 40.7421 125.4451 156.6471 0.0000 0.0000 0.0000
# 4 0.0000 0.0000 0.0000 86.2282 0.0000 0.0000
# 5 0.0000 0.0000 0.0000 0.0000 35.0421 0.0000
# 6 0.0000 0.0000 0.0000 0.0000 0.0000 1147.3021
#
#
#
# Elastic Compliance Matrix: (Units=1/GPa)
#
#
# Indices 1 2 3 4 5 6 
#
# 1 0.029319 -0.003273 -0.005004 0.000000 0.000000 0.000000
# 2 -0.003273 0.023033 -0.017593 0.000000 0.000000 0.000000
# 3 -0.005004 -0.017593 0.021774 0.000000 0.000000 0.000000
# 4 0.000000 0.000000 0.000000 0.011597 0.000000 0.000000
# 5 0.000000 0.000000 0.000000 0.000000 0.028537 0.000000
# 6 0.000000 0.000000 0.000000 0.000000 0.000000 0.000872
#
#
# Mechanical properties :
#
#
# Convention : Reuss Voigt Hill
#
# Bulk Modulus (GPa) = 44.67518 83.77287 64.22403
# Shear Modulus (GPa) = 28.68048 263.23026 145.95537
#
# Velocity S-wave (km/s) = 3.98788 12.08139 8.99620
# Velocity P-wave (km/s) = 6.78059 15.52627 11.98001
#
# Compressibility (1/GPa) = 0.02238379
#
# Stress axis : x y z
#
# Youngs Moduli (GPa) = 34.10796 43.41667 45.92556
#
# Poissons Ratio (x) = 0.14212 0.22982
# Poissons Ratio (y) = 0.11165 0.80799
# Poissons Ratio (z) = 0.17068 0.76385
#
# Static dielectric constant tensor:
#      x y z
#    x 1.608680 0.000000 0.000000 
#    y 0.000000 1.641540 0.000000 
#    z 0.000000 0.000000 1.571560 
# 
# From -- ./inp_files/4662.got.cif
#   From: 2010.05.17/outbox.cif.g08.bks.cpg/sg51_3_cif.got.tgz:4662.got - 2010.06.03 11:52:47.
