data_PCOD9405181
_publ_section_title
;
Structure prediction by ZEFSAII (Michael W. Deem and Ramdas Pophale) SiO2 
 PCOD9405181
Probable space group: P M M A
;
_chemical_formula_sum "Si O2"
_cell_formula_units_Z 36
_cell_length_a 7.812797
_cell_length_b 14.038153
_cell_length_c 14.587069
_cell_angle_alpha 90.000000
_cell_angle_beta 90.000000
_cell_angle_gamma 90.000000
_cell_volume 1599.869462
_symmetry_space_group_name_H-M "P M M A"
_symmetry_group_IT_number 51
_symmetry_cell_setting 'orthorhombic'
loop_
_space_group_symop_operation_xyz
x,y,z
1/2-x,-y,z
1/2+x,-y,-z
-x,y,-z
-x,-y,-z
1/2+x,y,-z
1/2-x,y,z
x,-y,z
loop_
_atom_site_type_symbol
_atom_site_label
_atom_site_fract_x
_atom_site_fract_y
_atom_site_fract_z
Si Si1 0.044589 0.000000 0.893953
Si Si2 0.440021 0.386026 0.401674
Si Si3 0.539445 0.808358 0.207526
Si Si4 0.955333 0.108819 0.397186
Si Si5 0.054216 0.394248 0.798686
O O1 0.983321 0.902201 0.847142
O O2 0.250000 0.000000 0.882129
O O3 0.000000 0.000000 0.000000
O O4 0.500000 0.348271 0.500000
O O5 0.250000 0.350462 0.380853
O O6 0.427693 0.500000 0.413704
O O7 0.554992 0.377703 0.311670
O O8 0.750000 0.804957 0.205424
O O9 0.485425 0.826811 0.312985
O O10 0.477682 0.706389 0.168642
O O11 0.750000 0.106256 0.391200
O O12 0.000000 0.137958 0.500000
O O13 0.018379 0.000000 0.384455
O O14 0.250000 0.399379 0.831011
O O15 0.975952 0.500000 0.814762
#
# Coordination Sequence:
#
# PCOD9405181 Si02
#       5
#     4   8   8   8   8
#     4  10  20  38  61  82 102 126 161 206 255 304
#     4   9  16  26  40  59  88 129 174 216 252 285
#     4   9  17  32  54  75 100 135 168 201 248 301
#     4   9  16  28  46  68  95 130 167 201 240 286
#     4   9  17  29  46  69  95 126 165 203 241 293
#
# _framework density 22.501833999999999
#
# number of rings (size 3 to 8) (size 9 to 14) (size 15 to 20)
#    0.000    2.889    1.111    0.667    0.000    3.556 
#    0.000    5.556    0.000    0.667    0.000    0.000 
#    0.000    0.000    0.000    0.000    0.000    0.000 
#
# Total GULP energy -200638.207112 kJ/mol
# GULP energy per Si atom -5573.283531 kJ/mol
# Density = 2.245062 g / cm^3
# Si number density = 22.501834 Si / 1000 Ang^3
#
#
#
# Elastic Constant Matrix: (Units=GPa)
#
#
# Indices 1 2 3 4 5 6 
#
# 1 37.1660 5.4518 -6.2196 0.0000 0.0000 0.0000
# 2 5.4518 246.8760 50.3213 0.0000 0.0000 0.0000
# 3 -6.2196 50.3213 51.1063 0.0000 0.0000 0.0000
# 4 0.0000 0.0000 0.0000 -5.3487 0.0000 0.0000
# 5 0.0000 0.0000 0.0000 0.0000 17.2997 0.0000
# 6 0.0000 0.0000 0.0000 0.0000 0.0000 5.0687
#
#
#
# Elastic Compliance Matrix: (Units=1/GPa)
#
#
# Indices 1 2 3 4 5 6 
#
# 1 0.027988 -0.001642 0.005023 0.000000 0.000000 0.000000
# 2 -0.001642 0.005164 -0.005285 0.000000 0.000000 0.000000
# 3 0.005023 -0.005285 0.025382 0.000000 0.000000 0.000000
# 4 0.000000 0.000000 0.000000 -0.186961 0.000000 0.000000
# 5 0.000000 0.000000 0.000000 0.000000 0.057804 0.000000
# 6 0.000000 0.000000 0.000000 0.000000 0.000000 0.197289
#
#
# Mechanical properties :
#
#
# Convention : Reuss Voigt Hill
#
# Bulk Modulus (GPa) = 18.27285 48.25059 33.26172
# Shear Modulus (GPa) = 33.62142 22.44361 28.03251
#
# Velocity S-wave (km/s) = 3.86963 3.16161 3.53340
# Velocity P-wave (km/s) = 5.30129 5.90061 5.60896
#
# Compressibility (1/GPa) = 0.05472600
#
# Stress axis : x y z
#
# Youngs Moduli (GPa) = 35.73002 193.64735 39.39855
#
# Poissons Ratio (x) = 0.31794 -0.19789
# Poissons Ratio (y) = 0.05866 0.20820
# Poissons Ratio (z) = -0.17946 1.02333
#
# Static dielectric constant tensor:
#      x y z
#    x 1.835830 0.000000 0.000000 
#    y 0.000000 1.940860 0.000000 
#    z 0.000000 0.000000 1.795620 
# 
# From -- ./inp_files/20348.got.cif
#   From: 2010.05.17/outbox.cif.g08.bks.cpg/sg51_11_cif.got.tgz:20348.got - 2010.06.03 11:52:47.
