data_PCOD9405451
_publ_section_title
;
Structure prediction by ZEFSAII (Michael W. Deem and Ramdas Pophale) SiO2 
 PCOD9405451
Probable space group: P M M A
;
_chemical_formula_sum "Si O2"
_cell_formula_units_Z 36
_cell_length_a 7.541520
_cell_length_b 24.487541
_cell_length_c 9.364054
_cell_angle_alpha 90.000000
_cell_angle_beta 90.000000
_cell_angle_gamma 90.000000
_cell_volume 1729.290568
_symmetry_space_group_name_H-M "P M M A"
_symmetry_group_IT_number 51
_symmetry_cell_setting 'orthorhombic'
loop_
_space_group_symop_operation_xyz
x,y,z
1/2-x,-y,z
1/2+x,-y,-z
-x,y,-z
-x,-y,-z
1/2+x,y,-z
1/2-x,y,z
x,-y,z
loop_
_atom_site_type_symbol
_atom_site_label
_atom_site_fract_x
_atom_site_fract_y
_atom_site_fract_z
Si Si1 0.462688 0.834633 0.832684
Si Si2 0.037096 0.286310 0.832040
Si Si3 0.537061 0.392555 0.332246
Si Si4 0.462777 0.059844 0.667988
Si Si5 0.537117 0.500000 0.168235
O O1 0.250000 0.833566 0.812776
O O2 0.530565 0.774211 0.791585
O O3 0.533430 0.886907 0.748226
O O4 0.500000 0.841388 0.000000
O O5 0.250000 0.284879 0.816584
O O6 0.968717 0.336382 0.737685
O O7 0.000000 0.295341 0.000000
O O8 0.500000 0.396289 0.500000
O O9 0.750000 0.391968 0.315295
O O10 0.469598 0.445449 0.246512
O O11 0.500000 0.064504 0.500000
O O12 0.250000 0.059183 0.687224
O O13 0.529786 0.000000 0.716013
O O14 0.750000 0.500000 0.184501
O O15 0.500000 0.500000 0.000000
#
# Coordination Sequence:
#
# PCOD9405451 Si02
#       5
#     8   8   8   8   4
#     4   9  18  32  49  70  96 124 156 196 238 280
#     4   9  18  33  51  71  96 126 160 196 235 282
#     4  10  21  35  51  74 102 129 160 198 238 281
#     4   9  18  32  48  67  93 124 157 194 236 282
#     4  10  21  36  54  76 100 128 163 200 238 282
#
# _framework density 20.817785000000001
#
# number of rings (size 3 to 8) (size 9 to 14) (size 15 to 20)
#    0.000    2.667    0.000    1.000    0.000    4.000 
#    0.000    0.000    0.000    0.000    0.000    0.000 
#    0.000    0.000    0.000    0.000    0.000    0.000 
#
# Total GULP energy -200901.566241 kJ/mol
# GULP energy per Si atom -5580.599062 kJ/mol
# Density = 2.077040 g / cm^3
# Si number density = 20.817785 Si / 1000 Ang^3
#
#
#
# Elastic Constant Matrix: (Units=GPa)
#
#
# Indices 1 2 3 4 5 6 
#
# 1 53.3751 14.7084 -7.0342 0.0000 0.0000 0.0000
# 2 14.7084 275.0066 136.9328 0.0000 0.0000 0.0000
# 3 -7.0342 136.9328 116.4545 0.0000 0.0000 0.0000
# 4 0.0000 0.0000 0.0000 82.8656 0.0000 0.0000
# 5 0.0000 0.0000 0.0000 0.0000 27.3771 0.0000
# 6 0.0000 0.0000 0.0000 0.0000 0.0000 -29.0594
#
#
#
# Elastic Compliance Matrix: (Units=1/GPa)
#
#
# Indices 1 2 3 4 5 6 
#
# 1 0.020696 -0.004172 0.006156 0.000000 0.000000 0.000000
# 2 -0.004172 0.009613 -0.011556 0.000000 0.000000 0.000000
# 3 0.006156 -0.011556 0.022547 0.000000 0.000000 0.000000
# 4 0.000000 0.000000 0.000000 0.012068 0.000000 0.000000
# 5 0.000000 0.000000 0.000000 0.000000 0.036527 0.000000
# 6 0.000000 0.000000 0.000000 0.000000 0.000000 -0.034412
#
#
# Mechanical properties :
#
#
# Convention : Reuss Voigt Hill
#
# Bulk Modulus (GPa) = 29.66281 81.56112 55.61197
# Shear Modulus (GPa) = 51.32398 36.25196 43.78797
#
# Velocity S-wave (km/s) = 4.97066 4.17753 4.59125
# Velocity P-wave (km/s) = 6.87190 7.90776 7.40795
#
# Compressibility (1/GPa) = 0.03371224
#
# Stress axis : x y z
#
# Youngs Moduli (GPa) = 48.31791 104.02174 44.35215
#
# Poissons Ratio (x) = 0.43398 -0.27302
# Poissons Ratio (y) = 0.20158 0.51253
# Poissons Ratio (z) = -0.29744 1.20206
#
# Static dielectric constant tensor:
#      x y z
#    x 1.756800 0.000000 0.000000 
#    y 0.000000 1.790940 0.000000 
#    z 0.000000 0.000000 1.667780 
# 
# From -- ./inp_files/6936.got.cif
#   From: 2010.05.17/outbox.cif.g08.bks.cpg/sg51_4_cif.got.tgz:6936.got - 2010.06.03 11:52:47.
