data_PCOD9405370
_publ_section_title
;
Structure prediction by ZEFSAII (Michael W. Deem and Ramdas Pophale) SiO2 
 PCOD9405370
Probable space group: P M M A
;
_chemical_formula_sum "Si O2"
_cell_formula_units_Z 40
_cell_length_a 26.973418
_cell_length_b 7.686394
_cell_length_c 10.101150
_cell_angle_alpha 90.000000
_cell_angle_beta 90.000000
_cell_angle_gamma 90.000000
_cell_volume 2094.254442
_symmetry_space_group_name_H-M "P M M A"
_symmetry_group_IT_number 51
_symmetry_cell_setting 'orthorhombic'
loop_
_space_group_symop_operation_xyz
x,y,z
1/2-x,-y,z
1/2+x,-y,-z
-x,y,-z
-x,-y,-z
1/2+x,y,-z
1/2-x,y,z
x,-y,z
loop_
_atom_site_type_symbol
_atom_site_label
_atom_site_fract_x
_atom_site_fract_y
_atom_site_fract_z
Si Si1 0.107984 0.214324 0.159248
Si Si2 0.805681 0.207112 0.648321
Si Si3 0.499353 0.798988 0.838884
Si Si4 0.194359 0.707510 0.654718
Si Si5 0.392460 0.791829 0.856262
O O1 0.151663 0.274772 0.255122
O O2 0.052772 0.275071 0.200893
O O3 0.106994 0.000000 0.161177
O O4 0.116630 0.268647 0.006858
O O5 0.750000 0.278243 0.670978
O O6 0.818018 0.234295 0.494243
O O7 0.803256 0.000000 0.670879
O O8 0.445673 0.721262 0.804710
O O9 0.499544 0.000000 0.793221
O O10 0.500000 0.800312 0.000000
O O11 0.250000 0.774383 0.686204
O O12 0.196511 0.500000 0.653586
O O13 0.153009 0.759023 0.759799
O O14 0.398963 0.000000 0.865981
#
# Coordination Sequence:
#
# PCOD9405370 Si02
#       5
#     8   8   8   8   8
#     4   8  14  26  47  74  98 117 144 186 229 267
#     4   9  17  30  48  68  89 116 152 191 228 266
#     4   7  11  22  42  69  97 120 142 174 221 271
#     4  10  21  35  47  61  88 125 157 186 226 273
#     4   9  16  28  50  75  94 116 149 187 224 266
#
# _framework density 19.099876999999999
#
# number of rings (size 3 to 8) (size 9 to 14) (size 15 to 20)
#    0.000    3.400    0.000    3.000    0.000    2.000 
#    0.000    4.000    0.000   15.000    0.000    0.000 
#    0.000    0.000    0.000    0.000    0.000    0.000 
#
# Total GULP energy -222705.378252 kJ/mol
# GULP energy per Si atom -5567.634456 kJ/mol
# Density = 1.905641 g / cm^3
# Si number density = 19.099877 Si / 1000 Ang^3
#
#
#
# Elastic Constant Matrix: (Units=GPa)
#
#
# Indices 1 2 3 4 5 6 
#
# 1 210.5423 5.1040 119.6150 0.0000 0.0000 0.0000
# 2 5.1040 30.7505 -0.5756 0.0000 0.0000 0.0000
# 3 119.6150 -0.5756 90.8812 0.0000 0.0000 0.0000
# 4 0.0000 0.0000 0.0000 -394.9872 0.0000 0.0000
# 5 0.0000 0.0000 0.0000 0.0000 -4.3096 0.0000
# 6 0.0000 0.0000 0.0000 0.0000 0.0000 -8.6594
#
#
#
# Elastic Compliance Matrix: (Units=1/GPa)
#
#
# Indices 1 2 3 4 5 6 
#
# 1 0.019234 -0.003667 -0.025338 0.000000 0.000000 0.000000
# 2 -0.003667 0.033223 0.005037 0.000000 0.000000 0.000000
# 3 -0.025338 0.005037 0.044385 0.000000 0.000000 0.000000
# 4 0.000000 0.000000 0.000000 -0.002532 0.000000 0.000000
# 5 0.000000 0.000000 0.000000 0.000000 -0.232040 0.000000
# 6 0.000000 0.000000 0.000000 0.000000 0.000000 -0.115482
#
#
# Mechanical properties :
#
#
# Convention : Reuss Voigt Hill
#
# Bulk Modulus (GPa) = 20.44810 64.49563 42.47186
# Shear Modulus (GPa) = -26.45880 -67.72253 -47.09067
#
# Velocity S-wave (km/s) = -3.72598 -5.96104 -4.97076
# Velocity P-wave (km/s) = 2.78953 3.67938 3.26491
#
# Compressibility (1/GPa) = 0.04890430
#
# Stress axis : x y z
#
# Youngs Moduli (GPa) = 51.99130 30.09990 22.53018
#
# Poissons Ratio (x) = 0.11037 0.57088
# Poissons Ratio (y) = 0.19064 -0.11347
# Poissons Ratio (z) = 1.31738 -0.15160
#
# Static dielectric constant tensor:
#      x y z
#    x 1.692750 0.000000 0.000000 
#    y 0.000000 1.701700 0.000000 
#    z 0.000000 0.000000 1.619380 
# 
# From -- ./inp_files/11432.got.cif
#   From: 2010.05.17/outbox.cif.g08.bks.cpg/sg51_6_cif.got.tgz:11432.got - 2010.06.03 11:52:47.
