data_PCOD9405118
_publ_section_title
;
Structure prediction by ZEFSAII (Michael W. Deem and Ramdas Pophale) SiO2 
 PCOD9405118
Probable space group: P M M A
;
_chemical_formula_sum "Si O2"
_cell_formula_units_Z 40
_cell_length_a 8.001719
_cell_length_b 8.043730
_cell_length_c 30.054221
_cell_angle_alpha 90.000000
_cell_angle_beta 90.000000
_cell_angle_gamma 90.000000
_cell_volume 1934.399878
_symmetry_space_group_name_H-M "P M M A"
_symmetry_group_IT_number 51
_symmetry_cell_setting 'orthorhombic'
loop_
_space_group_symop_operation_xyz
x,y,z
1/2-x,-y,z
1/2+x,-y,-z
-x,y,-z
-x,-y,-z
1/2+x,y,-z
1/2-x,y,z
x,-y,z
loop_
_atom_site_type_symbol
_atom_site_label
_atom_site_fract_x
_atom_site_fract_y
_atom_site_fract_z
Si Si1 0.062028 0.699342 0.451765
Si Si2 0.435460 0.201823 0.236949
Si Si3 0.250000 0.809241 0.604928
Si Si4 0.250000 0.693524 0.704150
Si Si5 0.447109 0.197227 0.857803
Si Si6 0.050852 0.807711 0.047325
O O1 0.250000 0.761699 0.441653
O O2 0.073273 0.500000 0.455291
O O3 0.000000 0.762482 0.500000
O O4 0.918762 0.734699 0.415965
O O5 0.250000 0.248628 0.252636
O O6 0.586050 0.265125 0.267035
O O7 0.460824 0.261593 0.185986
O O8 0.445874 0.000000 0.236378
O O9 0.250000 0.790324 0.657867
O O10 0.250000 0.000000 0.592005
O O11 0.250000 0.500000 0.693021
O O12 0.250000 0.210393 0.849658
O O13 0.487989 0.268833 0.906404
O O14 0.491090 0.000000 0.860584
O O15 0.250000 0.813029 0.049393
O O16 0.984855 0.000000 0.046282
O O17 0.000000 0.730972 0.000000
#
# Coordination Sequence:
#
# PCOD9405118 Si02
#       6
#     8   8   4   4   8   8
#     4  10  20  39  67  96 130 173 217 256 300 358
#     4  10  20  37  62  88 115 150 194 247 306 367
#     4  12  26  42  64  94 132 168 208 260 311 362
#     4  12  26  44  64  86 120 160 204 254 309 366
#     4   9  15  25  44  69  99 138 182 228 285 353
#     4   9  15  21  30  52  91 138 181 219 271 342
#
# _framework density 20.678248
#
# number of rings (size 3 to 8) (size 9 to 14) (size 15 to 20)
#    0.000    2.000    2.000    3.000    0.000    6.800 
#    0.000    0.000    0.000    0.000    0.000    0.000 
#    0.000    0.800    0.400    0.000    0.800    0.000 
#
# Total GULP energy -223249.969713 kJ/mol
# GULP energy per Si atom -5581.249243 kJ/mol
# Density = 2.063118 g / cm^3
# Si number density = 20.678248 Si / 1000 Ang^3
#
#
#
# Elastic Constant Matrix: (Units=GPa)
#
#
# Indices 1 2 3 4 5 6 
#
# 1 126.9489 9.8884 61.0653 0.0000 0.0000 0.0000
# 2 9.8884 19.0704 -10.4015 0.0000 0.0000 0.0000
# 3 61.0653 -10.4015 109.5311 0.0000 0.0000 0.0000
# 4 0.0000 0.0000 0.0000 13.3676 0.0000 0.0000
# 5 0.0000 0.0000 0.0000 0.0000 36.8076 0.0000
# 6 0.0000 0.0000 0.0000 0.0000 0.0000 5.3707
#
#
#
# Elastic Compliance Matrix: (Units=1/GPa)
#
#
# Indices 1 2 3 4 5 6 
#
# 1 0.012611 -0.010941 -0.008070 0.000000 0.000000 0.000000
# 2 -0.010941 0.064793 0.012253 0.000000 0.000000 0.000000
# 3 -0.008070 0.012253 0.014792 0.000000 0.000000 0.000000
# 4 0.000000 0.000000 0.000000 0.074808 0.000000 0.000000
# 5 0.000000 0.000000 0.000000 0.000000 0.027168 0.000000
# 6 0.000000 0.000000 0.000000 0.000000 0.000000 0.186197
#
#
# Mechanical properties :
#
#
# Convention : Reuss Voigt Hill
#
# Bulk Modulus (GPa) = 12.70954 41.85055 27.28004
# Shear Modulus (GPa) = 11.90156 24.10904 18.00530
#
# Velocity S-wave (km/s) = 2.40168 3.41825 2.95403
# Velocity P-wave (km/s) = 3.72162 5.98850 4.98561
#
# Compressibility (1/GPa) = 0.07868103
#
# Stress axis : x y z
#
# Youngs Moduli (GPa) = 79.29450 15.43368 67.60184
#
# Poissons Ratio (x) = 0.16886 0.54554
# Poissons Ratio (y) = 0.86754 -0.82830
# Poissons Ratio (z) = 0.63990 -0.18910
#
# Static dielectric constant tensor:
#      x y z
#    x 1.840550 0.000000 0.000000 
#    y 0.000000 1.764760 0.000000 
#    z 0.000000 0.000000 1.743800 
# 
# From -- ./inp_files/36095.got.cif
#   From: 2010.05.17/outbox.cif.g08.bks.cpg/sg51_19_cif.got.tgz:36095.got - 2010.06.03 11:52:47.
