data_PCOD9405164
_publ_section_title
;
Structure prediction by ZEFSAII (Michael W. Deem and Ramdas Pophale) SiO2 
 PCOD9405164
Probable space group: P M M A
;
_chemical_formula_sum "Si O2"
_cell_formula_units_Z 48
_cell_length_a 9.539494
_cell_length_b 9.559632
_cell_length_c 29.789138
_cell_angle_alpha 90.000000
_cell_angle_beta 90.000000
_cell_angle_gamma 90.000000
_cell_volume 2716.592203
_symmetry_space_group_name_H-M "P M M A"
_symmetry_group_IT_number 51
_symmetry_cell_setting 'orthorhombic'
loop_
_space_group_symop_operation_xyz
x,y,z
1/2-x,-y,z
1/2+x,-y,-z
-x,y,-z
-x,-y,-z
1/2+x,y,-z
1/2-x,y,z
x,-y,z
loop_
_atom_site_type_symbol
_atom_site_label
_atom_site_fract_x
_atom_site_fract_y
_atom_site_fract_z
Si Si1 0.479786 0.160953 0.100494
Si Si2 0.916663 0.836481 0.800589
Si Si3 0.750000 0.334186 0.950161
Si Si4 0.086361 0.667059 0.288136
Si Si5 0.915540 0.331686 0.377485
Si Si6 0.250000 0.154362 0.961670
Si Si7 0.415922 0.166877 0.453791
O O1 0.495783 0.195251 0.153051
O O2 0.379772 0.270857 0.076877
O O3 0.618372 0.162366 0.071003
O O4 0.423984 0.000000 0.099316
O O5 0.750000 0.815626 0.809749
O O6 0.954039 0.744007 0.757774
O O7 0.937061 0.000000 0.789815
O O8 0.750000 0.500000 0.951399
O O9 0.750000 0.269524 0.999939
O O10 0.250000 0.703276 0.298321
O O11 0.080428 0.500000 0.281683
O O12 0.985454 0.703074 0.329457
O O13 0.750000 0.295935 0.379235
O O14 0.927415 0.500000 0.383501
O O15 0.005291 0.252642 0.415160
O O16 0.250000 0.000000 0.984104
O O17 0.500000 0.192966 0.500000
O O18 0.250000 0.202819 0.457336
O O19 0.424305 0.000000 0.444706
#
# Coordination Sequence:
#
# PCOD9405164 Si02
#       7
#     8   8   4   8   8   4   8
#     4  10  20  38  59  80 107 142 182 223 269 326
#     4   9  17  32  55  80 104 133 175 225 270 319
#     4  12  24  36  56  82 110 142 180 224 271 324
#     4   9  18  33  53  76 104 139 179 223 271 323
#     4  10  21  37  56  80 113 152 192 230 272 329
#     4  10  22  38  58  80 106 144 182 220 271 328
#     4  10  21  37  58  84 114 149 189 236 288 337
#
# _framework density 17.669197
#
# number of rings (size 3 to 8) (size 9 to 14) (size 15 to 20)
#    0.000    2.167    0.833    2.250    0.000    6.333 
#    1.500    1.667    0.000    0.000    0.000    0.000 
#    0.000    0.000    0.000    0.000    0.000    0.000 
#
# Total GULP energy -267788.696490 kJ/mol
# GULP energy per Si atom -5578.931177 kJ/mol
# Density = 1.762898 g / cm^3
# Si number density = 17.669197 Si / 1000 Ang^3
#
#
#
# Elastic Constant Matrix: (Units=GPa)
#
#
# Indices 1 2 3 4 5 6 
#
# 1 106.4904 60.1463 69.5862 0.0000 0.0000 0.0000
# 2 60.1463 78.9489 78.6841 0.0000 0.0000 0.0000
# 3 69.5862 78.6841 157.1889 0.0000 0.0000 0.0000
# 4 0.0000 0.0000 0.0000 60.1419 0.0000 0.0000
# 5 0.0000 0.0000 0.0000 0.0000 -14.8521 0.0000
# 6 0.0000 0.0000 0.0000 0.0000 0.0000 8.0281
#
#
#
# Elastic Compliance Matrix: (Units=1/GPa)
#
#
# Indices 1 2 3 4 5 6 
#
# 1 0.016810 -0.010756 -0.002058 0.000000 0.000000 0.000000
# 2 -0.010756 0.032159 -0.011336 0.000000 0.000000 0.000000
# 3 -0.002058 -0.011336 0.012947 0.000000 0.000000 0.000000
# 4 0.000000 0.000000 0.000000 0.016627 0.000000 0.000000
# 5 0.000000 0.000000 0.000000 0.000000 -0.067330 0.000000
# 6 0.000000 0.000000 0.000000 0.000000 0.000000 0.124562
#
#
# Mechanical properties :
#
#
# Convention : Reuss Voigt Hill
#
# Bulk Modulus (GPa) = 73.43895 84.38461 78.91178
# Shear Modulus (GPa) = 26.50931 19.61103 23.06017
#
# Velocity S-wave (km/s) = 3.87759 3.33513 3.61654
# Velocity P-wave (km/s) = 7.85500 7.91786 7.88649
#
# Compressibility (1/GPa) = 0.01361675
#
# Stress axis : x y z
#
# Youngs Moduli (GPa) = 59.48850 31.09572 77.23655
#
# Poissons Ratio (x) = 0.33446 0.15892
# Poissons Ratio (y) = 0.63984 0.87557
# Poissons Ratio (z) = 0.12240 0.35251
#
# Static dielectric constant tensor:
#      x y z
#    x 1.605390 0.000000 0.000000 
#    y 0.000000 1.588830 0.000000 
#    z 0.000000 0.000000 1.578990 
# 
# From -- ./inp_files/37107.got.cif
#   From: 2010.05.17/outbox.cif.g08.bks.cpg/sg51_19_cif.got.tgz:37107.got - 2010.06.03 11:52:47.
