data_PCOD9405068
_publ_section_title
;
Structure prediction by ZEFSAII (Michael W. Deem and Ramdas Pophale) SiO2 
 PCOD9405068
Probable space group: P M M A
;
_chemical_formula_sum "Si O2"
_cell_formula_units_Z 40
_cell_length_a 19.209236
_cell_length_b 11.265649
_cell_length_c 10.397147
_cell_angle_alpha 90.000000
_cell_angle_beta 90.000000
_cell_angle_gamma 90.000000
_cell_volume 2249.989505
_symmetry_space_group_name_H-M "P M M A"
_symmetry_group_IT_number 51
_symmetry_cell_setting 'orthorhombic'
loop_
_space_group_symop_operation_xyz
x,y,z
1/2-x,-y,z
1/2+x,-y,-z
-x,y,-z
-x,-y,-z
1/2+x,y,-z
1/2-x,y,z
x,-y,z
loop_
_atom_site_type_symbol
_atom_site_label
_atom_site_fract_x
_atom_site_fract_y
_atom_site_fract_z
Si Si1 0.569044 0.138333 0.138476
Si Si2 0.666921 0.860252 0.624800
Si Si3 0.832497 0.500000 0.231289
Si Si4 0.167096 0.755452 0.650691
Si Si5 0.418339 0.500000 0.034026
Si Si6 0.917169 0.758669 0.864103
O O1 0.624122 0.166416 0.248703
O O2 0.499107 0.215300 0.158651
O O3 0.550005 0.000000 0.137595
O O4 0.598560 0.175530 0.999193
O O5 0.750000 0.847909 0.644075
O O6 0.648045 0.790640 0.494401
O O7 0.626429 0.810210 0.747017
O O8 0.651683 0.000000 0.607848
O O9 0.750000 0.500000 0.200537
O O10 0.847124 0.618738 0.312416
O O11 0.875588 0.500000 0.099219
O O12 0.250000 0.776208 0.664875
O O13 0.403735 0.380061 0.112198
O O14 0.500000 0.500000 0.000000
#
# Coordination Sequence:
#
# PCOD9405068 Si02
#       6
#     8   8   4   8   4   8
#     4  11  21  36  59  86 115 151 197 239 283 343
#     4  10  22  40  59  85 122 156 190 236 288 343
#     4  10  20  37  60  85 114 147 196 247 282 332
#     4  10  21  38  60  84 115 156 196 238 287 340
#     4  12  20  39  62  84 116 154 188 241 290 340
#     4  11  22  37  59  86 117 150 191 238 294 340
#
# _framework density 17.777861000000001
#
# number of rings (size 3 to 8) (size 9 to 14) (size 15 to 20)
#    0.000    1.400    4.000    3.000    0.000    4.400 
#    0.000    3.000    0.000    3.600    0.000    0.000 
#    0.000    0.000    0.000    0.000    0.000    0.000 
#
# Total GULP energy -223419.049352 kJ/mol
# GULP energy per Si atom -5585.476234 kJ/mol
# Density = 1.773740 g / cm^3
# Si number density = 17.777861 Si / 1000 Ang^3
#
#
#
# Elastic Constant Matrix: (Units=GPa)
#
#
# Indices 1 2 3 4 5 6 
#
# 1 45.4059 46.8709 74.4340 0.0000 0.0000 0.0000
# 2 46.8709 142.3921 74.7539 0.0000 0.0000 0.0000
# 3 74.4340 74.7539 158.1821 0.0000 0.0000 0.0000
# 4 0.0000 0.0000 0.0000 24.9912 0.0000 0.0000
# 5 0.0000 0.0000 0.0000 0.0000 30.2356 0.0000
# 6 0.0000 0.0000 0.0000 0.0000 0.0000 23.8076
#
#
#
# Elastic Compliance Matrix: (Units=1/GPa)
#
#
# Indices 1 2 3 4 5 6 
#
# 1 0.109855 -0.012000 -0.046022 0.000000 0.000000 0.000000
# 2 -0.012000 0.010651 0.000613 0.000000 0.000000 0.000000
# 3 -0.046022 0.000613 0.027688 0.000000 0.000000 0.000000
# 4 0.000000 0.000000 0.000000 0.040014 0.000000 0.000000
# 5 0.000000 0.000000 0.000000 0.000000 0.033074 0.000000
# 6 0.000000 0.000000 0.000000 0.000000 0.000000 0.042003
#
#
# Mechanical properties :
#
#
# Convention : Reuss Voigt Hill
#
# Bulk Modulus (GPa) = 29.96135 82.01087 55.98611
# Shear Modulus (GPa) = 12.84592 25.80163 19.32377
#
# Velocity S-wave (km/s) = 2.69100 3.81377 3.30048
# Velocity P-wave (km/s) = 5.15219 8.10088 6.78857
#
# Compressibility (1/GPa) = 0.03337634
#
# Stress axis : x y z
#
# Youngs Moduli (GPa) = 9.10291 93.88912 36.11624
#
# Poissons Ratio (x) = 1.12663 1.66216
# Poissons Ratio (y) = 0.10923 -0.02214
# Poissons Ratio (z) = 0.41894 -0.05756
#
# Static dielectric constant tensor:
#      x y z
#    x 1.596440 0.000000 0.000000 
#    y 0.000000 1.614180 0.000000 
#    z 0.000000 0.000000 1.569610 
# 
# From -- ./inp_files/10666.got.cif
#   From: 2010.05.17/outbox.cif.g08.bks.cpg/sg51_6_cif.got.tgz:10666.got - 2010.06.03 11:52:47.
