data_PCOD9405515
_publ_section_title
;
Structure prediction by ZEFSAII (Michael W. Deem and Ramdas Pophale) SiO2 
 PCOD9405515
Probable space group: P M M A
;
_chemical_formula_sum "Si O2"
_cell_formula_units_Z 64
_cell_length_a 14.894663
_cell_length_b 9.001696
_cell_length_c 27.015367
_cell_angle_alpha 90.000000
_cell_angle_beta 90.000000
_cell_angle_gamma 90.000000
_cell_volume 3622.145530
_symmetry_space_group_name_H-M "P M M A"
_symmetry_group_IT_number 51
_symmetry_cell_setting 'orthorhombic'
loop_
_space_group_symop_operation_xyz
x,y,z
1/2-x,-y,z
1/2+x,-y,-z
-x,y,-z
-x,-y,-z
1/2+x,y,-z
1/2-x,y,z
x,-y,z
loop_
_atom_site_type_symbol
_atom_site_label
_atom_site_fract_x
_atom_site_fract_y
_atom_site_fract_z
Si Si1 0.645752 0.322065 0.766033
Si Si2 0.494575 0.677862 0.687835
Si Si3 0.854636 0.322660 0.134679
Si Si4 0.493770 0.321082 0.056917
Si Si5 0.357109 0.824987 0.761161
Si Si6 0.000325 0.820353 0.580164
Si Si7 0.352881 0.180488 0.499729
Si Si8 0.356307 0.175906 0.130153
O O1 0.750000 0.283269 0.756757
O O2 0.640234 0.500000 0.773007
O O3 0.582023 0.281576 0.720564
O O4 0.616517 0.245036 0.816983
O O5 0.489978 0.500000 0.684482
O O6 0.410735 0.739955 0.718803
O O7 0.498747 0.748120 0.633715
O O8 0.750000 0.289895 0.124604
O O9 0.862768 0.500000 0.143315
O O10 0.881621 0.239223 0.184872
O O11 0.917681 0.283150 0.088748
O O12 0.484392 0.500000 0.057463
O O13 0.411362 0.249983 0.086181
O O14 0.500000 0.272888 0.000000
O O15 0.250000 0.804273 0.755461
O O16 0.376782 0.000000 0.758907
O O17 0.087817 0.777281 0.547606
O O18 0.912484 0.776983 0.548002
O O19 0.000488 0.000000 0.584362
O O20 0.250000 0.233699 0.499701
O O21 0.350376 0.000000 0.499711
O O22 0.250000 0.204297 0.124449
O O23 0.371217 0.000000 0.130894
#
# Coordination Sequence:
#
# PCOD9405515 Si02
#       8
#     8   8   8   8   8   8   8   8
#     4   9  19  36  55  74 100 138 178 210 249 306
#     4  11  22  34  51  77 110 141 168 208 258 304
#     4   9  18  34  54  75 102 134 168 210 258 305
#     4  10  21  35  53  78 104 134 173 211 252 306
#     4  10  21  36  54  76 101 133 173 211 251 305
#     4   9  18  32  51  76 102 131 171 212 251 299
#     4   8  15  31  54  75  97 130 172 215 255 296
#     4  10  21  36  54  77 104 134 170 214 262 307
#
# _framework density 17.669087000000001
#
# number of rings (size 3 to 8) (size 9 to 14) (size 15 to 20)
#    0.000    2.500    0.000    2.625    0.000    7.750 
#    0.000    3.750    0.000    2.250    0.000    0.000 
#    0.000    0.000    0.000    0.000    0.000    0.000 
#
# Total GULP energy -357140.950627 kJ/mol
# GULP energy per Si atom -5580.327354 kJ/mol
# Density = 1.762887 g / cm^3
# Si number density = 17.669087 Si / 1000 Ang^3
#
#
#
# Elastic Constant Matrix: (Units=GPa)
#
#
# Indices 1 2 3 4 5 6 
#
# 1 110.3084 45.2659 93.4736 0.0000 0.0000 0.0000
# 2 45.2659 30.2945 61.3282 0.0000 0.0000 0.0000
# 3 93.4736 61.3282 200.7153 0.0000 0.0000 0.0000
# 4 0.0000 0.0000 0.0000 36.1522 0.0000 0.0000
# 5 0.0000 0.0000 0.0000 0.0000 -195.3455 0.0000
# 6 0.0000 0.0000 0.0000 0.0000 0.0000 17.6554
#
#
#
# Elastic Compliance Matrix: (Units=1/GPa)
#
#
# Indices 1 2 3 4 5 6 
#
# 1 0.023459 -0.033912 -0.000563 0.000000 0.000000 0.000000
# 2 -0.033912 0.135561 -0.025627 0.000000 0.000000 0.000000
# 3 -0.000563 -0.025627 0.013075 0.000000 0.000000 0.000000
# 4 0.000000 0.000000 0.000000 0.027661 0.000000 0.000000
# 5 0.000000 0.000000 0.000000 0.000000 -0.005119 0.000000
# 6 0.000000 0.000000 0.000000 0.000000 0.000000 0.056640
#
#
# Mechanical properties :
#
#
# Convention : Reuss Voigt Hill
#
# Bulk Modulus (GPa) = 19.27182 82.38373 50.82778
# Shear Modulus (GPa) = 12.86084 -18.89086 -3.01501
#
# Velocity S-wave (km/s) = 2.70084 -3.27333 -1.30770
# Velocity P-wave (km/s) = 4.54498 5.69569 5.15256
#
# Compressibility (1/GPa) = 0.05188923
#
# Stress axis : x y z
#
# Youngs Moduli (GPa) = 42.62823 7.37676 76.48329
#
# Poissons Ratio (x) = 0.25016 0.04306
# Poissons Ratio (y) = 1.44562 1.96007
# Poissons Ratio (z) = 0.02400 0.18905
#
# Static dielectric constant tensor:
#      x y z
#    x 1.613230 0.000000 0.000000 
#    y 0.000000 1.589010 0.000000 
#    z 0.000000 0.000000 1.565050 
# 
# From -- ./inp_files/35622.got.cif
#   From: 2010.05.17/outbox.cif.g08.bks.cpg/sg51_18_cif.got.tgz:35622.got - 2010.06.03 11:52:47.
