data_PCOD9405089
_publ_section_title
;
Structure prediction by ZEFSAII (Michael W. Deem and Ramdas Pophale) SiO2 
 PCOD9405089
Probable space group: P M M A
;
_chemical_formula_sum "Si O2"
_cell_formula_units_Z 48
_cell_length_a 31.823744
_cell_length_b 8.519060
_cell_length_c 9.177652
_cell_angle_alpha 90.000000
_cell_angle_beta 90.000000
_cell_angle_gamma 90.000000
_cell_volume 2488.138408
_symmetry_space_group_name_H-M "P M M A"
_symmetry_group_IT_number 51
_symmetry_cell_setting 'orthorhombic'
loop_
_space_group_symop_operation_xyz
x,y,z
1/2-x,-y,z
1/2+x,-y,-z
-x,y,-z
-x,-y,-z
1/2+x,y,-z
1/2-x,y,z
x,-y,z
loop_
_atom_site_type_symbol
_atom_site_label
_atom_site_fract_x
_atom_site_fract_y
_atom_site_fract_z
Si Si1 0.498811 0.310102 0.168414
Si Si2 0.082963 0.689855 0.662334
Si Si3 0.916707 0.811952 0.666666
Si Si4 0.167577 0.811736 0.165659
Si Si5 0.750000 0.308727 0.335047
Si Si6 0.250000 0.311471 0.328705
Si Si7 0.333613 0.690115 0.836522
O O1 0.497757 0.500000 0.170135
O O2 0.540911 0.259720 0.252921
O O3 0.457617 0.249202 0.249387
O O4 0.500000 0.259121 0.000000
O O5 0.082915 0.500000 0.657173
O O6 0.083371 0.751979 0.498539
O O7 0.124541 0.739396 0.750142
O O8 0.874482 0.758939 0.749907
O O9 0.917337 0.000000 0.666341
O O10 0.208609 0.747803 0.246860
O O11 0.168799 0.000000 0.167064
O O12 0.166564 0.753297 0.999962
O O13 0.750000 0.500000 0.335807
O O14 0.750000 0.257594 0.502947
O O15 0.791930 0.258710 0.250314
O O16 0.250000 0.500000 0.327150
O O17 0.333384 0.500000 0.842442
#
# Coordination Sequence:
#
# PCOD9405089 Si02
#       7
#     8   8   8   8   4   4   8
#     4  10  21  38  60  85 113 148 192 242 294 343
#     4  10  21  37  59  86 115 149 192 242 290 339
#     4  11  24  39  57  83 117 156 193 233 286 347
#     4  11  24  40  57  84 120 153 188 232 284 340
#     4   9  19  35  58  88 114 139 182 235 280 330
#     4  11  22  39  64  88 112 149 192 233 280 334
#     4  10  20  37  61  87 114 148 192 238 286 341
#
# _framework density 19.291532
#
# number of rings (size 3 to 8) (size 9 to 14) (size 15 to 20)
#    0.000    1.667    0.000    4.250    0.000    9.667 
#    0.000    1.667    0.000    0.000    0.000    0.000 
#    0.000    0.000    0.000    0.000    0.000    0.000 
#
# Total GULP energy -268390.550538 kJ/mol
# GULP energy per Si atom -5591.469803 kJ/mol
# Density = 1.924762 g / cm^3
# Si number density = 19.291532 Si / 1000 Ang^3
#
#
#
# Elastic Constant Matrix: (Units=GPa)
#
#
# Indices 1 2 3 4 5 6 
#
# 1 246.3453 39.5527 151.4516 0.0000 0.0000 0.0000
# 2 39.5527 18.4100 36.4876 0.0000 0.0000 0.0000
# 3 151.4516 36.4876 244.3251 0.0000 0.0000 0.0000
# 4 0.0000 0.0000 0.0000 -13.3494 0.0000 0.0000
# 5 0.0000 0.0000 0.0000 0.0000 46.7340 0.0000
# 6 0.0000 0.0000 0.0000 0.0000 0.0000 22.1526
#
#
#
# Elastic Compliance Matrix: (Units=1/GPa)
#
#
# Indices 1 2 3 4 5 6 
#
# 1 0.007672 -0.010025 -0.003259 0.000000 0.000000 0.000000
# 2 -0.010025 0.090254 -0.007264 0.000000 0.000000 0.000000
# 3 -0.003259 -0.007264 0.007198 0.000000 0.000000 0.000000
# 4 0.000000 0.000000 0.000000 -0.074910 0.000000 0.000000
# 5 0.000000 0.000000 0.000000 0.000000 0.021398 0.000000
# 6 0.000000 0.000000 0.000000 0.000000 0.000000 0.045141
#
#
# Mechanical properties :
#
#
# Convention : Reuss Voigt Hill
#
# Bulk Modulus (GPa) = 15.61819 107.11824 61.36822
# Shear Modulus (GPa) = 31.40861 29.88001 30.64431
#
# Velocity S-wave (km/s) = 4.03935 3.93983 3.98990
# Velocity P-wave (km/s) = 5.46522 8.73745 7.28737
#
# Compressibility (1/GPa) = 0.06402789
#
# Stress axis : x y z
#
# Youngs Moduli (GPa) = 130.33662 11.07988 138.93029
#
# Poissons Ratio (x) = 0.11107 0.45275
# Poissons Ratio (y) = 1.30661 1.00923
# Poissons Ratio (z) = 0.42475 0.08049
#
# Static dielectric constant tensor:
#      x y z
#    x 1.648240 0.000000 0.000000 
#    y 0.000000 1.660290 0.000000 
#    z 0.000000 0.000000 1.626530 
# 
# From -- ./inp_files/12870.got.cif
#   From: 2010.05.17/outbox.cif.g08.bks.cpg/sg51_7_cif.got.tgz:12870.got - 2010.06.03 11:52:47.
