data_PCOD9405573
_publ_section_title
;
Structure prediction by ZEFSAII (Michael W. Deem and Ramdas Pophale) SiO2 
 PCOD9405573
Probable space group: P M M A
;
_chemical_formula_sum "Si O2"
_cell_formula_units_Z 48
_cell_length_a 9.165760
_cell_length_b 14.415948
_cell_length_c 21.569251
_cell_angle_alpha 90.000000
_cell_angle_beta 90.000000
_cell_angle_gamma 90.000000
_cell_volume 2850.012421
_symmetry_space_group_name_H-M "P M M A"
_symmetry_group_IT_number 51
_symmetry_cell_setting 'orthorhombic'
loop_
_space_group_symop_operation_xyz
x,y,z
1/2-x,-y,z
1/2+x,-y,-z
-x,y,-z
-x,-y,-z
1/2+x,y,-z
1/2-x,y,z
x,-y,z
loop_
_atom_site_type_symbol
_atom_site_label
_atom_site_fract_x
_atom_site_fract_y
_atom_site_fract_z
Si Si1 0.075969 0.290580 0.694172
Si Si2 0.082670 0.388811 0.198025
Si Si3 0.575839 0.104366 0.686475
Si Si4 0.924289 0.389484 0.938570
Si Si5 0.425104 0.391092 0.566105
Si Si6 0.913375 0.109247 0.443130
O O1 0.250000 0.283034 0.694088
O O2 0.031553 0.327173 0.625117
O O3 0.020034 0.361310 0.745814
O O4 0.003955 0.193039 0.714478
O O5 0.250000 0.356858 0.209203
O O6 0.087876 0.500000 0.194043
O O7 0.033491 0.353743 0.129864
O O8 0.750000 0.114033 0.688150
O O9 0.514813 0.110427 0.616552
O O10 0.538970 0.000000 0.709413
O O11 0.750000 0.379812 0.943658
O O12 0.956919 0.500000 0.937893
O O13 0.000000 0.349949 0.000000
O O14 0.500000 0.370008 0.500000
O O15 0.250000 0.383698 0.559085
O O16 0.458164 0.500000 0.580560
O O17 0.750000 0.147635 0.432835
O O18 0.000000 0.153004 0.500000
O O19 0.893712 0.000000 0.457272
#
# Coordination Sequence:
#
# PCOD9405573 Si02
#       6
#     8   8   8   8   8   8
#     4  11  22  34  50  72  97 124 158 203 250 297
#     4   9  18  32  49  71 101 135 168 200 235 279
#     4  10  21  36  51  66  87 117 153 195 244 297
#     4   8  14  25  42  66  97 132 166 196 227 268
#     4   9  19  35  52  70  92 119 154 196 241 288
#     4   9  16  27  44  64  84 106 135 174 223 280
#
# _framework density 16.842033000000001
#
# number of rings (size 3 to 8) (size 9 to 14) (size 15 to 20)
#    0.000    2.667    0.000    3.000    0.000    6.667 
#    0.000    5.000    0.000    0.000    0.000    0.000 
#    0.000    0.667    0.000    2.167    0.000    2.667 
#
# Total GULP energy -267276.715941 kJ/mol
# GULP energy per Si atom -5568.264915 kJ/mol
# Density = 1.680370 g / cm^3
# Si number density = 16.842033 Si / 1000 Ang^3
#
#
#
# Elastic Constant Matrix: (Units=GPa)
#
#
# Indices 1 2 3 4 5 6 
#
# 1 43.8026 19.3378 29.4682 0.0000 0.0000 0.0000
# 2 19.3378 66.9514 15.8772 0.0000 0.0000 0.0000
# 3 29.4682 15.8772 83.4090 0.0000 0.0000 0.0000
# 4 0.0000 0.0000 0.0000 19.1459 0.0000 0.0000
# 5 0.0000 0.0000 0.0000 0.0000 25.1507 0.0000
# 6 0.0000 0.0000 0.0000 0.0000 0.0000 14.8641
#
#
#
# Elastic Compliance Matrix: (Units=1/GPa)
#
#
# Indices 1 2 3 4 5 6 
#
# 1 0.032848 -0.007054 -0.010262 0.000000 0.000000 0.000000
# 2 -0.007054 0.017157 -0.000774 0.000000 0.000000 0.000000
# 3 -0.010262 -0.000774 0.015762 0.000000 0.000000 0.000000
# 4 0.000000 0.000000 0.000000 0.052231 0.000000 0.000000
# 5 0.000000 0.000000 0.000000 0.000000 0.039760 0.000000
# 6 0.000000 0.000000 0.000000 0.000000 0.000000 0.067276
#
#
# Mechanical properties :
#
#
# Convention : Reuss Voigt Hill
#
# Bulk Modulus (GPa) = 33.79865 35.94769 34.87317
# Shear Modulus (GPa) = 18.44502 20.46415 19.45458
#
# Velocity S-wave (km/s) = 3.31294 3.48956 3.40239
# Velocity P-wave (km/s) = 5.89455 6.13404 6.01548
#
# Compressibility (1/GPa) = 0.02958698
#
# Stress axis : x y z
#
# Youngs Moduli (GPa) = 30.44351 58.28492 63.44357
#
# Poissons Ratio (x) = 0.41113 0.65108
# Poissons Ratio (y) = 0.21474 0.04909
# Poissons Ratio (z) = 0.31242 0.04510
#
# Static dielectric constant tensor:
#      x y z
#    x 1.581390 0.000000 0.000000 
#    y 0.000000 1.645790 0.000000 
#    z 0.000000 0.000000 1.597450 
# 
# From -- ./inp_files/31576.got.cif
#   From: 2010.05.17/outbox.cif.g08.bks.cpg/sg51_16_cif.got.tgz:31576.got - 2010.06.03 11:52:47.
