data_PCOD9405252
_publ_section_title
;
Structure prediction by ZEFSAII (Michael W. Deem and Ramdas Pophale) SiO2 
 PCOD9405252
Probable space group: P M M A
;
_chemical_formula_sum "Si O2"
_cell_formula_units_Z 40
_cell_length_a 7.704195
_cell_length_b 8.987723
_cell_length_c 29.883633
_cell_angle_alpha 90.000000
_cell_angle_beta 90.000000
_cell_angle_gamma 90.000000
_cell_volume 2069.237498
_symmetry_space_group_name_H-M "P M M A"
_symmetry_group_IT_number 51
_symmetry_cell_setting 'orthorhombic'
loop_
_space_group_symop_operation_xyz
x,y,z
1/2-x,-y,z
1/2+x,-y,-z
-x,y,-z
-x,-y,-z
1/2+x,y,-z
1/2-x,y,z
x,-y,z
loop_
_atom_site_type_symbol
_atom_site_label
_atom_site_fract_x
_atom_site_fract_y
_atom_site_fract_z
Si Si1 0.043391 0.833551 0.360178
Si Si2 0.453248 0.177170 0.051904
Si Si3 0.250000 0.821871 0.791355
Si Si4 0.955792 0.668525 0.450906
Si Si5 0.750000 0.322703 0.110888
Si Si6 0.457238 0.676889 0.269238
O O1 0.250000 0.844165 0.355438
O O2 0.987262 0.730722 0.318905
O O3 0.011437 0.763837 0.408600
O O4 0.969321 0.000000 0.356715
O O5 0.250000 0.209760 0.059286
O O6 0.581629 0.268552 0.083281
O O7 0.480692 0.000000 0.059488
O O8 0.500000 0.205945 0.000000
O O9 0.250000 0.755931 0.841087
O O10 0.420273 0.761692 0.765503
O O11 0.250000 0.000000 0.791899
O O12 0.750000 0.657850 0.448700
O O13 0.029894 0.500000 0.448230
O O14 0.000000 0.730254 0.500000
O O15 0.750000 0.500000 0.115818
O O16 0.250000 0.707493 0.263128
O O17 0.481625 0.500000 0.265213
#
# Coordination Sequence:
#
# PCOD9405252 Si02
#       6
#     8   8   4   8   4   8
#     4  10  21  37  58  85 116 151 193 241 297 364
#     4  10  20  39  67  95 128 172 221 269 318 378
#     4  12  26  44  68  94 128 170 216 266 319 380
#     4  10  21  36  55  79 109 148 193 242 297 360
#     4  12  26  42  62  94 136 174 216 268 323 380
#     4  10  22  42  68  95 125 162 206 260 318 376
#
# _framework density 19.330793
#
# number of rings (size 3 to 8) (size 9 to 14) (size 15 to 20)
#    0.000    1.600    1.000    3.600    1.400    5.600 
#    0.000    0.000    0.000    0.000    0.000    0.000 
#    0.000    0.000    0.000    0.000    0.000    0.000 
#
# Total GULP energy -223480.881043 kJ/mol
# GULP energy per Si atom -5587.022026 kJ/mol
# Density = 1.928679 g / cm^3
# Si number density = 19.330793 Si / 1000 Ang^3
#
#
#
# Elastic Constant Matrix: (Units=GPa)
#
#
# Indices 1 2 3 4 5 6 
#
# 1 97.0583 72.6192 62.6310 0.0000 0.0000 0.0000
# 2 72.6192 142.9899 98.7925 0.0000 0.0000 0.0000
# 3 62.6310 98.7925 161.6037 0.0000 0.0000 0.0000
# 4 0.0000 0.0000 0.0000 35.6115 0.0000 0.0000
# 5 0.0000 0.0000 0.0000 0.0000 29.6335 0.0000
# 6 0.0000 0.0000 0.0000 0.0000 0.0000 28.7614
#
#
#
# Elastic Compliance Matrix: (Units=1/GPa)
#
#
# Indices 1 2 3 4 5 6 
#
# 1 0.017090 -0.007103 -0.002281 0.000000 0.000000 0.000000
# 2 -0.007103 0.015060 -0.006453 0.000000 0.000000 0.000000
# 3 -0.002281 -0.006453 0.011017 0.000000 0.000000 0.000000
# 4 0.000000 0.000000 0.000000 0.028081 0.000000 0.000000
# 5 0.000000 0.000000 0.000000 0.000000 0.033746 0.000000
# 6 0.000000 0.000000 0.000000 0.000000 0.000000 0.034769
#
#
# Mechanical properties :
#
#
# Convention : Reuss Voigt Hill
#
# Bulk Modulus (GPa) = 87.02256 96.63747 91.83001
# Shear Modulus (GPa) = 28.52785 29.97520 29.25153
#
# Velocity S-wave (km/s) = 3.84575 3.94210 3.89422
# Velocity P-wave (km/s) = 8.05202 8.41547 8.23575
#
# Compressibility (1/GPa) = 0.01149127
#
# Stress axis : x y z
#
# Youngs Moduli (GPa) = 58.51509 66.40214 90.76837
#
# Poissons Ratio (x) = 0.47168 0.20702
# Poissons Ratio (y) = 0.41566 0.58577
# Poissons Ratio (z) = 0.13346 0.42852
#
# Static dielectric constant tensor:
#      x y z
#    x 1.676720 0.000000 0.000000 
#    y 0.000000 1.682840 0.000000 
#    z 0.000000 0.000000 1.670430 
# 
# From -- ./inp_files/36030.got.cif
#   From: 2010.05.17/outbox.cif.g08.bks.cpg/sg51_19_cif.got.tgz:36030.got - 2010.06.03 11:52:47.
