data_PCOD9405986
_publ_section_title
;
Structure prediction by ZEFSAII (Michael W. Deem and Ramdas Pophale) SiO2 
 PCOD9405986
Probable space group: P M M A
;
_chemical_formula_sum "Si O2"
_cell_formula_units_Z 64
_cell_length_a 31.136882
_cell_length_b 7.724816
_cell_length_c 11.924236
_cell_angle_alpha 90.000000
_cell_angle_beta 90.000000
_cell_angle_gamma 90.000000
_cell_volume 2868.096947
_symmetry_space_group_name_H-M "P M M A"
_symmetry_group_IT_number 51
_symmetry_cell_setting 'orthorhombic'
loop_
_space_group_symop_operation_xyz
x,y,z
1/2-x,-y,z
1/2+x,-y,-z
-x,y,-z
-x,-y,-z
1/2+x,y,-z
1/2-x,y,z
x,-y,z
loop_
_atom_site_type_symbol
_atom_site_label
_atom_site_fract_x
_atom_site_fract_y
_atom_site_fract_z
Si Si1 0.541904 0.791916 0.567833
Si Si2 0.298172 0.702948 0.363158
Si Si3 0.702778 0.201200 0.313040
Si Si4 0.527420 0.291720 0.827684
Si Si5 0.701688 0.207432 0.894774
Si Si6 0.130957 0.198004 0.528577
Si Si7 0.562139 0.288098 0.065229
Si Si8 0.154734 0.299835 0.891561
O O1 0.500000 0.728031 0.500000
O O2 0.539831 0.757679 0.701425
O O3 0.585749 0.723878 0.510306
O O4 0.542637 0.000000 0.557299
O O5 0.250000 0.766400 0.393398
O O6 0.300543 0.500000 0.391964
O O7 0.302941 0.724237 0.230591
O O8 0.336580 0.799487 0.423737
O O9 0.750000 0.278460 0.332997
O O10 0.661613 0.280160 0.376625
O O11 0.690180 0.207008 0.183235
O O12 0.704991 0.000000 0.348329
O O13 0.527868 0.500000 0.830673
O O14 0.479199 0.235218 0.862310
O O15 0.555945 0.233610 0.934954
O O16 0.750000 0.253126 0.932789
O O17 0.697997 0.000000 0.892974
O O18 0.667728 0.284610 0.979402
O O19 0.121789 0.000000 0.563775
O O20 0.563138 0.500000 0.064636
O O21 0.606687 0.227900 0.118208
O O22 0.155189 0.500000 0.858309
#
# Coordination Sequence:
#
# PCOD9405986 Si02
#       8
#     8   8   8   8   8   8   8   8
#     4  10  23  40  58  86 123 153 187 242 297 341
#     4  10  21  37  59  88 119 149 188 242 295 342
#     4  10  22  40  60  82 111 153 203 246 287 347
#     4   9  18  38  63  83 111 151 194 232 282 347
#     4  10  21  37  56  80 114 154 191 226 275 345
#     4  10  22  40  61  84 114 156 199 239 291 354
#     4   8  18  36  58  85 115 148 185 234 286 344
#     4  11  22  35  56  86 118 149 189 241 297 344
#
# _framework density 22.314447000000001
#
# number of rings (size 3 to 8) (size 9 to 14) (size 15 to 20)
#    0.000    2.250    0.000    2.625    3.500    5.000 
#    0.000    2.500    0.000    0.000    0.000    0.000 
#    0.000    0.000    0.000    0.000    0.000    0.000 
#
# Total GULP energy -357286.611670 kJ/mol
# GULP energy per Si atom -5582.603307 kJ/mol
# Density = 2.226366 g / cm^3
# Si number density = 22.314447 Si / 1000 Ang^3
#
#
#
# Elastic Constant Matrix: (Units=GPa)
#
#
# Indices 1 2 3 4 5 6 
#
# 1 121.1698 10.1145 40.7583 0.0000 0.0000 0.0000
# 2 10.1145 45.6562 -2.4139 0.0000 0.0000 0.0000
# 3 40.7583 -2.4139 71.4189 0.0000 0.0000 0.0000
# 4 0.0000 0.0000 0.0000 28.5375 0.0000 0.0000
# 5 0.0000 0.0000 0.0000 0.0000 23.7494 0.0000
# 6 0.0000 0.0000 0.0000 0.0000 0.0000 41.4742
#
#
#
# Elastic Compliance Matrix: (Units=1/GPa)
#
#
# Indices 1 2 3 4 5 6 
#
# 1 0.010525 -0.002654 -0.006096 0.000000 0.000000 0.000000
# 2 -0.002654 0.022611 0.002279 0.000000 0.000000 0.000000
# 3 -0.006096 0.002279 0.017558 0.000000 0.000000 0.000000
# 4 0.000000 0.000000 0.000000 0.035042 0.000000 0.000000
# 5 0.000000 0.000000 0.000000 0.000000 0.042106 0.000000
# 6 0.000000 0.000000 0.000000 0.000000 0.000000 0.024111
#
#
# Mechanical properties :
#
#
# Convention : Reuss Voigt Hill
#
# Bulk Modulus (GPa) = 26.48903 37.24033 31.86468
# Shear Modulus (GPa) = 28.17212 31.40461 29.78836
#
# Velocity S-wave (km/s) = 3.55703 3.75556 3.65764
# Velocity P-wave (km/s) = 5.36344 5.96077 5.66998
#
# Compressibility (1/GPa) = 0.03775147
#
# Stress axis : x y z
#
# Youngs Moduli (GPa) = 95.01144 44.22575 56.95404
#
# Poissons Ratio (x) = 0.11737 0.34721
# Poissons Ratio (y) = 0.25216 -0.12979
# Poissons Ratio (z) = 0.57922 -0.10078
#
# Static dielectric constant tensor:
#      x y z
#    x 1.843940 0.000000 0.000000 
#    y 0.000000 1.854750 0.000000 
#    z 0.000000 0.000000 1.821100 
# 
# From -- ./inp_files/19574.got.cif
#   From: 2010.05.17/outbox.cif.g08.bks.cpg/sg51_10_cif.got.tgz:19574.got - 2010.06.03 11:52:47.
