data_PCOD9405124
_publ_section_title
;
Structure prediction by ZEFSAII (Michael W. Deem and Ramdas Pophale) SiO2 
 PCOD9405124
Probable space group: P M M A
;
_chemical_formula_sum "Si O2"
_cell_formula_units_Z 48
_cell_length_a 32.452455
_cell_length_b 7.974679
_cell_length_c 9.939522
_cell_angle_alpha 90.000000
_cell_angle_beta 90.000000
_cell_angle_gamma 90.000000
_cell_volume 2572.327534
_symmetry_space_group_name_H-M "P M M A"
_symmetry_group_IT_number 51
_symmetry_cell_setting 'orthorhombic'
loop_
_space_group_symop_operation_xyz
x,y,z
1/2-x,-y,z
1/2+x,-y,-z
-x,y,-z
-x,-y,-z
1/2+x,y,-z
1/2-x,y,z
x,-y,z
loop_
_atom_site_type_symbol
_atom_site_label
_atom_site_fract_x
_atom_site_fract_y
_atom_site_fract_z
Si Si1 0.968591 0.000000 0.376722
Si Si2 0.675187 0.199542 0.781745
Si Si3 0.083380 0.689147 0.534510
Si Si4 0.250000 0.298828 0.717128
Si Si5 0.582753 0.309839 0.787343
Si Si6 0.175394 0.800549 0.525512
Si Si7 0.970738 0.000000 0.873134
Si Si8 0.750000 0.299052 0.972890
O O1 0.940665 0.165761 0.388403
O O2 0.000000 0.000000 0.500000
O O3 0.997502 0.000000 0.249256
O O4 0.631624 0.287004 0.810686
O O5 0.688092 0.245190 0.628155
O O6 0.710096 0.241648 0.889165
O O7 0.667952 0.000000 0.782820
O O8 0.070445 0.500000 0.569691
O O9 0.076557 0.713677 0.373876
O O10 0.132285 0.710452 0.555703
O O11 0.250000 0.500000 0.719477
O O12 0.289732 0.240403 0.633149
O O13 0.250000 0.238430 0.872133
O O14 0.570468 0.500000 0.821993
O O15 0.557763 0.164870 0.861756
O O16 0.167633 0.000000 0.526273
O O17 0.000000 0.000000 0.000000
O O18 0.750000 0.500000 0.975879
#
# Coordination Sequence:
#
# PCOD9405124 Si02
#       8
#     4   8   8   4   8   8   4   4
#     4  12  22  40  68  91 124 155 199 256 299 364
#     4  10  20  37  64  90 116 155 206 252 294 352
#     4  10  20  37  65  97 122 155 201 252 307 358
#     4  11  24  39  54  84 128 165 200 248 297 353
#     4  10  20  39  66  92 122 160 202 252 303 357
#     4  10  20  37  62  89 121 155 199 251 301 353
#     4  12  26  44  62  91 126 161 201 248 309 370
#     4  11  24  39  54  84 124 163 210 248 287 353
#
# _framework density 18.660140999999999
#
# number of rings (size 3 to 8) (size 9 to 14) (size 15 to 20)
#    0.000    1.500    3.333    2.000    0.000    6.667 
#    3.000    0.000    0.000    0.000    0.000    0.000 
#    0.000    0.000    0.000    0.000    0.000    0.000 
#
# Total GULP energy -268147.486025 kJ/mol
# GULP energy per Si atom -5586.405959 kJ/mol
# Density = 1.861767 g / cm^3
# Si number density = 18.660141 Si / 1000 Ang^3
#
#
#
# Elastic Constant Matrix: (Units=GPa)
#
#
# Indices 1 2 3 4 5 6 
#
# 1 94.1344 48.7159 62.0061 0.0000 0.0000 0.0000
# 2 48.7159 117.3073 33.6860 0.0000 0.0000 0.0000
# 3 62.0061 33.6860 105.5806 0.0000 0.0000 0.0000
# 4 0.0000 0.0000 0.0000 17.6313 0.0000 0.0000
# 5 0.0000 0.0000 0.0000 0.0000 24.1030 0.0000
# 6 0.0000 0.0000 0.0000 0.0000 0.0000 -36.5695
#
#
#
# Elastic Compliance Matrix: (Units=1/GPa)
#
#
# Indices 1 2 3 4 5 6 
#
# 1 0.020055 -0.005445 -0.010041 0.000000 0.000000 0.000000
# 2 -0.005445 0.010863 -0.000268 0.000000 0.000000 0.000000
# 3 -0.010041 -0.000268 0.015454 0.000000 0.000000 0.000000
# 4 0.000000 0.000000 0.000000 0.056717 0.000000 0.000000
# 5 0.000000 0.000000 0.000000 0.000000 0.041489 0.000000
# 6 0.000000 0.000000 0.000000 0.000000 0.000000 -0.027345
#
#
# Mechanical properties :
#
#
# Convention : Reuss Voigt Hill
#
# Bulk Modulus (GPa) = 67.27753 67.31536 67.29645
# Shear Modulus (GPa) = 32.53217 12.54059 22.53638
#
# Velocity S-wave (km/s) = 4.17994 2.59521 3.47901
# Velocity P-wave (km/s) = 7.70897 6.71810 7.23053
#
# Compressibility (1/GPa) = 0.01486380
#
# Stress axis : x y z
#
# Youngs Moduli (GPa) = 49.86345 92.05675 64.70968
#
# Poissons Ratio (x) = 0.50126 0.64972
# Poissons Ratio (y) = 0.27151 0.01734
# Poissons Ratio (z) = 0.50066 0.02467
#
# Static dielectric constant tensor:
#      x y z
#    x 1.619990 0.000000 0.000000 
#    y 0.000000 1.662370 0.000000 
#    z 0.000000 0.000000 1.616630 
# 
# From -- ./inp_files/13014.got.cif
#   From: 2010.05.17/outbox.cif.g08.bks.cpg/sg51_7_cif.got.tgz:13014.got - 2010.06.03 11:52:47.
