data_PCOD9405526
_publ_section_title
;
Structure prediction by ZEFSAII (Michael W. Deem and Ramdas Pophale) SiO2 
 PCOD9405526
Probable space group: P M M A
;
_chemical_formula_sum "Si O2"
_cell_formula_units_Z 48
_cell_length_a 13.787760
_cell_length_b 16.339091
_cell_length_c 10.894867
_cell_angle_alpha 90.000000
_cell_angle_beta 90.000000
_cell_angle_gamma 90.000000
_cell_volume 2454.389813
_symmetry_space_group_name_H-M "P M M A"
_symmetry_group_IT_number 51
_symmetry_cell_setting 'orthorhombic'
loop_
_space_group_symop_operation_xyz
x,y,z
1/2-x,-y,z
1/2+x,-y,-z
-x,y,-z
-x,-y,-z
1/2+x,y,-z
1/2-x,y,z
x,-y,z
loop_
_atom_site_type_symbol
_atom_site_label
_atom_site_fract_x
_atom_site_fract_y
_atom_site_fract_z
Si Si1 0.138864 0.793384 0.678324
Si Si2 0.358057 0.382121 0.567392
Si Si3 0.025271 0.744446 0.134092
Si Si4 0.866524 0.094668 0.532196
Si Si5 0.866423 0.095535 0.813320
Si Si6 0.442277 0.410059 0.299476
O O1 0.250000 0.812270 0.716526
O O2 0.142085 0.714796 0.589611
O O3 0.094754 0.861069 0.587884
O O4 0.070712 0.772494 0.791872
O O5 0.250000 0.410969 0.598748
O O6 0.382739 0.400817 0.426396
O O7 0.445616 0.411295 0.653770
O O8 0.087564 0.827794 0.116053
O O9 0.070899 0.669950 0.214362
O O10 0.000000 0.711517 0.000000
O O11 0.750000 0.105515 0.523454
O O12 0.889141 0.118240 0.671361
O O13 0.888580 0.000000 0.521992
O O14 0.750000 0.095262 0.827831
O O15 0.897972 0.000000 0.836426
O O16 0.420134 0.500000 0.245058
#
# Coordination Sequence:
#
# PCOD9405526 Si02
#       6
#     8   8   8   8   8   8
#     4   9  18  33  52  76 106 138 174 218 269 322
#     4   9  17  32  56  83 110 137 168 218 282 338
#     4  11  24  38  53  74 104 147 193 227 256 302
#     4   8  14  27  50  79 106 129 156 200 265 330
#     4   9  19  37  60  84 109 137 171 217 274 329
#     4  10  21  35  53  81 111 140 179 222 270 326
#
# _framework density 19.556795999999999
#
# number of rings (size 3 to 8) (size 9 to 14) (size 15 to 20)
#    0.000    2.667    0.000    3.000    0.000    7.333 
#    0.000    1.667    0.000    2.000    0.000    4.667 
#    0.000    0.000    0.000    0.000    0.000    0.000 
#
# Total GULP energy -267395.227160 kJ/mol
# GULP energy per Si atom -5570.733899 kJ/mol
# Density = 1.951228 g / cm^3
# Si number density = 19.556796 Si / 1000 Ang^3
#
#
#
# Elastic Constant Matrix: (Units=GPa)
#
#
# Indices 1 2 3 4 5 6 
#
# 1 52.8371 3.4916 -14.1313 0.0000 0.0000 0.0000
# 2 3.4916 43.3343 24.7881 0.0000 0.0000 0.0000
# 3 -14.1313 24.7881 48.4912 0.0000 0.0000 0.0000
# 4 0.0000 0.0000 0.0000 -25.1405 0.0000 0.0000
# 5 0.0000 0.0000 0.0000 0.0000 15.3911 0.0000
# 6 0.0000 0.0000 0.0000 0.0000 0.0000 -11.7014
#
#
#
# Elastic Compliance Matrix: (Units=1/GPa)
#
#
# Indices 1 2 3 4 5 6 
#
# 1 0.022235 -0.007770 0.010452 0.000000 0.000000 0.000000
# 2 -0.007770 0.035328 -0.020324 0.000000 0.000000 0.000000
# 3 0.010452 -0.020324 0.034057 0.000000 0.000000 0.000000
# 4 0.000000 0.000000 0.000000 -0.039776 0.000000 0.000000
# 5 0.000000 0.000000 0.000000 0.000000 0.064973 0.000000
# 6 0.000000 0.000000 0.000000 0.000000 0.000000 -0.085460
#
#
# Mechanical properties :
#
#
# Convention : Reuss Voigt Hill
#
# Bulk Modulus (GPa) = 17.75060 19.21770 18.48415
# Shear Modulus (GPa) = 58.53434 4.41077 31.47256
#
# Velocity S-wave (km/s) = 5.47681 1.50342 4.01595
# Velocity P-wave (km/s) = 7.00643 3.58631 5.56559
#
# Compressibility (1/GPa) = 0.05633612
#
# Stress axis : x y z
#
# Youngs Moduli (GPa) = 44.97437 28.30607 29.36219
#
# Poissons Ratio (x) = 0.21994 -0.30689
# Poissons Ratio (y) = 0.34946 0.59675
# Poissons Ratio (z) = -0.47006 0.57528
#
# Static dielectric constant tensor:
#      x y z
#    x 1.733610 0.000000 0.000000 
#    y 0.000000 1.740720 0.000000 
#    z 0.000000 0.000000 1.646570 
# 
# From -- ./inp_files/16451.got.cif
#   From: 2010.05.17/outbox.cif.g08.bks.cpg/sg51_9_cif.got.tgz:16451.got - 2010.06.03 11:52:47.
