data_PCOD9405333
_publ_section_title
;
Structure prediction by ZEFSAII (Michael W. Deem and Ramdas Pophale) SiO2 
 PCOD9405333
Probable space group: P M M A
;
_chemical_formula_sum "Si O2"
_cell_formula_units_Z 44
_cell_length_a 8.353542
_cell_length_b 28.998196
_cell_length_c 9.568144
_cell_angle_alpha 90.000000
_cell_angle_beta 90.000000
_cell_angle_gamma 90.000000
_cell_volume 2317.764700
_symmetry_space_group_name_H-M "P M M A"
_symmetry_group_IT_number 51
_symmetry_cell_setting 'orthorhombic'
loop_
_space_group_symop_operation_xyz
x,y,z
1/2-x,-y,z
1/2+x,-y,-z
-x,y,-z
-x,-y,-z
1/2+x,y,-z
1/2-x,y,z
x,-y,z
loop_
_atom_site_type_symbol
_atom_site_label
_atom_site_fract_x
_atom_site_fract_y
_atom_site_fract_z
Si Si1 0.940564 0.000000 0.159835
Si Si2 0.943339 0.723331 0.843520
Si Si3 0.056629 0.448141 0.157814
Si Si4 0.443633 0.637871 0.341949
Si Si5 0.443408 0.172116 0.157051
Si Si6 0.942018 0.086552 0.658965
O O1 0.000371 0.955374 0.244389
O O2 0.750000 0.000000 0.158359
O O3 0.000000 0.000000 0.000000
O O4 0.750000 0.723425 0.842614
O O5 0.999296 0.684001 0.737800
O O6 0.997464 0.775583 0.810322
O O7 0.000000 0.712421 0.000000
O O8 0.250000 0.447875 0.158369
O O9 0.003479 0.500000 0.197620
O O10 0.000319 0.407674 0.259413
O O11 0.000000 0.439363 0.000000
O O12 0.500000 0.637364 0.500000
O O13 0.250000 0.637848 0.338999
O O14 0.250000 0.171911 0.156317
O O15 0.498176 0.134132 0.268203
O O16 0.500000 0.160659 0.000000
O O17 0.750000 0.086348 0.657954
O O18 0.000000 0.082033 0.500000
#
# Coordination Sequence:
#
# PCOD9405333 Si02
#       6
#     4   8   8   8   8   8
#     4  12  25  42  63  86 112 144 182 224 267 314
#     4   9  18  34  54  77 103 134 174 218 261 308
#     4   9  18  33  52  74  99 129 168 213 258 306
#     4  10  21  34  49  72 104 137 170 211 258 309
#     4   9  19  35  56  80 107 138 175 218 263 312
#     4  11  23  39  58  83 114 147 181 220 267 317
#
# _framework density 18.983809000000001
#
# number of rings (size 3 to 8) (size 9 to 14) (size 15 to 20)
#    0.000    2.182    0.000    2.727    0.000    5.455 
#    0.000    0.000    0.000    0.000    0.000    0.000 
#    0.000    0.000    0.000    0.000    0.000    0.000 
#
# Total GULP energy -245678.066271 kJ/mol
# GULP energy per Si atom -5583.592415 kJ/mol
# Density = 1.894060 g / cm^3
# Si number density = 18.983809 Si / 1000 Ang^3
#
#
#
# Elastic Constant Matrix: (Units=GPa)
#
#
# Indices 1 2 3 4 5 6 
#
# 1 22.9842 28.3480 23.9779 0.0000 0.0000 0.0000
# 2 28.3480 170.6932 140.3221 0.0000 0.0000 0.0000
# 3 23.9779 140.3221 178.3953 0.0000 0.0000 0.0000
# 4 0.0000 0.0000 0.0000 3.8263 0.0000 0.0000
# 5 0.0000 0.0000 0.0000 0.0000 35.5146 0.0000
# 6 0.0000 0.0000 0.0000 0.0000 0.0000 4.0007
#
#
#
# Elastic Compliance Matrix: (Units=1/GPa)
#
#
# Indices 1 2 3 4 5 6 
#
# 1 0.054737 -0.008610 -0.000585 0.000000 0.000000 0.000000
# 2 -0.008610 0.017933 -0.012948 0.000000 0.000000 0.000000
# 3 -0.000585 -0.012948 0.015869 0.000000 0.000000 0.000000
# 4 0.000000 0.000000 0.000000 0.261347 0.000000 0.000000
# 5 0.000000 0.000000 0.000000 0.000000 0.028157 0.000000
# 6 0.000000 0.000000 0.000000 0.000000 0.000000 0.249954
#
#
# Mechanical properties :
#
#
# Convention : Reuss Voigt Hill
#
# Bulk Modulus (GPa) = 22.59723 84.15208 53.37465
# Shear Modulus (GPa) = 7.27765 20.62999 13.95382
#
# Velocity S-wave (km/s) = 1.96008 3.30011 2.71410
# Velocity P-wave (km/s) = 4.12939 7.67760 6.16431
#
# Compressibility (1/GPa) = 0.04425322
#
# Stress axis : x y z
#
# Youngs Moduli (GPa) = 18.26906 55.76374 63.01559
#
# Poissons Ratio (x) = 0.48010 0.03687
# Poissons Ratio (y) = 0.15729 0.81595
# Poissons Ratio (z) = 0.01069 0.72205
#
# Static dielectric constant tensor:
#      x y z
#    x 1.649260 0.000000 0.000000 
#    y 0.000000 1.683310 0.000000 
#    z 0.000000 0.000000 1.576560 
# 
# From -- ./inp_files/5791.got.cif
#   From: 2010.05.17/outbox.cif.g08.bks.cpg/sg51_3_cif.got.tgz:5791.got - 2010.06.03 11:52:47.
