data_PCOD9405566
_publ_section_title
;
Structure prediction by ZEFSAII (Michael W. Deem and Ramdas Pophale) SiO2 
 PCOD9405566
Probable space group: P M M A
;
_chemical_formula_sum "Si O2"
_cell_formula_units_Z 48
_cell_length_a 18.034255
_cell_length_b 22.126961
_cell_length_c 5.777642
_cell_angle_alpha 90.000000
_cell_angle_beta 90.000000
_cell_angle_gamma 90.000000
_cell_volume 2305.529082
_symmetry_space_group_name_H-M "P M M A"
_symmetry_group_IT_number 51
_symmetry_cell_setting 'orthorhombic'
loop_
_space_group_symop_operation_xyz
x,y,z
1/2-x,-y,z
1/2+x,-y,-z
-x,y,-z
-x,-y,-z
1/2+x,y,-z
1/2-x,y,z
x,-y,z
loop_
_atom_site_type_symbol
_atom_site_label
_atom_site_fract_x
_atom_site_fract_y
_atom_site_fract_z
Si Si1 0.160269 0.930584 0.819728
Si Si2 0.424817 0.351757 0.377200
Si Si3 0.910211 0.432410 0.998823
Si Si4 0.160150 0.869023 0.323208
Si Si5 0.926527 0.234602 0.897022
Si Si6 0.663552 0.684652 0.223896
O O1 0.250000 0.930410 0.814089
O O2 0.138990 0.898076 0.574337
O O3 0.134417 0.000000 0.809960
O O4 0.142267 0.903863 0.077226
O O5 0.500000 0.371472 0.500000
O O6 0.390963 0.410757 0.259385
O O7 0.453122 0.298249 0.210596
O O8 0.360706 0.317100 0.512464
O O9 0.887011 0.500000 0.058829
O O10 0.874382 0.378413 0.143386
O O11 0.000000 0.429994 0.000000
O O12 0.250000 0.861069 0.326480
O O13 0.115577 0.807267 0.283717
O O14 0.870607 0.257516 0.095567
O O15 0.000000 0.204058 0.000000
O O16 0.750000 0.682745 0.183439
#
# Coordination Sequence:
#
# PCOD9405566 Si02
#       6
#     8   8   8   8   8   8
#     4   9  18  35  59  88 124 164 206 256 311 368
#     4  11  20  38  61  86 112 154 205 246 299 371
#     4  10  21  38  61  86 115 154 197 240 295 372
#     4  10  21  35  58  92 123 159 211 262 310 367
#     4  11  23  39  60  84 119 159 200 249 307 378
#     4  11  23  39  59  85 118 153 193 253 310 356
#
# _framework density 20.819514999999999
#
# number of rings (size 3 to 8) (size 9 to 14) (size 15 to 20)
#    0.000    1.667    3.333    2.000    2.333    6.667 
#    0.000    0.000    0.000    3.000    0.000    0.000 
#    0.000    0.000    0.000    0.000    0.000    0.000 
#
# Total GULP energy -267259.336081 kJ/mol
# GULP energy per Si atom -5567.902835 kJ/mol
# Density = 2.077213 g / cm^3
# Si number density = 20.819515 Si / 1000 Ang^3
#
#
#
# Elastic Constant Matrix: (Units=GPa)
#
#
# Indices 1 2 3 4 5 6 
#
# 1 63.8099 14.2760 6.4958 0.0000 0.0000 0.0000
# 2 14.2760 88.2999 27.9275 0.0000 0.0000 0.0000
# 3 6.4958 27.9275 76.3572 0.0000 0.0000 0.0000
# 4 0.0000 0.0000 0.0000 4.9803 0.0000 0.0000
# 5 0.0000 0.0000 0.0000 0.0000 17.5975 0.0000
# 6 0.0000 0.0000 0.0000 0.0000 0.0000 20.6339
#
#
#
# Elastic Compliance Matrix: (Units=1/GPa)
#
#
# Indices 1 2 3 4 5 6 
#
# 1 0.016275 -0.002480 -0.000477 0.000000 0.000000 0.000000
# 2 -0.002480 0.013184 -0.004611 0.000000 0.000000 0.000000
# 3 -0.000477 -0.004611 0.014823 0.000000 0.000000 0.000000
# 4 0.000000 0.000000 0.000000 0.200789 0.000000 0.000000
# 5 0.000000 0.000000 0.000000 0.000000 0.056826 0.000000
# 6 0.000000 0.000000 0.000000 0.000000 0.000000 0.048464
#
#
# Mechanical properties :
#
#
# Convention : Reuss Voigt Hill
#
# Bulk Modulus (GPa) = 34.31086 36.20727 35.25907
# Shear Modulus (GPa) = 13.32568 20.62687 16.97628
#
# Velocity S-wave (km/s) = 2.53268 3.15103 2.85862
# Velocity P-wave (km/s) = 5.00685 5.53782 5.27901
#
# Compressibility (1/GPa) = 0.02914529
#
# Stress axis : x y z
#
# Youngs Moduli (GPa) = 61.44371 75.84671 67.46047
#
# Poissons Ratio (x) = 0.18812 0.03220
# Poissons Ratio (y) = 0.15240 0.31107
# Poissons Ratio (z) = 0.02933 0.34974
#
# Static dielectric constant tensor:
#      x y z
#    x 1.735560 0.000000 0.000000 
#    y 0.000000 1.732960 0.000000 
#    z 0.000000 0.000000 2.070590 
# 
# From -- ./inp_files/2036.got.cif
#   From: 2010.05.17/outbox.cif.g08.bks.cpg/sg51_2_cif.got.tgz:2036.got - 2010.06.03 11:52:47.
