data_PCOD9405550
_publ_section_title
;
Structure prediction by ZEFSAII (Michael W. Deem and Ramdas Pophale) SiO2 
 PCOD9405550
Probable space group: P M M A
;
_chemical_formula_sum "Si O2"
_cell_formula_units_Z 56
_cell_length_a 23.377818
_cell_length_b 13.768595
_cell_length_c 9.253226
_cell_angle_alpha 90.000000
_cell_angle_beta 90.000000
_cell_angle_gamma 90.000000
_cell_volume 2978.425683
_symmetry_space_group_name_H-M "P M M A"
_symmetry_group_IT_number 51
_symmetry_cell_setting 'orthorhombic'
loop_
_space_group_symop_operation_xyz
x,y,z
1/2-x,-y,z
1/2+x,-y,-z
-x,y,-z
-x,-y,-z
1/2+x,y,-z
1/2-x,y,z
x,-y,z
loop_
_atom_site_type_symbol
_atom_site_label
_atom_site_fract_x
_atom_site_fract_y
_atom_site_fract_z
Si Si1 0.584172 0.615038 0.893235
Si Si2 0.539239 0.386162 0.221442
Si Si3 0.007043 0.113410 0.160425
Si Si4 0.184799 0.232549 0.139965
Si Si5 0.381208 0.113414 0.344888
Si Si6 0.682629 0.113772 0.156132
Si Si7 0.411102 0.791318 0.643859
O O1 0.595044 0.500000 0.871631
O O2 0.527725 0.641255 0.799380
O O3 0.638271 0.681758 0.859726
O O4 0.566942 0.627342 0.061997
O O5 0.541388 0.500000 0.255947
O O6 0.574125 0.321538 0.334409
O O7 0.071051 0.119910 0.219211
O O8 0.964177 0.159405 0.274008
O O9 0.991656 0.000000 0.151771
O O10 0.000000 0.155908 0.000000
O O11 0.250000 0.268347 0.135096
O O12 0.173911 0.165487 0.279454
O O13 0.175479 0.164600 0.999337
O O14 0.404838 0.170469 0.482658
O O15 0.372533 0.000000 0.380228
O O16 0.750000 0.117227 0.192408
O O17 0.644687 0.172866 0.269485
O O18 0.665293 0.000000 0.150903
#
# Coordination Sequence:
#
# PCOD9405550 Si02
#       7
#     8   8   8   8   8   8   8
#     4   9  18  36  61  91 120 149 193 246 299 357
#     4   9  19  35  60  91 122 153 187 238 305 368
#     4  10  21  35  55  83 114 152 196 242 295 351
#     4  11  22  38  59  83 114 157 206 252 296 345
#     4  11  24  38  53  83 123 159 198 241 293 354
#     4  10  21  36  55  81 112 149 198 247 290 347
#     4  12  21  35  60  83 117 154 195 239 298 354
#
# _framework density 18.801879
#
# number of rings (size 3 to 8) (size 9 to 14) (size 15 to 20)
#    0.000    1.714    1.429    4.714    2.000    4.000 
#    0.000    0.714    0.000    3.857    0.000    0.000 
#    0.000    0.000    0.000    0.000    0.000    0.000 
#
# Total GULP energy -312916.576301 kJ/mol
# GULP energy per Si atom -5587.796005 kJ/mol
# Density = 1.875909 g / cm^3
# Si number density = 18.801879 Si / 1000 Ang^3
#
#
#
# Elastic Constant Matrix: (Units=GPa)
#
#
# Indices 1 2 3 4 5 6 
#
# 1 100.7518 61.2369 31.8098 0.0000 0.0000 0.0000
# 2 61.2369 124.7410 37.3137 0.0000 0.0000 0.0000
# 3 31.8098 37.3137 69.3327 0.0000 0.0000 0.0000
# 4 0.0000 0.0000 0.0000 26.1850 0.0000 0.0000
# 5 0.0000 0.0000 0.0000 0.0000 15.2108 0.0000
# 6 0.0000 0.0000 0.0000 0.0000 0.0000 26.6805
#
#
#
# Elastic Compliance Matrix: (Units=1/GPa)
#
#
# Indices 1 2 3 4 5 6 
#
# 1 0.014802 -0.006239 -0.003433 0.000000 0.000000 0.000000
# 2 -0.006239 0.012185 -0.003695 0.000000 0.000000 0.000000
# 3 -0.003433 -0.003695 0.017987 0.000000 0.000000 0.000000
# 4 0.000000 0.000000 0.000000 0.038190 0.000000 0.000000
# 5 0.000000 0.000000 0.000000 0.000000 0.065743 0.000000
# 6 0.000000 0.000000 0.000000 0.000000 0.000000 0.037481
#
#
# Mechanical properties :
#
#
# Convention : Reuss Voigt Hill
#
# Bulk Modulus (GPa) = 54.82934 61.72737 58.27835
# Shear Modulus (GPa) = 22.81014 24.57960 23.69487
#
# Velocity S-wave (km/s) = 3.48686 3.61958 3.55384
# Velocity P-wave (km/s) = 6.74061 7.09719 6.92120
#
# Compressibility (1/GPa) = 0.01823841
#
# Stress axis : x y z
#
# Youngs Moduli (GPa) = 67.56055 82.06880 55.59597
#
# Poissons Ratio (x) = 0.51205 0.19086
# Poissons Ratio (y) = 0.42153 0.20543
# Poissons Ratio (z) = 0.23194 0.30325
#
# Static dielectric constant tensor:
#      x y z
#    x 1.652870 0.000000 0.000000 
#    y 0.000000 1.680630 0.000000 
#    z 0.000000 0.000000 1.644840 
# 
# From -- ./inp_files/10984.got.cif
#   From: 2010.05.17/outbox.cif.g08.bks.cpg/sg51_6_cif.got.tgz:10984.got - 2010.06.03 11:52:47.
