data_PCOD9405922
_publ_section_title
;
Structure prediction by ZEFSAII (Michael W. Deem and Ramdas Pophale) SiO2 
 PCOD9405922
Probable space group: P M M A
;
_chemical_formula_sum "Si O2"
_cell_formula_units_Z 64
_cell_length_a 20.097399
_cell_length_b 8.824384
_cell_length_c 20.686361
_cell_angle_alpha 90.000000
_cell_angle_beta 90.000000
_cell_angle_gamma 90.000000
_cell_volume 3668.667502
_symmetry_space_group_name_H-M "P M M A"
_symmetry_group_IT_number 51
_symmetry_cell_setting 'orthorhombic'
loop_
_space_group_symop_operation_xyz
x,y,z
1/2-x,-y,z
1/2+x,-y,-z
-x,y,-z
-x,-y,-z
1/2+x,y,-z
1/2-x,y,z
x,-y,z
loop_
_atom_site_type_symbol
_atom_site_label
_atom_site_fract_x
_atom_site_fract_y
_atom_site_fract_z
Si Si1 0.427606 0.682243 0.825131
Si Si2 0.171974 0.181119 0.929597
Si Si3 0.826281 0.182617 0.428237
Si Si4 0.828263 0.319052 0.929604
Si Si5 0.925992 0.818902 0.823529
Si Si6 0.424378 0.318786 0.676648
Si Si7 0.328717 0.818714 0.424448
Si Si8 0.921726 0.318906 0.684011
O O1 0.431405 0.500000 0.829453
O O2 0.374970 0.746992 0.875575
O O3 0.500721 0.750950 0.837013
O O4 0.408558 0.722235 0.751083
O O5 0.250000 0.212745 0.916028
O O6 0.163139 0.000000 0.931724
O O7 0.156551 0.251566 0.999699
O O8 0.750000 0.232194 0.416047
O O9 0.876281 0.243538 0.374945
O O10 0.844671 0.227695 0.501678
O O11 0.826594 0.000000 0.427083
O O12 0.750000 0.289117 0.916642
O O13 0.838143 0.500000 0.930062
O O14 0.874360 0.243239 0.875981
O O15 0.906333 0.761103 0.752062
O O16 0.928482 0.000000 0.824908
O O17 0.418499 0.500000 0.670962
O O18 0.501926 0.278712 0.666311
O O19 0.250000 0.791620 0.414660
O O20 0.372549 0.733762 0.371952
O O21 0.339527 0.000000 0.418921
O O22 0.918911 0.500000 0.693302
#
# Coordination Sequence:
#
# PCOD9405922 Si02
#       8
#     8   8   8   8   8   8   8   8
#     4  10  21  38  57  79 110 145 182 223 269 321
#     4  10  21  37  57  83 113 143 180 225 269 316
#     4   9  19  35  54  77 106 139 176 219 265 315
#     4  10  21  38  59  82 110 144 180 219 266 320
#     4  11  22  37  58  82 109 141 179 223 270 318
#     4   9  20  36  53  76 106 139 175 218 264 313
#     4   9  19  36  55  77 106 139 177 220 265 314
#     4  10  21  37  55  78 108 140 177 219 265 318
#
# _framework density 17.445025999999999
#
# number of rings (size 3 to 8) (size 9 to 14) (size 15 to 20)
#    0.000    2.250    0.000    4.125    0.000    7.500 
#    0.000    8.750    0.000    0.000    0.000    0.000 
#    0.000    0.000    0.000    0.000    0.000    0.000 
#
# Total GULP energy -357292.054488 kJ/mol
# GULP energy per Si atom -5582.688351 kJ/mol
# Density = 1.740532 g / cm^3
# Si number density = 17.445026 Si / 1000 Ang^3
#
#
#
# Elastic Constant Matrix: (Units=GPa)
#
#
# Indices 1 2 3 4 5 6 
#
# 1 96.9261 64.0734 116.4463 0.0000 0.0000 0.0000
# 2 64.0734 81.7553 78.3129 0.0000 0.0000 0.0000
# 3 116.4463 78.3129 165.5707 0.0000 0.0000 0.0000
# 4 0.0000 0.0000 0.0000 45.7489 0.0000 0.0000
# 5 0.0000 0.0000 0.0000 0.0000 42.2815 0.0000
# 6 0.0000 0.0000 0.0000 0.0000 0.0000 33.7895
#
#
#
# Elastic Compliance Matrix: (Units=1/GPa)
#
#
# Indices 1 2 3 4 5 6 
#
# 1 0.075647 -0.015219 -0.046004 0.000000 0.000000 0.000000
# 2 -0.015219 0.025426 -0.001323 0.000000 0.000000 0.000000
# 3 -0.046004 -0.001323 0.039020 0.000000 0.000000 0.000000
# 4 0.000000 0.000000 0.000000 0.021858 0.000000 0.000000
# 5 0.000000 0.000000 0.000000 0.000000 0.023651 0.000000
# 6 0.000000 0.000000 0.000000 0.000000 0.000000 0.029595
#
#
# Mechanical properties :
#
#
# Convention : Reuss Voigt Hill
#
# Bulk Modulus (GPa) = 66.66044 95.76858 81.21451
# Shear Modulus (GPa) = 14.48058 30.05862 22.26960
#
# Velocity S-wave (km/s) = 2.88422 4.15547 3.57677
# Velocity P-wave (km/s) = 7.02754 8.83405 7.98206
#
# Compressibility (1/GPa) = 0.01500140
#
# Stress axis : x y z
#
# Youngs Moduli (GPa) = 13.21930 39.32985 25.62766
#
# Poissons Ratio (x) = 0.59856 1.17898
# Poissons Ratio (y) = 0.20118 0.03390
# Poissons Ratio (z) = 0.60815 0.05202
#
# Static dielectric constant tensor:
#      x y z
#    x 1.571830 0.000000 0.000000 
#    y 0.000000 1.583000 0.000000 
#    z 0.000000 0.000000 1.567210 
# 
# From -- ./inp_files/30555.got.cif
#   From: 2010.05.17/outbox.cif.g08.bks.cpg/sg51_16_cif.got.tgz:30555.got - 2010.06.03 11:52:47.
