data_PCOD9405213
_publ_section_title
;
Structure prediction by ZEFSAII (Michael W. Deem and Ramdas Pophale) SiO2 
 PCOD9405213
Probable space group: P M M A
;
_chemical_formula_sum "Si O2"
_cell_formula_units_Z 38
_cell_length_a 8.819004
_cell_length_b 25.094082
_cell_length_c 9.186907
_cell_angle_alpha 90.000000
_cell_angle_beta 90.000000
_cell_angle_gamma 90.000000
_cell_volume 2033.106704
_symmetry_space_group_name_H-M "P M M A"
_symmetry_group_IT_number 51
_symmetry_cell_setting 'orthorhombic'
loop_
_space_group_symop_operation_xyz
x,y,z
1/2-x,-y,z
1/2+x,-y,-z
-x,y,-z
-x,-y,-z
1/2+x,y,-z
1/2-x,y,z
x,-y,z
loop_
_atom_site_type_symbol
_atom_site_label
_atom_site_fract_x
_atom_site_fract_y
_atom_site_fract_z
Si Si1 0.069413 0.303783 0.340345
Si Si2 0.568270 0.000000 0.838133
Si Si3 0.917445 0.608391 0.154909
Si Si4 0.069008 0.098653 0.661127
Si Si5 0.750000 0.500000 0.205862
Si Si6 0.069417 0.793068 0.840551
O O1 0.250000 0.302101 0.347725
O O2 0.000000 0.296688 0.500000
O O3 0.013155 0.359481 0.272440
O O4 0.007735 0.257331 0.236186
O O5 0.508630 0.051635 0.752223
O O6 0.750000 0.000000 0.844545
O O7 0.500000 0.000000 0.000000
O O8 0.750000 0.634563 0.141083
O O9 0.879872 0.547718 0.198641
O O10 0.000000 0.609744 0.000000
O O11 0.250000 0.089437 0.653592
O O12 0.042750 0.154534 0.742978
O O13 0.000000 0.100299 0.500000
O O14 0.250000 0.784812 0.851126
O O15 0.000000 0.800787 0.000000
#
# Coordination Sequence:
#
# PCOD9405213 Si02
#       6
#     8   4   8   8   2   8
#     4  12  25  42  64  90 125 165 206 256 314 374
#     4  12  25  42  65  92 128 172 218 268 319 374
#     4  10  20  38  63  92 124 158 204 250 303 361
#     4  11  24  42  65  94 130 169 214 262 319 377
#     4   8  22  36  68  90 130 156 210 248 310 352
#     4  11  24  42  66  96 127 164 209 261 313 373
#
# _framework density 18.690608000000001
#
# number of rings (size 3 to 8) (size 9 to 14) (size 15 to 20)
#    0.632    0.421    0.000    7.263    0.000    6.737 
#    0.000    0.526    0.000    0.000    0.000    0.000 
#    0.000    0.000    0.000    0.000    0.000    0.000 
#
# Total GULP energy -211880.895490 kJ/mol
# GULP energy per Si atom -5575.813039 kJ/mol
# Density = 1.864807 g / cm^3
# Si number density = 18.690608 Si / 1000 Ang^3
#
#
#
# Elastic Constant Matrix: (Units=GPa)
#
#
# Indices 1 2 3 4 5 6 
#
# 1 162.0189 72.5699 85.7731 0.0000 0.0000 0.0000
# 2 72.5699 87.4198 77.4058 0.0000 0.0000 0.0000
# 3 85.7731 77.4058 162.7684 0.0000 0.0000 0.0000
# 4 0.0000 0.0000 0.0000 13.8242 0.0000 0.0000
# 5 0.0000 0.0000 0.0000 0.0000 35.4799 0.0000
# 6 0.0000 0.0000 0.0000 0.0000 0.0000 -9.6624
#
#
#
# Elastic Compliance Matrix: (Units=1/GPa)
#
#
# Indices 1 2 3 4 5 6 
#
# 1 0.010324 -0.006483 -0.002357 0.000000 0.000000 0.000000
# 2 -0.006483 0.023830 -0.007916 0.000000 0.000000 0.000000
# 3 -0.002357 -0.007916 0.011151 0.000000 0.000000 0.000000
# 4 0.000000 0.000000 0.000000 0.072337 0.000000 0.000000
# 5 0.000000 0.000000 0.000000 0.000000 0.028185 0.000000
# 6 0.000000 0.000000 0.000000 0.000000 0.000000 -0.103494
#
#
# Mechanical properties :
#
#
# Convention : Reuss Voigt Hill
#
# Bulk Modulus (GPa) = 84.80665 98.18942 91.49804
# Shear Modulus (GPa) = 62.67516 19.69222 41.18369
#
# Velocity S-wave (km/s) = 5.79705 3.24943 4.69918
# Velocity P-wave (km/s) = 9.50159 8.16863 8.86021
#
# Compressibility (1/GPa) = 0.01179153
#
# Stress axis : x y z
#
# Youngs Moduli (GPa) = 96.86341 41.96344 89.68090
#
# Poissons Ratio (x) = 0.27204 0.21141
# Poissons Ratio (y) = 0.62795 0.70995
# Poissons Ratio (z) = 0.22834 0.33220
#
# Static dielectric constant tensor:
#      x y z
#    x 1.633880 0.000000 0.000000 
#    y 0.000000 1.626270 0.000000 
#    z 0.000000 0.000000 1.610880 
# 
# From -- ./inp_files/5288.got.cif
#   From: 2010.05.17/outbox.cif.g08.bks.cpg/sg51_3_cif.got.tgz:5288.got - 2010.06.03 11:52:47.
