data_PCOD9405580
_publ_section_title
;
Structure prediction by ZEFSAII (Michael W. Deem and Ramdas Pophale) SiO2 
 PCOD9405580
Probable space group: P M M A
;
_chemical_formula_sum "Si O2"
_cell_formula_units_Z 32
_cell_length_a 9.574845
_cell_length_b 7.449378
_cell_length_c 21.820225
_cell_angle_alpha 90.000000
_cell_angle_beta 90.000000
_cell_angle_gamma 90.000000
_cell_volume 1556.363327
_symmetry_space_group_name_H-M "P M M A"
_symmetry_group_IT_number 51
_symmetry_cell_setting 'orthorhombic'
loop_
_space_group_symop_operation_xyz
x,y,z
1/2-x,-y,z
1/2+x,-y,-z
-x,y,-z
-x,-y,-z
1/2+x,y,-z
1/2-x,y,z
x,-y,z
loop_
_atom_site_type_symbol
_atom_site_label
_atom_site_fract_x
_atom_site_fract_y
_atom_site_fract_z
Si Si1 0.590287 0.283600 0.824971
Si Si2 0.592304 0.786283 0.056122
Si Si3 0.420040 0.291337 0.308473
Si Si4 0.911777 0.280212 0.558371
O O1 0.750000 0.221631 0.836753
O O2 0.596672 0.500000 0.820293
O O3 0.488601 0.240069 0.880341
O O4 0.541506 0.215111 0.758008
O O5 0.750000 0.714131 0.057279
O O6 0.603116 0.000000 0.046746
O O7 0.500000 0.713252 0.000000
O O8 0.250000 0.288268 0.309135
O O9 0.463953 0.500000 0.308350
O O10 0.463584 0.216827 0.374597
O O11 0.750000 0.228792 0.551415
O O12 0.915148 0.500000 0.559930
O O13 0.000000 0.221787 0.500000
#
# Coordination Sequence:
#
# PCOD9405580 Si02
#       4
#     8   8   8   8
#     4   9  17  30  49  71  93 119 151 185 222 265
#     4  10  21  36  52  69  90 117 148 182 221 265
#     4   7  11  21  36  54  79 111 143 174 211 255
#     4   8  12  18  29  46  71 105 142 175 206 244
#
# _framework density 20.560751
#
# number of rings (size 3 to 8) (size 9 to 14) (size 15 to 20)
#    0.000    3.500    0.000    3.750    0.000    2.500 
#    0.000    1.250    0.000    4.500    0.000    0.000 
#    0.000    1.000    0.000    2.250    0.000    6.500 
#
# Total GULP energy -178278.274383 kJ/mol
# GULP energy per Si atom -5571.196074 kJ/mol
# Density = 2.051395 g / cm^3
# Si number density = 20.560751 Si / 1000 Ang^3
#
#
#
# Elastic Constant Matrix: (Units=GPa)
#
#
# Indices 1 2 3 4 5 6 
#
# 1 108.7748 6.0486 115.5775 0.0000 0.0000 0.0000
# 2 6.0486 62.1417 4.2009 0.0000 0.0000 0.0000
# 3 115.5775 4.2009 257.2561 0.0000 0.0000 0.0000
# 4 0.0000 0.0000 0.0000 42.0741 0.0000 0.0000
# 5 0.0000 0.0000 0.0000 0.0000 33.3012 0.0000
# 6 0.0000 0.0000 0.0000 0.0000 0.0000 0.4233
#
#
#
# Elastic Compliance Matrix: (Units=1/GPa)
#
#
# Indices 1 2 3 4 5 6 
#
# 1 0.017677 -0.001185 -0.007922 0.000000 0.000000 0.000000
# 2 -0.001185 0.016189 0.000268 0.000000 0.000000 0.000000
# 3 -0.007922 0.000268 0.007442 0.000000 0.000000 0.000000
# 4 0.000000 0.000000 0.000000 0.023768 0.000000 0.000000
# 5 0.000000 0.000000 0.000000 0.000000 0.030029 0.000000
# 6 0.000000 0.000000 0.000000 0.000000 0.000000 2.362299
#
#
# Mechanical properties :
#
#
# Convention : Reuss Voigt Hill
#
# Bulk Modulus (GPa) = 42.31941 75.53628 58.92784
# Shear Modulus (GPa) = 2.01373 35.31609 18.66491
#
# Velocity S-wave (km/s) = 0.99072 4.14895 3.01623
# Velocity P-wave (km/s) = 4.68359 7.73107 6.39162
#
# Compressibility (1/GPa) = 0.02362982
#
# Stress axis : x y z
#
# Youngs Moduli (GPa) = 56.57032 61.76848 134.37025
#
# Poissons Ratio (x) = 0.07320 1.06454
# Poissons Ratio (y) = 0.06704 -0.03602
# Poissons Ratio (z) = 0.44818 -0.01656
#
# Static dielectric constant tensor:
#      x y z
#    x 1.690510 0.000000 0.000000 
#    y 0.000000 1.804010 0.000000 
#    z 0.000000 0.000000 1.766050 
# 
# From -- ./inp_files/31078.got.cif
#   From: 2010.05.17/outbox.cif.g08.bks.cpg/sg51_16_cif.got.tgz:31078.got - 2010.06.03 11:52:47.
