data_PCOD9405581
_publ_section_title
;
Structure prediction by ZEFSAII (Michael W. Deem and Ramdas Pophale) SiO2 
 PCOD9405581
Probable space group: P M M A
;
_chemical_formula_sum "Si O2"
_cell_formula_units_Z 40
_cell_length_a 9.493877
_cell_length_b 7.395409
_cell_length_c 27.116175
_cell_angle_alpha 90.000000
_cell_angle_beta 90.000000
_cell_angle_gamma 90.000000
_cell_volume 1903.856567
_symmetry_space_group_name_H-M "P M M A"
_symmetry_group_IT_number 51
_symmetry_cell_setting 'orthorhombic'
loop_
_space_group_symop_operation_xyz
x,y,z
1/2-x,-y,z
1/2+x,-y,-z
-x,y,-z
-x,-y,-z
1/2+x,y,-z
1/2-x,y,z
x,-y,z
loop_
_atom_site_type_symbol
_atom_site_label
_atom_site_fract_x
_atom_site_fract_y
_atom_site_fract_z
Si Si1 0.588016 0.220805 0.047848
Si Si2 0.410813 0.217681 0.357808
Si Si3 0.578537 0.790610 0.749239
Si Si4 0.086721 0.778723 0.143031
Si Si5 0.591444 0.715070 0.454495
O O1 0.750000 0.278478 0.045558
O O2 0.510555 0.278162 0.097945
O O3 0.587731 0.000000 0.047840
O O4 0.500000 0.277935 0.000000
O O5 0.250000 0.280819 0.366935
O O6 0.461546 0.286566 0.304112
O O7 0.510821 0.259439 0.403178
O O8 0.404038 0.000000 0.353629
O O9 0.750000 0.789220 0.749052
O O10 0.538498 0.714747 0.802656
O O11 0.532247 0.000000 0.749553
O O12 0.250000 0.726287 0.135214
O O13 0.086025 0.000000 0.144370
O O14 0.500000 0.788551 0.500000
O O15 0.750000 0.788162 0.453346
O O16 0.602418 0.500000 0.462119
#
# Coordination Sequence:
#
# PCOD9405581 Si02
#       5
#     8   8   8   8   8
#     4   9  15  20  25  35  53  79 115 159 202 241
#     4   9  17  30  49  72  95 118 146 181 220 263
#     4   7  11  21  37  56  77 101 129 161 200 248
#     4   8  12  19  31  44  60  86 119 154 193 237
#     4  10  21  36  52  69  90 118 151 184 219 261
#
# _framework density 21.009986999999999
#
# number of rings (size 3 to 8) (size 9 to 14) (size 15 to 20)
#    0.000    3.400    0.000    3.600    0.000    4.400 
#    0.000    1.000    0.000    3.600    0.000    0.000 
#    0.000    0.000    0.000    0.000    0.000    1.000 
#
# Total GULP energy -223034.378140 kJ/mol
# GULP energy per Si atom -5575.859454 kJ/mol
# Density = 2.096217 g / cm^3
# Si number density = 21.009987 Si / 1000 Ang^3
#
#
#
# Elastic Constant Matrix: (Units=GPa)
#
#
# Indices 1 2 3 4 5 6 
#
# 1 146.1830 6.3932 133.7553 0.0000 0.0000 0.0000
# 2 6.3932 71.3553 5.3337 0.0000 0.0000 0.0000
# 3 133.7553 5.3337 261.0544 0.0000 0.0000 0.0000
# 4 0.0000 0.0000 0.0000 45.1419 0.0000 0.0000
# 5 0.0000 0.0000 0.0000 0.0000 31.1633 0.0000
# 6 0.0000 0.0000 0.0000 0.0000 0.0000 -18.4966
#
#
#
# Elastic Compliance Matrix: (Units=1/GPa)
#
#
# Indices 1 2 3 4 5 6 
#
# 1 0.012909 -0.000663 -0.006601 0.000000 0.000000 0.000000
# 2 -0.000663 0.014070 0.000052 0.000000 0.000000 0.000000
# 3 -0.006601 0.000052 0.007212 0.000000 0.000000 0.000000
# 4 0.000000 0.000000 0.000000 0.022152 0.000000 0.000000
# 5 0.000000 0.000000 0.000000 0.000000 0.032089 0.000000
# 6 0.000000 0.000000 0.000000 0.000000 0.000000 -0.054064
#
#
# Mechanical properties :
#
#
# Convention : Reuss Voigt Hill
#
# Bulk Modulus (GPa) = 50.58812 85.50636 68.04724
# Shear Modulus (GPa) = 90.28436 33.76909 62.02672
#
# Velocity S-wave (km/s) = 6.56242 4.01345 5.43936
# Velocity P-wave (km/s) = 9.03056 7.89071 8.47981
#
# Compressibility (1/GPa) = 0.01976749
#
# Stress axis : x y z
#
# Youngs Moduli (GPa) = 77.46340 71.07382 138.66661
#
# Poissons Ratio (x) = 0.04714 0.91530
# Poissons Ratio (y) = 0.05138 -0.00726
# Poissons Ratio (z) = 0.51132 -0.00372
#
# Static dielectric constant tensor:
#      x y z
#    x 1.705840 0.000000 0.000000 
#    y 0.000000 1.826800 0.000000 
#    z 0.000000 0.000000 1.765310 
# 
# From -- ./inp_files/36715.got.cif
#   From: 2010.05.17/outbox.cif.g08.bks.cpg/sg51_19_cif.got.tgz:36715.got - 2010.06.03 11:52:47.
