data_PCOD9405133
_publ_section_title
;
Structure prediction by ZEFSAII (Michael W. Deem and Ramdas Pophale) SiO2 
 PCOD9405133
Probable space group: P M M A
;
_chemical_formula_sum "Si O2"
_cell_formula_units_Z 40
_cell_length_a 17.601440
_cell_length_b 7.819442
_cell_length_c 14.756349
_cell_angle_alpha 90.000000
_cell_angle_beta 90.000000
_cell_angle_gamma 90.000000
_cell_volume 2030.967063
_symmetry_space_group_name_H-M "P M M A"
_symmetry_group_IT_number 51
_symmetry_cell_setting 'orthorhombic'
loop_
_space_group_symop_operation_xyz
x,y,z
1/2-x,-y,z
1/2+x,-y,-z
-x,y,-z
-x,-y,-z
1/2+x,y,-z
1/2-x,y,z
x,-y,z
loop_
_atom_site_type_symbol
_atom_site_label
_atom_site_fract_x
_atom_site_fract_y
_atom_site_fract_z
Si Si1 0.665124 0.206331 0.491337
Si Si2 0.840412 0.804407 0.159857
Si Si3 0.842271 0.500000 0.027318
Si Si4 0.559209 0.699343 0.330049
Si Si5 0.610703 0.195782 0.690566
Si Si6 0.841415 0.500000 0.820207
O O1 0.750000 0.261564 0.464386
O O2 0.601853 0.280672 0.425418
O O3 0.650464 0.247945 0.596207
O O4 0.661317 0.000000 0.483775
O O5 0.750000 0.781585 0.176427
O O6 0.864622 0.667543 0.084283
O O7 0.885641 0.769589 0.251963
O O8 0.852569 0.000000 0.130694
O O9 0.750000 0.500000 0.024088
O O10 0.869249 0.500000 0.924063
O O11 0.544285 0.500000 0.312699
O O12 0.479308 0.795210 0.327628
O O13 0.631198 0.331227 0.767556
O O14 0.632658 0.000000 0.712406
O O15 0.750000 0.500000 0.820003
#
# Coordination Sequence:
#
# PCOD9405133 Si02
#       6
#     8   8   4   8   8   4
#     4  10  22  39  60  89 123 162 207 250 294 353
#     4  10  20  37  62  91 124 160 200 249 304 362
#     4   9  20  39  62  91 122 151 195 254 308 359
#     4  12  23  37  60  91 126 164 203 246 303 361
#     4  11  24  43  63  88 125 166 204 247 299 355
#     4  11  24  43  67  93 120 153 202 256 302 359
#
# _framework density 19.695049999999998
#
# number of rings (size 3 to 8) (size 9 to 14) (size 15 to 20)
#    0.000    1.400    2.000    3.600    1.400    7.200 
#    0.000    4.000    0.000    2.400    0.000    0.000 
#    0.000    0.000    0.000    0.000    0.000    0.000 
#
# Total GULP energy -223645.130050 kJ/mol
# GULP energy per Si atom -5591.128251 kJ/mol
# Density = 1.965022 g / cm^3
# Si number density = 19.695050 Si / 1000 Ang^3
#
#
#
# Elastic Constant Matrix: (Units=GPa)
#
#
# Indices 1 2 3 4 5 6 
#
# 1 44.8677 5.6678 3.8698 0.0000 0.0000 0.0000
# 2 5.6678 97.1989 36.5694 0.0000 0.0000 0.0000
# 3 3.8698 36.5694 83.9029 0.0000 0.0000 0.0000
# 4 0.0000 0.0000 0.0000 -19.1380 0.0000 0.0000
# 5 0.0000 0.0000 0.0000 0.0000 -21.9512 0.0000
# 6 0.0000 0.0000 0.0000 0.0000 0.0000 10.3635
#
#
#
# Elastic Compliance Matrix: (Units=1/GPa)
#
#
# Indices 1 2 3 4 5 6 
#
# 1 0.022475 -0.001101 -0.000557 0.000000 0.000000 0.000000
# 2 -0.001101 0.012360 -0.005336 0.000000 0.000000 0.000000
# 3 -0.000557 -0.005336 0.014270 0.000000 0.000000 0.000000
# 4 0.000000 0.000000 0.000000 -0.052252 0.000000 0.000000
# 5 0.000000 0.000000 0.000000 0.000000 -0.045556 0.000000
# 6 0.000000 0.000000 0.000000 0.000000 0.000000 0.096492
#
#
# Mechanical properties :
#
#
# Convention : Reuss Voigt Hill
#
# Bulk Modulus (GPa) = 28.47646 35.35372 31.91509
# Shear Modulus (GPa) = 68.04252 5.84570 36.94411
#
# Velocity S-wave (km/s) = 5.88413 1.72469 4.33576
# Velocity P-wave (km/s) = 7.78808 4.68568 6.42689
#
# Compressibility (1/GPa) = 0.03511672
#
# Stress axis : x y z
#
# Youngs Moduli (GPa) = 44.49414 80.90527 70.07651
#
# Poissons Ratio (x) = 0.08908 0.03901
# Poissons Ratio (y) = 0.04899 0.37396
# Poissons Ratio (z) = 0.02477 0.43175
#
# Static dielectric constant tensor:
#      x y z
#    x 1.684020 0.000000 0.000000 
#    y 0.000000 1.693540 0.000000 
#    z 0.000000 0.000000 1.651170 
# 
# From -- ./inp_files/23814.got.cif
#   From: 2010.05.17/outbox.cif.g08.bks.cpg/sg51_12_cif.got.tgz:23814.got - 2010.06.03 11:52:47.
