data_PCOD9405977
_publ_section_title
;
Structure prediction by ZEFSAII (Michael W. Deem and Ramdas Pophale) SiO2 
 PCOD9405977
Probable space group: P M M A
;
_chemical_formula_sum "Si O2"
_cell_formula_units_Z 36
_cell_length_a 8.954154
_cell_length_b 10.923179
_cell_length_c 19.158076
_cell_angle_alpha 90.000000
_cell_angle_beta 90.000000
_cell_angle_gamma 90.000000
_cell_volume 1873.809782
_symmetry_space_group_name_H-M "P M M A"
_symmetry_group_IT_number 51
_symmetry_cell_setting 'orthorhombic'
loop_
_space_group_symop_operation_xyz
x,y,z
1/2-x,-y,z
1/2+x,-y,-z
-x,y,-z
-x,-y,-z
1/2+x,y,-z
1/2-x,y,z
x,-y,z
loop_
_atom_site_type_symbol
_atom_site_label
_atom_site_fract_x
_atom_site_fract_y
_atom_site_fract_z
Si Si1 0.572864 0.000000 0.575553
Si Si2 0.070612 0.360850 0.077095
Si Si3 0.570140 0.142270 0.167526
Si Si4 0.572568 0.204108 0.328486
Si Si5 0.080913 0.355002 0.429921
O O1 0.500000 0.000000 0.500000
O O2 0.512632 0.887053 0.620317
O O3 0.750000 0.000000 0.570125
O O4 0.250000 0.351227 0.073185
O O5 0.035267 0.500000 0.103741
O O6 0.006416 0.248077 0.121854
O O7 0.000000 0.352809 0.000000
O O8 0.750000 0.149127 0.158207
O O9 0.537560 0.172765 0.248619
O O10 0.526060 0.000000 0.152799
O O11 0.750000 0.192603 0.336989
O O12 0.512893 0.330542 0.359817
O O13 0.250000 0.306559 0.425045
O O14 0.091596 0.500000 0.438799
O O15 0.000000 0.306506 0.500000
#
# Coordination Sequence:
#
# PCOD9405977 Si02
#       5
#     4   8   8   8   8
#     4  12  24  38  58  82 111 150 197 246 300 354
#     4  10  22  41  66  96 128 163 206 253 302 362
#     4  10  22  41  63  89 125 165 205 251 305 366
#     4  11  22  39  59  82 115 152 195 244 297 358
#     4  10  21  37  56  80 111 148 194 247 302 362
#
# _framework density 19.212195999999999
#
# number of rings (size 3 to 8) (size 9 to 14) (size 15 to 20)
#    0.000    1.556    1.111    3.667    0.000    6.222 
#    0.000    4.444    0.000    0.000    0.000    0.000 
#    0.000    0.000    0.000    0.000    0.000    0.000 
#
# Total GULP energy -200903.504219 kJ/mol
# GULP energy per Si atom -5580.652895 kJ/mol
# Density = 1.916847 g / cm^3
# Si number density = 19.212196 Si / 1000 Ang^3
#
#
#
# Elastic Constant Matrix: (Units=GPa)
#
#
# Indices 1 2 3 4 5 6 
#
# 1 102.6564 63.4084 71.3805 0.0000 0.0000 0.0000
# 2 63.4084 131.9995 81.0954 0.0000 0.0000 0.0000
# 3 71.3805 81.0954 114.6588 0.0000 0.0000 0.0000
# 4 0.0000 0.0000 0.0000 23.4040 0.0000 0.0000
# 5 0.0000 0.0000 0.0000 0.0000 33.6519 0.0000
# 6 0.0000 0.0000 0.0000 0.0000 0.0000 35.5060
#
#
#
# Elastic Compliance Matrix: (Units=1/GPa)
#
#
# Indices 1 2 3 4 5 6 
#
# 1 0.017863 -0.003093 -0.008933 0.000000 0.000000 0.000000
# 2 -0.003093 0.013933 -0.007929 0.000000 0.000000 0.000000
# 3 -0.008933 -0.007929 0.019891 0.000000 0.000000 0.000000
# 4 0.000000 0.000000 0.000000 0.042728 0.000000 0.000000
# 5 0.000000 0.000000 0.000000 0.000000 0.029716 0.000000
# 6 0.000000 0.000000 0.000000 0.000000 0.000000 0.028164
#
#
# Mechanical properties :
#
#
# Convention : Reuss Voigt Hill
#
# Bulk Modulus (GPa) = 84.91170 86.78705 85.84937
# Shear Modulus (GPa) = 25.49334 27.40773 26.45053
#
# Velocity S-wave (km/s) = 3.64666 3.78111 3.71449
# Velocity P-wave (km/s) = 7.87551 8.02081 7.94849
#
# Compressibility (1/GPa) = 0.01177694
#
# Stress axis : x y z
#
# Youngs Moduli (GPa) = 55.98138 71.77430 50.27446
#
# Poissons Ratio (x) = 0.22197 0.44912
# Poissons Ratio (y) = 0.17313 0.39862
# Poissons Ratio (z) = 0.50010 0.56909
#
# Static dielectric constant tensor:
#      x y z
#    x 1.656100 0.000000 0.000000 
#    y 0.000000 1.883330 0.000000 
#    z 0.000000 0.000000 1.620880 
# 
# From -- ./inp_files/27032.got.cif
#   From: 2010.05.17/outbox.cif.g08.bks.cpg/sg51_14_cif.got.tgz:27032.got - 2010.06.03 11:52:47.
