data_PCOD9405780
_publ_section_title
;
Structure prediction by ZEFSAII (Michael W. Deem and Ramdas Pophale) SiO2 
 PCOD9405780
Probable space group: P M M A
;
_chemical_formula_sum "Si O2"
_cell_formula_units_Z 48
_cell_length_a 14.113677
_cell_length_b 9.843068
_cell_length_c 17.536198
_cell_angle_alpha 90.000000
_cell_angle_beta 90.000000
_cell_angle_gamma 90.000000
_cell_volume 2436.161637
_symmetry_space_group_name_H-M "P M M A"
_symmetry_group_IT_number 51
_symmetry_cell_setting 'orthorhombic'
loop_
_space_group_symop_operation_xyz
x,y,z
1/2-x,-y,z
1/2+x,-y,-z
-x,y,-z
-x,-y,-z
1/2+x,y,-z
1/2-x,y,z
x,-y,z
loop_
_atom_site_type_symbol
_atom_site_label
_atom_site_fract_x
_atom_site_fract_y
_atom_site_fract_z
Si Si1 0.634853 0.653728 0.990070
Si Si2 0.865445 0.845834 0.854121
Si Si3 0.634795 0.347132 0.164795
Si Si4 0.360806 0.655884 0.287371
Si Si5 0.135799 0.844000 0.696751
Si Si6 0.521067 0.342132 0.411843
O O1 0.750000 0.653721 0.989055
O O2 0.605555 0.500000 0.969143
O O3 0.606832 0.680470 0.077521
O O4 0.603584 0.764457 0.929217
O O5 0.750000 0.850545 0.856622
O O6 0.888392 0.758835 0.779346
O O7 0.900531 0.000000 0.851498
O O8 0.750000 0.349606 0.165134
O O9 0.602783 0.500000 0.185918
O O10 0.606244 0.236548 0.226714
O O11 0.250000 0.677232 0.305922
O O12 0.370131 0.500000 0.259564
O O13 0.426404 0.671506 0.360921
O O14 0.250000 0.843798 0.694489
O O15 0.095455 0.759668 0.625889
O O16 0.103285 0.000000 0.697086
O O17 0.500000 0.313910 0.500000
O O18 0.552836 0.500000 0.405540
#
# Coordination Sequence:
#
# PCOD9405780 Si02
#       6
#     8   8   8   8   8   8
#     4   8  13  22  39  66 100 137 177 219 261 305
#     4   9  16  25  41  69 103 139 178 216 257 308
#     4   8  14  26  46  72 102 139 182 223 262 307
#     4   9  18  34  55  78 106 139 175 217 266 320
#     4  10  21  36  55  81 113 148 182 217 264 320
#     4  10  22  39  60  85 108 135 175 222 273 326
#
# _framework density 19.703126000000001
#
# number of rings (size 3 to 8) (size 9 to 14) (size 15 to 20)
#    0.000    3.000    0.000    2.000    0.000    5.333 
#    0.000    5.000    0.000    3.000    0.000    7.000 
#    0.000    0.000    0.000    0.000    0.000    0.000 
#
# Total GULP energy -268042.762467 kJ/mol
# GULP energy per Si atom -5584.224218 kJ/mol
# Density = 1.965828 g / cm^3
# Si number density = 19.703126 Si / 1000 Ang^3
#
#
#
# Elastic Constant Matrix: (Units=GPa)
#
#
# Indices 1 2 3 4 5 6 
#
# 1 66.0858 37.3255 13.9796 0.0000 0.0000 0.0000
# 2 37.3255 173.8994 124.5458 0.0000 0.0000 0.0000
# 3 13.9796 124.5458 152.8922 0.0000 0.0000 0.0000
# 4 0.0000 0.0000 0.0000 -127.0010 0.0000 0.0000
# 5 0.0000 0.0000 0.0000 0.0000 46.0708 0.0000
# 6 0.0000 0.0000 0.0000 0.0000 0.0000 13.7711
#
#
#
# Elastic Compliance Matrix: (Units=1/GPa)
#
#
# Indices 1 2 3 4 5 6 
#
# 1 0.018011 -0.006449 0.003606 0.000000 0.000000 0.000000
# 2 -0.006449 0.016113 -0.012536 0.000000 0.000000 0.000000
# 3 0.003606 -0.012536 0.016422 0.000000 0.000000 0.000000
# 4 0.000000 0.000000 0.000000 -0.007874 0.000000 0.000000
# 5 0.000000 0.000000 0.000000 0.000000 0.021706 0.000000
# 6 0.000000 0.000000 0.000000 0.000000 0.000000 0.072616
#
#
# Mechanical properties :
#
#
# Convention : Reuss Voigt Hill
#
# Bulk Modulus (GPa) = 50.53063 82.73101 66.63082
# Shear Modulus (GPa) = 28.67854 1.03661 14.85757
#
# Velocity S-wave (km/s) = 3.81928 0.72612 2.74902
# Velocity P-wave (km/s) = 6.71944 6.54087 6.63076
#
# Compressibility (1/GPa) = 0.01978998
#
# Stress axis : x y z
#
# Youngs Moduli (GPa) = 55.52094 62.06355 60.89273
#
# Poissons Ratio (x) = 0.40023 -0.21959
# Poissons Ratio (y) = 0.35804 0.76333
# Poissons Ratio (z) = -0.20022 0.77800
#
# Static dielectric constant tensor:
#      x y z
#    x 1.748560 0.000000 0.000000 
#    y 0.000000 1.674190 0.000000 
#    z 0.000000 0.000000 1.647330 
# 
# From -- ./inp_files/29398.got.cif
#   From: 2010.05.17/outbox.cif.g08.bks.cpg/sg51_15_cif.got.tgz:29398.got - 2010.06.03 11:52:47.
