data_PCOD9405734
_publ_section_title
;
Structure prediction by ZEFSAII (Michael W. Deem and Ramdas Pophale) SiO2 
 PCOD9405734
Probable space group: P M M A
;
_chemical_formula_sum "Si O2"
_cell_formula_units_Z 40
_cell_length_a 9.035589
_cell_length_b 7.605912
_cell_length_c 30.407886
_cell_angle_alpha 90.000000
_cell_angle_beta 90.000000
_cell_angle_gamma 90.000000
_cell_volume 2089.748359
_symmetry_space_group_name_H-M "P M M A"
_symmetry_group_IT_number 51
_symmetry_cell_setting 'orthorhombic'
loop_
_space_group_symop_operation_xyz
x,y,z
1/2-x,-y,z
1/2+x,-y,-z
-x,y,-z
-x,-y,-z
1/2+x,y,-z
1/2-x,y,z
x,-y,z
loop_
_atom_site_type_symbol
_atom_site_label
_atom_site_fract_x
_atom_site_fract_y
_atom_site_fract_z
Si Si1 0.928132 0.704134 0.453697
Si Si2 0.071394 0.000000 0.715520
Si Si3 0.417830 0.711085 0.866291
Si Si4 0.570226 0.000000 0.385996
Si Si5 0.583043 0.789501 0.956716
Si Si6 0.573743 0.709592 0.775938
O O1 0.750000 0.716312 0.457759
O O2 0.966390 0.500000 0.445636
O O3 0.976003 0.829807 0.414065
O O4 0.000000 0.757776 0.500000
O O5 0.007466 0.171056 0.740110
O O6 0.250000 0.000000 0.717967
O O7 0.023487 0.000000 0.664511
O O8 0.250000 0.779557 0.864073
O O9 0.411214 0.500000 0.864521
O O10 0.493905 0.757095 0.912168
O O11 0.512131 0.765259 0.823826
O O12 0.750000 0.000000 0.385285
O O13 0.750000 0.719799 0.953454
O O14 0.592849 0.000000 0.961763
O O15 0.500000 0.720296 0.000000
O O16 0.750000 0.736278 0.774195
O O17 0.544903 0.500000 0.770096
#
# Coordination Sequence:
#
# PCOD9405734 Si02
#       6
#     8   4   8   4   8   8
#     4   9  17  31  52  78 109 146 187 230 276 328
#     4  11  23  38  60  88 115 151 196 242 293 348
#     4  10  21  37  58  83 108 138 179 225 275 333
#     4   9  19  34  52  78 110 145 187 230 279 336
#     4  10  21  36  54  78 109 144 180 220 269 328
#     4  10  22  41  62  84 114 150 190 239 292 349
#
# _framework density 19.141061000000001
#
# number of rings (size 3 to 8) (size 9 to 14) (size 15 to 20)
#    0.000    2.200    0.000    2.400    1.400    4.800 
#    0.000    4.000    0.000    2.400    0.000    0.000 
#    0.000    0.000    0.000    0.000    0.000    0.000 
#
# Total GULP energy -223362.145875 kJ/mol
# GULP energy per Si atom -5584.053647 kJ/mol
# Density = 1.909750 g / cm^3
# Si number density = 19.141061 Si / 1000 Ang^3
#
#
#
# Elastic Constant Matrix: (Units=GPa)
#
#
# Indices 1 2 3 4 5 6 
#
# 1 103.9368 45.6174 72.8793 0.0000 0.0000 0.0000
# 2 45.6174 76.8196 73.1285 0.0000 0.0000 0.0000
# 3 72.8793 73.1285 208.3754 0.0000 0.0000 0.0000
# 4 0.0000 0.0000 0.0000 17.0414 0.0000 0.0000
# 5 0.0000 0.0000 0.0000 0.0000 30.9871 0.0000
# 6 0.0000 0.0000 0.0000 0.0000 0.0000 24.2167
#
#
#
# Elastic Compliance Matrix: (Units=1/GPa)
#
#
# Indices 1 2 3 4 5 6 
#
# 1 0.014165 -0.005549 -0.003007 0.000000 0.000000 0.000000
# 2 -0.005549 0.021722 -0.005682 0.000000 0.000000 0.000000
# 3 -0.003007 -0.005682 0.007845 0.000000 0.000000 0.000000
# 4 0.000000 0.000000 0.000000 0.058681 0.000000 0.000000
# 5 0.000000 0.000000 0.000000 0.000000 0.032271 0.000000
# 6 0.000000 0.000000 0.000000 0.000000 0.000000 0.041294
#
#
# Mechanical properties :
#
#
# Convention : Reuss Voigt Hill
#
# Bulk Modulus (GPa) = 65.55146 85.82024 75.68585
# Shear Modulus (GPa) = 23.86175 27.61614 25.73894
#
# Velocity S-wave (km/s) = 3.53459 3.80250 3.67099
# Velocity P-wave (km/s) = 7.13993 8.01322 7.58915
#
# Compressibility (1/GPa) = 0.01525519
#
# Stress axis : x y z
#
# Youngs Moduli (GPa) = 70.59609 46.03573 127.47184
#
# Poissons Ratio (x) = 0.25547 0.38327
# Poissons Ratio (y) = 0.39176 0.72435
# Poissons Ratio (z) = 0.21226 0.26160
#
# Static dielectric constant tensor:
#      x y z
#    x 1.658860 0.000000 0.000000 
#    y 0.000000 1.690680 0.000000 
#    z 0.000000 0.000000 1.626890 
# 
# From -- ./inp_files/36061.got.cif
#   From: 2010.05.17/outbox.cif.g08.bks.cpg/sg51_19_cif.got.tgz:36061.got - 2010.06.03 11:52:47.
