data_PCOD9405278
_publ_section_title
;
Structure prediction by ZEFSAII (Michael W. Deem and Ramdas Pophale) SiO2 
 PCOD9405278
Probable space group: P M M A
;
_chemical_formula_sum "Si O2"
_cell_formula_units_Z 52
_cell_length_a 28.476164
_cell_length_b 7.519388
_cell_length_c 13.542890
_cell_angle_alpha 90.000000
_cell_angle_beta 90.000000
_cell_angle_gamma 90.000000
_cell_volume 2899.848649
_symmetry_space_group_name_H-M "P M M A"
_symmetry_group_IT_number 51
_symmetry_cell_setting 'orthorhombic'
loop_
_space_group_symop_operation_xyz
x,y,z
1/2-x,-y,z
1/2+x,-y,-z
-x,y,-z
-x,-y,-z
1/2+x,y,-z
1/2-x,y,z
x,-y,z
loop_
_atom_site_type_symbol
_atom_site_label
_atom_site_fract_x
_atom_site_fract_y
_atom_site_fract_z
Si Si1 0.345567 0.295220 0.086482
Si Si2 0.799730 0.000000 0.799369
Si Si3 0.196377 0.711758 0.706934
Si Si4 0.570779 0.706829 0.752048
Si Si5 0.879097 0.716361 0.128961
Si Si6 0.804413 0.000000 0.462369
Si Si7 0.985712 0.282698 0.111368
Si Si8 0.620050 0.000000 0.635738
O O1 0.330839 0.500000 0.079672
O O2 0.390087 0.286821 0.160669
O O3 0.306458 0.171305 0.132716
O O4 0.360955 0.230773 0.978948
O O5 0.840663 0.000000 0.720685
O O6 0.750000 0.000000 0.748489
O O7 0.250000 0.739419 0.744315
O O8 0.191073 0.500000 0.688381
O O9 0.157238 0.768997 0.786117
O O10 0.191711 0.827822 0.608422
O O11 0.565806 0.500000 0.723063
O O12 0.523487 0.771117 0.806294
O O13 0.588256 0.828245 0.661784
O O14 0.879896 0.500000 0.129038
O O15 0.933057 0.774494 0.138084
O O16 0.848092 0.000000 0.537995
O O17 0.750000 0.000000 0.502101
O O18 0.986817 0.500000 0.109567
O O19 0.000000 0.226393 0.000000
#
# Coordination Sequence:
#
# PCOD9405278 Si02
#       8
#     8   4   8   8   8   4   8   4
#     4   9  17  30  47  69 101 138 168 197 239 291
#     4  10  21  33  45  67  98 129 166 208 245 300
#     4   9  19  35  54  78 103 127 166 218 267 316
#     4   9  17  31  50  75 108 139 168 205 245 292
#     4   9  16  28  50  78 107 139 172 206 247 298
#     4  10  21  39  61  76  92 126 172 227 280 314
#     4   9  14  25  50  79 108 145 180 205 236 287
#     4  10  21  36  53  74  96 126 170 215 266 315
#
# _framework density 17.931968999999999
#
# number of rings (size 3 to 8) (size 9 to 14) (size 15 to 20)
#    0.000    2.769    1.538    0.231    0.000    2.154 
#    0.000    4.231    0.000    4.615    0.000    4.308 
#    0.000    0.000    0.000    0.000    0.000    0.000 
#
# Total GULP energy -289779.954309 kJ/mol
# GULP energy per Si atom -5572.691429 kJ/mol
# Density = 1.789116 g / cm^3
# Si number density = 17.931969 Si / 1000 Ang^3
#
#
#
# Elastic Constant Matrix: (Units=GPa)
#
#
# Indices 1 2 3 4 5 6 
#
# 1 107.9271 33.2607 47.2285 0.0000 0.0000 0.0000
# 2 33.2607 68.4284 30.5078 0.0000 0.0000 0.0000
# 3 47.2285 30.5078 69.7726 0.0000 0.0000 0.0000
# 4 0.0000 0.0000 0.0000 18.1997 0.0000 0.0000
# 5 0.0000 0.0000 0.0000 0.0000 30.1378 0.0000
# 6 0.0000 0.0000 0.0000 0.0000 0.0000 12.1033
#
#
#
# Elastic Compliance Matrix: (Units=1/GPa)
#
#
# Indices 1 2 3 4 5 6 
#
# 1 0.013685 -0.003133 -0.007894 0.000000 0.000000 0.000000
# 2 -0.003133 0.018870 -0.006130 0.000000 0.000000 0.000000
# 3 -0.007894 -0.006130 0.022356 0.000000 0.000000 0.000000
# 4 0.000000 0.000000 0.000000 0.054946 0.000000 0.000000
# 5 0.000000 0.000000 0.000000 0.000000 0.033181 0.000000
# 6 0.000000 0.000000 0.000000 0.000000 0.000000 0.082622
#
#
# Mechanical properties :
#
#
# Convention : Reuss Voigt Hill
#
# Bulk Modulus (GPa) = 48.54934 52.01358 50.28146
# Shear Modulus (GPa) = 18.73795 21.09690 19.91743
#
# Velocity S-wave (km/s) = 3.23607 3.43373 3.33636
# Velocity P-wave (km/s) = 6.41060 6.69251 6.55307
#
# Compressibility (1/GPa) = 0.02059760
#
# Stress axis : x y z
#
# Youngs Moduli (GPa) = 73.07193 52.99547 44.73110
#
# Poissons Ratio (x) = 0.16601 0.35309
# Poissons Ratio (y) = 0.22891 0.27421
# Poissons Ratio (z) = 0.57680 0.32487
#
# Static dielectric constant tensor:
#      x y z
#    x 1.624150 0.000000 0.000000 
#    y 0.000000 1.654480 0.000000 
#    z 0.000000 0.000000 1.577390 
# 
# From -- ./inp_files/26085.got.cif
#   From: 2010.05.17/outbox.cif.g08.bks.cpg/sg51_14_cif.got.tgz:26085.got - 2010.06.03 11:52:47.
