data_PCOD9405399
_publ_section_title
;
Structure prediction by ZEFSAII (Michael W. Deem and Ramdas Pophale) SiO2 
 PCOD9405399
Probable space group: P M M A
;
_chemical_formula_sum "Si O2"
_cell_formula_units_Z 64
_cell_length_a 14.125895
_cell_length_b 9.470906
_cell_length_c 21.336177
_cell_angle_alpha 90.000000
_cell_angle_beta 90.000000
_cell_angle_gamma 90.000000
_cell_volume 2854.460946
_symmetry_space_group_name_H-M "P M M A"
_symmetry_group_IT_number 51
_symmetry_cell_setting 'orthorhombic'
loop_
_space_group_symop_operation_xyz
x,y,z
1/2-x,-y,z
1/2+x,-y,-z
-x,y,-z
-x,-y,-z
1/2+x,y,-z
1/2-x,y,z
x,-y,z
loop_
_atom_site_type_symbol
_atom_site_label
_atom_site_fract_x
_atom_site_fract_y
_atom_site_fract_z
Si Si1 0.365630 0.662425 0.845182
Si Si2 0.634520 0.836281 0.789173
Si Si3 0.134010 0.839447 0.723207
Si Si4 0.135270 0.838162 0.351594
Si Si5 0.605282 0.341827 0.525548
Si Si6 0.134164 0.337505 0.090064
Si Si7 0.365728 0.837238 0.967606
Si Si8 0.642332 0.340165 0.390933
O O1 0.250000 0.660290 0.845539
O O2 0.396920 0.500000 0.844811
O O3 0.393647 0.746411 0.782846
O O4 0.394923 0.746585 0.907271
O O5 0.750000 0.835226 0.789951
O O6 0.605648 0.793660 0.718626
O O7 0.603474 0.733276 0.844631
O O8 0.606969 0.000000 0.800423
O O9 0.250000 0.845563 0.722917
O O10 0.099248 0.765994 0.659172
O O11 0.100944 0.000000 0.728401
O O12 0.250000 0.837792 0.350905
O O13 0.108321 0.744595 0.411005
O O14 0.104516 0.000000 0.360977
O O15 0.500000 0.351788 0.500000
O O16 0.642671 0.500000 0.536608
O O17 0.649977 0.282683 0.461606
O O18 0.250000 0.338422 0.090158
O O19 0.103883 0.500000 0.083342
O O20 0.105398 0.240830 0.031410
O O21 0.250000 0.839341 0.967415
O O22 0.396694 0.000000 0.964326
O O23 0.750000 0.358079 0.369062
O O24 0.600367 0.500000 0.391569
#
# Coordination Sequence:
#
# PCOD9405399 Si02
#       8
#     8   8   8   8   8   8   8   8
#     4   9  15  22  32  47  70 101 137 176 216 259
#     4   8  14  25  39  55  77 105 138 178 222 265
#     4   9  16  25  38  57  79 103 136 179 222 263
#     4   9  18  32  50  71  93 119 154 194 234 278
#     4  10  21  35  50  70  96 124 153 187 230 280
#     4   9  15  21  30  47  71 100 137 178 217 259
#     4   9  15  21  29  42  65 101 141 177 214 257
#     4   9  17  30  47  65  86 115 150 186 225 269
#
# _framework density 22.421047000000002
#
# number of rings (size 3 to 8) (size 9 to 14) (size 15 to 20)
#    0.000    3.000    0.000    2.625    0.000    8.000 
#    0.000    2.500    0.000    0.000    0.000    0.000 
#    0.000    0.000    0.000    1.125    0.000   23.000 
#
# Total GULP energy -357447.932498 kJ/mol
# GULP energy per Si atom -5585.123945 kJ/mol
# Density = 2.237002 g / cm^3
# Si number density = 22.421047 Si / 1000 Ang^3
#
#
#
# Elastic Constant Matrix: (Units=GPa)
#
#
# Indices 1 2 3 4 5 6 
#
# 1 56.0004 8.7643 9.1208 0.0000 0.0000 0.0000
# 2 8.7643 196.6007 160.2371 0.0000 0.0000 0.0000
# 3 9.1208 160.2371 248.3996 0.0000 0.0000 0.0000
# 4 0.0000 0.0000 0.0000 48.7840 0.0000 0.0000
# 5 0.0000 0.0000 0.0000 0.0000 21.8198 0.0000
# 6 0.0000 0.0000 0.0000 0.0000 0.0000 70.3779
#
#
#
# Elastic Compliance Matrix: (Units=1/GPa)
#
#
# Indices 1 2 3 4 5 6 
#
# 1 0.017993 -0.000556 -0.000302 0.000000 0.000000 0.000000
# 2 -0.000556 0.010743 -0.006909 0.000000 0.000000 0.000000
# 3 -0.000302 -0.006909 0.008494 0.000000 0.000000 0.000000
# 4 0.000000 0.000000 0.000000 0.020499 0.000000 0.000000
# 5 0.000000 0.000000 0.000000 0.000000 0.045830 0.000000
# 6 0.000000 0.000000 0.000000 0.000000 0.000000 0.014209
#
#
# Mechanical properties :
#
#
# Convention : Reuss Voigt Hill
#
# Bulk Modulus (GPa) = 46.09355 95.24945 70.67150
# Shear Modulus (GPa) = 35.57858 49.72159 42.65009
#
# Velocity S-wave (km/s) = 3.98784 4.71428 4.36619
# Velocity P-wave (km/s) = 6.46580 8.49747 7.55028
#
# Compressibility (1/GPa) = 0.02169501
#
# Stress axis : x y z
#
# Youngs Moduli (GPa) = 55.57650 93.08622 117.72991
#
# Poissons Ratio (x) = 0.05175 0.03556
# Poissons Ratio (y) = 0.03090 0.81345
# Poissons Ratio (z) = 0.01679 0.64318
#
# Static dielectric constant tensor:
#      x y z
#    x 1.712900 0.000000 0.000000 
#    y 0.000000 1.785050 0.000000 
#    z 0.000000 0.000000 1.795480 
# 
# From -- ./inp_files/34087.got.cif
#   From: 2010.05.17/outbox.cif.g08.bks.cpg/sg51_18_cif.got.tgz:34087.got - 2010.06.03 11:52:47.
