data_PCOD9405146
_publ_section_title
;
Structure prediction by ZEFSAII (Michael W. Deem and Ramdas Pophale) SiO2 
 PCOD9405146
Probable space group: P M M A
;
_chemical_formula_sum "Si O2"
_cell_formula_units_Z 48
_cell_length_a 14.437704
_cell_length_b 18.303610
_cell_length_c 9.863107
_cell_angle_alpha 90.000000
_cell_angle_beta 90.000000
_cell_angle_gamma 90.000000
_cell_volume 2606.445401
_symmetry_space_group_name_H-M "P M M A"
_symmetry_group_IT_number 51
_symmetry_cell_setting 'orthorhombic'
loop_
_space_group_symop_operation_xyz
x,y,z
1/2-x,-y,z
1/2+x,-y,-z
-x,y,-z
-x,-y,-z
1/2+x,y,-z
1/2-x,y,z
x,-y,z
loop_
_atom_site_type_symbol
_atom_site_label
_atom_site_fract_x
_atom_site_fract_y
_atom_site_fract_z
Si Si1 0.484557 0.587539 0.655999
Si Si2 0.060928 0.162440 0.866868
Si Si3 0.858199 0.413860 0.874318
Si Si4 0.250000 0.912370 0.795223
Si Si5 0.860387 0.324319 0.148802
Si Si6 0.944051 0.915974 0.640157
Si Si7 0.750000 0.911125 0.521572
O O1 0.500000 0.609196 0.500000
O O2 0.469895 0.500000 0.658987
O O3 0.573909 0.603770 0.750280
O O4 0.399758 0.628210 0.727559
O O5 0.157090 0.117706 0.863859
O O6 0.088800 0.246841 0.853758
O O7 0.998992 0.134323 0.742836
O O8 0.000000 0.150646 0.000000
O O9 0.750000 0.402511 0.839032
O O10 0.870216 0.500000 0.906639
O O11 0.879329 0.367252 0.008264
O O12 0.250000 0.888044 0.636092
O O13 0.250000 0.000000 0.797253
O O14 0.750000 0.313960 0.159448
O O15 0.841896 0.889048 0.601319
O O16 0.000000 0.918656 0.500000
O O17 0.939213 0.000000 0.692119
O O18 0.750000 0.000000 0.517510
#
# Coordination Sequence:
#
# PCOD9405146 Si02
#       7
#     8   8   8   4   8   8   4
#     4  10  21  37  60  93 128 157 191 243 302 355
#     4  12  25  40  60  89 125 162 201 255 316 368
#     4   9  18  35  62  89 115 156 204 243 284 344
#     4  11  22  41  65  89 122 160 201 255 313 368
#     4  11  23  41  61  83 117 161 208 248 293 355
#     4  10  20  37  64  91 116 155 202 248 301 368
#     4   9  18  37  65  93 117 148 199 251 296 360
#
# _framework density 18.415886
#
# number of rings (size 3 to 8) (size 9 to 14) (size 15 to 20)
#    0.000    1.667    2.500    2.500    0.000    5.667 
#    0.000    2.500    1.833    0.000    0.000    0.000 
#    0.000    0.000    0.000    0.000    0.000    0.000 
#
# Total GULP energy -268134.920392 kJ/mol
# GULP energy per Si atom -5586.144175 kJ/mol
# Density = 1.837397 g / cm^3
# Si number density = 18.415886 Si / 1000 Ang^3
#
#
#
# Elastic Constant Matrix: (Units=GPa)
#
#
# Indices 1 2 3 4 5 6 
#
# 1 155.5349 56.9028 80.1272 0.0000 0.0000 0.0000
# 2 56.9028 69.7288 65.9284 0.0000 0.0000 0.0000
# 3 80.1272 65.9284 143.3858 0.0000 0.0000 0.0000
# 4 0.0000 0.0000 0.0000 3.1807 0.0000 0.0000
# 5 0.0000 0.0000 0.0000 0.0000 17.5744 0.0000
# 6 0.0000 0.0000 0.0000 0.0000 0.0000 17.5938
#
#
#
# Elastic Compliance Matrix: (Units=1/GPa)
#
#
# Indices 1 2 3 4 5 6 
#
# 1 0.009945 -0.005062 -0.003230 0.000000 0.000000 0.000000
# 2 -0.005062 0.027947 -0.010021 0.000000 0.000000 0.000000
# 3 -0.003230 -0.010021 0.013387 0.000000 0.000000 0.000000
# 4 0.000000 0.000000 0.000000 0.314396 0.000000 0.000000
# 5 0.000000 0.000000 0.000000 0.000000 0.056901 0.000000
# 6 0.000000 0.000000 0.000000 0.000000 0.000000 0.056838
#
#
# Mechanical properties :
#
#
# Convention : Reuss Voigt Hill
#
# Bulk Modulus (GPa) = 68.24644 86.06293 77.15469
# Shear Modulus (GPa) = 9.59829 18.71585 14.15707
#
# Velocity S-wave (km/s) = 2.28545 3.19139 2.77563
# Velocity P-wave (km/s) = 6.64103 7.77267 7.22903
#
# Compressibility (1/GPa) = 0.01465278
#
# Stress axis : x y z
#
# Youngs Moduli (GPa) = 100.54811 35.78166 74.69813
#
# Poissons Ratio (x) = 0.18112 0.24130
# Poissons Ratio (y) = 0.50896 0.74858
# Poissons Ratio (z) = 0.32481 0.35858
#
# Static dielectric constant tensor:
#      x y z
#    x 1.651230 0.000000 0.000000 
#    y 0.000000 1.627520 0.000000 
#    z 0.000000 0.000000 1.601490 
# 
# From -- ./inp_files/8334.got.cif
#   From: 2010.05.17/outbox.cif.g08.bks.cpg/sg51_5_cif.got.tgz:8334.got - 2010.06.03 11:52:47.
