data_PCOD9405938
_publ_section_title
;
Structure prediction by ZEFSAII (Michael W. Deem and Ramdas Pophale) SiO2 
 PCOD9405938
Probable space group: P M M A
;
_chemical_formula_sum "Si O2"
_cell_formula_units_Z 64
_cell_length_a 8.301256
_cell_length_b 18.030936
_cell_length_c 21.490718
_cell_angle_alpha 90.000000
_cell_angle_beta 90.000000
_cell_angle_gamma 90.000000
_cell_volume 3216.718112
_symmetry_space_group_name_H-M "P M M A"
_symmetry_group_IT_number 51
_symmetry_cell_setting 'orthorhombic'
loop_
_space_group_symop_operation_xyz
x,y,z
1/2-x,-y,z
1/2+x,-y,-z
-x,y,-z
-x,-y,-z
1/2+x,y,-z
1/2-x,y,z
x,-y,z
loop_
_atom_site_type_symbol
_atom_site_label
_atom_site_fract_x
_atom_site_fract_y
_atom_site_fract_z
Si Si1 0.057407 0.298048 0.432651
Si Si2 0.061897 0.419562 0.911702
Si Si3 0.066684 0.622568 0.215107
Si Si4 0.555968 0.253654 0.065509
Si Si5 0.055844 0.081838 0.704483
Si Si6 0.563987 0.420229 0.340742
Si Si7 0.445512 0.786403 0.796686
Si Si8 0.057487 0.125582 0.431754
O O1 0.250000 0.301184 0.427480
O O2 0.007092 0.212151 0.426987
O O3 0.000000 0.323783 0.500000
O O4 0.978380 0.350866 0.382698
O O5 0.250000 0.420389 0.929460
O O6 0.990358 0.500000 0.929986
O O7 0.992733 0.339484 0.932202
O O8 0.045879 0.412465 0.837342
O O9 0.250000 0.618038 0.192832
O O10 0.044841 0.582947 0.280106
O O11 0.016168 0.707955 0.225243
O O12 0.750000 0.257199 0.066090
O O13 0.509008 0.211938 0.129565
O O14 0.500000 0.220614 0.000000
O O15 0.250000 0.084331 0.705604
O O16 0.999951 0.147190 0.751202
O O17 0.004508 0.090544 0.632392
O O18 0.003396 0.000000 0.726061
O O19 0.750000 0.414868 0.320900
O O20 0.541830 0.500000 0.373052
O O21 0.250000 0.783068 0.793994
O O22 0.250000 0.120873 0.431948
O O23 0.000000 0.097971 0.500000
#
# Coordination Sequence:
#
# PCOD9405938 Si02
#       8
#     8   8   8   8   8   8   8   8
#     4  10  21  37  56  76  98 128 170 216 261 311
#     4   9  18  33  50  69 100 141 179 216 264 320
#     4  11  21  32  50  76 102 130 171 219 263 311
#     4   9  18  32  51  76 104 139 182 225 269 317
#     4  10  21  37  59  86 112 140 176 217 261 311
#     4  11  23  36  50  69  96 133 174 217 268 320
#     4   9  19  37  58  78 106 143 178 215 264 323
#     4  10  21  37  58  84 113 146 180 214 256 309
#
# _framework density 19.896055
#
# number of rings (size 3 to 8) (size 9 to 14) (size 15 to 20)
#    0.000    2.125    0.000    4.125    0.000    9.750 
#    0.000    0.000    0.000    0.375    0.000    0.000 
#    0.000    0.000    0.000    0.000    0.000    0.250 
#
# Total GULP energy -357011.172458 kJ/mol
# GULP energy per Si atom -5578.299570 kJ/mol
# Density = 1.985077 g / cm^3
# Si number density = 19.896055 Si / 1000 Ang^3
#
#
#
# Elastic Constant Matrix: (Units=GPa)
#
#
# Indices 1 2 3 4 5 6 
#
# 1 22.5771 14.6172 6.9798 0.0000 0.0000 0.0000
# 2 14.6172 94.4379 52.3664 0.0000 0.0000 0.0000
# 3 6.9798 52.3664 108.0811 0.0000 0.0000 0.0000
# 4 0.0000 0.0000 0.0000 -30.8304 0.0000 0.0000
# 5 0.0000 0.0000 0.0000 0.0000 27.3201 0.0000
# 6 0.0000 0.0000 0.0000 0.0000 0.0000 -4.0332
#
#
#
# Elastic Compliance Matrix: (Units=1/GPa)
#
#
# Indices 1 2 3 4 5 6 
#
# 1 0.049264 -0.008014 0.000702 0.000000 0.000000 0.000000
# 2 -0.008014 0.015783 -0.007129 0.000000 0.000000 0.000000
# 3 0.000702 -0.007129 0.012661 0.000000 0.000000 0.000000
# 4 0.000000 0.000000 0.000000 -0.032436 0.000000 0.000000
# 5 0.000000 0.000000 0.000000 0.000000 0.036603 0.000000
# 6 0.000000 0.000000 0.000000 0.000000 0.000000 -0.247939
#
#
# Mechanical properties :
#
#
# Convention : Reuss Voigt Hill
#
# Bulk Modulus (GPa) = 20.48159 41.44699 30.96429
# Shear Modulus (GPa) = -41.35495 8.56680 -16.39408
#
# Velocity S-wave (km/s) = -4.56406 2.07729 -2.87363
# Velocity P-wave (km/s) = 4.17822 5.16047 2.14161
#
# Compressibility (1/GPa) = 0.04882433
#
# Stress axis : x y z
#
# Youngs Moduli (GPa) = 20.29861 63.36065 78.98128
#
# Poissons Ratio (x) = 0.50779 -0.05541
# Poissons Ratio (y) = 0.16268 0.56308
# Poissons Ratio (z) = -0.01424 0.45172
#
# Static dielectric constant tensor:
#      x y z
#    x 1.698040 0.000000 0.000000 
#    y 0.000000 1.716440 0.000000 
#    z 0.000000 0.000000 1.706180 
# 
# From -- ./inp_files/32399.got.cif
#   From: 2010.05.17/outbox.cif.g08.bks.cpg/sg51_17_cif.got.tgz:32399.got - 2010.06.03 11:52:47.
