data_PCOD9405578
_publ_section_title
;
Structure prediction by ZEFSAII (Michael W. Deem and Ramdas Pophale) SiO2 
 PCOD9405578
Probable space group: P M M A
;
_chemical_formula_sum "Si O2"
_cell_formula_units_Z 44
_cell_length_a 9.549585
_cell_length_b 7.481356
_cell_length_c 31.650835
_cell_angle_alpha 90.000000
_cell_angle_beta 90.000000
_cell_angle_gamma 90.000000
_cell_volume 2261.257351
_symmetry_space_group_name_H-M "P M M A"
_symmetry_group_IT_number 51
_symmetry_cell_setting 'orthorhombic'
loop_
_space_group_symop_operation_xyz
x,y,z
1/2-x,-y,z
1/2+x,-y,-z
-x,y,-z
-x,-y,-z
1/2+x,y,-z
1/2-x,y,z
x,-y,z
loop_
_atom_site_type_symbol
_atom_site_label
_atom_site_fract_x
_atom_site_fract_y
_atom_site_fract_z
Si Si1 0.087972 0.781510 0.804724
Si Si2 0.417817 0.500000 0.043625
Si Si3 0.920531 0.792517 0.287074
Si Si4 0.410107 0.215547 0.620985
Si Si5 0.408062 0.713066 0.461148
Si Si6 0.583495 0.209816 0.886886
O O1 0.250000 0.728646 0.810251
O O2 0.037067 0.717110 0.758518
O O3 0.996911 0.728860 0.844846
O O4 0.085799 0.000000 0.803074
O O5 0.250000 0.500000 0.036254
O O6 0.452999 0.328770 0.072692
O O7 0.500000 0.500000 0.000000
O O8 0.750000 0.790774 0.286708
O O9 0.959109 0.716127 0.332864
O O10 0.965651 0.000000 0.287132
O O11 0.250000 0.277297 0.612948
O O12 0.511320 0.259340 0.582675
O O13 0.403913 0.000000 0.624225
O O14 0.500000 0.785444 0.500000
O O15 0.250000 0.784840 0.460465
O O16 0.397642 0.500000 0.467350
O O17 0.750000 0.227760 0.879916
O O18 0.552411 0.000000 0.893863
#
# Coordination Sequence:
#
# PCOD9405578 Si02
#       6
#     8   4   8   8   8   8
#     4   8  13  24  46  74 100 128 164 202 236 277
#     4  10  22  38  54  74 102 134 168 210 259 302
#     4   7  11  22  42  69  99 127 155 190 233 280
#     4   9  17  30  50  75 100 126 156 193 240 292
#     4  10  21  36  52  68  88 119 160 202 245 294
#     4   9  18  33  52  74 101 133 168 206 251 303
#
# _framework density 19.458200000000001
#
# number of rings (size 3 to 8) (size 9 to 14) (size 15 to 20)
#    0.000    3.273    0.000    2.727    0.000    2.909 
#    0.000    0.909    2.000    3.273    0.000    0.000 
#    0.000    0.000    0.000    0.000    0.000    0.000 
#
# Total GULP energy -245208.298262 kJ/mol
# GULP energy per Si atom -5572.915870 kJ/mol
# Density = 1.941391 g / cm^3
# Si number density = 19.458200 Si / 1000 Ang^3
#
#
#
# Elastic Constant Matrix: (Units=GPa)
#
#
# Indices 1 2 3 4 5 6 
#
# 1 81.2796 24.5487 101.1789 0.0000 0.0000 0.0000
# 2 24.5487 63.5501 38.9259 0.0000 0.0000 0.0000
# 3 101.1789 38.9259 238.4356 0.0000 0.0000 0.0000
# 4 0.0000 0.0000 0.0000 34.2694 0.0000 0.0000
# 5 0.0000 0.0000 0.0000 0.0000 31.2622 0.0000
# 6 0.0000 0.0000 0.0000 0.0000 0.0000 9.2447
#
#
#
# Elastic Compliance Matrix: (Units=1/GPa)
#
#
# Indices 1 2 3 4 5 6 
#
# 1 0.026869 -0.003773 -0.010786 0.000000 0.000000 0.000000
# 2 -0.003773 0.018014 -0.001340 0.000000 0.000000 0.000000
# 3 -0.010786 -0.001340 0.008990 0.000000 0.000000 0.000000
# 4 0.000000 0.000000 0.000000 0.029181 0.000000 0.000000
# 5 0.000000 0.000000 0.000000 0.000000 0.031988 0.000000
# 6 0.000000 0.000000 0.000000 0.000000 0.000000 0.108170
#
#
# Mechanical properties :
#
#
# Convention : Reuss Voigt Hill
#
# Bulk Modulus (GPa) = 45.29888 79.17472 62.23680
# Shear Modulus (GPa) = 19.05731 29.52937 24.29334
#
# Velocity S-wave (km/s) = 3.13293 3.89984 3.53723
# Velocity P-wave (km/s) = 6.03470 7.81385 6.98119
#
# Compressibility (1/GPa) = 0.02207560
#
# Stress axis : x y z
#
# Youngs Moduli (GPa) = 37.21730 55.51334 111.23848
#
# Poissons Ratio (x) = 0.20943 1.19981
# Poissons Ratio (y) = 0.14041 0.14905
# Poissons Ratio (z) = 0.40142 0.07438
#
# Static dielectric constant tensor:
#      x y z
#    x 1.651000 0.000000 0.000000 
#    y 0.000000 1.766140 0.000000 
#    z 0.000000 0.000000 1.684030 
# 
# From -- ./inp_files/36765.got.cif
#   From: 2010.05.17/outbox.cif.g08.bks.cpg/sg51_19_cif.got.tgz:36765.got - 2010.06.03 11:52:47.
