data_PCOD9405298
_publ_section_title
;
Structure prediction by ZEFSAII (Michael W. Deem and Ramdas Pophale) SiO2 
 PCOD9405298
Probable space group: P M M A
;
_chemical_formula_sum "Si O2"
_cell_formula_units_Z 44
_cell_length_a 7.487400
_cell_length_b 30.346085
_cell_length_c 9.286822
_cell_angle_alpha 90.000000
_cell_angle_beta 90.000000
_cell_angle_gamma 90.000000
_cell_volume 2110.089258
_symmetry_space_group_name_H-M "P M M A"
_symmetry_group_IT_number 51
_symmetry_cell_setting 'orthorhombic'
loop_
_space_group_symop_operation_xyz
x,y,z
1/2-x,-y,z
1/2+x,-y,-z
-x,y,-z
-x,-y,-z
1/2+x,y,-z
1/2-x,y,z
x,-y,z
loop_
_atom_site_type_symbol
_atom_site_label
_atom_site_fract_x
_atom_site_fract_y
_atom_site_fract_z
Si Si1 0.963622 0.817462 0.828554
Si Si2 0.535620 0.278217 0.829513
Si Si3 0.964149 0.635082 0.668703
Si Si4 0.035816 0.000000 0.331039
Si Si5 0.035600 0.086798 0.170560
Si Si6 0.464040 0.451159 0.169168
O O1 0.750000 0.817467 0.806873
O O2 0.032575 0.769832 0.777513
O O3 0.032619 0.865117 0.777874
O O4 0.000000 0.817436 0.000000
O O5 0.750000 0.277240 0.812324
O O6 0.466137 0.320731 0.745543
O O7 0.500000 0.282647 0.000000
O O8 0.750000 0.634995 0.690130
O O9 0.033921 0.590127 0.740684
O O10 0.000000 0.635910 0.500000
O O11 0.966330 0.044480 0.255756
O O12 0.000000 0.000000 0.500000
O O13 0.250000 0.000000 0.310146
O O14 0.250000 0.087812 0.187403
O O15 0.000000 0.082136 0.000000
O O16 0.250000 0.452408 0.187798
O O17 0.533038 0.500000 0.208640
O O18 0.500000 0.444305 0.000000
#
# Coordination Sequence:
#
# PCOD9405298 Si02
#       6
#     8   8   8   4   8   8
#     4   8  14  26  45  68  92 115 143 184 229 269
#     4   9  17  30  49  71  93 119 152 189 228 270
#     4  10  21  34  47  67  96 127 157 189 226 269
#     4  10  21  34  46  64  92 124 155 186 224 270
#     4   9  17  30  49  71  92 116 149 188 229 272
#     4   9  18  33  52  73  95 119 151 191 232 274
#
# _framework density 20.852197
#
# number of rings (size 3 to 8) (size 9 to 14) (size 15 to 20)
#    0.000    2.909    0.000    0.818    0.000    2.545 
#    0.000    0.909    0.000    0.000    0.000    0.000 
#    0.000    0.000    0.000    0.000    0.000    0.000 
#
# Total GULP energy -245322.095265 kJ/mol
# GULP energy per Si atom -5575.502165 kJ/mol
# Density = 2.080474 g / cm^3
# Si number density = 20.852197 Si / 1000 Ang^3
#
#
#
# Elastic Constant Matrix: (Units=GPa)
#
#
# Indices 1 2 3 4 5 6 
#
# 1 62.7588 14.7821 -7.3712 0.0000 0.0000 0.0000
# 2 14.7821 298.2043 115.8053 0.0000 0.0000 0.0000
# 3 -7.3712 115.8053 81.6808 0.0000 0.0000 0.0000
# 4 0.0000 0.0000 0.0000 -10.1955 0.0000 0.0000
# 5 0.0000 0.0000 0.0000 0.0000 21.3992 0.0000
# 6 0.0000 0.0000 0.0000 0.0000 0.0000 -8.2998
#
#
#
# Elastic Compliance Matrix: (Units=1/GPa)
#
#
# Indices 1 2 3 4 5 6 
#
# 1 0.017439 -0.003283 0.006229 0.000000 0.000000 0.000000
# 2 -0.003283 0.008080 -0.011752 0.000000 0.000000 0.000000
# 3 0.006229 -0.011752 0.029466 0.000000 0.000000 0.000000
# 4 0.000000 0.000000 0.000000 -0.098083 0.000000 0.000000
# 5 0.000000 0.000000 0.000000 0.000000 0.046731 0.000000
# 6 0.000000 0.000000 0.000000 0.000000 0.000000 -0.120484
#
#
# Mechanical properties :
#
#
# Convention : Reuss Voigt Hill
#
# Bulk Modulus (GPa) = 26.75758 76.56405 51.66081
# Shear Modulus (GPa) = -57.61614 21.87596 -17.87009
#
# Velocity S-wave (km/s) = -5.26220 3.24249 -2.93061
# Velocity P-wave (km/s) = 4.90521 7.12850 3.65749
#
# Compressibility (1/GPa) = 0.03737259
#
# Stress axis : x y z
#
# Youngs Moduli (GPa) = 57.34278 123.76429 33.93705
#
# Poissons Ratio (x) = 0.40637 -0.21139
# Poissons Ratio (y) = 0.18828 0.39882
# Poissons Ratio (z) = -0.35718 1.45445
#
# Static dielectric constant tensor:
#      x y z
#    x 1.755260 0.000000 0.000000 
#    y 0.000000 1.822130 0.000000 
#    z 0.000000 0.000000 1.659240 
# 
# From -- ./inp_files/5760.got.cif
#   From: 2010.05.17/outbox.cif.g08.bks.cpg/sg51_3_cif.got.tgz:5760.got - 2010.06.03 11:52:47.
