data_PCOD9405784
_publ_section_title
;
Structure prediction by ZEFSAII (Michael W. Deem and Ramdas Pophale) SiO2 
 PCOD9405784
Probable space group: P M M A
;
_chemical_formula_sum "Si O2"
_cell_formula_units_Z 48
_cell_length_a 10.088845
_cell_length_b 8.711986
_cell_length_c 29.530643
_cell_angle_alpha 90.000000
_cell_angle_beta 90.000000
_cell_angle_gamma 90.000000
_cell_volume 2595.562686
_symmetry_space_group_name_H-M "P M M A"
_symmetry_group_IT_number 51
_symmetry_cell_setting 'orthorhombic'
loop_
_space_group_symop_operation_xyz
x,y,z
1/2-x,-y,z
1/2+x,-y,-z
-x,y,-z
-x,-y,-z
1/2+x,y,-z
1/2-x,y,z
x,-y,z
loop_
_atom_site_type_symbol
_atom_site_label
_atom_site_fract_x
_atom_site_fract_y
_atom_site_fract_z
Si Si1 0.099854 0.815205 0.277749
Si Si2 0.520478 0.315614 0.102683
Si Si3 0.250000 0.184344 0.065578
Si Si4 0.400277 0.314979 0.795547
Si Si5 0.097618 0.814586 0.382795
Si Si6 0.250000 0.815961 0.959665
Si Si7 0.905243 0.314517 0.458138
O O1 0.250000 0.767705 0.266083
O O2 0.076168 0.771640 0.330174
O O3 0.997642 0.747315 0.242442
O O4 0.094271 0.000000 0.275947
O O5 0.523781 0.500000 0.100799
O O6 0.378124 0.252313 0.089580
O O7 0.559251 0.267801 0.153636
O O8 0.623777 0.249424 0.066608
O O9 0.250000 0.000000 0.068323
O O10 0.250000 0.227543 0.012434
O O11 0.250000 0.264088 0.786874
O O12 0.403453 0.500000 0.794600
O O13 0.250000 0.768260 0.395325
O O14 0.984044 0.744513 0.414172
O O15 0.093018 0.000000 0.385918
O O16 0.250000 0.000000 0.957141
O O17 0.750000 0.263937 0.461212
O O18 0.903186 0.500000 0.457699
O O19 0.000000 0.265645 0.500000
#
# Coordination Sequence:
#
# PCOD9405784 Si02
#       7
#     8   8   4   8   8   4   8
#     4   9  20  38  59  85 114 146 187 233 280 336
#     4  11  23  41  62  86 117 154 194 236 286 347
#     4  11  25  41  59  89 121 149 189 241 290 341
#     4  10  22  40  58  81 114 148 185 232 281 333
#     4   9  19  37  58  81 113 149 187 233 283 337
#     4  11  23  41  63  87 119 153 189 237 290 343
#     4  10  21  36  55  81 113 150 193 239 285 337
#
# _framework density 18.493100999999999
#
# number of rings (size 3 to 8) (size 9 to 14) (size 15 to 20)
#    0.000    2.000    0.833    3.000    1.167    8.333 
#    0.000    5.000    0.000    0.000    0.000    0.000 
#    0.000    0.000    0.000    0.000    0.000    0.000 
#
# Total GULP energy -268021.904011 kJ/mol
# GULP energy per Si atom -5583.789667 kJ/mol
# Density = 1.845101 g / cm^3
# Si number density = 18.493101 Si / 1000 Ang^3
#
#
#
# Elastic Constant Matrix: (Units=GPa)
#
#
# Indices 1 2 3 4 5 6 
#
# 1 196.6739 36.5904 107.4611 0.0000 0.0000 0.0000
# 2 36.5904 18.6971 31.7379 0.0000 0.0000 0.0000
# 3 107.4611 31.7379 127.9670 0.0000 0.0000 0.0000
# 4 0.0000 0.0000 0.0000 36.3619 0.0000 0.0000
# 5 0.0000 0.0000 0.0000 0.0000 41.6408 0.0000
# 6 0.0000 0.0000 0.0000 0.0000 0.0000 36.5763
#
#
#
# Elastic Compliance Matrix: (Units=1/GPa)
#
#
# Indices 1 2 3 4 5 6 
#
# 1 0.010277 -0.009434 -0.006290 0.000000 0.000000 0.000000
# 2 -0.009434 0.101034 -0.017136 0.000000 0.000000 0.000000
# 3 -0.006290 -0.017136 0.017346 0.000000 0.000000 0.000000
# 4 0.000000 0.000000 0.000000 0.027501 0.000000 0.000000
# 5 0.000000 0.000000 0.000000 0.000000 0.024015 0.000000
# 6 0.000000 0.000000 0.000000 0.000000 0.000000 0.027340
#
#
# Mechanical properties :
#
#
# Convention : Reuss Voigt Hill
#
# Bulk Modulus (GPa) = 15.88875 77.21299 46.55087
# Shear Modulus (GPa) = 16.99452 34.08571 25.54012
#
# Velocity S-wave (km/s) = 3.03473 4.29786 3.72030
# Velocity P-wave (km/s) = 4.57054 8.15302 6.60915
#
# Compressibility (1/GPa) = 0.06293761
#
# Stress axis : x y z
#
# Youngs Moduli (GPa) = 97.30896 9.89763 57.64872
#
# Poissons Ratio (x) = 0.09338 0.36261
# Poissons Ratio (y) = 0.91804 0.98785
# Poissons Ratio (z) = 0.61207 0.16960
#
# Static dielectric constant tensor:
#      x y z
#    x 1.592720 0.000000 0.000000 
#    y 0.000000 1.626050 0.000000 
#    z 0.000000 0.000000 1.617750 
# 
# From -- ./inp_files/37148.got.cif
#   From: 2010.05.17/outbox.cif.g08.bks.cpg/sg51_19_cif.got.tgz:37148.got - 2010.06.03 11:52:47.
