data_PCOD9405126
_publ_section_title
;
Structure prediction by ZEFSAII (Michael W. Deem and Ramdas Pophale) SiO2 
 PCOD9405126
Probable space group: P M M A
;
_chemical_formula_sum "Si O2"
_cell_formula_units_Z 38
_cell_length_a 8.760205
_cell_length_b 25.395231
_cell_length_c 9.151220
_cell_angle_alpha 90.000000
_cell_angle_beta 90.000000
_cell_angle_gamma 90.000000
_cell_volume 2035.848391
_symmetry_space_group_name_H-M "P M M A"
_symmetry_group_IT_number 51
_symmetry_cell_setting 'orthorhombic'
loop_
_space_group_symop_operation_xyz
x,y,z
1/2-x,-y,z
1/2+x,-y,-z
-x,y,-z
-x,-y,-z
1/2+x,y,-z
1/2-x,y,z
x,-y,z
loop_
_atom_site_type_symbol
_atom_site_label
_atom_site_fract_x
_atom_site_fract_y
_atom_site_fract_z
Si Si1 0.566202 0.100152 0.336487
Si Si2 0.417461 0.395072 0.844958
Si Si3 0.431348 0.694894 0.339723
Si Si4 0.566210 0.800731 0.837150
Si Si5 0.750000 0.500000 0.227971
Si Si6 0.434145 0.000000 0.163723
O O1 0.500000 0.098990 0.500000
O O2 0.750000 0.097472 0.338797
O O3 0.509831 0.153100 0.257212
O O4 0.497212 0.051101 0.247549
O O5 0.250000 0.370141 0.870979
O O6 0.507307 0.358066 0.734894
O O7 0.380584 0.452888 0.782268
O O8 0.500000 0.399759 0.000000
O O9 0.500000 0.701913 0.500000
O O10 0.250000 0.691942 0.352242
O O11 0.469322 0.744770 0.237953
O O12 0.750000 0.807544 0.839583
O O13 0.500000 0.802253 0.000000
O O14 0.250000 0.000000 0.161677
O O15 0.500000 0.000000 0.000000
#
# Coordination Sequence:
#
# PCOD9405126 Si02
#       6
#     8   8   8   8   2   4
#     4  12  25  43  66  95 131 170 215 263 320 378
#     4  10  20  37  62  89 123 155 203 248 304 362
#     4  11  24  41  63  90 124 164 206 255 313 373
#     4  11  24  42  65  95 127 163 209 259 314 374
#     4   8  22  36  64  90 126 156 206 248 310 356
#     4  12  25  44  67  94 130 174 220 268 319 372
#
# _framework density 18.665438000000002
#
# number of rings (size 3 to 8) (size 9 to 14) (size 15 to 20)
#    0.632    0.421    0.000    7.263    0.000    6.737 
#    0.000    0.526    0.000    0.000    0.000    0.000 
#    0.000    0.000    0.000    0.000    0.000    0.000 
#
# Total GULP energy -211830.989613 kJ/mol
# GULP energy per Si atom -5574.499727 kJ/mol
# Density = 1.862296 g / cm^3
# Si number density = 18.665438 Si / 1000 Ang^3
#
#
#
# Elastic Constant Matrix: (Units=GPa)
#
#
# Indices 1 2 3 4 5 6 
#
# 1 129.9636 85.0692 71.5448 0.0000 0.0000 0.0000
# 2 85.0692 147.7281 109.0205 0.0000 0.0000 0.0000
# 3 71.5448 109.0205 154.3560 0.0000 0.0000 0.0000
# 4 0.0000 0.0000 0.0000 20.6340 0.0000 0.0000
# 5 0.0000 0.0000 0.0000 0.0000 32.2070 0.0000
# 6 0.0000 0.0000 0.0000 0.0000 0.0000 46.7573
#
#
#
# Elastic Compliance Matrix: (Units=1/GPa)
#
#
# Indices 1 2 3 4 5 6 
#
# 1 0.012510 -0.006109 -0.001484 0.000000 0.000000 0.000000
# 2 -0.006109 0.017122 -0.009262 0.000000 0.000000 0.000000
# 3 -0.001484 -0.009262 0.013708 0.000000 0.000000 0.000000
# 4 0.000000 0.000000 0.000000 0.048464 0.000000 0.000000
# 5 0.000000 0.000000 0.000000 0.000000 0.031049 0.000000
# 6 0.000000 0.000000 0.000000 0.000000 0.000000 0.021387
#
#
# Mechanical properties :
#
#
# Convention : Reuss Voigt Hill
#
# Bulk Modulus (GPa) = 103.83095 107.03520 105.43308
# Shear Modulus (GPa) = 27.60023 31.01386 29.30704
#
# Velocity S-wave (km/s) = 3.84953 4.08065 3.96678
# Velocity P-wave (km/s) = 8.68946 8.92585 8.80845
#
# Compressibility (1/GPa) = 0.00963104
#
# Stress axis : x y z
#
# Youngs Moduli (GPa) = 79.93685 58.40511 72.95208
#
# Poissons Ratio (x) = 0.35679 0.10825
# Poissons Ratio (y) = 0.48832 0.67565
# Poissons Ratio (z) = 0.11861 0.54092
#
# Static dielectric constant tensor:
#      x y z
#    x 1.637060 0.000000 0.000000 
#    y 0.000000 1.617670 0.000000 
#    z 0.000000 0.000000 1.597730 
# 
# From -- ./inp_files/5308.got.cif
#   From: 2010.05.17/outbox.cif.g08.bks.cpg/sg51_3_cif.got.tgz:5308.got - 2010.06.03 11:52:47.
