data_PCOD9405532
_publ_section_title
;
Structure prediction by ZEFSAII (Michael W. Deem and Ramdas Pophale) SiO2 
 PCOD9405532
Probable space group: P M M A
;
_chemical_formula_sum "Si O2"
_cell_formula_units_Z 48
_cell_length_a 19.775623
_cell_length_b 7.656293
_cell_length_c 17.065805
_cell_angle_alpha 90.000000
_cell_angle_beta 90.000000
_cell_angle_gamma 90.000000
_cell_volume 2583.898788
_symmetry_space_group_name_H-M "P M M A"
_symmetry_group_IT_number 51
_symmetry_cell_setting 'orthorhombic'
loop_
_space_group_symop_operation_xyz
x,y,z
1/2-x,-y,z
1/2+x,-y,-z
-x,y,-z
-x,-y,-z
1/2+x,y,-z
1/2-x,y,z
x,-y,z
loop_
_atom_site_type_symbol
_atom_site_label
_atom_site_fract_x
_atom_site_fract_y
_atom_site_fract_z
Si Si1 0.828431 0.711479 0.134650
Si Si2 0.898022 0.500000 0.555041
Si Si3 0.943356 0.797845 0.255577
Si Si4 0.325885 0.291484 0.041912
Si Si5 0.448291 0.500000 0.618060
Si Si6 0.087346 0.791365 0.191633
Si Si7 0.669561 0.206688 0.654770
O O1 0.750000 0.756069 0.150200
O O2 0.833831 0.500000 0.137657
O O3 0.880084 0.785647 0.197417
O O4 0.843961 0.770960 0.045528
O O5 0.905770 0.500000 0.461745
O O6 0.859839 0.670905 0.587141
O O7 0.973119 0.500000 0.592371
O O8 0.934592 0.669814 0.328884
O O9 0.010765 0.735227 0.209174
O O10 0.953369 0.000000 0.279610
O O11 0.250000 0.225436 0.062498
O O12 0.320674 0.500000 0.035334
O O13 0.379780 0.256994 0.109206
O O14 0.134393 0.734384 0.264077
O O15 0.086939 0.000000 0.193207
O O16 0.750000 0.226490 0.660943
O O17 0.654757 0.000000 0.642608
#
# Coordination Sequence:
#
# PCOD9405532 Si02
#       7
#     8   4   8   8   4   8   8
#     4   9  19  38  60  83 116 157 204 255 299 344
#     4  11  23  40  66  91 114 156 202 233 299 368
#     4  11  23  40  62  89 120 155 199 246 299 357
#     4   9  19  33  53  84 118 158 204 245 291 345
#     4  11  24  42  64  90 118 150 194 252 298 351
#     4  10  21  35  53  83 121 157 197 241 286 348
#     4  10  21  38  60  90 127 160 194 241 295 354
#
# _framework density 18.576578999999999
#
# number of rings (size 3 to 8) (size 9 to 14) (size 15 to 20)
#    0.000    2.000    2.500    1.750    2.333    3.333 
#    0.000    8.333    0.000    0.000    0.000    0.000 
#    0.000    0.000    0.000    0.000    0.000    0.000 
#
# Total GULP energy -267937.160208 kJ/mol
# GULP energy per Si atom -5582.024171 kJ/mol
# Density = 1.853430 g / cm^3
# Si number density = 18.576579 Si / 1000 Ang^3
#
#
#
# Elastic Constant Matrix: (Units=GPa)
#
#
# Indices 1 2 3 4 5 6 
#
# 1 99.0709 40.6046 80.5018 0.0000 0.0000 0.0000
# 2 40.6046 76.1824 51.3525 0.0000 0.0000 0.0000
# 3 80.5018 51.3525 147.8598 0.0000 0.0000 0.0000
# 4 0.0000 0.0000 0.0000 -31.9376 0.0000 0.0000
# 5 0.0000 0.0000 0.0000 0.0000 29.7798 0.0000
# 6 0.0000 0.0000 0.0000 0.0000 0.0000 20.6665
#
#
#
# Elastic Compliance Matrix: (Units=1/GPa)
#
#
# Indices 1 2 3 4 5 6 
#
# 1 0.019047 -0.004128 -0.008936 0.000000 0.000000 0.000000
# 2 -0.004128 0.018033 -0.004016 0.000000 0.000000 0.000000
# 3 -0.008936 -0.004016 0.013023 0.000000 0.000000 0.000000
# 4 0.000000 0.000000 0.000000 -0.031311 0.000000 0.000000
# 5 0.000000 0.000000 0.000000 0.000000 0.033580 0.000000
# 6 0.000000 0.000000 0.000000 0.000000 0.000000 0.048387
#
#
# Mechanical properties :
#
#
# Convention : Reuss Voigt Hill
#
# Bulk Modulus (GPa) = 62.72142 74.22564 68.47353
# Shear Modulus (GPa) = 35.65448 13.74537 24.69993
#
# Velocity S-wave (km/s) = 4.38576 2.72312 3.65036
# Velocity P-wave (km/s) = 7.71256 7.06615 7.39642
#
# Compressibility (1/GPa) = 0.01594352
#
# Stress axis : x y z
#
# Youngs Moduli (GPa) = 52.50116 55.45256 76.78606
#
# Poissons Ratio (x) = 0.22892 0.68619
# Poissons Ratio (y) = 0.21673 0.30834
# Poissons Ratio (z) = 0.46917 0.22267
#
# Static dielectric constant tensor:
#      x y z
#    x 1.639640 0.000000 0.000000 
#    y 0.000000 1.661050 0.000000 
#    z 0.000000 0.000000 1.618550 
# 
# From -- ./inp_files/24989.got.cif
#   From: 2010.05.17/outbox.cif.g08.bks.cpg/sg51_13_cif.got.tgz:24989.got - 2010.06.03 11:52:47.
