data_PCOD9405883
_publ_section_title
;
Structure prediction by ZEFSAII (Michael W. Deem and Ramdas Pophale) SiO2 
 PCOD9405883
Probable space group: P M M A
;
_chemical_formula_sum "Si O2"
_cell_formula_units_Z 52
_cell_length_a 8.928763
_cell_length_b 15.417814
_cell_length_c 23.801714
_cell_angle_alpha 90.000000
_cell_angle_beta 90.000000
_cell_angle_gamma 90.000000
_cell_volume 3276.591724
_symmetry_space_group_name_H-M "P M M A"
_symmetry_group_IT_number 51
_symmetry_cell_setting 'orthorhombic'
loop_
_space_group_symop_operation_xyz
x,y,z
1/2-x,-y,z
1/2+x,-y,-z
-x,y,-z
-x,-y,-z
1/2+x,y,-z
1/2-x,y,z
x,-y,z
loop_
_atom_site_type_symbol
_atom_site_label
_atom_site_fract_x
_atom_site_fract_y
_atom_site_fract_z
Si Si1 0.427556 0.170245 0.889382
Si Si2 0.426026 0.353971 0.941440
Si Si3 0.429466 0.767206 0.226969
Si Si4 0.567755 0.102083 0.317515
Si Si5 0.928833 0.400509 0.184784
Si Si6 0.428261 0.000000 0.060902
Si Si7 0.079176 0.105209 0.556462
O O1 0.250000 0.155632 0.882251
O O2 0.445128 0.250383 0.932476
O O3 0.501790 0.197502 0.831105
O O4 0.510284 0.085177 0.909374
O O5 0.250000 0.373894 0.945303
O O6 0.478723 0.391466 0.880995
O O7 0.500000 0.381575 0.000000
O O8 0.250000 0.770237 0.227265
O O9 0.495594 0.829441 0.275150
O O10 0.487295 0.667736 0.224588
O O11 0.750000 0.107217 0.315308
O O12 0.517937 0.124279 0.381404
O O13 0.530100 0.000000 0.305927
O O14 0.750000 0.379673 0.184945
O O15 0.948565 0.500000 0.201818
O O16 0.250000 0.000000 0.058394
O O17 0.500000 0.000000 0.000000
O O18 0.250000 0.135178 0.555062
O O19 0.000000 0.136675 0.500000
O O20 0.080255 0.000000 0.554063
#
# Coordination Sequence:
#
# PCOD9405883 Si02
#       7
#     8   8   8   8   8   4   8
#     4  10  21  37  52  65  88 125 161 197 241 288
#     4   9  18  31  49  71  92 115 145 182 230 286
#     4  11  22  34  50  74 101 125 158 207 253 293
#     4   9  18  32  49  69  98 139 178 205 236 287
#     4   9  19  37  56  71  92 125 161 194 238 302
#     4  12  24  36  50  70  92 118 157 200 243 292
#     4   8  14  25  42  65  94 130 170 207 241 277
#
# _framework density 15.870149
#
# number of rings (size 3 to 8) (size 9 to 14) (size 15 to 20)
#    0.000    2.462    0.000    4.846    1.077    5.846 
#    0.000    1.538    0.000    0.000    0.000    0.000 
#    0.000    0.615    0.000    2.000    0.000    2.462 
#
# Total GULP energy -289758.896899 kJ/mol
# GULP energy per Si atom -5572.286479 kJ/mol
# Density = 1.583403 g / cm^3
# Si number density = 15.870149 Si / 1000 Ang^3
#
#
#
# Elastic Constant Matrix: (Units=GPa)
#
#
# Indices 1 2 3 4 5 6 
#
# 1 74.8102 45.0493 42.3047 0.0000 0.0000 0.0000
# 2 45.0493 78.7842 37.2873 0.0000 0.0000 0.0000
# 3 42.3047 37.2873 99.1679 0.0000 0.0000 0.0000
# 4 0.0000 0.0000 0.0000 0.6143 0.0000 0.0000
# 5 0.0000 0.0000 0.0000 0.0000 25.6624 0.0000
# 6 0.0000 0.0000 0.0000 0.0000 0.0000 15.7334
#
#
#
# Elastic Compliance Matrix: (Units=1/GPa)
#
#
# Indices 1 2 3 4 5 6 
#
# 1 0.022910 -0.010309 -0.005897 0.000000 0.000000 0.000000
# 2 -0.010309 0.020079 -0.003152 0.000000 0.000000 0.000000
# 3 -0.005897 -0.003152 0.013785 0.000000 0.000000 0.000000
# 4 0.000000 0.000000 0.000000 1.627961 0.000000 0.000000
# 5 0.000000 0.000000 0.000000 0.000000 0.038967 0.000000
# 6 0.000000 0.000000 0.000000 0.000000 0.000000 0.063559
#
#
# Mechanical properties :
#
#
# Convention : Reuss Voigt Hill
#
# Bulk Modulus (GPa) = 55.37799 55.78277 55.58038
# Shear Modulus (GPa) = 2.72926 16.94342 9.83634
#
# Velocity S-wave (km/s) = 1.31281 3.27100 2.49228
# Velocity P-wave (km/s) = 6.10477 7.03504 6.58635
#
# Compressibility (1/GPa) = 0.01805772
#
# Stress axis : x y z
#
# Youngs Moduli (GPa) = 43.64945 49.80205 72.54375
#
# Poissons Ratio (x) = 0.51341 0.42779
# Poissons Ratio (y) = 0.44998 0.22867
# Poissons Ratio (z) = 0.25740 0.15698
#
# Static dielectric constant tensor:
#      x y z
#    x 1.533630 0.000000 0.000000 
#    y 0.000000 1.491300 0.000000 
#    z 0.000000 0.000000 1.526320 
# 
# From -- ./inp_files/31732.got.cif
#   From: 2010.05.17/outbox.cif.g08.bks.cpg/sg51_16_cif.got.tgz:31732.got - 2010.06.03 11:52:47.
