data_PCOD9405687
_publ_section_title
;
Structure prediction by ZEFSAII (Michael W. Deem and Ramdas Pophale) SiO2 
 PCOD9405687
Probable space group: P M M A
;
_chemical_formula_sum "Si O2"
_cell_formula_units_Z 48
_cell_length_a 9.701758
_cell_length_b 7.589258
_cell_length_c 31.932651
_cell_angle_alpha 90.000000
_cell_angle_beta 90.000000
_cell_angle_gamma 90.000000
_cell_volume 2351.173775
_symmetry_space_group_name_H-M "P M M A"
_symmetry_group_IT_number 51
_symmetry_cell_setting 'orthorhombic'
loop_
_space_group_symop_operation_xyz
x,y,z
1/2-x,-y,z
1/2+x,-y,-z
-x,y,-z
-x,-y,-z
1/2+x,y,-z
1/2-x,y,z
x,-y,z
loop_
_atom_site_type_symbol
_atom_site_label
_atom_site_fract_x
_atom_site_fract_y
_atom_site_fract_z
Si Si1 0.090873 0.284457 0.960086
Si Si2 0.594273 0.709126 0.537458
Si Si3 0.589901 0.714952 0.881634
Si Si4 0.091288 0.212697 0.616605
Si Si5 0.094887 0.211111 0.709911
Si Si6 0.905123 0.289019 0.788457
O O1 0.250000 0.227555 0.962376
O O2 0.092353 0.500000 0.960032
O O3 0.012762 0.226249 0.917947
O O4 0.000000 0.230215 0.000000
O O5 0.500000 0.783349 0.500000
O O6 0.750000 0.781259 0.538373
O O7 0.606316 0.500000 0.530023
O O8 0.513550 0.731251 0.580888
O O9 0.750000 0.766246 0.888880
O O10 0.588440 0.500000 0.882494
O O11 0.548964 0.772651 0.834664
O O12 0.250000 0.270431 0.608581
O O13 0.050828 0.272956 0.663541
O O14 0.092863 0.000000 0.616401
O O15 0.250000 0.277505 0.717310
O O16 0.999492 0.250643 0.749033
O O17 0.101580 0.000000 0.706966
O O18 0.750000 0.221974 0.781401
O O19 0.897863 0.500000 0.791629
#
# Coordination Sequence:
#
# PCOD9405687 Si02
#       6
#     8   8   8   8   8   8
#     4   9  15  21  31  49  74 107 146 184 224 273
#     4  10  21  36  54  77 104 133 164 198 237 282
#     4   8  14  25  38  53  79 113 146 184 229 274
#     4   9  19  36  55  74  98 129 164 201 241 284
#     4   9  19  35  52  71  97 128 162 200 240 283
#     4   9  18  31  47  69  96 125 158 197 241 288
#
# _framework density 20.415334999999999
#
# number of rings (size 3 to 8) (size 9 to 14) (size 15 to 20)
#    0.000    3.000    0.000    3.000    0.000    6.333 
#    0.000    6.667    0.000    0.000    0.000    0.000 
#    0.000    0.667    0.000    2.167    0.000    4.833 
#
# Total GULP energy -267733.336638 kJ/mol
# GULP energy per Si atom -5577.777847 kJ/mol
# Density = 2.036887 g / cm^3
# Si number density = 20.415335 Si / 1000 Ang^3
#
#
#
# Elastic Constant Matrix: (Units=GPa)
#
#
# Indices 1 2 3 4 5 6 
#
# 1 170.1911 5.7705 153.5108 0.0000 0.0000 0.0000
# 2 5.7705 40.8350 2.0063 0.0000 0.0000 0.0000
# 3 153.5108 2.0063 225.5099 0.0000 0.0000 0.0000
# 4 0.0000 0.0000 0.0000 31.0862 0.0000 0.0000
# 5 0.0000 0.0000 0.0000 0.0000 40.8556 0.0000
# 6 0.0000 0.0000 0.0000 0.0000 0.0000 20.1990
#
#
#
# Elastic Compliance Matrix: (Units=1/GPa)
#
#
# Indices 1 2 3 4 5 6 
#
# 1 0.015333 -0.001655 -0.010423 0.000000 0.000000 0.000000
# 2 -0.001655 0.024678 0.000907 0.000000 0.000000 0.000000
# 3 -0.010423 0.000907 0.011522 0.000000 0.000000 0.000000
# 4 0.000000 0.000000 0.000000 0.032169 0.000000 0.000000
# 5 0.000000 0.000000 0.000000 0.000000 0.024476 0.000000
# 6 0.000000 0.000000 0.000000 0.000000 0.000000 0.049507
#
#
# Mechanical properties :
#
#
# Convention : Reuss Voigt Hill
#
# Bulk Modulus (GPa) = 34.25697 84.34569 59.30133
# Shear Modulus (GPa) = 26.34932 36.77806 31.56369
#
# Velocity S-wave (km/s) = 3.59648 4.24900 3.93628
# Velocity P-wave (km/s) = 5.83632 8.09176 7.05476
#
# Compressibility (1/GPa) = 0.02919114
#
# Stress axis : x y z
#
# Youngs Moduli (GPa) = 65.21679 40.52180 86.79287
#
# Poissons Ratio (x) = 0.06705 0.90466
# Poissons Ratio (y) = 0.10791 -0.07871
# Poissons Ratio (z) = 0.67977 -0.03675
#
# Static dielectric constant tensor:
#      x y z
#    x 1.706960 0.000000 0.000000 
#    y 0.000000 1.785670 0.000000 
#    z 0.000000 0.000000 1.717130 
# 
# From -- ./inp_files/37049.got.cif
#   From: 2010.05.17/outbox.cif.g08.bks.cpg/sg51_19_cif.got.tgz:37049.got - 2010.06.03 11:52:47.
