data_PCOD9405199
_publ_section_title
;
Structure prediction by ZEFSAII (Michael W. Deem and Ramdas Pophale) SiO2 
 PCOD9405199
Probable space group: P M M A
;
_chemical_formula_sum "Si O2"
_cell_formula_units_Z 48
_cell_length_a 16.390401
_cell_length_b 7.985440
_cell_length_c 18.312592
_cell_angle_alpha 90.000000
_cell_angle_beta 90.000000
_cell_angle_gamma 90.000000
_cell_volume 2396.835615
_symmetry_space_group_name_H-M "P M M A"
_symmetry_group_IT_number 51
_symmetry_cell_setting 'orthorhombic'
loop_
_space_group_symop_operation_xyz
x,y,z
1/2-x,-y,z
1/2+x,-y,-z
-x,y,-z
-x,-y,-z
1/2+x,y,-z
1/2-x,y,z
x,-y,z
loop_
_atom_site_type_symbol
_atom_site_label
_atom_site_fract_x
_atom_site_fract_y
_atom_site_fract_z
Si Si1 0.957450 0.308559 0.578230
Si Si2 0.076600 0.301345 0.710448
Si Si3 0.568647 0.313535 0.810109
Si Si4 0.592217 0.800227 0.970837
Si Si5 0.750000 0.702699 0.237739
Si Si6 0.160801 0.000000 0.421490
Si Si7 0.750000 0.798062 0.067058
Si Si8 0.837435 0.000000 0.750936
O O1 0.930649 0.500000 0.598005
O O2 0.888200 0.170695 0.565234
O O3 0.000000 0.320585 0.500000
O O4 0.019886 0.246060 0.642239
O O5 0.086062 0.500000 0.697471
O O6 0.167021 0.232084 0.724064
O O7 0.024869 0.282286 0.785429
O O8 0.589168 0.500000 0.784199
O O9 0.589909 0.296290 0.894626
O O10 0.617178 0.167622 0.771747
O O11 0.603406 0.000000 0.956545
O O12 0.500000 0.779646 0.000000
O O13 0.666781 0.747020 0.023841
O O14 0.750000 0.500000 0.243827
O O15 0.750000 0.740448 0.151108
O O16 0.170349 0.000000 0.334825
O O17 0.250000 0.000000 0.457007
O O18 0.750000 0.000000 0.068094
O O19 0.750000 0.000000 0.788897
#
# Coordination Sequence:
#
# PCOD9405199 Si02
#       8
#     8   8   8   8   4   4   4   4
#     4  10  21  41  67  95 132 174 213 261 320 377
#     4   9  19  37  61  91 121 158 208 256 307 372
#     4  11  22  38  62  86 117 160 206 252 307 377
#     4  10  21  36  55  81 115 158 201 251 312 372
#     4  10  20  38  62  86 121 158 201 262 311 365
#     4  11  23  41  65  96 129 171 215 263 312 381
#     4  10  22  38  54  82 121 150 197 258 311 375
#     4  11  24  39  60  86 120 155 200 258 310 357
#
# _framework density 20.026403999999999
#
# number of rings (size 3 to 8) (size 9 to 14) (size 15 to 20)
#    0.000    1.833    2.500    1.250    1.167    1.667 
#    4.500    1.667    0.000    0.000    0.000    0.000 
#    0.000    0.000    0.000    0.000    0.000    0.000 
#
# Total GULP energy -267550.149933 kJ/mol
# GULP energy per Si atom -5573.961457 kJ/mol
# Density = 1.998082 g / cm^3
# Si number density = 20.026404 Si / 1000 Ang^3
#
#
#
# Elastic Constant Matrix: (Units=GPa)
#
#
# Indices 1 2 3 4 5 6 
#
# 1 150.2899 62.6318 28.4645 0.0000 0.0000 0.0000
# 2 62.6318 88.2261 12.0868 0.0000 0.0000 0.0000
# 3 28.4645 12.0868 66.9308 0.0000 0.0000 0.0000
# 4 0.0000 0.0000 0.0000 3.7546 0.0000 0.0000
# 5 0.0000 0.0000 0.0000 0.0000 17.4786 0.0000
# 6 0.0000 0.0000 0.0000 0.0000 0.0000 15.3702
#
#
#
# Elastic Compliance Matrix: (Units=1/GPa)
#
#
# Indices 1 2 3 4 5 6 
#
# 1 0.010023 -0.006697 -0.003053 0.000000 0.000000 0.000000
# 2 -0.006697 0.016097 -0.000059 0.000000 0.000000 0.000000
# 3 -0.003053 -0.000059 0.016250 0.000000 0.000000 0.000000
# 4 0.000000 0.000000 0.000000 0.266339 0.000000 0.000000
# 5 0.000000 0.000000 0.000000 0.000000 0.057213 0.000000
# 6 0.000000 0.000000 0.000000 0.000000 0.000000 0.065061
#
#
# Mechanical properties :
#
#
# Convention : Reuss Voigt Hill
#
# Bulk Modulus (GPa) = 43.95272 56.86811 50.41042
# Shear Modulus (GPa) = 10.91263 20.80492 15.85878
#
# Velocity S-wave (km/s) = 2.33687 3.22665 2.81711
# Velocity P-wave (km/s) = 5.41076 6.50692 5.98399
#
# Compressibility (1/GPa) = 0.02275172
#
# Stress axis : x y z
#
# Youngs Moduli (GPa) = 99.77048 62.12415 61.53888
#
# Poissons Ratio (x) = 0.41605 0.18789
# Poissons Ratio (y) = 0.66817 0.00361
# Poissons Ratio (z) = 0.30462 0.00365
#
# Static dielectric constant tensor:
#      x y z
#    x 1.789330 0.000000 0.000000 
#    y 0.000000 1.714340 0.000000 
#    z 0.000000 0.000000 1.704360 
# 
# From -- ./inp_files/29665.got.cif
#   From: 2010.05.17/outbox.cif.g08.bks.cpg/sg51_15_cif.got.tgz:29665.got - 2010.06.03 11:52:47.
