data_PCOD9405190
_publ_section_title
;
Structure prediction by ZEFSAII (Michael W. Deem and Ramdas Pophale) SiO2 
 PCOD9405190
Probable space group: P M M A
;
_chemical_formula_sum "Si O2"
_cell_formula_units_Z 48
_cell_length_a 13.790859
_cell_length_b 17.381546
_cell_length_c 9.654264
_cell_angle_alpha 90.000000
_cell_angle_beta 90.000000
_cell_angle_gamma 90.000000
_cell_volume 2314.189352
_symmetry_space_group_name_H-M "P M M A"
_symmetry_group_IT_number 51
_symmetry_cell_setting 'orthorhombic'
loop_
_space_group_symop_operation_xyz
x,y,z
1/2-x,-y,z
1/2+x,-y,-z
-x,y,-z
-x,-y,-z
1/2+x,y,-z
1/2-x,y,z
x,-y,z
loop_
_atom_site_type_symbol
_atom_site_label
_atom_site_fract_x
_atom_site_fract_y
_atom_site_fract_z
Si Si1 0.133231 0.860342 0.027679
Si Si2 0.367462 0.149665 0.344778
Si Si3 0.476142 0.689892 0.350021
Si Si4 0.134646 0.298001 0.877683
Si Si5 0.368843 0.000000 0.837208
Si Si6 0.867536 0.000000 0.478426
Si Si7 0.866626 0.588686 0.876978
O O1 0.250000 0.864771 0.028132
O O2 0.109042 0.776730 0.968998
O O3 0.099680 0.925553 0.922791
O O4 0.105224 0.870367 0.186574
O O5 0.250000 0.159956 0.351609
O O6 0.419939 0.229878 0.376613
O O7 0.394080 0.078251 0.442268
O O8 0.500000 0.655258 0.500000
O O9 0.573806 0.703992 0.262262
O O10 0.412791 0.636523 0.248592
O O11 0.250000 0.296615 0.850622
O O12 0.111774 0.370556 0.975940
O O13 0.402153 0.000000 0.679398
O O14 0.250000 0.000000 0.833788
O O15 0.750000 0.000000 0.476290
O O16 0.750000 0.592212 0.862372
O O17 0.897298 0.500000 0.875416
#
# Coordination Sequence:
#
# PCOD9405190 Si02
#       7
#     8   8   8   8   4   4   8
#     4   9  17  32  57  84 115 156 214 268 310 363
#     4  10  20  38  61  87 126 172 219 267 322 384
#     4  12  26  39  61  98 136 174 208 258 319 387
#     4  10  22  41  64  93 125 167 218 268 318 372
#     4   9  17  29  52  88 120 160 212 266 321 372
#     4   9  19  33  55  87 126 172 214 261 324 388
#     4  10  22  45  75 101 127 163 209 260 314 379
#
# _framework density 20.741603999999999
#
# number of rings (size 3 to 8) (size 9 to 14) (size 15 to 20)
#    0.000    2.000    1.667    1.500    2.333    5.000 
#    0.000    1.250    0.000    4.000    0.000    0.000 
#    0.000    0.000    0.000    0.000    0.000    0.000 
#
# Total GULP energy -268499.630557 kJ/mol
# GULP energy per Si atom -5593.742303 kJ/mol
# Density = 2.069440 g / cm^3
# Si number density = 20.741604 Si / 1000 Ang^3
#
#
#
# Elastic Constant Matrix: (Units=GPa)
#
#
# Indices 1 2 3 4 5 6 
#
# 1 98.8504 18.2527 22.1417 0.0000 0.0000 0.0000
# 2 18.2527 123.8317 32.0563 0.0000 0.0000 0.0000
# 3 22.1417 32.0563 124.1962 0.0000 0.0000 0.0000
# 4 0.0000 0.0000 0.0000 119.0849 0.0000 0.0000
# 5 0.0000 0.0000 0.0000 0.0000 28.0986 0.0000
# 6 0.0000 0.0000 0.0000 0.0000 0.0000 -0.6882
#
#
#
# Elastic Compliance Matrix: (Units=1/GPa)
#
#
# Indices 1 2 3 4 5 6 
#
# 1 0.010690 -0.001160 -0.001606 0.000000 0.000000 0.000000
# 2 -0.001160 0.008780 -0.002059 0.000000 0.000000 0.000000
# 3 -0.001606 -0.002059 0.008870 0.000000 0.000000 0.000000
# 4 0.000000 0.000000 0.000000 0.008397 0.000000 0.000000
# 5 0.000000 0.000000 0.000000 0.000000 0.035589 0.000000
# 6 0.000000 0.000000 0.000000 0.000000 0.000000 -1.453009
#
#
# Mechanical properties :
#
#
# Convention : Reuss Voigt Hill
#
# Bulk Modulus (GPa) = 53.50965 54.64217 54.07591
# Shear Modulus (GPa) = -3.66353 47.59422 21.96535
#
# Velocity S-wave (km/s) = -1.33045 4.79542 3.25776
# Velocity P-wave (km/s) = 4.84707 7.55400 6.34653
#
# Compressibility (1/GPa) = 0.01868822
#
# Stress axis : x y z
#
# Youngs Moduli (GPa) = 93.54267 113.90131 112.74324
#
# Poissons Ratio (x) = 0.13211 0.18112
# Poissons Ratio (y) = 0.10850 0.23217
# Poissons Ratio (z) = 0.15028 0.23456
#
# Static dielectric constant tensor:
#      x y z
#    x 1.776130 0.000000 0.000000 
#    y 0.000000 1.708370 0.000000 
#    z 0.000000 0.000000 1.690190 
# 
# From -- ./inp_files/8367.got.cif
#   From: 2010.05.17/outbox.cif.g08.bks.cpg/sg51_5_cif.got.tgz:8367.got - 2010.06.03 11:52:47.
