data_PCOD9405120
_publ_section_title
;
Structure prediction by ZEFSAII (Michael W. Deem and Ramdas Pophale) SiO2 
 PCOD9405120
Probable space group: P M M A
;
_chemical_formula_sum "Si O2"
_cell_formula_units_Z 64
_cell_length_a 29.091199
_cell_length_b 8.898114
_cell_length_c 12.951053
_cell_angle_alpha 90.000000
_cell_angle_beta 90.000000
_cell_angle_gamma 90.000000
_cell_volume 3352.468202
_symmetry_space_group_name_H-M "P M M A"
_symmetry_group_IT_number 51
_symmetry_cell_setting 'orthorhombic'
loop_
_space_group_symop_operation_xyz
x,y,z
1/2-x,-y,z
1/2+x,-y,-z
-x,y,-z
-x,-y,-z
1/2+x,y,-z
1/2-x,y,z
x,-y,z
loop_
_atom_site_type_symbol
_atom_site_label
_atom_site_fract_x
_atom_site_fract_y
_atom_site_fract_z
Si Si1 0.805489 0.669640 0.821956
Si Si2 0.385520 0.320174 0.861607
Si Si3 0.392788 0.681136 0.462373
Si Si4 0.052511 0.822822 0.039159
Si Si5 0.547666 0.318328 0.736207
Si Si6 0.695978 0.821300 0.036335
Si Si7 0.554159 0.317564 0.334275
Si Si8 0.697073 0.179543 0.603023
O O1 0.750000 0.659826 0.828015
O O2 0.824291 0.500000 0.815046
O O3 0.814369 0.761389 0.718260
O O4 0.819813 0.750886 0.926887
O O5 0.382755 0.500000 0.864307
O O6 0.335462 0.249456 0.875751
O O7 0.411208 0.273612 0.756952
O O8 0.415707 0.261899 0.957296
O O9 0.389086 0.500000 0.466363
O O10 0.416148 0.720448 0.353128
O O11 0.425950 0.731037 0.555555
O O12 0.342137 0.750783 0.468686
O O13 0.057297 0.755949 0.153698
O O14 0.063415 0.000000 0.039495
O O15 0.000000 0.804373 0.000000
O O16 0.547365 0.500000 0.748347
O O17 0.497238 0.269905 0.695382
O O18 0.750000 0.787548 0.049968
O O19 0.690557 0.000000 0.032183
O O20 0.552653 0.500000 0.337179
O O21 0.750000 0.225524 0.580048
O O22 0.695156 0.000000 0.601086
#
# Coordination Sequence:
#
# PCOD9405120 Si02
#       8
#     8   8   8   8   8   8   8   8
#     4   9  17  31  53  79 107 142 185 232 282 338
#     4  11  22  37  61  86 115 155 199 242 288 347
#     4  10  21  37  61  89 114 146 193 244 294 346
#     4  11  23  38  57  85 121 157 192 233 288 352
#     4  10  20  37  62  88 117 150 189 238 292 352
#     4  10  21  37  56  81 116 155 193 238 293 349
#     4   9  19  38  61  86 114 149 192 242 295 344
#     4  10  21  37  55  78 113 154 192 235 290 346
#
# _framework density 19.090412000000001
#
# number of rings (size 3 to 8) (size 9 to 14) (size 15 to 20)
#    0.000    2.000    1.250    2.250    1.750    5.500 
#    0.000    2.500    0.000    5.250    0.000    0.000 
#    0.000    0.000    0.000    0.000    0.000    0.000 
#
# Total GULP energy -357460.992325 kJ/mol
# GULP energy per Si atom -5585.328005 kJ/mol
# Density = 1.904696 g / cm^3
# Si number density = 19.090412 Si / 1000 Ang^3
#
#
#
# Elastic Constant Matrix: (Units=GPa)
#
#
# Indices 1 2 3 4 5 6 
#
# 1 64.2542 22.1525 24.3386 0.0000 0.0000 0.0000
# 2 22.1525 38.5215 18.8862 0.0000 0.0000 0.0000
# 3 24.3386 18.8862 87.5833 0.0000 0.0000 0.0000
# 4 0.0000 0.0000 0.0000 1.6881 0.0000 0.0000
# 5 0.0000 0.0000 0.0000 0.0000 19.0365 0.0000
# 6 0.0000 0.0000 0.0000 0.0000 0.0000 27.4216
#
#
#
# Elastic Compliance Matrix: (Units=1/GPa)
#
#
# Indices 1 2 3 4 5 6 
#
# 1 0.020327 -0.009974 -0.003498 0.000000 0.000000 0.000000
# 2 -0.009974 0.033923 -0.004543 0.000000 0.000000 0.000000
# 3 -0.003498 -0.004543 0.013369 0.000000 0.000000 0.000000
# 4 0.000000 0.000000 0.000000 0.592390 0.000000 0.000000
# 5 0.000000 0.000000 0.000000 0.000000 0.052531 0.000000
# 6 0.000000 0.000000 0.000000 0.000000 0.000000 0.036468
#
#
# Mechanical properties :
#
#
# Convention : Reuss Voigt Hill
#
# Bulk Modulus (GPa) = 31.65733 35.67929 33.66831
# Shear Modulus (GPa) = 6.28482 17.96134 12.12308
#
# Velocity S-wave (km/s) = 1.81639 3.07067 2.52272
# Velocity P-wave (km/s) = 4.58453 5.59484 5.11469
#
# Compressibility (1/GPa) = 0.03158826
#
# Stress axis : x y z
#
# Youngs Moduli (GPa) = 49.19582 29.47855 74.79764
#
# Poissons Ratio (x) = 0.29403 0.26163
# Poissons Ratio (y) = 0.49070 0.33982
# Poissons Ratio (z) = 0.17208 0.13393
#
# Static dielectric constant tensor:
#      x y z
#    x 1.690960 0.000000 0.000000 
#    y 0.000000 1.642370 0.000000 
#    z 0.000000 0.000000 1.634590 
# 
# From -- ./inp_files/19456.got.cif
#   From: 2010.05.17/outbox.cif.g08.bks.cpg/sg51_10_cif.got.tgz:19456.got - 2010.06.03 11:52:47.
