data_PCOD9405155
_publ_section_title
;
Structure prediction by ZEFSAII (Michael W. Deem and Ramdas Pophale) SiO2 
 PCOD9405155
Probable space group: P M M A
;
_chemical_formula_sum "Si O2"
_cell_formula_units_Z 52
_cell_length_a 8.694356
_cell_length_b 23.381963
_cell_length_c 14.734190
_cell_angle_alpha 90.000000
_cell_angle_beta 90.000000
_cell_angle_gamma 90.000000
_cell_volume 2995.329844
_symmetry_space_group_name_H-M "P M M A"
_symmetry_group_IT_number 51
_symmetry_cell_setting 'orthorhombic'
loop_
_space_group_symop_operation_xyz
x,y,z
1/2-x,-y,z
1/2+x,-y,-z
-x,y,-z
-x,-y,-z
1/2+x,y,-z
1/2-x,y,z
x,-y,z
loop_
_atom_site_type_symbol
_atom_site_label
_atom_site_fract_x
_atom_site_fract_y
_atom_site_fract_z
Si Si1 0.565012 0.668476 0.787991
Si Si2 0.933943 0.224255 0.101387
Si Si3 0.566007 0.433297 0.099324
Si Si4 0.064446 0.000000 0.101455
Si Si5 0.434911 0.282982 0.403990
Si Si6 0.065233 0.850317 0.404067
Si Si7 0.436516 0.885238 0.207045
O O1 0.750000 0.670608 0.792788
O O2 0.497292 0.719151 0.849664
O O3 0.505091 0.608824 0.826865
O O4 0.517554 0.681496 0.684283
O O5 0.750000 0.225570 0.098767
O O6 0.991970 0.169307 0.157171
O O7 0.000000 0.221125 0.000000
O O8 0.750000 0.427249 0.097631
O O9 0.528238 0.500000 0.116083
O O10 0.500000 0.418124 0.000000
O O11 0.017638 0.943110 0.155881
O O12 0.250000 0.000000 0.096742
O O13 0.000000 0.000000 0.000000
O O14 0.500000 0.303427 0.500000
O O15 0.250000 0.283570 0.408183
O O16 0.482833 0.216366 0.392296
O O17 0.250000 0.851281 0.409415
O O18 0.019036 0.883625 0.313181
O O19 0.000000 0.871054 0.500000
O O20 0.250000 0.880125 0.202943
#
# Coordination Sequence:
#
# PCOD9405155 Si02
#       7
#     8   8   8   4   8   8   8
#     4  11  21  36  56  81 112 143 180 224 272 322
#     4  12  24  36  53  78 108 142 177 221 275 324
#     4  10  21  37  56  80 111 148 188 227 268 318
#     4  10  22  38  59  78 102 142 183 224 271 324
#     4   9  18  32  52  78 108 142 174 217 268 322
#     4   9  17  32  53  77 108 139 174 216 267 323
#     4  10  20  38  57  78 107 141 180 223 270 324
#
# _framework density 17.360358999999999
#
# number of rings (size 3 to 8) (size 9 to 14) (size 15 to 20)
#    0.000    1.846    1.538    3.231    0.000    4.615 
#    0.000    0.385    0.000    0.462    0.000    0.000 
#    0.000    0.000    0.000    0.000    0.000    0.000 
#
# Total GULP energy -290370.632704 kJ/mol
# GULP energy per Si atom -5584.050629 kJ/mol
# Density = 1.732085 g / cm^3
# Si number density = 17.360359 Si / 1000 Ang^3
#
#
#
# Elastic Constant Matrix: (Units=GPa)
#
#
# Indices 1 2 3 4 5 6 
#
# 1 42.9501 32.9046 43.8969 0.0000 0.0000 0.0000
# 2 32.9046 86.4666 75.8903 0.0000 0.0000 0.0000
# 3 43.8969 75.8903 191.1300 0.0000 0.0000 0.0000
# 4 0.0000 0.0000 0.0000 29.2321 0.0000 0.0000
# 5 0.0000 0.0000 0.0000 0.0000 33.1649 0.0000
# 6 0.0000 0.0000 0.0000 0.0000 0.0000 -9.4525
#
#
#
# Elastic Compliance Matrix: (Units=1/GPa)
#
#
# Indices 1 2 3 4 5 6 
#
# 1 0.034944 -0.009599 -0.004214 0.000000 0.000000 0.000000
# 2 -0.009599 0.020388 -0.005891 0.000000 0.000000 0.000000
# 3 -0.004214 -0.005891 0.008539 0.000000 0.000000 0.000000
# 4 0.000000 0.000000 0.000000 0.034209 0.000000 0.000000
# 5 0.000000 0.000000 0.000000 0.000000 0.030152 0.000000
# 6 0.000000 0.000000 0.000000 0.000000 0.000000 -0.105792
#
#
# Mechanical properties :
#
#
# Convention : Reuss Voigt Hill
#
# Bulk Modulus (GPa) = 40.87800 69.54782 55.21291
# Shear Modulus (GPa) = 71.42621 21.77924 46.60272
#
# Velocity S-wave (km/s) = 6.42126 3.54579 5.18677
# Velocity P-wave (km/s) = 8.86424 7.54399 8.23063
#
# Compressibility (1/GPa) = 0.02446303
#
# Stress axis : x y z
#
# Youngs Moduli (GPa) = 28.61732 49.04770 117.11112
#
# Poissons Ratio (x) = 0.47081 0.49352
# Poissons Ratio (y) = 0.27470 0.68988
# Poissons Ratio (z) = 0.12060 0.28893
#
# Static dielectric constant tensor:
#      x y z
#    x 1.587470 0.000000 0.000000 
#    y 0.000000 1.571090 0.000000 
#    z 0.000000 0.000000 1.580350 
# 
# From -- ./inp_files/21533.got.cif
#   From: 2010.05.17/outbox.cif.g08.bks.cpg/sg51_11_cif.got.tgz:21533.got - 2010.06.03 11:52:47.
