data_PCOD9405611
_publ_section_title
;
Structure prediction by ZEFSAII (Michael W. Deem and Ramdas Pophale) SiO2 
 PCOD9405611
Probable space group: P M M A
;
_chemical_formula_sum "Si O2"
_cell_formula_units_Z 64
_cell_length_a 7.761913
_cell_length_b 10.347039
_cell_length_c 41.820069
_cell_angle_alpha 90.000000
_cell_angle_beta 90.000000
_cell_angle_gamma 90.000000
_cell_volume 3358.687529
_symmetry_space_group_name_H-M "P M M A"
_symmetry_group_IT_number 51
_symmetry_cell_setting 'orthorhombic'
loop_
_space_group_symop_operation_xyz
x,y,z
1/2-x,-y,z
1/2+x,-y,-z
-x,y,-z
-x,-y,-z
1/2+x,y,-z
1/2-x,y,z
x,-y,z
loop_
_atom_site_type_symbol
_atom_site_label
_atom_site_fract_x
_atom_site_fract_y
_atom_site_fract_z
Si Si1 0.954233 0.645227 0.036103
Si Si2 0.539513 0.148200 0.838765
Si Si3 0.043659 0.854934 0.089025
Si Si4 0.957385 0.646932 0.463660
Si Si5 0.956812 0.854714 0.339229
Si Si6 0.956819 0.354584 0.713879
Si Si7 0.039517 0.648213 0.213862
Si Si8 0.460592 0.148000 0.588400
O O1 0.750000 0.635483 0.037551
O O2 0.027574 0.500000 0.041315
O O3 0.005516 0.748558 0.062589
O O4 0.000000 0.685676 0.000000
O O5 0.750000 0.151493 0.838472
O O6 0.482797 0.178776 0.875060
O O7 0.478866 0.250120 0.812480
O O8 0.489737 0.000000 0.831673
O O9 0.250000 0.863083 0.091083
O O10 0.979598 0.000000 0.080989
O O11 0.750000 0.643155 0.461020
O O12 0.021663 0.500000 0.458599
O O13 0.021846 0.748888 0.437578
O O14 0.000000 0.684901 0.500000
O O15 0.750000 0.861029 0.340790
O O16 0.016055 0.821368 0.375248
O O17 0.000133 0.749857 0.312732
O O18 0.019845 0.000000 0.331436
O O19 0.750000 0.360984 0.715495
O O20 0.019804 0.500000 0.706206
O O21 0.016455 0.320589 0.749848
O O22 0.250000 0.651061 0.213574
O O23 0.989277 0.500000 0.206878
O O24 0.250000 0.150204 0.588022
O O25 0.511597 0.000000 0.581246
#
# Coordination Sequence:
#
# PCOD9405611 Si02
#       8
#     8   8   8   8   8   8   8   8
#     4  10  21  36  53  73  97 126 161 199 238 281
#     4   8  14  25  42  66  94 121 152 190 228 270
#     4   9  18  32  50  74 102 128 156 193 236 281
#     4   9  17  29  45  65  88 113 142 176 215 261
#     4   9  18  32  49  69  92 119 155 197 236 276
#     4   9  18  31  46  68  98 127 156 193 236 281
#     4   8  14  25  41  63  92 123 154 189 229 273
#     4   8  15  29  47  65  86 113 146 184 222 262
#
# _framework density 19.055063000000001
#
# number of rings (size 3 to 8) (size 9 to 14) (size 15 to 20)
#    0.000    3.250    0.000    2.625    0.000    3.500 
#    0.000    4.375    0.000    3.000    0.000    0.000 
#    0.000    0.000    0.000    0.000    0.000    0.000 
#
# Total GULP energy -356687.252945 kJ/mol
# GULP energy per Si atom -5573.238327 kJ/mol
# Density = 1.901169 g / cm^3
# Si number density = 19.055063 Si / 1000 Ang^3
#
#
#
# Elastic Constant Matrix: (Units=GPa)
#
#
# Indices 1 2 3 4 5 6 
#
# 1 24.6440 7.6717 8.3428 0.0000 0.0000 0.0000
# 2 7.6717 162.2623 162.6248 0.0000 0.0000 0.0000
# 3 8.3428 162.6248 197.2735 0.0000 0.0000 0.0000
# 4 0.0000 0.0000 0.0000 46.2223 0.0000 0.0000
# 5 0.0000 0.0000 0.0000 0.0000 16.0178 0.0000
# 6 0.0000 0.0000 0.0000 0.0000 0.0000 15.3883
#
#
#
# Elastic Compliance Matrix: (Units=1/GPa)
#
#
# Indices 1 2 3 4 5 6 
#
# 1 0.041205 -0.001161 -0.000786 0.000000 0.000000 0.000000
# 2 -0.001161 0.035493 -0.029210 0.000000 0.000000 0.000000
# 3 -0.000786 -0.029210 0.029182 0.000000 0.000000 0.000000
# 4 0.000000 0.000000 0.000000 0.021635 0.000000 0.000000
# 5 0.000000 0.000000 0.000000 0.000000 0.062431 0.000000
# 6 0.000000 0.000000 0.000000 0.000000 0.000000 0.064985
#
#
# Mechanical properties :
#
#
# Convention : Reuss Voigt Hill
#
# Bulk Modulus (GPa) = 22.95303 82.38428 52.66865
# Shear Modulus (GPa) = 15.07091 29.22836 22.14963
#
# Velocity S-wave (km/s) = 2.81537 3.92074 3.41310
# Velocity P-wave (km/s) = 4.75817 7.98905 6.57515
#
# Compressibility (1/GPa) = 0.04356724
#
# Stress axis : x y z
#
# Youngs Moduli (GPa) = 24.26883 28.17459 34.26776
#
# Poissons Ratio (x) = 0.03270 0.02693
# Poissons Ratio (y) = 0.02816 1.00096
# Poissons Ratio (z) = 0.01907 0.82298
#
# Static dielectric constant tensor:
#      x y z
#    x 1.722580 0.000000 0.000000 
#    y 0.000000 1.672400 0.000000 
#    z 0.000000 0.000000 1.659050 
# 
# From -- ./inp_files/37431.got.cif
#   From: 2010.05.17/outbox.cif.g08.bks.cpg/sg51_19_cif.got.tgz:37431.got - 2010.06.03 11:52:47.
