data_PCOD9405518
_publ_section_title
;
Structure prediction by ZEFSAII (Michael W. Deem and Ramdas Pophale) SiO2 
 PCOD9405518
Probable space group: P M M A
;
_chemical_formula_sum "Si O2"
_cell_formula_units_Z 64
_cell_length_a 15.135454
_cell_length_b 7.711456
_cell_length_c 24.090545
_cell_angle_alpha 90.000000
_cell_angle_beta 90.000000
_cell_angle_gamma 90.000000
_cell_volume 2811.761387
_symmetry_space_group_name_H-M "P M M A"
_symmetry_group_IT_number 51
_symmetry_cell_setting 'orthorhombic'
loop_
_space_group_symop_operation_xyz
x,y,z
1/2-x,-y,z
1/2+x,-y,-z
-x,y,-z
-x,-y,-z
1/2+x,y,-z
1/2-x,y,z
x,-y,z
loop_
_atom_site_type_symbol
_atom_site_label
_atom_site_fract_x
_atom_site_fract_y
_atom_site_fract_z
Si Si1 0.352865 0.305539 0.096629
Si Si2 0.038723 0.297370 0.631806
Si Si3 0.348414 0.200642 0.401489
Si Si4 0.041017 0.702269 0.751262
Si Si5 0.646461 0.711246 0.141576
Si Si6 0.852082 0.706042 0.471421
Si Si7 0.399002 0.301157 0.981236
Si Si8 0.851439 0.800925 0.782488
O O1 0.250000 0.331197 0.104138
O O2 0.396216 0.500000 0.096703
O O3 0.377983 0.207387 0.152177
O O4 0.360081 0.217551 0.036720
O O5 0.064492 0.500000 0.632370
O O6 0.933283 0.287454 0.625250
O O7 0.065963 0.220614 0.691327
O O8 0.084575 0.223741 0.576661
O O9 0.250000 0.272436 0.389155
O O10 0.360880 0.211417 0.468045
O O11 0.348930 0.000000 0.384577
O O12 0.066345 0.500000 0.750197
O O13 0.088061 0.775056 0.806476
O O14 0.934568 0.710103 0.754693
O O15 0.750000 0.753045 0.148536
O O16 0.638277 0.500000 0.140267
O O17 0.615218 0.771558 0.080165
O O18 0.750000 0.725186 0.453843
O O19 0.869770 0.500000 0.479792
O O20 0.362942 0.500000 0.979659
O O21 0.500000 0.308739 0.000000
O O22 0.750000 0.734324 0.775083
O O23 0.850489 0.000000 0.764441
#
# Coordination Sequence:
#
# PCOD9405518 Si02
#       8
#     8   8   8   8   8   8   8   8
#     4   9  16  27  46  71  96 122 156 200 250 306
#     4  10  21  35  53  79 108 139 177 218 260 307
#     4  10  21  36  55  81 111 141 174 213 259 312
#     4  10  21  36  54  77 104 137 179 222 260 304
#     4   9  17  30  50  77 108 140 175 218 265 309
#     4   9  18  34  56  81 111 144 174 209 257 310
#     4   9  15  23  41  72 105 131 159 203 258 311
#     4  10  21  36  53  73 100 135 173 216 269 325
#
# _framework density 22.761534000000001
#
# number of rings (size 3 to 8) (size 9 to 14) (size 15 to 20)
#    0.000    2.500    0.000    2.250    0.000    8.500 
#    0.000    5.000    0.000    3.750    0.000    1.750 
#    0.000    0.000    0.000    0.000    0.000    0.000 
#
# Total GULP energy -356790.448711 kJ/mol
# GULP energy per Si atom -5574.850761 kJ/mol
# Density = 2.270973 g / cm^3
# Si number density = 22.761534 Si / 1000 Ang^3
#
#
#
# Elastic Constant Matrix: (Units=GPa)
#
#
# Indices 1 2 3 4 5 6 
#
# 1 71.5331 -2.0536 33.4859 0.0000 0.0000 0.0000
# 2 -2.0536 38.1635 -0.7838 0.0000 0.0000 0.0000
# 3 33.4859 -0.7838 102.0996 0.0000 0.0000 0.0000
# 4 0.0000 0.0000 0.0000 -1.3947 0.0000 0.0000
# 5 0.0000 0.0000 0.0000 0.0000 -3.8852 0.0000
# 6 0.0000 0.0000 0.0000 0.0000 0.0000 -10.1410
#
#
#
# Elastic Compliance Matrix: (Units=1/GPa)
#
#
# Indices 1 2 3 4 5 6 
#
# 1 0.016538 0.000779 -0.005418 0.000000 0.000000 0.000000
# 2 0.000779 0.026244 -0.000054 0.000000 0.000000 0.000000
# 3 -0.005418 -0.000054 0.011571 0.000000 0.000000 0.000000
# 4 0.000000 0.000000 0.000000 -0.717000 0.000000 0.000000
# 5 0.000000 0.000000 0.000000 0.000000 -0.257389 0.000000
# 6 0.000000 0.000000 0.000000 0.000000 0.000000 -0.098609
#
#
# Mechanical properties :
#
#
# Convention : Reuss Voigt Hill
#
# Bulk Modulus (GPa) = 22.23890 30.34369 26.29130
# Shear Modulus (GPa) = -5.02882 8.99234 1.98176
#
# Velocity S-wave (km/s) = -1.48800 1.98979 0.93411
# Velocity P-wave (km/s) = 2.61523 4.31730 3.56921
#
# Compressibility (1/GPa) = 0.04496624
#
# Stress axis : x y z
#
# Youngs Moduli (GPa) = 60.46607 38.10423 86.42346
#
# Poissons Ratio (x) = -0.02967 0.46825
# Poissons Ratio (y) = -0.04708 0.00466
# Poissons Ratio (z) = 0.32761 0.00205
#
# Static dielectric constant tensor:
#      x y z
#    x -0.836870 0.000000 0.000000 
#    y 0.000000 1.905600 0.000000 
#    z 0.000000 0.000000 1.915980 
# 
# From -- ./inp_files/35813.got.cif
#   From: 2010.05.17/outbox.cif.g08.bks.cpg/sg51_18_cif.got.tgz:35813.got - 2010.06.03 11:52:47.
