data_PCOD9405317
_publ_section_title
;
Structure prediction by ZEFSAII (Michael W. Deem and Ramdas Pophale) SiO2 
 PCOD9405317
Probable space group: P M M A
;
_chemical_formula_sum "Si O2"
_cell_formula_units_Z 44
_cell_length_a 7.572325
_cell_length_b 29.621098
_cell_length_c 9.411512
_cell_angle_alpha 90.000000
_cell_angle_beta 90.000000
_cell_angle_gamma 90.000000
_cell_volume 2111.007609
_symmetry_space_group_name_H-M "P M M A"
_symmetry_group_IT_number 51
_symmetry_cell_setting 'orthorhombic'
loop_
_space_group_symop_operation_xyz
x,y,z
1/2-x,-y,z
1/2+x,-y,-z
-x,y,-z
-x,-y,-z
1/2+x,y,-z
1/2-x,y,z
x,-y,z
loop_
_atom_site_type_symbol
_atom_site_label
_atom_site_fract_x
_atom_site_fract_y
_atom_site_fract_z
Si Si1 0.962087 0.824777 0.834150
Si Si2 0.538045 0.276072 0.834455
Si Si3 0.962135 0.637175 0.665949
Si Si4 0.037851 0.000000 0.167263
Si Si5 0.037813 0.088341 0.333346
Si Si6 0.462008 0.449815 0.166184
O O1 0.750000 0.823340 0.819037
O O2 0.030058 0.774337 0.800443
O O3 0.029938 0.865070 0.735510
O O4 0.000000 0.834119 0.000000
O O5 0.750000 0.274598 0.817701
O O6 0.469400 0.317178 0.739943
O O7 0.500000 0.284867 0.000000
O O8 0.750000 0.637227 0.685207
O O9 0.030680 0.591826 0.741648
O O10 0.000000 0.636860 0.500000
O O11 0.970901 0.044989 0.246003
O O12 0.250000 0.000000 0.182578
O O13 0.000000 0.000000 0.000000
O O14 0.250000 0.088846 0.317313
O O15 0.000000 0.084772 0.500000
O O16 0.250000 0.451050 0.182747
O O17 0.529717 0.500000 0.203986
O O18 0.500000 0.442146 0.000000
#
# Coordination Sequence:
#
# PCOD9405317 Si02
#       6
#     8   8   8   4   8   8
#     4   9  18  33  52  74  99 127 162 202 242 286
#     4   9  18  33  52  73  97 126 162 203 242 283
#     4  10  21  34  48  70 100 130 160 197 240 286
#     4  10  21  36  54  76 100 128 165 206 244 286
#     4  10  21  35  51  74 103 132 163 200 242 289
#     4   9  18  33  52  73  96 123 158 199 240 284
#
# _framework density 20.843126000000002
#
# number of rings (size 3 to 8) (size 9 to 14) (size 15 to 20)
#    0.000    2.545    0.000    1.364    0.000    4.000 
#    0.000    0.000    0.000    0.000    0.000    0.000 
#    0.000    0.000    0.000    0.000    0.000    0.000 
#
# Total GULP energy -245667.651746 kJ/mol
# GULP energy per Si atom -5583.355721 kJ/mol
# Density = 2.079569 g / cm^3
# Si number density = 20.843126 Si / 1000 Ang^3
#
#
#
# Elastic Constant Matrix: (Units=GPa)
#
#
# Indices 1 2 3 4 5 6 
#
# 1 48.3967 11.5734 -7.5448 0.0000 0.0000 0.0000
# 2 11.5734 243.5805 158.8328 0.0000 0.0000 0.0000
# 3 -7.5448 158.8328 155.2425 0.0000 0.0000 0.0000
# 4 0.0000 0.0000 0.0000 -42.3835 0.0000 0.0000
# 5 0.0000 0.0000 0.0000 0.0000 29.4202 0.0000
# 6 0.0000 0.0000 0.0000 0.0000 0.0000 -3.9238
#
#
#
# Elastic Compliance Matrix: (Units=1/GPa)
#
#
# Indices 1 2 3 4 5 6 
#
# 1 0.023021 -0.005478 0.006724 0.000000 0.000000 0.000000
# 2 -0.005478 0.013638 -0.014220 0.000000 0.000000 0.000000
# 3 0.006724 -0.014220 0.021317 0.000000 0.000000 0.000000
# 4 0.000000 0.000000 0.000000 -0.023594 0.000000 0.000000
# 5 0.000000 0.000000 0.000000 0.000000 0.033990 0.000000
# 6 0.000000 0.000000 0.000000 0.000000 0.000000 -0.254854
#
#
# Mechanical properties :
#
#
# Convention : Reuss Voigt Hill
#
# Bulk Modulus (GPa) = 31.22343 85.88251 58.55297
# Shear Modulus (GPa) = -33.36485 15.57980 -8.89253
#
# Velocity S-wave (km/s) = -4.00529 2.73697 -2.06777
# Velocity P-wave (km/s) = 2.52529 7.16112 4.73839
#
# Compressibility (1/GPa) = 0.03202723
#
# Stress axis : x y z
#
# Youngs Moduli (GPa) = 43.43914 73.32497 46.91155
#
# Poissons Ratio (x) = 0.40168 -0.31541
# Poissons Ratio (y) = 0.23796 0.66706
# Poissons Ratio (z) = -0.29207 1.04265
#
# Static dielectric constant tensor:
#      x y z
#    x 1.759230 0.000000 0.000000 
#    y 0.000000 1.779560 0.000000 
#    z 0.000000 0.000000 1.675990 
# 
# From -- ./inp_files/5759.got.cif
#   From: 2010.05.17/outbox.cif.g08.bks.cpg/sg51_3_cif.got.tgz:5759.got - 2010.06.03 11:52:47.
