data_PCOD9405379
_publ_section_title
;
Structure prediction by ZEFSAII (Michael W. Deem and Ramdas Pophale) SiO2 
 PCOD9405379
Probable space group: P M M A
;
_chemical_formula_sum "Si O2"
_cell_formula_units_Z 64
_cell_length_a 9.368729
_cell_length_b 14.747279
_cell_length_c 24.863885
_cell_angle_alpha 90.000000
_cell_angle_beta 90.000000
_cell_angle_gamma 90.000000
_cell_volume 3435.275419
_symmetry_space_group_name_H-M "P M M A"
_symmetry_group_IT_number 51
_symmetry_cell_setting 'orthorhombic'
loop_
_space_group_symop_operation_xyz
x,y,z
1/2-x,-y,z
1/2+x,-y,-z
-x,y,-z
-x,-y,-z
1/2+x,y,-z
1/2-x,y,z
x,-y,z
loop_
_atom_site_type_symbol
_atom_site_label
_atom_site_fract_x
_atom_site_fract_y
_atom_site_fract_z
Si Si1 0.585606 0.391091 0.837781
Si Si2 0.412872 0.358012 0.948073
Si Si3 0.091127 0.142137 0.950625
Si Si4 0.578320 0.391959 0.271926
Si Si5 0.407654 0.108303 0.153606
Si Si6 0.910312 0.107032 0.251550
Si Si7 0.415302 0.239423 0.647851
Si Si8 0.577002 0.103433 0.442643
O O1 0.750000 0.357968 0.839259
O O2 0.591513 0.500000 0.835693
O O3 0.499367 0.369261 0.892395
O O4 0.501607 0.364273 0.783275
O O5 0.250000 0.393584 0.944341
O O6 0.399872 0.250376 0.957022
O O7 0.500000 0.393995 0.000000
O O8 0.250000 0.105047 0.949992
O O9 0.010847 0.126207 0.895420
O O10 0.000000 0.105440 0.000000
O O11 0.750000 0.377261 0.265129
O O12 0.556567 0.500000 0.280719
O O13 0.528346 0.330100 0.322441
O O14 0.250000 0.144336 0.143097
O O15 0.476105 0.141762 0.208698
O O16 0.399119 0.000000 0.159303
O O17 0.750000 0.117091 0.228516
O O18 0.917195 0.163889 0.305458
O O19 0.931221 0.000000 0.262111
O O20 0.250000 0.260424 0.634539
O O21 0.474131 0.184939 0.596362
O O22 0.500000 0.110717 0.500000
O O23 0.750000 0.109649 0.447823
O O24 0.548397 0.000000 0.421832
#
# Coordination Sequence:
#
# PCOD9405379 Si02
#       8
#     8   8   8   8   8   8   8   8
#     4  10  21  36  53  74 101 132 165 205 258 319
#     4  10  21  36  54  75  98 125 161 207 259 317
#     4  10  21  36  53  71  91 119 158 203 249 301
#     4   9  18  33  52  75 103 135 175 223 266 306
#     4  10  21  35  49  68  96 127 158 198 249 303
#     4   9  17  30  48  71  99 129 164 207 251 301
#     4   9  17  30  52  78 102 136 179 215 255 308
#     4   9  17  31  52  79 112 147 181 219 260 304
#
# _framework density 18.630239
#
# number of rings (size 3 to 8) (size 9 to 14) (size 15 to 20)
#    0.000    2.500    0.000    1.875    1.750    5.000 
#    0.000    1.250    0.000    3.375    0.000    0.000 
#    0.000    0.000    0.000    0.000    0.000    0.000 
#
# Total GULP energy -356761.424153 kJ/mol
# GULP energy per Si atom -5574.397252 kJ/mol
# Density = 1.858784 g / cm^3
# Si number density = 18.630239 Si / 1000 Ang^3
#
#
#
# Elastic Constant Matrix: (Units=GPa)
#
#
# Indices 1 2 3 4 5 6 
#
# 1 96.4983 28.1697 43.4782 0.0000 0.0000 0.0000
# 2 28.1697 87.7315 38.7443 0.0000 0.0000 0.0000
# 3 43.4782 38.7443 100.3424 0.0000 0.0000 0.0000
# 4 0.0000 0.0000 0.0000 31.9730 0.0000 0.0000
# 5 0.0000 0.0000 0.0000 0.0000 26.9399 0.0000
# 6 0.0000 0.0000 0.0000 0.0000 0.0000 13.4101
#
#
#
# Elastic Compliance Matrix: (Units=1/GPa)
#
#
# Indices 1 2 3 4 5 6 
#
# 1 0.013179 -0.002061 -0.004914 0.000000 0.000000 0.000000
# 2 -0.002061 0.014064 -0.004537 0.000000 0.000000 0.000000
# 3 -0.004914 -0.004537 0.013847 0.000000 0.000000 0.000000
# 4 0.000000 0.000000 0.000000 0.031276 0.000000 0.000000
# 5 0.000000 0.000000 0.000000 0.000000 0.037120 0.000000
# 6 0.000000 0.000000 0.000000 0.000000 0.000000 0.074571
#
#
# Mechanical properties :
#
#
# Convention : Reuss Voigt Hill
#
# Bulk Modulus (GPa) = 55.35839 56.15075 55.75457
# Shear Modulus (GPa) = 23.46269 26.07660 24.76965
#
# Velocity S-wave (km/s) = 3.55264 3.74530 3.65024
# Velocity P-wave (km/s) = 6.82694 6.99343 6.91069
#
# Compressibility (1/GPa) = 0.01806411
#
# Stress axis : x y z
#
# Youngs Moduli (GPa) = 75.87906 71.10337 72.21643
#
# Poissons Ratio (x) = 0.14656 0.35491
# Poissons Ratio (y) = 0.15641 0.32767
# Poissons Ratio (z) = 0.37291 0.32262
#
# Static dielectric constant tensor:
#      x y z
#    x 1.649670 0.000000 0.000000 
#    y 0.000000 1.699310 0.000000 
#    z 0.000000 0.000000 1.615990 
# 
# From -- ./inp_files/34913.got.cif
#   From: 2010.05.17/outbox.cif.g08.bks.cpg/sg51_18_cif.got.tgz:34913.got - 2010.06.03 11:52:47.
