data_PCOD9405183
_publ_section_title
;
Structure prediction by ZEFSAII (Michael W. Deem and Ramdas Pophale) SiO2 
 PCOD9405183
Probable space group: P M M A
;
_chemical_formula_sum "Si O2"
_cell_formula_units_Z 48
_cell_length_a 15.634339
_cell_length_b 17.057188
_cell_length_c 9.282804
_cell_angle_alpha 90.000000
_cell_angle_beta 90.000000
_cell_angle_gamma 90.000000
_cell_volume 2475.518302
_symmetry_space_group_name_H-M "P M M A"
_symmetry_group_IT_number 51
_symmetry_cell_setting 'orthorhombic'
loop_
_space_group_symop_operation_xyz
x,y,z
1/2-x,-y,z
1/2+x,-y,-z
-x,y,-z
-x,-y,-z
1/2+x,y,-z
1/2-x,y,z
x,-y,z
loop_
_atom_site_type_symbol
_atom_site_label
_atom_site_fract_x
_atom_site_fract_y
_atom_site_fract_z
Si Si1 0.119211 0.854236 0.896970
Si Si2 0.425402 0.149001 0.214525
Si Si3 0.479263 0.681207 0.332057
Si Si4 0.153684 0.322804 0.841045
Si Si5 0.341742 0.000000 0.705097
Si Si6 0.854889 0.000000 0.610719
Si Si7 0.849405 0.591379 0.855312
O O1 0.154281 0.771188 0.846581
O O2 0.020086 0.862107 0.850440
O O3 0.154855 0.926096 0.808416
O O4 0.130841 0.853924 0.068823
O O5 0.436924 0.234059 0.289563
O O6 0.393043 0.078865 0.315418
O O7 0.500000 0.680092 0.500000
O O8 0.569812 0.662062 0.254351
O O9 0.411320 0.619360 0.270916
O O10 0.250000 0.350098 0.797649
O O11 0.135945 0.357628 0.000198
O O12 0.250000 0.000000 0.634988
O O13 0.392374 0.000000 0.554910
O O14 0.750000 0.000000 0.637123
O O15 0.750000 0.602053 0.814756
O O16 0.863044 0.500000 0.889565
#
# Coordination Sequence:
#
# PCOD9405183 Si02
#       7
#     8   8   8   8   4   4   8
#     4  10  20  38  61  82 114 152 210 268 306 362
#     4  10  22  39  59  85 115 161 208 256 313 372
#     4  11  24  40  63  98 133 172 209 258 322 386
#     4  10  21  39  64  93 125 167 216 266 321 377
#     4  11  24  37  54  84 117 157 204 257 318 370
#     4  11  26  39  52  84 126 164 208 259 320 384
#     4  10  22  43  71 100 130 166 211 262 312 373
#
# _framework density 19.389879000000001
#
# number of rings (size 3 to 8) (size 9 to 14) (size 15 to 20)
#    0.000    1.667    1.667    2.000    4.667    7.000 
#    0.000    0.000    0.000    2.000    0.000    0.000 
#    0.000    0.000    0.000    0.000    0.000    0.000 
#
# Total GULP energy -267310.029794 kJ/mol
# GULP energy per Si atom -5568.958954 kJ/mol
# Density = 1.934575 g / cm^3
# Si number density = 19.389879 Si / 1000 Ang^3
#
#
#
# Elastic Constant Matrix: (Units=GPa)
#
#
# Indices 1 2 3 4 5 6 
#
# 1 82.9245 37.9687 50.9118 0.0000 0.0000 0.0000
# 2 37.9687 86.0148 39.6956 0.0000 0.0000 0.0000
# 3 50.9118 39.6956 119.3929 0.0000 0.0000 0.0000
# 4 0.0000 0.0000 0.0000 -10.5569 0.0000 0.0000
# 5 0.0000 0.0000 0.0000 0.0000 29.4847 0.0000
# 6 0.0000 0.0000 0.0000 0.0000 0.0000 12.2615
#
#
#
# Elastic Compliance Matrix: (Units=1/GPa)
#
#
# Indices 1 2 3 4 5 6 
#
# 1 0.018138 -0.005241 -0.005992 0.000000 0.000000 0.000000
# 2 -0.005241 0.015248 -0.002835 0.000000 0.000000 0.000000
# 3 -0.005992 -0.002835 0.011873 0.000000 0.000000 0.000000
# 4 0.000000 0.000000 0.000000 -0.094725 0.000000 0.000000
# 5 0.000000 0.000000 0.000000 0.000000 0.033916 0.000000
# 6 0.000000 0.000000 0.000000 0.000000 0.000000 0.081556
#
#
# Mechanical properties :
#
#
# Convention : Reuss Voigt Hill
#
# Bulk Modulus (GPa) = 58.39931 60.60938 59.50434
# Shear Modulus (GPa) = 50.07598 16.88826 33.48212
#
# Velocity S-wave (km/s) = 5.08743 2.95444 4.15997
# Velocity P-wave (km/s) = 8.04320 6.55473 7.33681
#
# Compressibility (1/GPa) = 0.01712349
#
# Stress axis : x y z
#
# Youngs Moduli (GPa) = 55.13427 65.58415 84.22382
#
# Poissons Ratio (x) = 0.34374 0.50464
# Poissons Ratio (y) = 0.28897 0.23874
# Poissons Ratio (z) = 0.33035 0.18590
#
# Static dielectric constant tensor:
#      x y z
#    x 1.739830 0.000000 0.000000 
#    y 0.000000 1.657950 0.000000 
#    z 0.000000 0.000000 1.671470 
# 
# From -- ./inp_files/8369.got.cif
#   From: 2010.05.17/outbox.cif.g08.bks.cpg/sg51_5_cif.got.tgz:8369.got - 2010.06.03 11:52:47.
