data_PCOD9405351
_publ_section_title
;
Structure prediction by ZEFSAII (Michael W. Deem and Ramdas Pophale) SiO2 
 PCOD9405351
Probable space group: P M M A
;
_chemical_formula_sum "Si O2"
_cell_formula_units_Z 64
_cell_length_a 14.912441
_cell_length_b 8.694794
_cell_length_c 27.161168
_cell_angle_alpha 90.000000
_cell_angle_beta 90.000000
_cell_angle_gamma 90.000000
_cell_volume 3521.733408
_symmetry_space_group_name_H-M "P M M A"
_symmetry_group_IT_number 51
_symmetry_cell_setting 'orthorhombic'
loop_
_space_group_symop_operation_xyz
x,y,z
1/2-x,-y,z
1/2+x,-y,-z
-x,y,-z
-x,-y,-z
1/2+x,y,-z
1/2-x,y,z
x,-y,z
loop_
_atom_site_type_symbol
_atom_site_label
_atom_site_fract_x
_atom_site_fract_y
_atom_site_fract_z
Si Si1 0.355671 0.314648 0.500055
Si Si2 0.354544 0.685075 0.761045
Si Si3 0.645602 0.316370 0.870041
Si Si4 0.643985 0.684281 0.127917
Si Si5 0.002099 0.183725 0.056499
Si Si6 0.999940 0.185861 0.574404
Si Si7 0.498924 0.814804 0.687997
Si Si8 0.646500 0.185471 0.764912
O O1 0.250000 0.271982 0.500062
O O2 0.361310 0.500000 0.500120
O O3 0.412147 0.249457 0.453780
O O4 0.412102 0.249502 0.546373
O O5 0.250000 0.724363 0.754928
O O6 0.362010 0.500000 0.759447
O O7 0.381829 0.733823 0.816479
O O8 0.414161 0.756917 0.718691
O O9 0.750000 0.271993 0.875841
O O10 0.639231 0.500000 0.869498
O O11 0.585817 0.250736 0.913563
O O12 0.614987 0.253296 0.816961
O O13 0.750000 0.713172 0.122091
O O14 0.630330 0.500000 0.125027
O O15 0.585275 0.764280 0.086633
O O16 0.007809 0.000000 0.056595
O O17 0.000000 0.237721 0.000000
O O18 0.999951 0.234660 0.631352
O O19 0.999802 0.000000 0.571091
O O20 0.585145 0.763955 0.719626
O O21 0.498439 0.000000 0.687671
O O22 0.750000 0.231494 0.757895
O O23 0.643088 0.000000 0.768133
#
# Coordination Sequence:
#
# PCOD9405351 Si02
#       8
#     8   8   8   8   8   8   8   8
#     4  10  21  38  59  80 104 138 181 226 269 315
#     4   9  19  35  54  77 105 139 176 212 257 311
#     4  10  21  37  57  80 105 136 177 221 263 312
#     4   9  19  37  59  81 106 137 175 219 264 312
#     4  11  24  38  53  77 107 138 174 217 266 320
#     4  10  21  36  55  81 111 142 178 220 265 314
#     4  10  21  34  51  80 113 142 174 214 258 305
#     4   9  18  34  55  78 107 142 175 209 256 313
#
# _framework density 18.17287
#
# number of rings (size 3 to 8) (size 9 to 14) (size 15 to 20)
#    0.000    2.250    0.000    3.750    0.000    8.750 
#    0.000    7.500    0.000    1.500    0.000    0.000 
#    0.000    0.000    0.000    0.000    0.000    0.000 
#
# Total GULP energy -357261.043393 kJ/mol
# GULP energy per Si atom -5582.203803 kJ/mol
# Density = 1.813151 g / cm^3
# Si number density = 18.172870 Si / 1000 Ang^3
#
#
#
# Elastic Constant Matrix: (Units=GPa)
#
#
# Indices 1 2 3 4 5 6 
#
# 1 120.8067 33.1749 95.0886 0.0000 0.0000 0.0000
# 2 33.1749 28.4706 39.1955 0.0000 0.0000 0.0000
# 3 95.0886 39.1955 201.4440 0.0000 0.0000 0.0000
# 4 0.0000 0.0000 0.0000 -8.3781 0.0000 0.0000
# 5 0.0000 0.0000 0.0000 0.0000 62.9488 0.0000
# 6 0.0000 0.0000 0.0000 0.0000 0.0000 25.0906
#
#
#
# Elastic Compliance Matrix: (Units=1/GPa)
#
#
# Indices 1 2 3 4 5 6 
#
# 1 0.015246 -0.010732 -0.005108 0.000000 0.000000 0.000000
# 2 -0.010732 0.055530 -0.005739 0.000000 0.000000 0.000000
# 3 -0.005108 -0.005739 0.008492 0.000000 0.000000 0.000000
# 4 0.000000 0.000000 0.000000 -0.119359 0.000000 0.000000
# 5 0.000000 0.000000 0.000000 0.000000 0.015886 0.000000
# 6 0.000000 0.000000 0.000000 0.000000 0.000000 0.039856
#
#
# Mechanical properties :
#
#
# Convention : Reuss Voigt Hill
#
# Bulk Modulus (GPa) = 27.69367 76.18213 51.93790
# Shear Modulus (GPa) = 70.57645 28.14975 49.36310
#
# Velocity S-wave (km/s) = 6.23863 3.94000 5.21747
# Velocity P-wave (km/s) = 8.19549 7.91896 8.05841
#
# Compressibility (1/GPa) = 0.03610933
#
# Stress axis : x y z
#
# Youngs Moduli (GPa) = 65.59230 18.00834 117.75739
#
# Poissons Ratio (x) = 0.19327 0.60154
# Poissons Ratio (y) = 0.70395 0.67576
# Poissons Ratio (z) = 0.33507 0.10334
#
# Static dielectric constant tensor:
#      x y z
#    x 1.620370 0.000000 0.000000 
#    y 0.000000 1.614200 0.000000 
#    z 0.000000 0.000000 1.607670 
# 
# From -- ./inp_files/35625.got.cif
#   From: 2010.05.17/outbox.cif.g08.bks.cpg/sg51_18_cif.got.tgz:35625.got - 2010.06.03 11:52:47.
