data_PCOD9405154
_publ_section_title
;
Structure prediction by ZEFSAII (Michael W. Deem and Ramdas Pophale) SiO2 
 PCOD9405154
Probable space group: P M M A
;
_chemical_formula_sum "Si O2"
_cell_formula_units_Z 52
_cell_length_a 10.063330
_cell_length_b 10.846958
_cell_length_c 29.014065
_cell_angle_alpha 90.000000
_cell_angle_beta 90.000000
_cell_angle_gamma 90.000000
_cell_volume 3167.074304
_symmetry_space_group_name_H-M "P M M A"
_symmetry_group_IT_number 51
_symmetry_cell_setting 'orthorhombic'
loop_
_space_group_symop_operation_xyz
x,y,z
1/2-x,-y,z
1/2+x,-y,-z
-x,y,-z
-x,-y,-z
1/2+x,y,-z
1/2-x,y,z
x,-y,z
loop_
_atom_site_type_symbol
_atom_site_label
_atom_site_fract_x
_atom_site_fract_y
_atom_site_fract_z
Si Si1 0.411278 0.141688 0.144395
Si Si2 0.473817 0.251675 0.599105
Si Si3 0.409097 0.356533 0.216213
Si Si4 0.597906 0.850512 0.960020
Si Si5 0.250000 0.859031 0.537309
Si Si6 0.250000 0.149352 0.432976
Si Si7 0.589970 0.500000 0.454660
Si Si8 0.596654 0.644854 0.304014
O O1 0.250000 0.137274 0.143925
O O2 0.447895 0.250463 0.179612
O O3 0.450476 0.175064 0.091977
O O4 0.455467 0.000000 0.155096
O O5 0.375849 0.168382 0.568874
O O6 0.620400 0.201357 0.591893
O O7 0.449996 0.382516 0.575075
O O8 0.435182 0.269997 0.652198
O O9 0.250000 0.345516 0.224718
O O10 0.432243 0.500000 0.201308
O O11 0.494225 0.336312 0.262416
O O12 0.750000 0.806435 0.965638
O O13 0.602576 0.000000 0.962850
O O14 0.500000 0.805878 0.000000
O O15 0.250000 0.799889 0.486230
O O16 0.250000 0.000000 0.525632
O O17 0.250000 0.000000 0.431086
O O18 0.750000 0.500000 0.462949
O O19 0.500000 0.500000 0.500000
O O20 0.750000 0.664388 0.289714
O O21 0.585482 0.500000 0.317901
#
# Coordination Sequence:
#
# PCOD9405154 Si02
#       8
#     8   8   8   8   4   4   4   8
#     4   8  14  27  47  71 101 134 166 209 262 306
#     4  12  23  39  61  83 111 139 174 218 262 315
#     4   9  18  32  54  78  98 128 175 219 257 308
#     4   8  13  22  39  64  94 130 168 204 248 300
#     4  11  22  41  63  79 105 150 183 207 248 311
#     4  11  26  43  59  83 111 144 183 215 250 307
#     4  12  24  38  58  90 118 138 168 214 273 320
#     4  10  20  38  57  78 105 137 167 207 266 324
#
# _framework density 16.418938000000001
#
# number of rings (size 3 to 8) (size 9 to 14) (size 15 to 20)
#    0.000    2.154    2.308    2.769    2.154    1.231 
#    0.000    2.308    0.000    1.385    0.000    0.000 
#    0.000    0.000    0.000    0.000    0.000    0.000 
#
# Total GULP energy -289630.905719 kJ/mol
# GULP energy per Si atom -5569.825110 kJ/mol
# Density = 1.638157 g / cm^3
# Si number density = 16.418938 Si / 1000 Ang^3
#
#
#
# Elastic Constant Matrix: (Units=GPa)
#
#
# Indices 1 2 3 4 5 6 
#
# 1 91.6857 31.7856 39.5133 0.0000 0.0000 0.0000
# 2 31.7856 64.9615 44.8199 0.0000 0.0000 0.0000
# 3 39.5133 44.8199 106.4763 0.0000 0.0000 0.0000
# 4 0.0000 0.0000 0.0000 28.5328 0.0000 0.0000
# 5 0.0000 0.0000 0.0000 0.0000 27.3076 0.0000
# 6 0.0000 0.0000 0.0000 0.0000 0.0000 25.1127
#
#
#
# Elastic Compliance Matrix: (Units=1/GPa)
#
#
# Indices 1 2 3 4 5 6 
#
# 1 0.013881 -0.004563 -0.003230 0.000000 0.000000 0.000000
# 2 -0.004563 0.023194 -0.008070 0.000000 0.000000 0.000000
# 3 -0.003230 -0.008070 0.013988 0.000000 0.000000 0.000000
# 4 0.000000 0.000000 0.000000 0.035047 0.000000 0.000000
# 5 0.000000 0.000000 0.000000 0.000000 0.036620 0.000000
# 6 0.000000 0.000000 0.000000 0.000000 0.000000 0.039821
#
#
# Mechanical properties :
#
#
# Convention : Reuss Voigt Hill
#
# Bulk Modulus (GPa) = 51.71772 55.04013 53.37893
# Shear Modulus (GPa) = 24.90994 25.99090 25.45042
#
# Velocity S-wave (km/s) = 3.89928 3.98299 3.94136
# Velocity P-wave (km/s) = 7.19998 7.39915 7.30024
#
# Compressibility (1/GPa) = 0.01933573
#
# Stress axis : x y z
#
# Youngs Moduli (GPa) = 72.04101 43.11398 71.49223
#
# Poissons Ratio (x) = 0.19674 0.23095
# Poissons Ratio (y) = 0.32873 0.57694
# Poissons Ratio (z) = 0.23272 0.34793
#
# Static dielectric constant tensor:
#      x y z
#    x 1.482400 0.000000 0.000000 
#    y 0.000000 1.545690 0.000000 
#    z 0.000000 0.000000 1.545050 
# 
# From -- ./inp_files/36288.got.cif
#   From: 2010.05.17/outbox.cif.g08.bks.cpg/sg51_19_cif.got.tgz:36288.got - 2010.06.03 11:52:47.
