data_PCOD9405203
_publ_section_title
;
Structure prediction by ZEFSAII (Michael W. Deem and Ramdas Pophale) SiO2 
 PCOD9405203
Probable space group: P M M A
;
_chemical_formula_sum "Si O2"
_cell_formula_units_Z 56
_cell_length_a 23.282973
_cell_length_b 13.607673
_cell_length_c 9.083542
_cell_angle_alpha 90.000000
_cell_angle_beta 90.000000
_cell_angle_gamma 90.000000
_cell_volume 2877.912116
_symmetry_space_group_name_H-M "P M M A"
_symmetry_group_IT_number 51
_symmetry_cell_setting 'orthorhombic'
loop_
_space_group_symop_operation_xyz
x,y,z
1/2-x,-y,z
1/2+x,-y,-z
-x,y,-z
-x,-y,-z
1/2+x,y,-z
1/2-x,y,z
x,-y,z
loop_
_atom_site_type_symbol
_atom_site_label
_atom_site_fract_x
_atom_site_fract_y
_atom_site_fract_z
Si Si1 0.414793 0.617274 0.348474
Si Si2 0.816347 0.112171 0.501140
Si Si3 0.902450 0.737106 0.355112
Si Si4 0.513006 0.232888 0.826929
Si Si5 0.873690 0.111021 0.823223
Si Si6 0.816203 0.305863 0.853921
Si Si7 0.185870 0.386555 0.829900
O O1 0.419142 0.500000 0.360088
O O2 0.421965 0.671785 0.504731
O O3 0.459700 0.665800 0.234625
O O4 0.353642 0.650898 0.279249
O O5 0.750000 0.144991 0.499345
O O6 0.858927 0.180577 0.412072
O O7 0.840497 0.110938 0.667586
O O8 0.818138 0.000000 0.446801
O O9 0.956017 0.782506 0.268366
O O10 0.865438 0.669293 0.247382
O O11 0.561177 0.148866 0.802449
O O12 0.500000 0.238671 0.000000
O O13 0.842251 0.200751 0.905828
O O14 0.871541 0.000000 0.883578
O O15 0.750000 0.294089 0.812188
O O16 0.820056 0.376256 0.994515
O O17 0.250000 0.347457 0.792369
O O18 0.184089 0.500000 0.786751
#
# Coordination Sequence:
#
# PCOD9405203 Si02
#       7
#     8   8   8   8   8   8   8
#     4  11  24  39  59  91 122 158 209 262 314 364
#     4  10  21  38  63  95 128 160 198 250 316 380
#     4  12  22  39  65  89 125 162 207 266 307 362
#     4  11  25  43  61  87 122 166 211 255 310 370
#     4  10  21  39  63  91 123 161 204 253 310 366
#     4  10  20  38  62  90 125 165 207 252 307 377
#     4  10  22  39  60  89 126 168 208 251 310 372
#
# _framework density 19.458551
#
# number of rings (size 3 to 8) (size 9 to 14) (size 15 to 20)
#    0.000    1.429    2.857    3.857    0.000    5.143 
#    0.000    3.571    0.000    0.857    0.000    0.000 
#    0.000    0.000    0.000    0.000    0.000    0.000 
#
# Total GULP energy -312682.718281 kJ/mol
# GULP energy per Si atom -5583.619969 kJ/mol
# Density = 1.941426 g / cm^3
# Si number density = 19.458551 Si / 1000 Ang^3
#
#
#
# Elastic Constant Matrix: (Units=GPa)
#
#
# Indices 1 2 3 4 5 6 
#
# 1 118.4269 27.2889 29.4783 0.0000 0.0000 0.0000
# 2 27.2889 88.5603 12.1877 0.0000 0.0000 0.0000
# 3 29.4783 12.1877 63.2176 0.0000 0.0000 0.0000
# 4 0.0000 0.0000 0.0000 17.9599 0.0000 0.0000
# 5 0.0000 0.0000 0.0000 0.0000 34.6904 0.0000
# 6 0.0000 0.0000 0.0000 0.0000 0.0000 15.0103
#
#
#
# Elastic Compliance Matrix: (Units=1/GPa)
#
#
# Indices 1 2 3 4 5 6 
#
# 1 0.010074 -0.002525 -0.004211 0.000000 0.000000 0.000000
# 2 -0.002525 0.012232 -0.001181 0.000000 0.000000 0.000000
# 3 -0.004211 -0.001181 0.018010 0.000000 0.000000 0.000000
# 4 0.000000 0.000000 0.000000 0.055680 0.000000 0.000000
# 5 0.000000 0.000000 0.000000 0.000000 0.028826 0.000000
# 6 0.000000 0.000000 0.000000 0.000000 0.000000 0.066621
#
#
# Mechanical properties :
#
#
# Convention : Reuss Voigt Hill
#
# Bulk Modulus (GPa) = 40.84489 45.34606 43.09547
# Shear Modulus (GPa) = 23.20869 26.94877 25.07873
#
# Velocity S-wave (km/s) = 3.45733 3.72550 3.59392
# Velocity P-wave (km/s) = 6.08061 6.46996 6.27830
#
# Compressibility (1/GPa) = 0.02448287
#
# Stress axis : x y z
#
# Youngs Moduli (GPa) = 99.26639 81.75132 55.52616
#
# Poissons Ratio (x) = 0.20640 0.23381
# Poissons Ratio (y) = 0.25062 0.06558
# Poissons Ratio (z) = 0.41798 0.09655
#
# Static dielectric constant tensor:
#      x y z
#    x 1.690550 0.000000 0.000000 
#    y 0.000000 1.684890 0.000000 
#    z 0.000000 0.000000 1.671520 
# 
# From -- ./inp_files/10950.got.cif
#   From: 2010.05.17/outbox.cif.g08.bks.cpg/sg51_6_cif.got.tgz:10950.got - 2010.06.03 11:52:47.
