data_PCOD9405247
_publ_section_title
;
Structure prediction by ZEFSAII (Michael W. Deem and Ramdas Pophale) SiO2 
 PCOD9405247
Probable space group: P M M A
;
_chemical_formula_sum "Si O2"
_cell_formula_units_Z 48
_cell_length_a 17.313455
_cell_length_b 16.232076
_cell_length_c 8.934491
_cell_angle_alpha 90.000000
_cell_angle_beta 90.000000
_cell_angle_gamma 90.000000
_cell_volume 2510.889645
_symmetry_space_group_name_H-M "P M M A"
_symmetry_group_IT_number 51
_symmetry_cell_setting 'orthorhombic'
loop_
_space_group_symop_operation_xyz
x,y,z
1/2-x,-y,z
1/2+x,-y,-z
-x,y,-z
-x,-y,-z
1/2+x,y,-z
1/2-x,y,z
x,-y,z
loop_
_atom_site_type_symbol
_atom_site_label
_atom_site_fract_x
_atom_site_fract_y
_atom_site_fract_z
Si Si1 0.500000 0.802689 0.000000
Si Si2 0.884155 0.677392 0.158066
Si Si3 0.981802 0.597898 0.664513
Si Si4 0.883517 0.093114 0.816316
Si Si5 0.250000 0.100892 0.419729
Si Si6 0.750000 0.771006 0.306453
Si Si7 0.665352 0.599488 0.850554
Si Si8 0.250000 0.911018 0.937674
O O1 0.436406 0.748313 0.915584
O O2 0.544725 0.853829 0.872048
O O3 0.824947 0.713854 0.279650
O O4 0.944428 0.615200 0.233064
O O5 0.842504 0.634842 0.017444
O O6 0.970163 0.500000 0.649186
O O7 0.905053 0.630413 0.747509
O O8 0.000000 0.632506 0.500000
O O9 0.827344 0.117230 0.679179
O O10 0.910220 0.000000 0.787031
O O11 0.824347 0.091688 0.956047
O O12 0.250000 0.167054 0.553299
O O13 0.250000 0.000000 0.451605
O O14 0.750000 0.833431 0.167054
O O15 0.750000 0.621943 0.789775
O O16 0.660635 0.500000 0.858658
O O17 0.250000 0.000000 0.857499
#
# Coordination Sequence:
#
# PCOD9405247 Si02
#       8
#     4   8   8   8   4   4   8   4
#     4  12  21  34  61  88 120 150 196 258 305 358
#     4  12  23  37  58  89 122 161 199 252 310 358
#     4  10  22  42  63  86 121 163 204 247 306 372
#     4   9  19  37  60  85 111 153 205 246 294 359
#     4   9  21  43  65  84 119 166 201 243 307 369
#     4  12  23  38  55  92 123 152 204 249 304 362
#     4  10  20  39  65  89 117 159 212 257 296 358
#     4   9  17  33  57  78 106 148 195 240 280 341
#
# _framework density 19.11673
#
# number of rings (size 3 to 8) (size 9 to 14) (size 15 to 20)
#    0.000    1.667    4.167    2.000    0.000    2.667 
#    1.500    0.000    0.000    2.000    0.000    0.000 
#    0.000    0.000    0.000    0.000    0.000    0.000 
#
# Total GULP energy -267677.458526 kJ/mol
# GULP energy per Si atom -5576.613719 kJ/mol
# Density = 1.907322 g / cm^3
# Si number density = 19.116730 Si / 1000 Ang^3
#
#
#
# Elastic Constant Matrix: (Units=GPa)
#
#
# Indices 1 2 3 4 5 6 
#
# 1 115.5687 21.7924 35.8871 0.0000 0.0000 0.0000
# 2 21.7924 16.1640 13.6428 0.0000 0.0000 0.0000
# 3 35.8871 13.6428 85.4944 0.0000 0.0000 0.0000
# 4 0.0000 0.0000 0.0000 42.3232 0.0000 0.0000
# 5 0.0000 0.0000 0.0000 0.0000 23.3648 0.0000
# 6 0.0000 0.0000 0.0000 0.0000 0.0000 -160.7805
#
#
#
# Elastic Compliance Matrix: (Units=1/GPa)
#
#
# Indices 1 2 3 4 5 6 
#
# 1 0.012187 -0.013999 -0.002882 0.000000 0.000000 0.000000
# 2 -0.013999 0.087574 -0.008099 0.000000 0.000000 0.000000
# 3 -0.002882 -0.008099 0.014199 0.000000 0.000000 0.000000
# 4 0.000000 0.000000 0.000000 0.023628 0.000000 0.000000
# 5 0.000000 0.000000 0.000000 0.000000 0.042799 0.000000
# 6 0.000000 0.000000 0.000000 0.000000 0.000000 -0.006220
#
#
# Mechanical properties :
#
#
# Convention : Reuss Voigt Hill
#
# Bulk Modulus (GPa) = 15.62453 39.98574 27.80513
# Shear Modulus (GPa) = 20.36985 -9.29150 5.53918
#
# Velocity S-wave (km/s) = 3.26782 -2.20702 1.70407
# Velocity P-wave (km/s) = 4.73594 3.80361 4.29515
#
# Compressibility (1/GPa) = 0.06400195
#
# Stress axis : x y z
#
# Youngs Moduli (GPa) = 82.05146 11.41886 70.42873
#
# Poissons Ratio (x) = 0.15985 0.20297
# Poissons Ratio (y) = 1.14862 0.57038
# Poissons Ratio (z) = 0.23647 0.09248
#
# Static dielectric constant tensor:
#      x y z
#    x 1.668860 0.000000 0.000000 
#    y 0.000000 1.689510 0.000000 
#    z 0.000000 0.000000 1.663050 
# 
# From -- ./inp_files/9771.got.cif
#   From: 2010.05.17/outbox.cif.g08.bks.cpg/sg51_5_cif.got.tgz:9771.got - 2010.06.03 11:52:47.
