data_PCOD9405844
_publ_section_title
;
Structure prediction by ZEFSAII (Michael W. Deem and Ramdas Pophale) SiO2 
 PCOD9405844
Probable space group: P M M A
;
_chemical_formula_sum "Si O2"
_cell_formula_units_Z 40
_cell_length_a 10.298273
_cell_length_b 15.725804
_cell_length_c 13.980308
_cell_angle_alpha 90.000000
_cell_angle_beta 90.000000
_cell_angle_gamma 90.000000
_cell_volume 2264.091626
_symmetry_space_group_name_H-M "P M M A"
_symmetry_group_IT_number 51
_symmetry_cell_setting 'orthorhombic'
loop_
_space_group_symop_operation_xyz
x,y,z
1/2-x,-y,z
1/2+x,-y,-z
-x,y,-z
-x,-y,-z
1/2+x,y,-z
1/2-x,y,z
x,-y,z
loop_
_atom_site_type_symbol
_atom_site_label
_atom_site_fract_x
_atom_site_fract_y
_atom_site_fract_z
Si Si1 0.250000 0.398986 0.364303
Si Si2 0.400288 0.000000 0.586440
Si Si3 0.405847 0.000000 0.908799
Si Si4 0.483797 0.327337 0.717615
Si Si5 0.397217 0.397517 0.921600
Si Si6 0.750000 0.398123 0.407448
Si Si7 0.097429 0.859520 0.748603
O O1 0.250000 0.500000 0.346741
O O2 0.377908 0.359092 0.318330
O O3 0.250000 0.386079 0.478690
O O4 0.500000 0.000000 0.500000
O O5 0.418701 0.080877 0.655860
O O6 0.250000 0.000000 0.553665
O O7 0.431319 0.917812 0.841068
O O8 0.250000 0.000000 0.931399
O O9 0.500000 0.000000 0.000000
O O10 0.442862 0.370931 0.816872
O O11 0.375831 0.355456 0.640282
O O12 0.480971 0.226654 0.736165
O O13 0.250000 0.366820 0.938888
O O14 0.394850 0.500000 0.926293
O O15 0.500000 0.366238 0.000000
O O16 0.750000 0.500000 0.387723
O O17 0.250000 0.836039 0.754825
#
# Coordination Sequence:
#
# PCOD9405844 Si02
#       7
#     4   4   4   8   8   4   8
#     4  11  26  40  57  90 125 160 207 270 318 355
#     4   9  19  37  60  84 114 153 187 229 290 350
#     4   9  19  39  66  92 122 157 191 239 300 360
#     4  12  22  40  62  86 122 162 204 256 308 364
#     4  10  21  36  57  83 111 150 196 241 295 357
#     4  11  22  40  63  84 113 162 215 254 308 379
#     4   9  19  39  60  85 119 155 197 236 287 360
#
# _framework density 17.667128999999999
#
# number of rings (size 3 to 8) (size 9 to 14) (size 15 to 20)
#    0.000    1.800    2.000    3.600    1.400    4.000 
#    3.600    1.000    0.000    0.000    0.000    0.000 
#    0.000    0.000    0.000    0.000    0.000    0.000 
#
# Total GULP energy -223343.628532 kJ/mol
# GULP energy per Si atom -5583.590713 kJ/mol
# Density = 1.762692 g / cm^3
# Si number density = 17.667129 Si / 1000 Ang^3
#
#
#
# Elastic Constant Matrix: (Units=GPa)
#
#
# Indices 1 2 3 4 5 6 
#
# 1 174.6372 69.0291 99.9640 0.0000 0.0000 0.0000
# 2 69.0291 90.6972 54.3863 0.0000 0.0000 0.0000
# 3 99.9640 54.3863 123.6323 0.0000 0.0000 0.0000
# 4 0.0000 0.0000 0.0000 35.3384 0.0000 0.0000
# 5 0.0000 0.0000 0.0000 0.0000 50.8504 0.0000
# 6 0.0000 0.0000 0.0000 0.0000 0.0000 27.7077
#
#
#
# Elastic Compliance Matrix: (Units=1/GPa)
#
#
# Indices 1 2 3 4 5 6 
#
# 1 0.011847 -0.004445 -0.007624 0.000000 0.000000 0.000000
# 2 -0.004445 0.016644 -0.003728 0.000000 0.000000 0.000000
# 3 -0.007624 -0.003728 0.015892 0.000000 0.000000 0.000000
# 4 0.000000 0.000000 0.000000 0.028298 0.000000 0.000000
# 5 0.000000 0.000000 0.000000 0.000000 0.019666 0.000000
# 6 0.000000 0.000000 0.000000 0.000000 0.000000 0.036091
#
#
# Mechanical properties :
#
#
# Convention : Reuss Voigt Hill
#
# Bulk Modulus (GPa) = 78.18108 92.85839 85.51974
# Shear Modulus (GPa) = 30.43320 33.81847 32.12584
#
# Velocity S-wave (km/s) = 4.15491 4.37991 4.26889
# Velocity P-wave (km/s) = 8.20768 8.84603 8.53283
#
# Compressibility (1/GPa) = 0.01279082
#
# Stress axis : x y z
#
# Youngs Moduli (GPa) = 84.40934 60.08100 62.92333
#
# Poissons Ratio (x) = 0.26708 0.47970
# Poissons Ratio (y) = 0.37522 0.23455
# Poissons Ratio (z) = 0.64350 0.22396
#
# Static dielectric constant tensor:
#      x y z
#    x 1.585940 0.000000 0.000000 
#    y 0.000000 1.589510 0.000000 
#    z 0.000000 0.000000 1.574160 
# 
# From -- ./inp_files/20632.got.cif
#   From: 2010.05.17/outbox.cif.g08.bks.cpg/sg51_11_cif.got.tgz:20632.got - 2010.06.03 11:52:47.
