data_PCOD9405543
_publ_section_title
;
Structure prediction by ZEFSAII (Michael W. Deem and Ramdas Pophale) SiO2 
 PCOD9405543
Probable space group: P M M A
;
_chemical_formula_sum "Si O2"
_cell_formula_units_Z 40
_cell_length_a 13.108810
_cell_length_b 13.597654
_cell_length_c 8.626007
_cell_angle_alpha 90.000000
_cell_angle_beta 90.000000
_cell_angle_gamma 90.000000
_cell_volume 1537.577663
_symmetry_space_group_name_H-M "P M M A"
_symmetry_group_IT_number 51
_symmetry_cell_setting 'orthorhombic'
loop_
_space_group_symop_operation_xyz
x,y,z
1/2-x,-y,z
1/2+x,-y,-z
-x,y,-z
-x,-y,-z
1/2+x,y,-z
1/2-x,y,z
x,-y,z
loop_
_atom_site_type_symbol
_atom_site_label
_atom_site_fract_x
_atom_site_fract_y
_atom_site_fract_z
Si Si1 0.133336 0.189276 0.094678
Si Si2 0.133799 0.614293 0.594443
Si Si3 0.371050 0.187420 0.426606
Si Si4 0.373682 0.114099 0.764396
Si Si5 0.449273 0.607174 0.167127
O O1 0.250000 0.154174 0.085538
O O2 0.090614 0.148201 0.259397
O O3 0.128097 0.304248 0.137283
O O4 0.092144 0.170517 0.921225
O O5 0.250000 0.630146 0.654667
O O6 0.127072 0.500000 0.547172
O O7 0.118651 0.694706 0.459914
O O8 0.046104 0.629016 0.721082
O O9 0.250000 0.168252 0.419598
O O10 0.407196 0.144289 0.590904
O O11 0.250000 0.127504 0.757515
O O12 0.394857 0.000000 0.791242
O O13 0.405067 0.500000 0.208707
O O14 0.500000 0.597644 0.000000
#
# Coordination Sequence:
#
# PCOD9405543 Si02
#       5
#     8   8   8   8   8
#     4  10  21  36  56  86 122 156 191 235 288 346
#     4   9  18  34  56  81 111 148 190 237 287 338
#     4   9  18  33  55  83 113 148 190 234 285 345
#     4   9  18  34  57  84 115 153 196 242 292 343
#     4  10  21  35  54  84 118 155 199 239 281 340
#
# _framework density 26.014944
#
# number of rings (size 3 to 8) (size 9 to 14) (size 15 to 20)
#    0.000    2.600    0.000    1.200    0.000    5.200 
#    0.000   10.000    0.000    5.400    0.000    7.000 
#    0.000    0.000    0.000    0.000    0.000    0.000 
#
# Total GULP energy -223387.827869 kJ/mol
# GULP energy per Si atom -5584.695697 kJ/mol
# Density = 2.595573 g / cm^3
# Si number density = 26.014944 Si / 1000 Ang^3
#
#
#
# Elastic Constant Matrix: (Units=GPa)
#
#
# Indices 1 2 3 4 5 6 
#
# 1 91.8529 -1.9703 61.8691 0.0000 0.0000 0.0000
# 2 -1.9703 96.4845 67.7016 0.0000 0.0000 0.0000
# 3 61.8691 67.7016 277.7592 0.0000 0.0000 0.0000
# 4 0.0000 0.0000 0.0000 -31.2117 0.0000 0.0000
# 5 0.0000 0.0000 0.0000 0.0000 47.6781 0.0000
# 6 0.0000 0.0000 0.0000 0.0000 0.0000 12.8373
#
#
#
# Elastic Compliance Matrix: (Units=1/GPa)
#
#
# Indices 1 2 3 4 5 6 
#
# 1 0.013434 0.002864 -0.003690 0.000000 0.000000 0.000000
# 2 0.002864 0.013113 -0.003834 0.000000 0.000000 0.000000
# 3 -0.003690 -0.003834 0.005357 0.000000 0.000000 0.000000
# 4 0.000000 0.000000 0.000000 -0.032039 0.000000 0.000000
# 5 0.000000 0.000000 0.000000 0.000000 0.020974 0.000000
# 6 0.000000 0.000000 0.000000 0.000000 0.000000 0.077898
#
#
# Mechanical properties :
#
#
# Convention : Reuss Voigt Hill
#
# Bulk Modulus (GPa) = 44.28162 80.14414 62.21288
# Shear Modulus (GPa) = 43.25785 28.42715 35.84250
#
# Velocity S-wave (km/s) = 4.08218 3.30922 3.71585
# Velocity P-wave (km/s) = 6.26717 6.74352 6.50971
#
# Compressibility (1/GPa) = 0.02258273
#
# Stress axis : x y z
#
# Youngs Moduli (GPa) = 74.43719 76.25901 186.67863
#
# Poissons Ratio (x) = -0.21839 0.68892
# Poissons Ratio (y) = -0.21318 0.71575
# Poissons Ratio (z) = 0.27470 0.29239
#
# Static dielectric constant tensor:
#      x y z
#    x 2.056690 0.000000 0.000000 
#    y 0.000000 2.078820 0.000000 
#    z 0.000000 0.000000 2.092300 
# 
# From -- ./inp_files/7958.got.cif
#   From: 2010.05.17/outbox.cif.g08.bks.cpg/sg51_4_cif.got.tgz:7958.got - 2010.06.03 11:52:47.
