data_PCOD9405972
_publ_section_title
;
Structure prediction by ZEFSAII (Michael W. Deem and Ramdas Pophale) SiO2 
 PCOD9405972
Probable space group: P M M A
;
_chemical_formula_sum "Si O2"
_cell_formula_units_Z 52
_cell_length_a 9.081976
_cell_length_b 10.517196
_cell_length_c 30.333851
_cell_angle_alpha 90.000000
_cell_angle_beta 90.000000
_cell_angle_gamma 90.000000
_cell_volume 2897.396070
_symmetry_space_group_name_H-M "P M M A"
_symmetry_group_IT_number 51
_symmetry_cell_setting 'orthorhombic'
loop_
_space_group_symop_operation_xyz
x,y,z
1/2-x,-y,z
1/2+x,-y,-z
-x,y,-z
-x,-y,-z
1/2+x,y,-z
1/2-x,y,z
x,-y,z
loop_
_atom_site_type_symbol
_atom_site_label
_atom_site_fract_x
_atom_site_fract_y
_atom_site_fract_z
Si Si1 0.577909 0.500000 0.453726
Si Si2 0.925185 0.725665 0.385470
Si Si3 0.079729 0.844870 0.954967
Si Si4 0.427171 0.649675 0.293333
Si Si5 0.581790 0.153799 0.866087
Si Si6 0.586206 0.148860 0.542738
Si Si7 0.573200 0.150320 0.226248
O O1 0.750000 0.500000 0.462953
O O2 0.500000 0.500000 0.500000
O O3 0.546280 0.381782 0.422131
O O4 0.750000 0.739654 0.378598
O O5 0.004094 0.686642 0.340578
O O6 0.998549 0.841460 0.411415
O O7 0.250000 0.805688 0.954190
O O8 0.994114 0.801633 0.911226
O O9 0.078181 0.000000 0.954626
O O10 0.000000 0.804949 0.000000
O O11 0.250000 0.662158 0.293989
O O12 0.461470 0.500000 0.284023
O O13 0.496611 0.749905 0.259004
O O14 0.750000 0.199629 0.861684
O O15 0.486000 0.180523 0.822796
O O16 0.587942 0.000000 0.869015
O O17 0.500000 0.201509 0.500000
O O18 0.750000 0.206399 0.546333
O O19 0.603590 0.000000 0.533696
O O20 0.750000 0.162092 0.228381
O O21 0.537395 0.000000 0.235524
#
# Coordination Sequence:
#
# PCOD9405972 Si02
#       7
#     4   8   8   8   8   8   8
#     4  10  22  36  54  80 106 132 162 200 243 294
#     4  11  22  38  58  80 106 137 172 210 257 310
#     4   9  15  22  34  56  90 133 179 224 273 331
#     4  11  24  41  61  84 111 145 183 227 279 332
#     4   9  16  27  44  67  98 136 178 226 277 329
#     4  10  21  37  56  80 110 142 176 213 254 304
#     4  10  21  37  58  83 110 144 186 231 280 334
#
# _framework density 17.947150000000001
#
# number of rings (size 3 to 8) (size 9 to 14) (size 15 to 20)
#    0.000    2.000    0.769    3.231    0.000    9.538 
#    0.000    0.000    0.000    0.000    0.000    0.000 
#    0.000    0.615    0.000    2.308    0.000    5.077 
#
# Total GULP energy -289926.533468 kJ/mol
# GULP energy per Si atom -5575.510259 kJ/mol
# Density = 1.790630 g / cm^3
# Si number density = 17.947150 Si / 1000 Ang^3
#
#
#
# Elastic Constant Matrix: (Units=GPa)
#
#
# Indices 1 2 3 4 5 6 
#
# 1 127.5603 46.7993 86.1965 0.0000 0.0000 0.0000
# 2 46.7993 54.4926 54.0598 0.0000 0.0000 0.0000
# 3 86.1965 54.0598 171.3546 0.0000 0.0000 0.0000
# 4 0.0000 0.0000 0.0000 14.6002 0.0000 0.0000
# 5 0.0000 0.0000 0.0000 0.0000 38.5327 0.0000
# 6 0.0000 0.0000 0.0000 0.0000 0.0000 15.3622
#
#
#
# Elastic Compliance Matrix: (Units=1/GPa)
#
#
# Indices 1 2 3 4 5 6 
#
# 1 0.013526 -0.007083 -0.004569 0.000000 0.000000 0.000000
# 2 -0.007083 0.030421 -0.006034 0.000000 0.000000 0.000000
# 3 -0.004569 -0.006034 0.010038 0.000000 0.000000 0.000000
# 4 0.000000 0.000000 0.000000 0.068492 0.000000 0.000000
# 5 0.000000 0.000000 0.000000 0.000000 0.025952 0.000000
# 6 0.000000 0.000000 0.000000 0.000000 0.000000 0.065095
#
#
# Mechanical properties :
#
#
# Convention : Reuss Voigt Hill
#
# Bulk Modulus (GPa) = 53.73143 80.83542 67.28343
# Shear Modulus (GPa) = 19.60019 24.78917 22.19468
#
# Velocity S-wave (km/s) = 3.30829 3.72052 3.52045
# Velocity P-wave (km/s) = 6.67808 7.97465 7.35499
#
# Compressibility (1/GPa) = 0.01861108
#
# Stress axis : x y z
#
# Youngs Moduli (GPa) = 73.93375 32.87254 99.62183
#
# Poissons Ratio (x) = 0.23284 0.45519
# Poissons Ratio (y) = 0.52369 0.60113
# Poissons Ratio (z) = 0.33781 0.19836
#
# Static dielectric constant tensor:
#      x y z
#    x 1.627930 0.000000 0.000000 
#    y 0.000000 1.681440 0.000000 
#    z 0.000000 0.000000 1.585790 
# 
# From -- ./inp_files/36245.got.cif
#   From: 2010.05.17/outbox.cif.g08.bks.cpg/sg51_19_cif.got.tgz:36245.got - 2010.06.03 11:52:47.
