data_PCOD9405736
_publ_section_title
;
Structure prediction by ZEFSAII (Michael W. Deem and Ramdas Pophale) SiO2 
 PCOD9405736
Probable space group: P M M A
;
_chemical_formula_sum "Si O2"
_cell_formula_units_Z 40
_cell_length_a 13.580024
_cell_length_b 8.581971
_cell_length_c 15.913136
_cell_angle_alpha 90.000000
_cell_angle_beta 90.000000
_cell_angle_gamma 90.000000
_cell_volume 1854.570531
_symmetry_space_group_name_H-M "P M M A"
_symmetry_group_IT_number 51
_symmetry_cell_setting 'orthorhombic'
loop_
_space_group_symop_operation_xyz
x,y,z
1/2-x,-y,z
1/2+x,-y,-z
-x,y,-z
-x,-y,-z
1/2+x,y,-z
1/2-x,y,z
x,-y,z
loop_
_atom_site_type_symbol
_atom_site_label
_atom_site_fract_x
_atom_site_fract_y
_atom_site_fract_z
Si Si1 0.862426 0.187485 0.370858
Si Si2 0.947544 0.817405 0.718617
Si Si3 0.139086 0.815438 0.940534
Si Si4 0.068562 0.681339 0.109854
Si Si5 0.868314 0.323289 0.550987
O O1 0.750000 0.234623 0.353911
O O2 0.896775 0.261180 0.458956
O O3 0.938390 0.227356 0.297710
O O4 0.864706 0.000000 0.380760
O O5 0.902646 0.722346 0.795298
O O6 0.898953 0.782808 0.628888
O O7 0.942002 0.000000 0.738551
O O8 0.250000 0.770015 0.914706
O O9 0.047069 0.725979 0.899852
O O10 0.127298 0.000000 0.924664
O O11 0.125435 0.781059 0.039888
O O12 0.083000 0.500000 0.091591
O O13 0.750000 0.325439 0.549237
O O14 0.903686 0.500000 0.564495
#
# Coordination Sequence:
#
# PCOD9405736 Si02
#       5
#     8   8   8   8   8
#     4   9  19  36  56  78 106 143 186 228 272 325
#     4  11  22  36  56  81 111 147 186 228 274 325
#     4  10  21  40  65  87 111 146 184 223 271 330
#     4  11  23  38  58  86 118 147 181 228 277 330
#     4  10  21  36  54  78 109 145 185 230 280 330
#
# _framework density 21.568335999999999
#
# number of rings (size 3 to 8) (size 9 to 14) (size 15 to 20)
#    0.000    1.800    0.000    5.400    0.000    8.400 
#    0.000    2.000    0.000    0.000    0.000    0.000 
#    0.000    0.000    0.000    0.000    0.000    0.000 
#
# Total GULP energy -223583.581458 kJ/mol
# GULP energy per Si atom -5589.589536 kJ/mol
# Density = 2.151925 g / cm^3
# Si number density = 21.568336 Si / 1000 Ang^3
#
#
#
# Elastic Constant Matrix: (Units=GPa)
#
#
# Indices 1 2 3 4 5 6 
#
# 1 35.9253 -0.8327 -20.3101 0.0000 0.0000 0.0000
# 2 -0.8327 26.6601 -6.6073 0.0000 0.0000 0.0000
# 3 -20.3101 -6.6073 58.4288 0.0000 0.0000 0.0000
# 4 0.0000 0.0000 0.0000 48.3767 0.0000 0.0000
# 5 0.0000 0.0000 0.0000 0.0000 7.5988 0.0000
# 6 0.0000 0.0000 0.0000 0.0000 0.0000 18.7066
#
#
#
# Elastic Compliance Matrix: (Units=1/GPa)
#
#
# Indices 1 2 3 4 5 6 
#
# 1 0.035103 0.004239 0.012681 0.000000 0.000000 0.000000
# 2 0.004239 0.039103 0.005895 0.000000 0.000000 0.000000
# 3 0.012681 0.005895 0.022190 0.000000 0.000000 0.000000
# 4 0.000000 0.000000 0.000000 0.020671 0.000000 0.000000
# 5 0.000000 0.000000 0.000000 0.000000 0.131599 0.000000
# 6 0.000000 0.000000 0.000000 0.000000 0.000000 0.053457
#
#
# Mechanical properties :
#
#
# Convention : Reuss Voigt Hill
#
# Bulk Modulus (GPa) = 7.04090 7.27936 7.16013
# Shear Modulus (GPa) = 16.45639 24.85404 20.65522
#
# Velocity S-wave (km/s) = 2.76522 3.39830 3.09797
# Velocity P-wave (km/s) = 3.66972 4.33362 4.01541
#
# Compressibility (1/GPa) = 0.14202728
#
# Stress axis : x y z
#
# Youngs Moduli (GPa) = 28.48752 25.57370 45.06616
#
# Poissons Ratio (x) = -0.10841 -0.57150
# Poissons Ratio (y) = -0.12076 -0.26568
# Poissons Ratio (z) = -0.36126 -0.15077
#
# Static dielectric constant tensor:
#      x y z
#    x 1.826400 0.000000 0.000000 
#    y 0.000000 1.735770 0.000000 
#    z 0.000000 0.000000 1.752580 
# 
# From -- ./inp_files/23678.got.cif
#   From: 2010.05.17/outbox.cif.g08.bks.cpg/sg51_12_cif.got.tgz:23678.got - 2010.06.03 11:52:47.
