data_PCOD9405299
_publ_section_title
;
Structure prediction by ZEFSAII (Michael W. Deem and Ramdas Pophale) SiO2 
 PCOD9405299
Probable space group: P M M A
;
_chemical_formula_sum "Si O2"
_cell_formula_units_Z 40
_cell_length_a 7.478809
_cell_length_b 27.655245
_cell_length_c 9.129090
_cell_angle_alpha 90.000000
_cell_angle_beta 90.000000
_cell_angle_gamma 90.000000
_cell_volume 1888.154121
_symmetry_space_group_name_H-M "P M M A"
_symmetry_group_IT_number 51
_symmetry_cell_setting 'orthorhombic'
loop_
_space_group_symop_operation_xyz
x,y,z
1/2-x,-y,z
1/2+x,-y,-z
-x,y,-z
-x,-y,-z
1/2+x,y,-z
1/2-x,y,z
x,-y,z
loop_
_atom_site_type_symbol
_atom_site_label
_atom_site_fract_x
_atom_site_fract_y
_atom_site_fract_z
Si Si1 0.536114 0.298621 0.325423
Si Si2 0.535732 0.500000 0.171539
Si Si3 0.035487 0.596562 0.673456
Si Si4 0.964586 0.806357 0.326376
Si Si5 0.964235 0.000000 0.327821
Si Si6 0.035702 0.096978 0.828058
O O1 0.500000 0.298673 0.500000
O O2 0.750000 0.298621 0.303581
O O3 0.467081 0.350829 0.272806
O O4 0.466978 0.246351 0.273686
O O5 0.750000 0.500000 0.194607
O O6 0.465481 0.450790 0.245011
O O7 0.500000 0.500000 0.000000
O O8 0.250000 0.597551 0.692040
O O9 0.000000 0.592347 0.500000
O O10 0.750000 0.805231 0.308741
O O11 0.034314 0.853157 0.241618
O O12 0.000000 0.811237 0.500000
O O13 0.033669 0.951036 0.252618
O O14 0.000000 0.000000 0.500000
O O15 0.750000 0.000000 0.307088
O O16 0.250000 0.097550 0.806908
O O17 0.000000 0.094561 0.000000
#
# Coordination Sequence:
#
# PCOD9405299 Si02
#       6
#     8   4   8   8   4   8
#     4   8  14  26  45  68  93 118 147 188 232 271
#     4  10  21  34  46  64  92 124 155 188 230 278
#     4   9  17  30  49  71  92 117 152 192 233 276
#     4   9  17  30  49  72  96 123 156 192 230 274
#     4  10  21  36  54  76  98 122 157 198 238 280
#     4  10  21  35  50  71  99 129 160 193 231 276
#
# _framework density 21.184709999999999
#
# number of rings (size 3 to 8) (size 9 to 14) (size 15 to 20)
#    0.000    2.800    0.000    1.200    0.000    2.400 
#    0.000    1.000    0.000    0.000    0.000    0.000 
#    0.000    0.000    0.000    0.000    0.000    0.000 
#
# Total GULP energy -223080.744558 kJ/mol
# GULP energy per Si atom -5577.018614 kJ/mol
# Density = 2.113649 g / cm^3
# Si number density = 21.184710 Si / 1000 Ang^3
#
#
#
# Elastic Constant Matrix: (Units=GPa)
#
#
# Indices 1 2 3 4 5 6 
#
# 1 65.3514 16.0383 -10.4549 0.0000 0.0000 0.0000
# 2 16.0383 308.0267 111.8208 0.0000 0.0000 0.0000
# 3 -10.4549 111.8208 95.2592 0.0000 0.0000 0.0000
# 4 0.0000 0.0000 0.0000 -17.3437 0.0000 0.0000
# 5 0.0000 0.0000 0.0000 0.0000 21.7122 0.0000
# 6 0.0000 0.0000 0.0000 0.0000 0.0000 -120.8062
#
#
#
# Elastic Compliance Matrix: (Units=1/GPa)
#
#
# Indices 1 2 3 4 5 6 
#
# 1 0.016759 -0.002684 0.004990 0.000000 0.000000 0.000000
# 2 -0.002684 0.006087 -0.007440 0.000000 0.000000 0.000000
# 3 0.004990 -0.007440 0.019779 0.000000 0.000000 0.000000
# 4 0.000000 0.000000 0.000000 -0.057658 0.000000 0.000000
# 5 0.000000 0.000000 0.000000 0.000000 0.046057 0.000000
# 6 0.000000 0.000000 0.000000 0.000000 0.000000 -0.008278
#
#
# Mechanical properties :
#
#
# Convention : Reuss Voigt Hill
#
# Bulk Modulus (GPa) = 30.90536 78.16065 54.53301
# Shear Modulus (GPa) = 114.15451 0.12798 57.14125
#
# Velocity S-wave (km/s) = 7.34863 0.24606 5.19918
# Velocity P-wave (km/s) = 9.30716 6.08734 7.86381
#
# Compressibility (1/GPa) = 0.03235685
#
# Stress axis : x y z
#
# Youngs Moduli (GPa) = 59.66969 164.28118 50.55905
#
# Poissons Ratio (x) = 0.44095 -0.25229
# Poissons Ratio (y) = 0.16016 0.37616
# Poissons Ratio (z) = -0.29776 1.22225
#
# Static dielectric constant tensor:
#      x y z
#    x 1.767740 0.000000 0.000000 
#    y 0.000000 1.837210 0.000000 
#    z 0.000000 0.000000 1.672210 
# 
# From -- ./inp_files/5530.got.cif
#   From: 2010.05.17/outbox.cif.g08.bks.cpg/sg51_3_cif.got.tgz:5530.got - 2010.06.03 11:52:47.
