data_PCOD9405993
_publ_section_title
;
Structure prediction by ZEFSAII (Michael W. Deem and Ramdas Pophale) SiO2 
 PCOD9405993
Probable space group: P M M A
;
_chemical_formula_sum "Si O2"
_cell_formula_units_Z 56
_cell_length_a 8.823732
_cell_length_b 16.349670
_cell_length_c 20.047161
_cell_angle_alpha 90.000000
_cell_angle_beta 90.000000
_cell_angle_gamma 90.000000
_cell_volume 2892.105814
_symmetry_space_group_name_H-M "P M M A"
_symmetry_group_IT_number 51
_symmetry_cell_setting 'orthorhombic'
loop_
_space_group_symop_operation_xyz
x,y,z
1/2-x,-y,z
1/2+x,-y,-z
-x,y,-z
-x,-y,-z
1/2+x,y,-z
1/2-x,y,z
x,-y,z
loop_
_atom_site_type_symbol
_atom_site_label
_atom_site_fract_x
_atom_site_fract_y
_atom_site_fract_z
Si Si1 0.931310 0.342516 0.707111
Si Si2 0.067712 0.091105 0.161417
Si Si3 0.434188 0.589235 0.152828
Si Si4 0.566355 0.751809 0.926189
Si Si5 0.431794 0.904413 0.568363
Si Si6 0.431949 0.165823 0.710531
Si Si7 0.424357 0.401030 0.569482
O O1 0.750000 0.339468 0.704336
O O2 0.975350 0.399733 0.769353
O O3 0.996502 0.253779 0.724148
O O4 0.993599 0.370388 0.635826
O O5 0.250000 0.096017 0.168892
O O6 0.020686 0.166471 0.114252
O O7 0.992324 0.104825 0.233269
O O8 0.030531 0.000000 0.135819
O O9 0.250000 0.589796 0.150079
O O10 0.486263 0.500000 0.128410
O O11 0.484327 0.668888 0.111745
O O12 0.750000 0.751035 0.928718
O O13 0.500000 0.753448 0.000000
O O14 0.500000 0.870264 0.500000
O O15 0.250000 0.900840 0.564195
O O16 0.479147 0.860465 0.636102
O O17 0.476386 0.000000 0.573312
O O18 0.250000 0.169127 0.712747
O O19 0.500000 0.374065 0.500000
O O20 0.250000 0.374001 0.571056
O O21 0.428464 0.500000 0.570155
#
# Coordination Sequence:
#
# PCOD9405993 Si02
#       7
#     8   8   8   8   8   8   8
#     4  11  21  36  58  83 114 153 199 246 299 356
#     4  10  21  39  62  87 117 155 198 242 291 353
#     4   9  18  35  60  86 115 153 195 237 287 349
#     4  10  21  39  60  88 122 154 192 235 286 349
#     4   9  19  35  53  75 105 142 185 234 286 342
#     4  11  22  36  56  83 117 151 193 246 299 351
#     4  10  21  37  56  81 114 152 198 252 307 363
#
# _framework density 19.363054999999999
#
# number of rings (size 3 to 8) (size 9 to 14) (size 15 to 20)
#    0.000    2.000    1.429    2.143    0.000    5.143 
#    0.000    2.857    0.000    1.714    0.000    0.000 
#    0.000    0.000    0.000    0.000    0.000    0.000 
#
# Total GULP energy -312653.927760 kJ/mol
# GULP energy per Si atom -5583.105853 kJ/mol
# Density = 1.931898 g / cm^3
# Si number density = 19.363055 Si / 1000 Ang^3
#
#
#
# Elastic Constant Matrix: (Units=GPa)
#
#
# Indices 1 2 3 4 5 6 
#
# 1 27.8600 32.0616 30.3254 0.0000 0.0000 0.0000
# 2 32.0616 123.6329 63.6761 0.0000 0.0000 0.0000
# 3 30.3254 63.6761 134.7997 0.0000 0.0000 0.0000
# 4 0.0000 0.0000 0.0000 17.7021 0.0000 0.0000
# 5 0.0000 0.0000 0.0000 0.0000 34.9827 0.0000
# 6 0.0000 0.0000 0.0000 0.0000 0.0000 14.5472
#
#
#
# Elastic Compliance Matrix: (Units=1/GPa)
#
#
# Indices 1 2 3 4 5 6 
#
# 1 0.056577 -0.010726 -0.007661 0.000000 0.000000 0.000000
# 2 -0.010726 0.012723 -0.003597 0.000000 0.000000 0.000000
# 3 -0.007661 -0.003597 0.010841 0.000000 0.000000 0.000000
# 4 0.000000 0.000000 0.000000 0.056490 0.000000 0.000000
# 5 0.000000 0.000000 0.000000 0.000000 0.028586 0.000000
# 6 0.000000 0.000000 0.000000 0.000000 0.000000 0.068742
#
#
# Mechanical properties :
#
#
# Convention : Reuss Voigt Hill
#
# Bulk Modulus (GPa) = 27.64563 59.82432 43.73497
# Shear Modulus (GPa) = 17.24235 24.12835 20.68535
#
# Velocity S-wave (km/s) = 2.98732 3.53385 3.27202
# Velocity P-wave (km/s) = 5.11931 6.90029 6.07541
#
# Compressibility (1/GPa) = 0.03617208
#
# Stress axis : x y z
#
# Youngs Moduli (GPa) = 17.67511 78.60035 92.24289
#
# Poissons Ratio (x) = 0.84309 0.70668
# Poissons Ratio (y) = 0.18959 0.33178
# Poissons Ratio (z) = 0.13541 0.28271
#
# Static dielectric constant tensor:
#      x y z
#    x 1.648250 0.000000 0.000000 
#    y 0.000000 1.705750 0.000000 
#    z 0.000000 0.000000 1.650390 
# 
# From -- ./inp_files/32042.got.cif
#   From: 2010.05.17/outbox.cif.g08.bks.cpg/sg51_17_cif.got.tgz:32042.got - 2010.06.03 11:52:47.
