data_PCOD9405723
_publ_section_title
;
Structure prediction by ZEFSAII (Michael W. Deem and Ramdas Pophale) SiO2 
 PCOD9405723
Probable space group: P M M A
;
_chemical_formula_sum "Si O2"
_cell_formula_units_Z 48
_cell_length_a 9.730916
_cell_length_b 7.726914
_cell_length_c 31.612952
_cell_angle_alpha 90.000000
_cell_angle_beta 90.000000
_cell_angle_gamma 90.000000
_cell_volume 2376.976314
_symmetry_space_group_name_H-M "P M M A"
_symmetry_group_IT_number 51
_symmetry_cell_setting 'orthorhombic'
loop_
_space_group_symop_operation_xyz
x,y,z
1/2-x,-y,z
1/2+x,-y,-z
-x,y,-z
-x,-y,-z
1/2+x,y,-z
1/2-x,y,z
x,-y,z
loop_
_atom_site_type_symbol
_atom_site_label
_atom_site_fract_x
_atom_site_fract_y
_atom_site_fract_z
Si Si1 0.405021 0.794740 0.537526
Si Si2 0.092837 0.792278 0.132706
Si Si3 0.092113 0.212285 0.789178
Si Si4 0.906520 0.291638 0.961742
Si Si5 0.406157 0.791549 0.288511
Si Si6 0.094080 0.294438 0.385014
O O1 0.500000 0.720973 0.500000
O O2 0.250000 0.723089 0.538292
O O3 0.485217 0.773641 0.581458
O O4 0.392758 0.000000 0.529755
O O5 0.250000 0.726104 0.137063
O O6 0.043113 0.751298 0.085384
O O7 0.993094 0.729929 0.169681
O O8 0.099409 0.000000 0.136508
O O9 0.250000 0.268304 0.789893
O O10 0.011569 0.269193 0.747086
O O11 0.092442 0.000000 0.789265
O O12 0.750000 0.226203 0.965155
O O13 0.902130 0.500000 0.964822
O O14 0.000000 0.226287 0.000000
O O15 0.250000 0.728627 0.280625
O O16 0.443402 0.744811 0.336491
O O17 0.402664 0.000000 0.285972
O O18 0.250000 0.225608 0.392287
O O19 0.099182 0.500000 0.390078
#
# Coordination Sequence:
#
# PCOD9405723 Si02
#       6
#     8   8   8   8   8   8
#     4  10  21  37  58  82 106 135 173 215 257 302
#     4   9  17  30  48  69  93 121 154 192 235 284
#     4   9  17  29  47  72  98 123 156 200 245 287
#     4   9  18  32  48  66  90 121 155 190 230 278
#     4   9  17  31  52  74  97 130 169 205 243 291
#     4  10  21  36  54  78 108 140 173 210 254 303
#
# _framework density 20.193722000000001
#
# number of rings (size 3 to 8) (size 9 to 14) (size 15 to 20)
#    0.000    2.667    0.000    1.500    0.000    6.000 
#    0.000    2.500    0.000    5.000    0.000    0.000 
#    0.000    0.000    0.000    0.000    0.000    0.000 
#
# Total GULP energy -267894.216794 kJ/mol
# GULP energy per Si atom -5581.129517 kJ/mol
# Density = 2.014776 g / cm^3
# Si number density = 20.193722 Si / 1000 Ang^3
#
#
#
# Elastic Constant Matrix: (Units=GPa)
#
#
# Indices 1 2 3 4 5 6 
#
# 1 157.2491 7.3337 139.8714 0.0000 0.0000 0.0000
# 2 7.3337 29.7960 -2.6059 0.0000 0.0000 0.0000
# 3 139.8714 -2.6059 177.6123 0.0000 0.0000 0.0000
# 4 0.0000 0.0000 0.0000 60.3786 0.0000 0.0000
# 5 0.0000 0.0000 0.0000 0.0000 3.0555 0.0000
# 6 0.0000 0.0000 0.0000 0.0000 0.0000 7.2450
#
#
#
# Elastic Compliance Matrix: (Units=1/GPa)
#
#
# Indices 1 2 3 4 5 6 
#
# 1 0.022656 -0.007146 -0.017947 0.000000 0.000000 0.000000
# 2 -0.007146 0.035859 0.006154 0.000000 0.000000 0.000000
# 3 -0.017947 0.006154 0.019854 0.000000 0.000000 0.000000
# 4 0.000000 0.000000 0.000000 0.016562 0.000000 0.000000
# 5 0.000000 0.000000 0.000000 0.000000 0.327275 0.000000
# 6 0.000000 0.000000 0.000000 0.000000 0.000000 0.138026
#
#
# Mechanical properties :
#
#
# Convention : Reuss Voigt Hill
#
# Bulk Modulus (GPa) = 24.69726 72.65064 48.67395
# Shear Modulus (GPa) = 8.17520 28.80638 18.49079
#
# Velocity S-wave (km/s) = 2.01424 3.78100 3.02929
# Velocity P-wave (km/s) = 4.20313 7.42403 6.03252
#
# Compressibility (1/GPa) = 0.04049032
#
# Stress axis : x y z
#
# Youngs Moduli (GPa) = 44.13866 27.88731 50.36866
#
# Poissons Ratio (x) = 0.19928 0.90394
# Poissons Ratio (y) = 0.31541 -0.30995
# Poissons Ratio (z) = 0.79214 -0.17161
#
# Static dielectric constant tensor:
#      x y z
#    x 1.710820 0.000000 0.000000 
#    y 0.000000 1.737490 0.000000 
#    z 0.000000 0.000000 1.682250 
# 
# From -- ./inp_files/36904.got.cif
#   From: 2010.05.17/outbox.cif.g08.bks.cpg/sg51_19_cif.got.tgz:36904.got - 2010.06.03 11:52:47.
