data_PCOD9405812
_publ_section_title
;
Structure prediction by ZEFSAII (Michael W. Deem and Ramdas Pophale) SiO2 
 PCOD9405812
Probable space group: P M M A
;
_chemical_formula_sum "Si O2"
_cell_formula_units_Z 64
_cell_length_a 16.510014
_cell_length_b 9.506388
_cell_length_c 20.509701
_cell_angle_alpha 90.000000
_cell_angle_beta 90.000000
_cell_angle_gamma 90.000000
_cell_volume 3219.009857
_symmetry_space_group_name_H-M "P M M A"
_symmetry_group_IT_number 51
_symmetry_cell_setting 'orthorhombic'
loop_
_space_group_symop_operation_xyz
x,y,z
1/2-x,-y,z
1/2+x,-y,-z
-x,y,-z
-x,-y,-z
1/2+x,y,-z
1/2-x,y,z
x,-y,z
loop_
_atom_site_type_symbol
_atom_site_label
_atom_site_fract_x
_atom_site_fract_y
_atom_site_fract_z
Si Si1 0.846954 0.167715 0.160957
Si Si2 0.152624 0.158906 0.589814
Si Si3 0.582705 0.334097 0.040163
Si Si4 0.847006 0.832888 0.558762
Si Si5 0.844716 0.344901 0.906942
Si Si6 0.591960 0.337873 0.678702
Si Si7 0.846083 0.155177 0.794168
Si Si8 0.096879 0.337047 0.711543
O O1 0.750000 0.188451 0.151107
O O2 0.896305 0.238718 0.101600
O O3 0.872868 0.245071 0.227629
O O4 0.861657 0.000000 0.164768
O O5 0.250000 0.152069 0.588144
O O6 0.127683 0.195664 0.515954
O O7 0.128375 0.268038 0.644789
O O8 0.122752 0.000000 0.605016
O O9 0.583097 0.500000 0.058645
O O10 0.500000 0.305620 0.000000
O O11 0.647769 0.311183 0.982754
O O12 0.750000 0.805389 0.565404
O O13 0.895479 0.740888 0.610407
O O14 0.858348 0.000000 0.570633
O O15 0.750000 0.355246 0.891160
O O16 0.882126 0.500000 0.896501
O O17 0.881293 0.231324 0.858121
O O18 0.617476 0.500000 0.673486
O O19 0.642081 0.253597 0.732425
O O20 0.500071 0.333788 0.704251
O O21 0.750000 0.139631 0.803930
O O22 0.881246 0.000000 0.783771
O O23 0.122451 0.500000 0.718570
#
# Coordination Sequence:
#
# PCOD9405812 Si02
#       8
#     8   8   8   8   8   8   8   8
#     4  11  25  44  66  92 122 158 203 252 299 352
#     4   9  19  38  63  89 117 150 193 245 298 354
#     4  10  22  39  62  92 125 158 193 239 293 352
#     4   9  19  37  61  88 118 154 196 242 294 355
#     4   9  18  34  56  81 112 152 193 233 282 342
#     4  11  24  38  54  81 119 157 196 244 295 350
#     4  10  21  36  56  82 112 149 193 240 289 346
#     4  11  25  41  59  86 120 158 200 248 299 353
#
# _framework density 19.881891
#
# number of rings (size 3 to 8) (size 9 to 14) (size 15 to 20)
#    0.000    2.000    0.000    3.375    1.750    9.500 
#    0.000    5.000    0.000    0.000    0.000    0.000 
#    0.000    0.000    0.000    0.000    0.000    0.000 
#
# Total GULP energy -357271.828532 kJ/mol
# GULP energy per Si atom -5582.372321 kJ/mol
# Density = 1.983664 g / cm^3
# Si number density = 19.881891 Si / 1000 Ang^3
#
#
#
# Elastic Constant Matrix: (Units=GPa)
#
#
# Indices 1 2 3 4 5 6 
#
# 1 33.6434 41.7416 30.6661 0.0000 0.0000 0.0000
# 2 41.7416 146.8248 105.4117 0.0000 0.0000 0.0000
# 3 30.6661 105.4117 128.5618 0.0000 0.0000 0.0000
# 4 0.0000 0.0000 0.0000 83.5935 0.0000 0.0000
# 5 0.0000 0.0000 0.0000 0.0000 30.3702 0.0000
# 6 0.0000 0.0000 0.0000 0.0000 0.0000 22.6650
#
#
#
# Elastic Compliance Matrix: (Units=1/GPa)
#
#
# Indices 1 2 3 4 5 6 
#
# 1 0.045941 -0.012625 -0.000606 0.000000 0.000000 0.000000
# 2 -0.012625 0.020028 -0.013410 0.000000 0.000000 0.000000
# 3 -0.000606 -0.013410 0.018918 0.000000 0.000000 0.000000
# 4 0.000000 0.000000 0.000000 0.011963 0.000000 0.000000
# 5 0.000000 0.000000 0.000000 0.000000 0.032927 0.000000
# 6 0.000000 0.000000 0.000000 0.000000 0.000000 0.044121
#
#
# Mechanical properties :
#
#
# Convention : Reuss Voigt Hill
#
# Bulk Modulus (GPa) = 31.64219 73.85210 52.74714
# Shear Modulus (GPa) = 21.03369 36.07311 28.55340
#
# Velocity S-wave (km/s) = 3.25612 4.26416 3.79377
# Velocity P-wave (km/s) = 5.48507 7.84029 6.76595
#
# Compressibility (1/GPa) = 0.03160338
#
# Stress axis : x y z
#
# Youngs Moduli (GPa) = 21.76721 49.93134 52.85988
#
# Poissons Ratio (x) = 0.63040 0.03205
# Poissons Ratio (y) = 0.27482 0.70883
# Poissons Ratio (z) = 0.01320 0.66956
#
# Static dielectric constant tensor:
#      x y z
#    x 1.751910 0.000000 0.000000 
#    y 0.000000 1.694230 0.000000 
#    z 0.000000 0.000000 1.681620 
# 
# From -- ./inp_files/33755.got.cif
#   From: 2010.05.17/outbox.cif.g08.bks.cpg/sg51_17_cif.got.tgz:33755.got - 2010.06.03 11:52:47.
