data_PCOD9405291
_publ_section_title
;
Structure prediction by ZEFSAII (Michael W. Deem and Ramdas Pophale) SiO2 
 PCOD9405291
Probable space group: P M M A
;
_chemical_formula_sum "Si O2"
_cell_formula_units_Z 64
_cell_length_a 26.071499
_cell_length_b 8.561742
_cell_length_c 17.816397
_cell_angle_alpha 90.000000
_cell_angle_beta 90.000000
_cell_angle_gamma 90.000000
_cell_volume 3976.930671
_symmetry_space_group_name_H-M "P M M A"
_symmetry_group_IT_number 51
_symmetry_cell_setting 'orthorhombic'
loop_
_space_group_symop_operation_xyz
x,y,z
1/2-x,-y,z
1/2+x,-y,-z
-x,y,-z
-x,-y,-z
1/2+x,y,-z
1/2-x,y,z
x,-y,z
loop_
_atom_site_type_symbol
_atom_site_label
_atom_site_fract_x
_atom_site_fract_y
_atom_site_fract_z
Si Si1 0.439420 0.689440 0.835706
Si Si2 0.062382 0.317758 0.999713
Si Si3 0.308946 0.186985 0.417900
Si Si4 0.599155 0.312721 0.678421
Si Si5 0.309012 0.312984 0.583111
Si Si6 0.001393 0.811057 0.412736
Si Si7 0.440795 0.690714 0.162694
Si Si8 0.900582 0.813062 0.318970
O O1 0.437566 0.500000 0.835746
O O2 0.499426 0.734220 0.826475
O O3 0.408571 0.753144 0.765361
O O4 0.422014 0.746934 0.918440
O O5 0.077870 0.500000 0.999563
O O6 0.077558 0.250873 0.080869
O O7 0.000000 0.315685 0.000000
O O8 0.250000 0.234982 0.402920
O O9 0.348882 0.250839 0.357966
O O10 0.322859 0.249191 0.500626
O O11 0.311271 0.000000 0.419219
O O12 0.599318 0.500000 0.677648
O O13 0.551044 0.254667 0.629295
O O14 0.590409 0.259499 0.764320
O O15 0.250000 0.264762 0.598395
O O16 0.310881 0.500000 0.581493
O O17 0.349224 0.250061 0.642981
O O18 0.949908 0.761910 0.368708
O O19 0.000000 0.762899 0.500000
O O20 0.003982 0.000000 0.410836
O O21 0.439967 0.500000 0.159625
O O22 0.899704 0.000000 0.319479
#
# Coordination Sequence:
#
# PCOD9405291 Si02
#       8
#     8   8   8   8   8   8   8   8
#     4   9  15  27  46  67  95 129 164 199 233 279
#     4   7  11  21  41  65  90 124 161 195 234 278
#     4  10  21  37  54  70  93 126 161 197 240 290
#     4  11  20  30  49  74  98 124 157 202 243 280
#     4  10  21  37  56  75  93 117 158 209 249 281
#     4  10  21  34  45  61  92 132 166 192 227 283
#     4   8  14  25  42  69  98 124 158 198 241 282
#     4  11  21  31  47  71 101 133 160 193 238 288
#
# _framework density 16.092813
#
# number of rings (size 3 to 8) (size 9 to 14) (size 15 to 20)
#    0.000    2.500    1.250    3.750    0.000    3.250 
#    0.000    0.000    0.000    4.875    0.000    0.875 
#    0.000    3.000    0.000    0.000    0.000    0.000 
#
# Total GULP energy -356735.510411 kJ/mol
# GULP energy per Si atom -5573.992350 kJ/mol
# Density = 1.605618 g / cm^3
# Si number density = 16.092813 Si / 1000 Ang^3
#
#
#
# Elastic Constant Matrix: (Units=GPa)
#
#
# Indices 1 2 3 4 5 6 
#
# 1 70.5151 17.7665 77.7094 0.0000 0.0000 0.0000
# 2 17.7665 18.4254 29.0236 0.0000 0.0000 0.0000
# 3 77.7094 29.0236 189.9897 0.0000 0.0000 0.0000
# 4 0.0000 0.0000 0.0000 -4.7830 0.0000 0.0000
# 5 0.0000 0.0000 0.0000 0.0000 17.6615 0.0000
# 6 0.0000 0.0000 0.0000 0.0000 0.0000 21.5629
#
#
#
# Elastic Compliance Matrix: (Units=1/GPa)
#
#
# Indices 1 2 3 4 5 6 
#
# 1 0.027589 -0.011624 -0.009509 0.000000 0.000000 0.000000
# 2 -0.011624 0.076369 -0.006912 0.000000 0.000000 0.000000
# 3 -0.009509 -0.006912 0.010209 0.000000 0.000000 0.000000
# 4 0.000000 0.000000 0.000000 -0.209074 0.000000 0.000000
# 5 0.000000 0.000000 0.000000 0.000000 0.056620 0.000000
# 6 0.000000 0.000000 0.000000 0.000000 0.000000 0.046376
#
#
# Mechanical properties :
#
#
# Convention : Reuss Voigt Hill
#
# Bulk Modulus (GPa) = 17.21857 58.65881 37.93869
# Shear Modulus (GPa) = 59.85294 17.18365 38.51829
#
# Velocity S-wave (km/s) = 6.10517 3.27124 4.89766
# Velocity P-wave (km/s) = 7.77304 7.12723 7.45713
#
# Compressibility (1/GPa) = 0.05807684
#
# Stress axis : x y z
#
# Youngs Moduli (GPa) = 36.24644 13.09428 97.95746
#
# Poissons Ratio (x) = 0.15221 0.93144
# Poissons Ratio (y) = 0.42135 0.67706
# Poissons Ratio (z) = 0.34465 0.09051
#
# Static dielectric constant tensor:
#      x y z
#    x 1.513150 0.000000 0.000000 
#    y 0.000000 1.543930 0.000000 
#    z 0.000000 0.000000 1.563090 
# 
# From -- ./inp_files/30845.got.cif
#   From: 2010.05.17/outbox.cif.g08.bks.cpg/sg51_16_cif.got.tgz:30845.got - 2010.06.03 11:52:47.
