data_PCOD9405482
_publ_section_title
;
Structure prediction by ZEFSAII (Michael W. Deem and Ramdas Pophale) SiO2 
 PCOD9405482
Probable space group: P M M A
;
_chemical_formula_sum "Si O2"
_cell_formula_units_Z 64
_cell_length_a 8.702594
_cell_length_b 20.704861
_cell_length_c 19.100290
_cell_angle_alpha 90.000000
_cell_angle_beta 90.000000
_cell_angle_gamma 90.000000
_cell_volume 3441.604837
_symmetry_space_group_name_H-M "P M M A"
_symmetry_group_IT_number 51
_symmetry_cell_setting 'orthorhombic'
loop_
_space_group_symop_operation_xyz
x,y,z
1/2-x,-y,z
1/2+x,-y,-z
-x,y,-z
-x,-y,-z
1/2+x,y,-z
1/2-x,y,z
x,-y,z
loop_
_atom_site_type_symbol
_atom_site_label
_atom_site_fract_x
_atom_site_fract_y
_atom_site_fract_z
Si Si1 0.564176 0.690928 0.826727
Si Si2 0.435260 0.426345 0.576810
Si Si3 0.065016 0.925269 0.182372
Si Si4 0.433401 0.075503 0.664841
Si Si5 0.064893 0.187048 0.077876
Si Si6 0.564755 0.573801 0.923866
Si Si7 0.934494 0.306118 0.328836
Si Si8 0.067068 0.809295 0.422506
O O1 0.750000 0.691759 0.820492
O O2 0.519190 0.750591 0.876528
O O3 0.516963 0.624858 0.865371
O O4 0.493147 0.696500 0.750290
O O5 0.500000 0.410234 0.500000
O O6 0.250000 0.425573 0.572926
O O7 0.483646 0.500000 0.593890
O O8 0.482525 0.372995 0.633265
O O9 0.250000 0.920299 0.190804
O O10 0.017476 0.876536 0.121320
O O11 0.988391 0.908236 0.256456
O O12 0.027868 0.000000 0.166348
O O13 0.250000 0.083016 0.660029
O O14 0.514189 0.122880 0.610657
O O15 0.471659 0.000000 0.652916
O O16 0.250000 0.187041 0.073523
O O17 0.000000 0.188796 0.000000
O O18 0.750000 0.575139 0.927727
O O19 0.516482 0.500000 0.908823
O O20 0.500000 0.591878 0.000000
O O21 0.750000 0.302372 0.330052
O O22 0.002211 0.247060 0.373065
O O23 0.250000 0.805763 0.424722
O O24 0.000000 0.801825 0.500000
#
# Coordination Sequence:
#
# PCOD9405482 Si02
#       8
#     8   8   8   8   8   8   8   8
#     4  10  21  36  53  76 107 141 179 224 276 332
#     4   9  19  36  57  82 112 145 181 222 270 325
#     4   9  18  34  55  79 109 145 182 220 268 325
#     4  10  21  38  61  89 118 148 186 230 275 327
#     4  10  21  35  52  75 103 137 177 223 272 323
#     4   9  18  33  53  77 106 141 182 228 278 333
#     4  11  23  38  58  84 113 146 187 233 279 330
#     4  12  25  41  61  84 114 150 188 231 279 331
#
# _framework density 18.595977000000001
#
# number of rings (size 3 to 8) (size 9 to 14) (size 15 to 20)
#    0.000    2.000    0.000    3.375    0.000    6.250 
#    0.000    0.000    0.000    0.000    0.000    0.000 
#    0.000    0.000    0.000    0.000    0.000    0.000 
#
# Total GULP energy -357536.101180 kJ/mol
# GULP energy per Si atom -5586.501581 kJ/mol
# Density = 1.855365 g / cm^3
# Si number density = 18.595977 Si / 1000 Ang^3
#
#
#
# Elastic Constant Matrix: (Units=GPa)
#
#
# Indices 1 2 3 4 5 6 
#
# 1 40.4947 45.1467 52.4871 0.0000 0.0000 0.0000
# 2 45.1467 107.7260 105.9007 0.0000 0.0000 0.0000
# 3 52.4871 105.9007 181.4403 0.0000 0.0000 0.0000
# 4 0.0000 0.0000 0.0000 41.7229 0.0000 0.0000
# 5 0.0000 0.0000 0.0000 0.0000 38.3735 0.0000
# 6 0.0000 0.0000 0.0000 0.0000 0.0000 3.5060
#
#
#
# Elastic Compliance Matrix: (Units=1/GPa)
#
#
# Indices 1 2 3 4 5 6 
#
# 1 0.048252 -0.015250 -0.005057 0.000000 0.000000 0.000000
# 2 -0.015250 0.026599 -0.011113 0.000000 0.000000 0.000000
# 3 -0.005057 -0.011113 0.013461 0.000000 0.000000 0.000000
# 4 0.000000 0.000000 0.000000 0.023968 0.000000 0.000000
# 5 0.000000 0.000000 0.000000 0.000000 0.026060 0.000000
# 6 0.000000 0.000000 0.000000 0.000000 0.000000 0.285226
#
#
# Mechanical properties :
#
#
# Convention : Reuss Voigt Hill
#
# Bulk Modulus (GPa) = 39.26179 81.85888 60.56033
# Shear Modulus (GPa) = 10.10313 25.12892 17.61602
#
# Velocity S-wave (km/s) = 2.33340 3.68000 3.08117
# Velocity P-wave (km/s) = 5.33091 7.88491 6.73017
#
# Compressibility (1/GPa) = 0.02547005
#
# Stress axis : x y z
#
# Youngs Moduli (GPa) = 20.72469 37.59530 74.28885
#
# Poissons Ratio (x) = 0.57333 0.37570
# Poissons Ratio (y) = 0.31605 0.82560
# Poissons Ratio (z) = 0.10481 0.41781
#
# Static dielectric constant tensor:
#      x y z
#    x 1.625040 0.000000 0.000000 
#    y 0.000000 1.653200 0.000000 
#    z 0.000000 0.000000 1.590550 
# 
# From -- ./inp_files/28474.got.cif
#   From: 2010.05.17/outbox.cif.g08.bks.cpg/sg51_15_cif.got.tgz:28474.got - 2010.06.03 11:52:47.
