data_PCOD9405676
_publ_section_title
;
Structure prediction by ZEFSAII (Michael W. Deem and Ramdas Pophale) SiO2 
 PCOD9405676
Probable space group: P M M A
;
_chemical_formula_sum "Si O2"
_cell_formula_units_Z 40
_cell_length_a 14.244301
_cell_length_b 8.866462
_cell_length_c 16.396110
_cell_angle_alpha 90.000000
_cell_angle_beta 90.000000
_cell_angle_gamma 90.000000
_cell_volume 2070.772184
_symmetry_space_group_name_H-M "P M M A"
_symmetry_group_IT_number 51
_symmetry_cell_setting 'orthorhombic'
loop_
_space_group_symop_operation_xyz
x,y,z
1/2-x,-y,z
1/2+x,-y,-z
-x,y,-z
-x,-y,-z
1/2+x,y,-z
1/2-x,y,z
x,-y,z
loop_
_atom_site_type_symbol
_atom_site_label
_atom_site_fract_x
_atom_site_fract_y
_atom_site_fract_z
Si Si1 0.033720 0.320096 0.793813
Si Si2 0.361956 0.323532 0.958326
Si Si3 0.645024 0.183397 0.543158
Si Si4 0.951771 0.181805 0.375071
Si Si5 0.640509 0.179264 0.868923
O O1 0.036514 0.500000 0.790198
O O2 0.088838 0.271792 0.875529
O O3 0.074321 0.251935 0.711079
O O4 0.928126 0.261433 0.806740
O O5 0.250000 0.313939 0.947358
O O6 0.386005 0.500000 0.972480
O O7 0.385881 0.231648 0.039541
O O8 0.750000 0.236440 0.563658
O O9 0.557885 0.230331 0.599864
O O10 0.615358 0.223643 0.450618
O O11 0.646043 0.000000 0.546381
O O12 0.951220 0.000000 0.369107
O O13 0.750000 0.218446 0.856698
O O14 0.630385 0.000000 0.861187
#
# Coordination Sequence:
#
# PCOD9405676 Si02
#       5
#     8   8   8   8   8
#     4  11  22  34  51  76 107 140 170 206 254 304
#     4   9  19  36  54  72 100 139 177 210 251 304
#     4   8  15  31  54  75  97 128 164 205 255 304
#     4   9  18  32  51  76 101 127 166 210 249 298
#     4  10  21  36  54  76 101 132 173 218 259 299
#
# _framework density 19.316465999999998
#
# number of rings (size 3 to 8) (size 9 to 14) (size 15 to 20)
#    0.000    2.600    0.000    3.000    0.000    6.800 
#    0.000    4.000    0.000    1.200    0.000    0.000 
#    0.000    0.000    0.000    0.000    0.000    0.000 
#
# Total GULP energy -223219.395793 kJ/mol
# GULP energy per Si atom -5580.484895 kJ/mol
# Density = 1.927250 g / cm^3
# Si number density = 19.316466 Si / 1000 Ang^3
#
#
#
# Elastic Constant Matrix: (Units=GPa)
#
#
# Indices 1 2 3 4 5 6 
#
# 1 39.6246 -1.4780 -14.0858 0.0000 0.0000 0.0000
# 2 -1.4780 11.3089 6.0629 0.0000 0.0000 0.0000
# 3 -14.0858 6.0629 40.7277 0.0000 0.0000 0.0000
# 4 0.0000 0.0000 0.0000 44.0217 0.0000 0.0000
# 5 0.0000 0.0000 0.0000 0.0000 10.8124 0.0000
# 6 0.0000 0.0000 0.0000 0.0000 0.0000 12.8623
#
#
#
# Elastic Compliance Matrix: (Units=1/GPa)
#
#
# Indices 1 2 3 4 5 6 
#
# 1 0.028805 -0.001713 0.010217 0.000000 0.000000 0.000000
# 2 -0.001713 0.096198 -0.014913 0.000000 0.000000 0.000000
# 3 0.010217 -0.014913 0.030307 0.000000 0.000000 0.000000
# 4 0.000000 0.000000 0.000000 0.022716 0.000000 0.000000
# 5 0.000000 0.000000 0.000000 0.000000 0.092487 0.000000
# 6 0.000000 0.000000 0.000000 0.000000 0.000000 0.077747
#
#
# Mechanical properties :
#
#
# Convention : Reuss Voigt Hill
#
# Bulk Modulus (GPa) = 7.01795 8.07329 7.54562
# Shear Modulus (GPa) = 12.23769 20.28340 16.26055
#
# Velocity S-wave (km/s) = 2.51975 3.24397 2.90452
# Velocity P-wave (km/s) = 3.47944 4.26846 3.89399
#
# Compressibility (1/GPa) = 0.14249180
#
# Stress axis : x y z
#
# Youngs Moduli (GPa) = 34.71624 10.39527 32.99570
#
# Poissons Ratio (x) = 0.01781 -0.33713
# Poissons Ratio (y) = 0.05948 0.49206
# Poissons Ratio (z) = -0.35471 0.15502
#
# Static dielectric constant tensor:
#      x y z
#    x 1.702650 0.000000 0.000000 
#    y 0.000000 1.644240 0.000000 
#    z 0.000000 0.000000 1.657010 
# 
# From -- ./inp_files/23674.got.cif
#   From: 2010.05.17/outbox.cif.g08.bks.cpg/sg51_12_cif.got.tgz:23674.got - 2010.06.03 11:52:47.
