data_PCOD9405206
_publ_section_title
;
Structure prediction by ZEFSAII (Michael W. Deem and Ramdas Pophale) SiO2 
 PCOD9405206
Probable space group: P M M A
;
_chemical_formula_sum "Si O2"
_cell_formula_units_Z 48
_cell_length_a 14.107430
_cell_length_b 18.483621
_cell_length_c 9.922974
_cell_angle_alpha 90.000000
_cell_angle_beta 90.000000
_cell_angle_gamma 90.000000
_cell_volume 2587.478872
_symmetry_space_group_name_H-M "P M M A"
_symmetry_group_IT_number 51
_symmetry_cell_setting 'orthorhombic'
loop_
_space_group_symop_operation_xyz
x,y,z
1/2-x,-y,z
1/2+x,-y,-z
-x,y,-z
-x,-y,-z
1/2+x,y,-z
1/2-x,y,z
x,-y,z
loop_
_atom_site_type_symbol
_atom_site_label
_atom_site_fract_x
_atom_site_fract_y
_atom_site_fract_z
Si Si1 0.250000 0.588222 0.553904
Si Si2 0.435609 0.650239 0.115605
Si Si3 0.065334 0.325749 0.628196
Si Si4 0.363534 0.191764 0.129421
Si Si5 0.636899 0.083734 0.117748
Si Si6 0.978732 0.162207 0.348657
Si Si7 0.250000 0.415104 0.240860
O O1 0.250000 0.500000 0.564474
O O2 0.341554 0.625860 0.618939
O O3 0.250000 0.611521 0.395700
O O4 0.504478 0.656584 0.241822
O O5 0.399686 0.730665 0.075841
O O6 0.342499 0.609375 0.161751
O O7 0.500000 0.616904 0.000000
O O8 0.076990 0.238592 0.631767
O O9 0.000000 0.342248 0.500000
O O10 0.250000 0.194077 0.153955
O O11 0.423708 0.177209 0.265412
O O12 0.383728 0.132463 0.014074
O O13 0.750000 0.089563 0.141134
O O14 0.581728 0.112219 0.248747
O O15 0.613831 0.000000 0.091580
O O16 0.000000 0.134663 0.500000
O O17 0.250000 0.500000 0.251924
#
# Coordination Sequence:
#
# PCOD9405206 Si02
#       7
#     4   8   8   8   8   8   4
#     4  11  24  41  67  95 121 164 212 254 309 367
#     4  11  22  39  62  89 123 160 204 253 309 366
#     4  10  21  39  62  92 122 161 213 254 296 362
#     4  10  20  38  63  87 116 159 210 249 292 362
#     4  10  22  40  62  90 122 160 205 253 300 354
#     4  10  22  36  58  92 123 162 198 247 310 360
#     4  11  24  41  63  89 121 164 200 248 319 369
#
# _framework density 18.550875000000001
#
# number of rings (size 3 to 8) (size 9 to 14) (size 15 to 20)
#    0.000    1.667    2.500    2.500    1.167    4.333 
#    0.000    0.833    0.000    2.000    0.000    0.000 
#    0.000    0.000    0.000    0.000    0.000    0.000 
#
# Total GULP energy -267928.263005 kJ/mol
# GULP energy per Si atom -5581.838813 kJ/mol
# Density = 1.850865 g / cm^3
# Si number density = 18.550875 Si / 1000 Ang^3
#
#
#
# Elastic Constant Matrix: (Units=GPa)
#
#
# Indices 1 2 3 4 5 6 
#
# 1 118.1682 56.0615 38.4067 0.0000 0.0000 0.0000
# 2 56.0615 73.1767 33.4271 0.0000 0.0000 0.0000
# 3 38.4067 33.4271 99.3334 0.0000 0.0000 0.0000
# 4 0.0000 0.0000 0.0000 26.1363 0.0000 0.0000
# 5 0.0000 0.0000 0.0000 0.0000 -16.6808 0.0000
# 6 0.0000 0.0000 0.0000 0.0000 0.0000 -215.4221
#
#
#
# Elastic Compliance Matrix: (Units=1/GPa)
#
#
# Indices 1 2 3 4 5 6 
#
# 1 0.013648 -0.009507 -0.002078 0.000000 0.000000 0.000000
# 2 -0.009507 0.022770 -0.003987 0.000000 0.000000 0.000000
# 3 -0.002078 -0.003987 0.012212 0.000000 0.000000 0.000000
# 4 0.000000 0.000000 0.000000 0.038261 0.000000 0.000000
# 5 0.000000 0.000000 0.000000 0.000000 -0.059949 0.000000
# 6 0.000000 0.000000 0.000000 0.000000 0.000000 -0.004642
#
#
# Mechanical properties :
#
#
# Convention : Reuss Voigt Hill
#
# Bulk Modulus (GPa) = 57.18352 60.71875 58.95113
# Shear Modulus (GPa) = 84.35798 -30.34111 27.00843
#
# Velocity S-wave (km/s) = 6.75075 -4.04860 3.81978
# Velocity P-wave (km/s) = 9.57369 3.30865 7.16250
#
# Compressibility (1/GPa) = 0.01748756
#
# Stress axis : x y z
#
# Youngs Moduli (GPa) = 73.27059 43.91764 81.88642
#
# Poissons Ratio (x) = 0.41752 0.17014
# Poissons Ratio (y) = 0.69657 0.32645
# Poissons Ratio (z) = 0.15224 0.17508
#
# Static dielectric constant tensor:
#      x y z
#    x 1.621240 0.000000 0.000000 
#    y 0.000000 1.648300 0.000000 
#    z 0.000000 0.000000 1.612840 
# 
# From -- ./inp_files/8297.got.cif
#   From: 2010.05.17/outbox.cif.g08.bks.cpg/sg51_5_cif.got.tgz:8297.got - 2010.06.03 11:52:47.
