data_PCOD9405130
_publ_section_title
;
Structure prediction by ZEFSAII (Michael W. Deem and Ramdas Pophale) SiO2 
 PCOD9405130
Probable space group: P M M A
;
_chemical_formula_sum "Si O2"
_cell_formula_units_Z 40
_cell_length_a 8.602634
_cell_length_b 12.934693
_cell_length_c 19.562248
_cell_angle_alpha 90.000000
_cell_angle_beta 90.000000
_cell_angle_gamma 90.000000
_cell_volume 2176.738867
_symmetry_space_group_name_H-M "P M M A"
_symmetry_group_IT_number 51
_symmetry_cell_setting 'orthorhombic'
loop_
_space_group_symop_operation_xyz
x,y,z
1/2-x,-y,z
1/2+x,-y,-z
-x,y,-z
-x,-y,-z
1/2+x,y,-z
1/2-x,y,z
x,-y,z
loop_
_atom_site_type_symbol
_atom_site_label
_atom_site_fract_x
_atom_site_fract_y
_atom_site_fract_z
Si Si1 0.936986 0.000000 0.577174
Si Si2 0.435990 0.500000 0.923292
Si Si3 0.562922 0.227014 0.577379
Si Si4 0.937508 0.882012 0.925214
Si Si5 0.936449 0.620371 0.309885
Si Si6 0.562967 0.309592 0.835032
O O1 0.983929 0.887706 0.605629
O O2 0.000000 0.000000 0.500000
O O3 0.750000 0.000000 0.575712
O O4 0.250000 0.500000 0.923775
O O5 0.497327 0.400050 0.883013
O O6 0.500000 0.500000 0.000000
O O7 0.500000 0.235888 0.500000
O O8 0.750000 0.232316 0.575984
O O9 0.496867 0.315816 0.625439
O O10 0.750000 0.881512 0.928198
O O11 0.985202 0.799673 0.868174
O O12 0.988695 0.000000 0.911444
O O13 0.000000 0.851767 0.000000
O O14 0.750000 0.623060 0.308244
O O15 0.985438 0.500000 0.312289
O O16 0.001603 0.671365 0.240919
O O17 0.750000 0.314861 0.834652
#
# Coordination Sequence:
#
# PCOD9405130 Si02
#       6
#     4   4   8   8   8   8
#     4   8  16  32  56  86 116 146 181 228 283 332
#     4  12  24  38  58  86 117 150 193 242 288 340
#     4  10  20  37  62  90 119 152 192 237 285 343
#     4   9  19  36  58  85 115 148 186 232 284 340
#     4  11  24  41  59  81 115 155 194 241 293 343
#     4  11  22  38  60  84 114 152 193 238 291 346
#
# _framework density 18.376113
#
# number of rings (size 3 to 8) (size 9 to 14) (size 15 to 20)
#    0.000    1.800    1.000    3.300    0.000    5.600 
#    1.800    0.000    0.000    0.000    0.000    0.000 
#    0.000    0.000    0.000    0.000    0.000    0.000 
#
# Total GULP energy -223308.277368 kJ/mol
# GULP energy per Si atom -5582.706934 kJ/mol
# Density = 1.833429 g / cm^3
# Si number density = 18.376113 Si / 1000 Ang^3
#
#
#
# Elastic Constant Matrix: (Units=GPa)
#
#
# Indices 1 2 3 4 5 6 
#
# 1 52.8262 43.3535 36.5710 0.0000 0.0000 0.0000
# 2 43.3535 153.6863 91.7871 0.0000 0.0000 0.0000
# 3 36.5710 91.7871 128.8008 0.0000 0.0000 0.0000
# 4 0.0000 0.0000 0.0000 34.1015 0.0000 0.0000
# 5 0.0000 0.0000 0.0000 0.0000 34.5392 0.0000
# 6 0.0000 0.0000 0.0000 0.0000 0.0000 11.7832
#
#
#
# Elastic Compliance Matrix: (Units=1/GPa)
#
#
# Indices 1 2 3 4 5 6 
#
# 1 0.025605 -0.005016 -0.003696 0.000000 0.000000 0.000000
# 2 -0.005016 0.012311 -0.007349 0.000000 0.000000 0.000000
# 3 -0.003696 -0.007349 0.014050 0.000000 0.000000 0.000000
# 4 0.000000 0.000000 0.000000 0.029324 0.000000 0.000000
# 5 0.000000 0.000000 0.000000 0.000000 0.028953 0.000000
# 6 0.000000 0.000000 0.000000 0.000000 0.000000 0.084867
#
#
# Mechanical properties :
#
#
# Convention : Reuss Voigt Hill
#
# Bulk Modulus (GPa) = 50.38996 75.41516 62.90256
# Shear Modulus (GPa) = 21.38172 26.99156 24.18664
#
# Velocity S-wave (km/s) = 3.41480 3.83670 3.63188
# Velocity P-wave (km/s) = 6.55963 7.79461 7.20363
#
# Compressibility (1/GPa) = 0.01984522
#
# Stress axis : x y z
#
# Youngs Moduli (GPa) = 39.05523 81.23114 71.17328
#
# Poissons Ratio (x) = 0.40742 0.26304
# Poissons Ratio (y) = 0.19588 0.52303
# Poissons Ratio (z) = 0.14434 0.59695
#
# Static dielectric constant tensor:
#      x y z
#    x 1.618620 0.000000 0.000000 
#    y 0.000000 1.658110 0.000000 
#    z 0.000000 0.000000 1.594170 
# 
# From -- ./inp_files/31421.got.cif
#   From: 2010.05.17/outbox.cif.g08.bks.cpg/sg51_16_cif.got.tgz:31421.got - 2010.06.03 11:52:47.
