data_PCOD9405693
_publ_section_title
;
Structure prediction by ZEFSAII (Michael W. Deem and Ramdas Pophale) SiO2 
 PCOD9405693
Probable space group: P M M A
;
_chemical_formula_sum "Si O2"
_cell_formula_units_Z 48
_cell_length_a 9.381525
_cell_length_b 7.796929
_cell_length_c 31.968362
_cell_angle_alpha 90.000000
_cell_angle_beta 90.000000
_cell_angle_gamma 90.000000
_cell_volume 2338.392471
_symmetry_space_group_name_H-M "P M M A"
_symmetry_group_IT_number 51
_symmetry_cell_setting 'orthorhombic'
loop_
_space_group_symop_operation_xyz
x,y,z
1/2-x,-y,z
1/2+x,-y,-z
-x,y,-z
-x,-y,-z
1/2+x,y,-z
1/2-x,y,z
x,-y,z
loop_
_atom_site_type_symbol
_atom_site_label
_atom_site_fract_x
_atom_site_fract_y
_atom_site_fract_z
Si Si1 0.411279 0.294682 0.284986
Si Si2 0.585623 0.207077 0.366984
Si Si3 0.088007 0.706172 0.794455
Si Si4 0.916042 0.208947 0.459599
Si Si5 0.087663 0.294267 0.960050
Si Si6 0.912517 0.204790 0.877257
O O1 0.250000 0.226418 0.283775
O O2 0.402973 0.500000 0.279699
O O3 0.486644 0.261839 0.329097
O O4 0.507441 0.227195 0.246816
O O5 0.750000 0.264586 0.360757
O O6 0.536075 0.264922 0.413241
O O7 0.588070 0.000000 0.367597
O O8 0.250000 0.772084 0.797879
O O9 0.097086 0.500000 0.790717
O O10 0.995815 0.743224 0.835474
O O11 0.750000 0.253055 0.463342
O O12 0.000000 0.272728 0.500000
O O13 0.925353 0.000000 0.459869
O O14 0.250000 0.227724 0.958264
O O15 0.097100 0.500000 0.964650
O O16 0.001202 0.260271 0.917797
O O17 0.000000 0.226985 0.000000
O O18 0.750000 0.272720 0.877848
O O19 0.905117 0.000000 0.877891
#
# Coordination Sequence:
#
# PCOD9405693 Si02
#       6
#     8   8   8   8   8   8
#     4  10  21  36  54  77 104 135 172 214 260 310
#     4   9  18  32  50  74 103 134 169 210 257 309
#     4  10  21  38  60  82 103 134 177 219 261 313
#     4   8  14  25  42  66  96 128 163 204 250 301
#     4  10  21  38  61  87 113 145 186 227 267 313
#     4  11  24  39  56  82 115 148 180 217 265 316
#
# _framework density 20.526921999999999
#
# number of rings (size 3 to 8) (size 9 to 14) (size 15 to 20)
#    0.000    2.333    0.000    3.500    0.000    8.333 
#    0.000    1.667    0.000    0.500    0.000    0.000 
#    0.000    0.000    0.000    0.000    0.000    0.000 
#
# Total GULP energy -268031.861623 kJ/mol
# GULP energy per Si atom -5583.997117 kJ/mol
# Density = 2.048020 g / cm^3
# Si number density = 20.526922 Si / 1000 Ang^3
#
#
#
# Elastic Constant Matrix: (Units=GPa)
#
#
# Indices 1 2 3 4 5 6 
#
# 1 196.9747 9.9014 135.1188 0.0000 0.0000 0.0000
# 2 9.9014 25.7612 -1.5365 0.0000 0.0000 0.0000
# 3 135.1188 -1.5365 222.4243 0.0000 0.0000 0.0000
# 4 0.0000 0.0000 0.0000 24.3385 0.0000 0.0000
# 5 0.0000 0.0000 0.0000 0.0000 45.3744 0.0000
# 6 0.0000 0.0000 0.0000 0.0000 0.0000 17.9386
#
#
#
# Elastic Compliance Matrix: (Units=1/GPa)
#
#
# Indices 1 2 3 4 5 6 
#
# 1 0.009063 -0.003814 -0.005532 0.000000 0.000000 0.000000
# 2 -0.003814 0.040439 0.002596 0.000000 0.000000 0.000000
# 3 -0.005532 0.002596 0.007875 0.000000 0.000000 0.000000
# 4 0.000000 0.000000 0.000000 0.041087 0.000000 0.000000
# 5 0.000000 0.000000 0.000000 0.000000 0.022039 0.000000
# 6 0.000000 0.000000 0.000000 0.000000 0.000000 0.055746
#
#
# Mechanical properties :
#
#
# Convention : Reuss Voigt Hill
#
# Bulk Modulus (GPa) = 22.79091 81.34750 52.06921
# Shear Modulus (GPa) = 24.46500 37.64207 31.05353
#
# Velocity S-wave (km/s) = 3.45606 4.28692 3.89372
# Velocity P-wave (km/s) = 5.20124 8.01370 6.75545
#
# Compressibility (1/GPa) = 0.04387714
#
# Stress axis : x y z
#
# Youngs Moduli (GPa) = 110.33355 24.72884 126.99109
#
# Poissons Ratio (x) = 0.09430 0.70254
# Poissons Ratio (y) = 0.42076 -0.32967
# Poissons Ratio (z) = 0.61039 -0.06420
#
# Static dielectric constant tensor:
#      x y z
#    x 1.720340 0.000000 0.000000 
#    y 0.000000 1.767010 0.000000 
#    z 0.000000 0.000000 1.700660 
# 
# From -- ./inp_files/36894.got.cif
#   From: 2010.05.17/outbox.cif.g08.bks.cpg/sg51_19_cif.got.tgz:36894.got - 2010.06.03 11:52:47.
