data_PCOD9405520
_publ_section_title
;
Structure prediction by ZEFSAII (Michael W. Deem and Ramdas Pophale) SiO2 
 PCOD9405520
Probable space group: P M M A
;
_chemical_formula_sum "Si O2"
_cell_formula_units_Z 44
_cell_length_a 10.488436
_cell_length_b 16.074745
_cell_length_c 14.728723
_cell_angle_alpha 90.000000
_cell_angle_beta 90.000000
_cell_angle_gamma 90.000000
_cell_volume 2483.246999
_symmetry_space_group_name_H-M "P M M A"
_symmetry_group_IT_number 51
_symmetry_cell_setting 'orthorhombic'
loop_
_space_group_symop_operation_xyz
x,y,z
1/2-x,-y,z
1/2+x,-y,-z
-x,y,-z
-x,-y,-z
1/2+x,y,-z
1/2-x,y,z
x,-y,z
loop_
_atom_site_type_symbol
_atom_site_label
_atom_site_fract_x
_atom_site_fract_y
_atom_site_fract_z
Si Si1 0.099426 0.500000 0.916213
Si Si2 0.602217 0.097402 0.578777
Si Si3 0.890034 0.599438 0.435194
Si Si4 0.391029 0.900831 0.066726
Si Si5 0.895323 0.791665 0.755426
Si Si6 0.397905 0.350274 0.773558
O O1 0.250000 0.500000 0.944994
O O2 0.080721 0.579975 0.850523
O O3 0.000000 0.500000 0.000000
O O4 0.500000 0.112325 0.500000
O O5 0.750000 0.107842 0.548674
O O6 0.579433 0.159606 0.662027
O O7 0.589389 0.000000 0.607356
O O8 0.750000 0.633847 0.458532
O O9 0.885876 0.500000 0.449517
O O10 0.911603 0.613015 0.328368
O O11 0.000000 0.634298 0.500000
O O12 0.250000 0.884053 0.028427
O O13 0.399148 0.858311 0.163801
O O14 0.404482 0.000000 0.077092
O O15 0.500000 0.869692 0.000000
O O16 0.750000 0.757659 0.751487
O O17 0.999367 0.722495 0.777565
O O18 0.250000 0.322334 0.782128
#
# Coordination Sequence:
#
# PCOD9405520 Si02
#       6
#     4   8   8   8   8   8
#     4  10  22  42  63  80 102 138 181 224 271 326
#     4   9  18  34  55  78 108 148 189 225 262 309
#     4   9  17  32  54  77 101 132 168 207 253 304
#     4   9  18  34  55  77 103 136 172 212 260 314
#     4  10  21  35  53  79 110 141 176 219 266 315
#     4  10  21  38  57  77 107 142 176 217 268 321
#
# _framework density 17.718736
#
# number of rings (size 3 to 8) (size 9 to 14) (size 15 to 20)
#    0.000    2.545    0.909    0.545    0.000    6.545 
#    0.000    7.273    0.000    5.455    0.000    0.000 
#    0.000    0.000    0.000    0.000    0.000    0.000 
#
# Total GULP energy -245273.770428 kJ/mol
# GULP energy per Si atom -5574.403873 kJ/mol
# Density = 1.767841 g / cm^3
# Si number density = 17.718736 Si / 1000 Ang^3
#
#
#
# Elastic Constant Matrix: (Units=GPa)
#
#
# Indices 1 2 3 4 5 6 
#
# 1 154.1794 71.2167 96.1690 0.0000 0.0000 0.0000
# 2 71.2167 49.8675 36.4699 0.0000 0.0000 0.0000
# 3 96.1690 36.4699 99.1944 0.0000 0.0000 0.0000
# 4 0.0000 0.0000 0.0000 -74.9404 0.0000 0.0000
# 5 0.0000 0.0000 0.0000 0.0000 36.2290 0.0000
# 6 0.0000 0.0000 0.0000 0.0000 0.0000 75.9936
#
#
#
# Elastic Compliance Matrix: (Units=1/GPa)
#
#
# Indices 1 2 3 4 5 6 
#
# 1 0.038949 -0.038309 -0.023677 0.000000 0.000000 0.000000
# 2 -0.038309 0.065107 0.013203 0.000000 0.000000 0.000000
# 3 -0.023677 0.013203 0.028182 0.000000 0.000000 0.000000
# 4 0.000000 0.000000 0.000000 -0.013344 0.000000 0.000000
# 5 0.000000 0.000000 0.000000 0.000000 0.027602 0.000000
# 6 0.000000 0.000000 0.000000 0.000000 0.000000 0.013159
#
#
# Mechanical properties :
#
#
# Convention : Reuss Voigt Hill
#
# Bulk Modulus (GPa) = 28.84099 78.99471 53.91785
# Shear Modulus (GPa) = 18.60273 14.08215 16.34244
#
# Velocity S-wave (km/s) = 3.24372 2.82221 3.04028
# Velocity P-wave (km/s) = 5.50830 7.43634 6.54372
#
# Compressibility (1/GPa) = 0.03467288
#
# Stress axis : x y z
#
# Youngs Moduli (GPa) = 25.67429 15.35940 35.48405
#
# Poissons Ratio (x) = 0.58840 0.84015
# Poissons Ratio (y) = 0.98355 -0.46850
# Poissons Ratio (z) = 0.60789 -0.20279
#
# Static dielectric constant tensor:
#      x y z
#    x 1.625900 0.000000 0.000000 
#    y 0.000000 1.591900 0.000000 
#    z 0.000000 0.000000 1.575460 
# 
# From -- ./inp_files/20928.got.cif
#   From: 2010.05.17/outbox.cif.g08.bks.cpg/sg51_11_cif.got.tgz:20928.got - 2010.06.03 11:52:47.
