data_PCOD9405674
_publ_section_title
;
Structure prediction by ZEFSAII (Michael W. Deem and Ramdas Pophale) SiO2 
 PCOD9405674
Probable space group: P M M A
;
_chemical_formula_sum "Si O2"
_cell_formula_units_Z 48
_cell_length_a 9.676707
_cell_length_b 7.766053
_cell_length_c 31.797778
_cell_angle_alpha 90.000000
_cell_angle_beta 90.000000
_cell_angle_gamma 90.000000
_cell_volume 2389.597275
_symmetry_space_group_name_H-M "P M M A"
_symmetry_group_IT_number 51
_symmetry_cell_setting 'orthorhombic'
loop_
_space_group_symop_operation_xyz
x,y,z
1/2-x,-y,z
1/2+x,-y,-z
-x,y,-z
-x,-y,-z
1/2+x,y,-z
1/2-x,y,z
x,-y,z
loop_
_atom_site_type_symbol
_atom_site_label
_atom_site_fract_x
_atom_site_fract_y
_atom_site_fract_z
Si Si1 0.907664 0.704883 0.131986
Si Si2 0.905635 0.205474 0.789136
Si Si3 0.409234 0.710782 0.459818
Si Si4 0.092028 0.292913 0.618235
Si Si5 0.092664 0.207219 0.713201
Si Si6 0.092780 0.207300 0.961702
O O1 0.750000 0.774028 0.136661
O O2 0.900592 0.500000 0.134951
O O3 0.958039 0.750417 0.085131
O O4 0.007359 0.767030 0.168611
O O5 0.750000 0.275148 0.791980
O O6 0.991297 0.274487 0.749222
O O7 0.895228 0.000000 0.783231
O O8 0.500000 0.763367 0.500000
O O9 0.250000 0.767135 0.462163
O O10 0.407389 0.500000 0.459705
O O11 0.487353 0.768482 0.417520
O O12 0.250000 0.229029 0.612005
O O13 0.097101 0.500000 0.614953
O O14 0.048997 0.249024 0.665689
O O15 0.250000 0.272172 0.718992
O O16 0.097775 0.000000 0.716744
O O17 0.250000 0.272813 0.964902
O O18 0.097193 0.000000 0.964831
O O19 0.000000 0.272443 0.000000
#
# Coordination Sequence:
#
# PCOD9405674 Si02
#       6
#     8   8   8   8   8   8
#     4  10  21  36  54  77 105 137 172 209 252 302
#     4  10  21  36  54  76 101 131 169 211 253 299
#     4   9  16  26  42  65  93 124 157 194 237 284
#     4   9  17  29  46  69  95 122 155 196 240 286
#     4   9  18  33  52  72  96 129 165 200 243 296
#     4   9  18  33  53  76 102 134 172 211 249 293
#
# _framework density 20.087064999999999
#
# number of rings (size 3 to 8) (size 9 to 14) (size 15 to 20)
#    0.000    2.667    0.000    1.500    0.000    6.333 
#    0.000    3.333    0.000    0.500    0.000    0.000 
#    0.000    0.000    0.000    0.000    0.000    0.000 
#
# Total GULP energy -267881.657681 kJ/mol
# GULP energy per Si atom -5580.867868 kJ/mol
# Density = 2.004135 g / cm^3
# Si number density = 20.087065 Si / 1000 Ang^3
#
#
#
# Elastic Constant Matrix: (Units=GPa)
#
#
# Indices 1 2 3 4 5 6 
#
# 1 144.1991 5.9365 142.1387 0.0000 0.0000 0.0000
# 2 5.9365 26.4836 -1.3091 0.0000 0.0000 0.0000
# 3 142.1387 -1.3091 213.4953 0.0000 0.0000 0.0000
# 4 0.0000 0.0000 0.0000 23.6967 0.0000 0.0000
# 5 0.0000 0.0000 0.0000 0.0000 38.6604 0.0000
# 6 0.0000 0.0000 0.0000 0.0000 0.0000 -5.7484
#
#
#
# Elastic Compliance Matrix: (Units=1/GPa)
#
#
# Indices 1 2 3 4 5 6 
#
# 1 0.020913 -0.005378 -0.013956 0.000000 0.000000 0.000000
# 2 -0.005378 0.039154 0.003820 0.000000 0.000000 0.000000
# 3 -0.013956 0.003820 0.013999 0.000000 0.000000 0.000000
# 4 0.000000 0.000000 0.000000 0.042200 0.000000 0.000000
# 5 0.000000 0.000000 0.000000 0.000000 0.025866 0.000000
# 6 0.000000 0.000000 0.000000 0.000000 0.000000 -0.173961
#
#
# Mechanical properties :
#
#
# Convention : Reuss Voigt Hill
#
# Bulk Modulus (GPa) = 23.23503 75.30114 49.26808
# Shear Modulus (GPa) = 369.14976 27.14921 198.14949
#
# Velocity S-wave (km/s) = 13.57107 3.68037 9.94281
# Velocity P-wave (km/s) = 16.03613 7.45848 12.50572
#
# Compressibility (1/GPa) = 0.04303847
#
# Stress axis : x y z
#
# Youngs Moduli (GPa) = 47.81681 25.54048 71.43336
#
# Poissons Ratio (x) = 0.13735 0.99695
# Poissons Ratio (y) = 0.25715 -0.27291
# Poissons Ratio (z) = 0.66735 -0.09758
#
# Static dielectric constant tensor:
#      x y z
#    x 1.714540 0.000000 0.000000 
#    y 0.000000 1.739930 0.000000 
#    z 0.000000 0.000000 1.678420 
# 
# From -- ./inp_files/36123.got.cif
#   From: 2010.05.17/outbox.cif.g08.bks.cpg/sg51_19_cif.got.tgz:36123.got - 2010.06.03 11:52:47.
