data_PCOD9405431
_publ_section_title
;
Structure prediction by ZEFSAII (Michael W. Deem and Ramdas Pophale) SiO2 
 PCOD9405431
Probable space group: P M M A
;
_chemical_formula_sum "Si O2"
_cell_formula_units_Z 64
_cell_length_a 24.047978
_cell_length_b 9.301104
_cell_length_c 16.547596
_cell_angle_alpha 90.000000
_cell_angle_beta 90.000000
_cell_angle_gamma 90.000000
_cell_volume 3701.246210
_symmetry_space_group_name_H-M "P M M A"
_symmetry_group_IT_number 51
_symmetry_cell_setting 'orthorhombic'
loop_
_space_group_symop_operation_xyz
x,y,z
1/2-x,-y,z
1/2+x,-y,-z
-x,y,-z
-x,-y,-z
1/2+x,y,-z
1/2-x,y,z
x,-y,z
loop_
_atom_site_type_symbol
_atom_site_label
_atom_site_fract_x
_atom_site_fract_y
_atom_site_fract_z
Si Si1 0.590391 0.667565 0.465465
Si Si2 0.520628 0.331600 0.299466
Si Si3 0.314051 0.171270 0.272233
Si Si4 0.684545 0.172136 0.053164
Si Si5 0.578619 0.829116 0.628462
Si Si6 0.817509 0.664333 0.891037
Si Si7 0.117323 0.170109 0.786080
Si Si8 0.184521 0.831896 0.621248
O O1 0.593044 0.500000 0.487524
O O2 0.551340 0.681344 0.386765
O O3 0.569805 0.758820 0.541160
O O4 0.649623 0.730454 0.437456
O O5 0.511329 0.500000 0.283749
O O6 0.463919 0.243986 0.309222
O O7 0.563017 0.261612 0.235658
O O8 0.250000 0.210774 0.291940
O O9 0.358364 0.199884 0.342331
O O10 0.332104 0.253177 0.191051
O O11 0.314855 0.000000 0.256414
O O12 0.750000 0.205413 0.068036
O O13 0.647827 0.210277 0.130952
O O14 0.681056 0.000000 0.041184
O O15 0.665657 0.252839 0.972247
O O16 0.569751 0.000000 0.625638
O O17 0.750000 0.663253 0.892482
O O18 0.836997 0.500000 0.890385
O O19 0.160330 0.188633 0.711520
O O20 0.103479 0.000000 0.788964
O O21 0.250000 0.805016 0.619251
O O22 0.174681 0.000000 0.599645
#
# Coordination Sequence:
#
# PCOD9405431 Si02
#       8
#     8   8   8   8   8   8   8   8
#     4  10  21  35  50  71  99 131 167 206 249 295
#     4  10  21  36  52  71  99 133 166 204 250 294
#     4   9  19  36  55  75 100 127 156 195 245 297
#     4   9  16  27  47  75 105 136 168 202 242 287
#     4  11  22  35  55  78  96 122 163 207 249 295
#     4   9  17  29  47  73 103 133 164 197 236 286
#     4   9  17  30  49  73 100 132 171 209 242 283
#     4   9  17  30  48  70  99 134 169 205 245 289
#
# _framework density 17.291473
#
# number of rings (size 3 to 8) (size 9 to 14) (size 15 to 20)
#    0.000    2.500    0.000    2.250    0.000    8.250 
#    0.000    1.250    0.000    3.000    0.000    5.250 
#    0.000    0.000    0.000    0.000    0.000    0.000 
#
# Total GULP energy -356982.306368 kJ/mol
# GULP energy per Si atom -5577.848537 kJ/mol
# Density = 1.725212 g / cm^3
# Si number density = 17.291473 Si / 1000 Ang^3
#
#
#
# Elastic Constant Matrix: (Units=GPa)
#
#
# Indices 1 2 3 4 5 6 
#
# 1 56.5131 33.3664 1.9249 0.0000 0.0000 0.0000
# 2 33.3664 59.4465 26.3957 0.0000 0.0000 0.0000
# 3 1.9249 26.3957 41.4078 0.0000 0.0000 0.0000
# 4 0.0000 0.0000 0.0000 18.6453 0.0000 0.0000
# 5 0.0000 0.0000 0.0000 0.0000 14.3365 0.0000
# 6 0.0000 0.0000 0.0000 0.0000 0.0000 16.5587
#
#
#
# Elastic Compliance Matrix: (Units=1/GPa)
#
#
# Indices 1 2 3 4 5 6 
#
# 1 0.031068 -0.023428 0.013490 0.000000 0.000000 0.000000
# 2 -0.023428 0.041129 -0.025129 0.000000 0.000000 0.000000
# 3 0.013490 -0.025129 0.039542 0.000000 0.000000 0.000000
# 4 0.000000 0.000000 0.000000 0.053633 0.000000 0.000000
# 5 0.000000 0.000000 0.000000 0.000000 0.069752 0.000000
# 6 0.000000 0.000000 0.000000 0.000000 0.000000 0.060391
#
#
# Mechanical properties :
#
#
# Convention : Reuss Voigt Hill
#
# Bulk Modulus (GPa) = 24.03562 31.19349 27.61456
# Shear Modulus (GPa) = 13.17463 16.28678 14.73070
#
# Velocity S-wave (km/s) = 2.76328 3.07236 2.92191
# Velocity P-wave (km/s) = 4.91033 5.53759 5.23337
#
# Compressibility (1/GPa) = 0.04160492
#
# Stress axis : x y z
#
# Youngs Moduli (GPa) = 32.18787 24.31350 25.28972
#
# Poissons Ratio (x) = 0.56961 -0.34116
# Poissons Ratio (y) = 0.75408 0.63551
# Poissons Ratio (z) = -0.43421 0.61098
#
# Static dielectric constant tensor:
#      x y z
#    x 1.582740 0.000000 0.000000 
#    y 0.000000 1.578030 0.000000 
#    z 0.000000 0.000000 1.567260 
# 
# From -- ./inp_files/26188.got.cif
#   From: 2010.05.17/outbox.cif.g08.bks.cpg/sg51_14_cif.got.tgz:26188.got - 2010.06.03 11:52:47.
