data_PCOD9405058
_publ_section_title
;
Structure prediction by ZEFSAII (Michael W. Deem and Ramdas Pophale) SiO2 
 PCOD9405058
Probable space group: P M M A
;
_chemical_formula_sum "Si O2"
_cell_formula_units_Z 56
_cell_length_a 20.735963
_cell_length_b 9.933977
_cell_length_c 15.269777
_cell_angle_alpha 90.000000
_cell_angle_beta 90.000000
_cell_angle_gamma 90.000000
_cell_volume 3145.430213
_symmetry_space_group_name_H-M "P M M A"
_symmetry_group_IT_number 51
_symmetry_cell_setting 'orthorhombic'
loop_
_space_group_symop_operation_xyz
x,y,z
1/2-x,-y,z
1/2+x,-y,-z
-x,y,-z
-x,-y,-z
1/2+x,y,-z
1/2-x,y,z
x,-y,z
loop_
_atom_site_type_symbol
_atom_site_label
_atom_site_fract_x
_atom_site_fract_y
_atom_site_fract_z
Si Si1 0.448805 0.160786 0.577209
Si Si2 0.676947 0.345262 0.945987
Si Si3 0.443838 0.341469 0.930740
Si Si4 0.480267 0.151763 0.778493
Si Si5 0.175984 0.655625 0.551026
Si Si6 0.675355 0.646134 0.659177
Si Si7 0.130917 0.847315 0.206027
O O1 0.500000 0.199665 0.500000
O O2 0.477317 0.181421 0.674801
O O3 0.382217 0.245061 0.575485
O O4 0.436642 0.000000 0.565990
O O5 0.750000 0.330991 0.978075
O O6 0.668788 0.500000 0.914429
O O7 0.664191 0.242741 0.867569
O O8 0.623928 0.323327 0.020330
O O9 0.453719 0.500000 0.912411
O O10 0.446332 0.257309 0.841877
O O11 0.500000 0.300854 0.000000
O O12 0.554539 0.151324 0.808380
O O13 0.454209 0.000000 0.790454
O O14 0.250000 0.693056 0.577235
O O15 0.164813 0.500000 0.579931
O O16 0.175107 0.653528 0.445244
O O17 0.750000 0.648438 0.687810
O O18 0.647432 0.500000 0.685283
O O19 0.641757 0.772008 0.702613
O O20 0.154999 0.000000 0.207171
#
# Coordination Sequence:
#
# PCOD9405058 Si02
#       7
#     8   8   8   8   8   8   8
#     4  10  21  38  58  83 118 154 192 238 287 341
#     4  10  21  37  56  79 110 144 177 223 282 330
#     4  10  20  37  60  83 106 141 189 229 265 325
#     4  10  22  37  55  81 111 147 185 228 283 332
#     4   9  19  36  56  79 108 145 191 241 291 340
#     4   9  18  32  49  71 104 144 181 221 275 335
#     4  11  21  32  50  78 110 142 180 224 273 332
#
# _framework density 17.803605000000001
#
# number of rings (size 3 to 8) (size 9 to 14) (size 15 to 20)
#    0.000    2.143    1.429    2.571    0.000    6.571 
#    0.000    2.143    0.000    2.571    0.000    0.000 
#    0.000    0.000    0.000    0.000    0.000    0.000 
#
# Total GULP energy -312194.046489 kJ/mol
# GULP energy per Si atom -5574.893687 kJ/mol
# Density = 1.776308 g / cm^3
# Si number density = 17.803605 Si / 1000 Ang^3
#
#
#
# Elastic Constant Matrix: (Units=GPa)
#
#
# Indices 1 2 3 4 5 6 
#
# 1 101.0087 49.1652 29.8903 0.0000 0.0000 0.0000
# 2 49.1652 86.2167 45.0767 0.0000 0.0000 0.0000
# 3 29.8903 45.0767 75.8454 0.0000 0.0000 0.0000
# 4 0.0000 0.0000 0.0000 31.2053 0.0000 0.0000
# 5 0.0000 0.0000 0.0000 0.0000 25.3968 0.0000
# 6 0.0000 0.0000 0.0000 0.0000 0.0000 23.1676
#
#
#
# Elastic Compliance Matrix: (Units=1/GPa)
#
#
# Indices 1 2 3 4 5 6 
#
# 1 0.013767 -0.007274 -0.001102 0.000000 0.000000 0.000000
# 2 -0.007274 0.020671 -0.009419 0.000000 0.000000 0.000000
# 3 -0.001102 -0.009419 0.019217 0.000000 0.000000 0.000000
# 4 0.000000 0.000000 0.000000 0.032046 0.000000 0.000000
# 5 0.000000 0.000000 0.000000 0.000000 0.039375 0.000000
# 6 0.000000 0.000000 0.000000 0.000000 0.000000 0.043164
#
#
# Mechanical properties :
#
#
# Convention : Reuss Voigt Hill
#
# Bulk Modulus (GPa) = 55.35661 56.81503 56.08582
# Shear Modulus (GPa) = 23.82636 25.21653 24.52144
#
# Velocity S-wave (km/s) = 3.66223 3.76755 3.71527
# Velocity P-wave (km/s) = 7.00307 7.13494 7.06931
#
# Compressibility (1/GPa) = 0.01806469
#
# Stress axis : x y z
#
# Youngs Moduli (GPa) = 72.63715 48.37634 52.03791
#
# Poissons Ratio (x) = 0.35191 0.05735
# Poissons Ratio (y) = 0.52839 0.49012
# Poissons Ratio (z) = 0.08006 0.45564
#
# Static dielectric constant tensor:
#      x y z
#    x 1.638340 0.000000 0.000000 
#    y 0.000000 1.624440 0.000000 
#    z 0.000000 0.000000 1.594660 
# 
# From -- ./inp_files/25655.got.cif
#   From: 2010.05.17/outbox.cif.g08.bks.cpg/sg51_13_cif.got.tgz:25655.got - 2010.06.03 11:52:47.
