data_PCOD9405682
_publ_section_title
;
Structure prediction by ZEFSAII (Michael W. Deem and Ramdas Pophale) SiO2 
 PCOD9405682
Probable space group: P M M A
;
_chemical_formula_sum "Si O2"
_cell_formula_units_Z 64
_cell_length_a 14.307052
_cell_length_b 8.162662
_cell_length_c 27.892145
_cell_angle_alpha 90.000000
_cell_angle_beta 90.000000
_cell_angle_gamma 90.000000
_cell_volume 3257.345933
_symmetry_space_group_name_H-M "P M M A"
_symmetry_group_IT_number 51
_symmetry_cell_setting 'orthorhombic'
loop_
_space_group_symop_operation_xyz
x,y,z
1/2-x,-y,z
1/2+x,-y,-z
-x,y,-z
-x,-y,-z
1/2+x,y,-z
1/2-x,y,z
x,-y,z
loop_
_atom_site_type_symbol
_atom_site_label
_atom_site_fract_x
_atom_site_fract_y
_atom_site_fract_z
Si Si1 0.484602 0.306897 0.709209
Si Si2 0.642687 0.693720 0.382859
Si Si3 0.354652 0.307741 0.093188
Si Si4 0.641217 0.191667 0.014301
Si Si5 0.855557 0.695597 0.207513
Si Si6 0.143536 0.197031 0.360635
Si Si7 0.016742 0.190850 0.447470
Si Si8 0.447794 0.807053 0.888276
O O1 0.502957 0.500000 0.716110
O O2 0.404497 0.287758 0.668903
O O3 0.436826 0.238056 0.757293
O O4 0.577828 0.235937 0.684896
O O5 0.750000 0.742147 0.382264
O O6 0.636311 0.500000 0.395106
O O7 0.580981 0.794371 0.419850
O O8 0.250000 0.244788 0.104663
O O9 0.357682 0.500000 0.104166
O O10 0.442080 0.222809 0.118266
O O11 0.367408 0.282751 0.036017
O O12 0.750000 0.198651 0.028813
O O13 0.581117 0.254445 0.058776
O O14 0.617492 0.000000 0.005100
O O15 0.750000 0.759561 0.215991
O O16 0.851728 0.500000 0.216121
O O17 0.887544 0.726020 0.153326
O O18 0.250000 0.256876 0.356379
O O19 0.092058 0.260840 0.409244
O O20 0.145981 0.000000 0.364546
O O21 0.000000 0.265756 0.500000
O O22 0.042527 0.000000 0.454563
O O23 0.427634 0.000000 0.887897
#
# Coordination Sequence:
#
# PCOD9405682 Si02
#       8
#     8   8   8   8   8   8   8   8
#     4   9  18  34  55  77 100 128 166 209 253 303
#     4   9  17  30  49  72  98 128 162 202 247 295
#     4  10  21  36  54  76 102 135 177 221 260 300
#     4   9  18  33  52  75 105 139 172 207 252 307
#     4  10  21  37  57  80 106 135 165 203 256 313
#     4   9  18  33  52  74 102 136 174 216 259 302
#     4   9  18  31  47  70 101 136 172 209 250 297
#     4  11  22  35  53  78 108 140 173 210 255 309
#
# _framework density 19.647898000000001
#
# number of rings (size 3 to 8) (size 9 to 14) (size 15 to 20)
#    0.000    2.500    0.000    1.875    0.000    7.250 
#    0.000    3.125    0.000    3.000    0.000    0.000 
#    0.000    0.000    0.000    0.000    0.000    0.000 
#
# Total GULP energy -356847.035922 kJ/mol
# GULP energy per Si atom -5575.734936 kJ/mol
# Density = 1.960318 g / cm^3
# Si number density = 19.647898 Si / 1000 Ang^3
#
#
#
# Elastic Constant Matrix: (Units=GPa)
#
#
# Indices 1 2 3 4 5 6 
#
# 1 142.5048 5.9508 24.7427 0.0000 0.0000 0.0000
# 2 5.9508 8.2817 2.2464 0.0000 0.0000 0.0000
# 3 24.7427 2.2464 27.2974 0.0000 0.0000 0.0000
# 4 0.0000 0.0000 0.0000 19.0161 0.0000 0.0000
# 5 0.0000 0.0000 0.0000 0.0000 10.4996 0.0000
# 6 0.0000 0.0000 0.0000 0.0000 0.0000 13.4895
#
#
#
# Elastic Compliance Matrix: (Units=1/GPa)
#
#
# Indices 1 2 3 4 5 6 
#
# 1 0.008461 -0.004091 -0.007333 0.000000 0.000000 0.000000
# 2 -0.004091 0.125483 -0.006619 0.000000 0.000000 0.000000
# 3 -0.007333 -0.006619 0.043825 0.000000 0.000000 0.000000
# 4 0.000000 0.000000 0.000000 0.052587 0.000000 0.000000
# 5 0.000000 0.000000 0.000000 0.000000 0.095241 0.000000
# 6 0.000000 0.000000 0.000000 0.000000 0.000000 0.074132
#
#
# Mechanical properties :
#
#
# Convention : Reuss Voigt Hill
#
# Bulk Modulus (GPa) = 7.05794 27.10708 17.08251
# Shear Modulus (GPa) = 10.35107 18.27730 14.31419
#
# Velocity S-wave (km/s) = 2.29776 3.05330 2.70207
# Velocity P-wave (km/s) = 3.26185 5.12411 4.29512
#
# Compressibility (1/GPa) = 0.14168445
#
# Stress axis : x y z
#
# Youngs Moduli (GPa) = 118.18520 7.96922 22.81822
#
# Poissons Ratio (x) = 0.03260 0.16732
# Poissons Ratio (y) = 0.48347 0.15102
# Poissons Ratio (z) = 0.86662 0.05274
#
# Static dielectric constant tensor:
#      x y z
#    x 1.701450 0.000000 0.000000 
#    y 0.000000 1.709870 0.000000 
#    z 0.000000 0.000000 1.695420 
# 
# From -- ./inp_files/35798.got.cif
#   From: 2010.05.17/outbox.cif.g08.bks.cpg/sg51_18_cif.got.tgz:35798.got - 2010.06.03 11:52:47.
