data_PCOD9405200
_publ_section_title
;
Structure prediction by ZEFSAII (Michael W. Deem and Ramdas Pophale) SiO2 
 PCOD9405200
Probable space group: P M M A
;
_chemical_formula_sum "Si O2"
_cell_formula_units_Z 56
_cell_length_a 21.711181
_cell_length_b 9.482950
_cell_length_c 14.812259
_cell_angle_alpha 90.000000
_cell_angle_beta 90.000000
_cell_angle_gamma 90.000000
_cell_volume 3049.637406
_symmetry_space_group_name_H-M "P M M A"
_symmetry_group_IT_number 51
_symmetry_cell_setting 'orthorhombic'
loop_
_space_group_symop_operation_xyz
x,y,z
1/2-x,-y,z
1/2+x,-y,-z
-x,y,-z
-x,-y,-z
1/2+x,y,-z
1/2-x,y,z
x,-y,z
loop_
_atom_site_type_symbol
_atom_site_label
_atom_site_fract_x
_atom_site_fract_y
_atom_site_fract_z
Si Si1 0.928101 0.341153 0.476057
Si Si2 0.177361 0.834627 0.851976
Si Si3 0.872073 0.166677 0.633807
Si Si4 0.585104 0.332681 0.262620
Si Si5 0.750000 0.341347 0.671200
Si Si6 0.250000 0.342390 0.114134
Si Si7 0.866891 0.834008 0.949092
Si Si8 0.034385 0.832519 0.198389
O O1 0.903215 0.500000 0.494811
O O2 0.900261 0.224135 0.541122
O O3 0.919434 0.310999 0.370401
O O4 0.000000 0.345391 0.500000
O O5 0.250000 0.804051 0.869562
O O6 0.146742 0.736905 0.777053
O O7 0.173598 0.000000 0.826782
O O8 0.137097 0.816603 0.943263
O O9 0.810159 0.254015 0.646538
O O10 0.918534 0.192891 0.717957
O O11 0.860532 0.000000 0.631342
O O12 0.583546 0.500000 0.245719
O O13 0.526553 0.257161 0.216279
O O14 0.750000 0.500000 0.632780
O O15 0.750000 0.353146 0.778796
O O16 0.250000 0.500000 0.074355
O O17 0.310694 0.257932 0.087047
O O18 0.928924 0.798453 0.894255
O O19 0.854935 0.000000 0.930135
O O20 0.019513 0.000000 0.197242
#
# Coordination Sequence:
#
# PCOD9405200 Si02
#       8
#     8   8   8   8   4   4   8   8
#     4  10  21  40  63  85 115 158 199 240 302 371
#     4  10  22  42  67  88 114 159 207 250 294 346
#     4  11  22  36  60  91 121 156 201 256 302 348
#     4  11  24  41  63  88 120 158 196 247 302 359
#     4  11  23  37  55  84 127 168 197 239 304 372
#     4  11  21  31  53  88 121 158 199 243 290 344
#     4  10  20  38  62  87 119 159 201 241 291 352
#     4  10  21  36  60  92 124 156 194 245 297 352
#
# _framework density 18.362839999999998
#
# number of rings (size 3 to 8) (size 9 to 14) (size 15 to 20)
#    0.000    1.571    3.571    1.286    0.000    4.571 
#    1.286    2.857    0.000    0.000    0.000    0.000 
#    0.000    0.000    0.000    0.000    0.000    0.000 
#
# Total GULP energy -312607.226225 kJ/mol
# GULP energy per Si atom -5582.271897 kJ/mol
# Density = 1.832105 g / cm^3
# Si number density = 18.362840 Si / 1000 Ang^3
#
#
#
# Elastic Constant Matrix: (Units=GPa)
#
#
# Indices 1 2 3 4 5 6 
#
# 1 66.2631 47.8177 36.7247 0.0000 0.0000 0.0000
# 2 47.8177 77.3650 51.6074 0.0000 0.0000 0.0000
# 3 36.7247 51.6074 89.6662 0.0000 0.0000 0.0000
# 4 0.0000 0.0000 0.0000 24.1335 0.0000 0.0000
# 5 0.0000 0.0000 0.0000 0.0000 28.7158 0.0000
# 6 0.0000 0.0000 0.0000 0.0000 0.0000 36.2379
#
#
#
# Elastic Compliance Matrix: (Units=1/GPa)
#
#
# Indices 1 2 3 4 5 6 
#
# 1 0.027559 -0.015427 -0.002408 0.000000 0.000000 0.000000
# 2 -0.015427 0.029617 -0.010727 0.000000 0.000000 0.000000
# 3 -0.002408 -0.010727 0.018313 0.000000 0.000000 0.000000
# 4 0.000000 0.000000 0.000000 0.041436 0.000000 0.000000
# 5 0.000000 0.000000 0.000000 0.000000 0.034824 0.000000
# 6 0.000000 0.000000 0.000000 0.000000 0.000000 0.027595
#
#
# Mechanical properties :
#
#
# Convention : Reuss Voigt Hill
#
# Bulk Modulus (GPa) = 54.45722 56.17712 55.31717
# Shear Modulus (GPa) = 20.61086 24.29375 22.45231
#
# Velocity S-wave (km/s) = 3.35389 3.64123 3.50051
# Velocity P-wave (km/s) = 6.68720 6.95251 6.82115
#
# Compressibility (1/GPa) = 0.01836304
#
# Stress axis : x y z
#
# Youngs Moduli (GPa) = 36.28613 33.76469 54.60600
#
# Poissons Ratio (x) = 0.52089 0.13151
# Poissons Ratio (y) = 0.55979 0.58578
# Poissons Ratio (z) = 0.08739 0.36221
#
# Static dielectric constant tensor:
#      x y z
#    x 1.605080 0.000000 0.000000 
#    y 0.000000 1.620420 0.000000 
#    z 0.000000 0.000000 1.635120 
# 
# From -- ./inp_files/25856.got.cif
#   From: 2010.05.17/outbox.cif.g08.bks.cpg/sg51_13_cif.got.tgz:25856.got - 2010.06.03 11:52:47.
