data_PCOD9405669
_publ_section_title
;
Structure prediction by ZEFSAII (Michael W. Deem and Ramdas Pophale) SiO2 
 PCOD9405669
Probable space group: P M M A
;
_chemical_formula_sum "Si O2"
_cell_formula_units_Z 56
_cell_length_a 18.876604
_cell_length_b 7.431626
_cell_length_c 19.750700
_cell_angle_alpha 90.000000
_cell_angle_beta 90.000000
_cell_angle_gamma 90.000000
_cell_volume 2770.704455
_symmetry_space_group_name_H-M "P M M A"
_symmetry_group_IT_number 51
_symmetry_cell_setting 'orthorhombic'
loop_
_space_group_symop_operation_xyz
x,y,z
1/2-x,-y,z
1/2+x,-y,-z
-x,y,-z
-x,-y,-z
1/2+x,y,-z
1/2-x,y,z
x,-y,z
loop_
_atom_site_type_symbol
_atom_site_label
_atom_site_fract_x
_atom_site_fract_y
_atom_site_fract_z
Si Si1 0.078955 0.219027 0.080164
Si Si2 0.585881 0.781243 0.070069
Si Si3 0.520872 0.289693 0.573173
Si Si4 0.827520 0.217346 0.634746
Si Si5 0.609168 0.220184 0.774700
Si Si6 0.329823 0.220152 0.797889
Si Si7 0.039000 0.792104 0.715711
O O1 0.119679 0.277419 0.147848
O O2 0.995751 0.270309 0.084767
O O3 0.080366 0.000000 0.079948
O O4 0.104721 0.277793 0.006106
O O5 0.637766 0.724308 0.129703
O O6 0.586298 0.000000 0.069993
O O7 0.500000 0.214094 0.500000
O O8 0.503858 0.500000 0.572505
O O9 0.604008 0.270453 0.591147
O O10 0.476802 0.213401 0.636220
O O11 0.750000 0.278598 0.611404
O O12 0.840737 0.275527 0.712759
O O13 0.827645 0.000000 0.634577
O O14 0.530734 0.283603 0.752174
O O15 0.610455 0.000000 0.774287
O O16 0.250000 0.283137 0.787657
O O17 0.386573 0.280924 0.741589
O O18 0.327122 0.000000 0.797379
O O19 0.039306 0.000000 0.737273
#
# Coordination Sequence:
#
# PCOD9405669 Si02
#       7
#     8   8   8   8   8   8   8
#     4   8  11  16  29  49  78 118 159 192 225 271
#     4   8  12  17  27  48  80 119 159 193 229 276
#     4  10  21  36  54  75  97 122 154 192 232 277
#     4   9  18  32  51  76 103 129 156 188 230 281
#     4   8  12  21  38  59  85 119 156 189 222 266
#     4   9  15  23  36  57  88 123 159 200 243 282
#     4   9  16  28  47  68  91 121 157 194 234 279
#
# _framework density 20.211466999999999
#
# number of rings (size 3 to 8) (size 9 to 14) (size 15 to 20)
#    0.000    3.286    1.429    2.143    0.000    1.429 
#    0.000    1.429    0.000    7.286    0.000    0.000 
#    0.000    9.143    0.000    1.143    0.000    0.571 
#
# Total GULP energy -312043.625737 kJ/mol
# GULP energy per Si atom -5572.207602 kJ/mol
# Density = 2.016547 g / cm^3
# Si number density = 20.211467 Si / 1000 Ang^3
#
#
#
# Elastic Constant Matrix: (Units=GPa)
#
#
# Indices 1 2 3 4 5 6 
#
# 1 111.4875 -5.1777 52.5743 0.0000 0.0000 0.0000
# 2 -5.1777 57.7172 -13.6199 0.0000 0.0000 0.0000
# 3 52.5743 -13.6199 131.1136 0.0000 0.0000 0.0000
# 4 0.0000 0.0000 0.0000 53.5795 0.0000 0.0000
# 5 0.0000 0.0000 0.0000 0.0000 20.3902 0.0000
# 6 0.0000 0.0000 0.0000 0.0000 0.0000 -22.4210
#
#
#
# Elastic Compliance Matrix: (Units=1/GPa)
#
#
# Indices 1 2 3 4 5 6 
#
# 1 0.011061 -0.000056 -0.004441 0.000000 0.000000 0.000000
# 2 -0.000056 0.017762 0.001867 0.000000 0.000000 0.000000
# 3 -0.004441 0.001867 0.009602 0.000000 0.000000 0.000000
# 4 0.000000 0.000000 0.000000 0.018664 0.000000 0.000000
# 5 0.000000 0.000000 0.000000 0.000000 0.049043 0.000000
# 6 0.000000 0.000000 0.000000 0.000000 0.000000 -0.044601
#
#
# Mechanical properties :
#
#
# Convention : Reuss Voigt Hill
#
# Bulk Modulus (GPa) = 30.15171 40.87462 35.51316
# Shear Modulus (GPa) = 64.23015 28.07917 46.15466
#
# Velocity S-wave (km/s) = 5.64341 3.73133 4.78387
# Velocity P-wave (km/s) = 7.57724 6.23147 6.93707
#
# Compressibility (1/GPa) = 0.03316562
#
# Stress axis : x y z
#
# Youngs Moduli (GPa) = 90.40465 56.30147 104.14703
#
# Poissons Ratio (x) = 0.00314 0.46254
# Poissons Ratio (y) = 0.00504 -0.19448
# Poissons Ratio (z) = 0.40151 -0.10514
#
# Static dielectric constant tensor:
#      x y z
#    x 1.696300 0.000000 0.000000 
#    y 0.000000 1.800870 0.000000 
#    z 0.000000 0.000000 1.731430 
# 
# From -- ./inp_files/33721.got.cif
#   From: 2010.05.17/outbox.cif.g08.bks.cpg/sg51_17_cif.got.tgz:33721.got - 2010.06.03 11:52:47.
