data_PCOD9405841
_publ_section_title
;
Structure prediction by ZEFSAII (Michael W. Deem and Ramdas Pophale) SiO2 
 PCOD9405841
Probable space group: P M M A
;
_chemical_formula_sum "Si O2"
_cell_formula_units_Z 34
_cell_length_a 9.373934
_cell_length_b 7.602739
_cell_length_c 23.185471
_cell_angle_alpha 90.000000
_cell_angle_beta 90.000000
_cell_angle_gamma 90.000000
_cell_volume 1652.372261
_symmetry_space_group_name_H-M "P M M A"
_symmetry_group_IT_number 51
_symmetry_cell_setting 'orthorhombic'
loop_
_space_group_symop_operation_xyz
x,y,z
1/2-x,-y,z
1/2+x,-y,-z
-x,y,-z
-x,-y,-z
1/2+x,y,-z
1/2-x,y,z
x,-y,z
loop_
_atom_site_type_symbol
_atom_site_label
_atom_site_fract_x
_atom_site_fract_y
_atom_site_fract_z
Si Si1 0.078310 0.700168 0.588704
Si Si2 0.088358 0.710911 0.945119
Si Si3 0.911501 0.788298 0.830429
Si Si4 0.414510 0.786841 0.719558
Si Si5 0.000000 0.000000 0.500000
O O1 0.250000 0.731303 0.583257
O O2 0.048041 0.500000 0.571049
O O3 0.043238 0.721217 0.656292
O O4 0.003733 0.845570 0.550019
O O5 0.250000 0.779770 0.943558
O O6 0.097020 0.500000 0.951406
O O7 0.005508 0.746126 0.886090
O O8 0.000000 0.779346 0.000000
O O9 0.750000 0.722109 0.836632
O O10 0.986685 0.725385 0.771793
O O11 0.905530 0.000000 0.826422
O O12 0.250000 0.734193 0.730117
O O13 0.417815 0.000000 0.717715
#
# Coordination Sequence:
#
# PCOD9405841 Si02
#       5
#     8   8   8   8   2
#     4  10  21  37  59  87 117 155 204 251 301 364
#     4  10  21  37  57  81 111 151 198 247 300 356
#     4  10  21  36  56  85 119 155 193 238 295 357
#     4   9  17  34  58  81 110 153 199 247 299 354
#     4  12  20  36  60  88 120 160 190 244 308 360
#
# _framework density 20.576478000000002
#
# number of rings (size 3 to 8) (size 9 to 14) (size 15 to 20)
#    0.000    2.118    1.176    2.118    0.000    4.235 
#    0.000    4.706    0.000    2.824    0.000    0.000 
#    0.000    0.000    0.000    0.000    0.000    0.000 
#
# Total GULP energy -189424.927465 kJ/mol
# GULP energy per Si atom -5571.321396 kJ/mol
# Density = 2.052965 g / cm^3
# Si number density = 20.576478 Si / 1000 Ang^3
#
#
#
# Elastic Constant Matrix: (Units=GPa)
#
#
# Indices 1 2 3 4 5 6 
#
# 1 120.9322 24.1609 90.2022 0.0000 0.0000 0.0000
# 2 24.1609 80.7274 34.1719 0.0000 0.0000 0.0000
# 3 90.2022 34.1719 175.3458 0.0000 0.0000 0.0000
# 4 0.0000 0.0000 0.0000 41.8622 0.0000 0.0000
# 5 0.0000 0.0000 0.0000 0.0000 -280.3793 0.0000
# 6 0.0000 0.0000 0.0000 0.0000 0.0000 -1.7763
#
#
#
# Elastic Compliance Matrix: (Units=1/GPa)
#
#
# Indices 1 2 3 4 5 6 
#
# 1 0.013524 -0.001202 -0.006723 0.000000 0.000000 0.000000
# 2 -0.001202 0.013608 -0.002034 0.000000 0.000000 0.000000
# 3 -0.006723 -0.002034 0.009558 0.000000 0.000000 0.000000
# 4 0.000000 0.000000 0.000000 0.023888 0.000000 0.000000
# 5 0.000000 0.000000 0.000000 0.000000 -0.003567 0.000000
# 6 0.000000 0.000000 0.000000 0.000000 0.000000 -0.562963
#
#
# Mechanical properties :
#
#
# Convention : Reuss Voigt Hill
#
# Bulk Modulus (GPa) = 59.62020 74.89725 67.25872
# Shear Modulus (GPa) = -10.40701 -32.82734 -21.61717
#
# Velocity S-wave (km/s) = -2.25138 -3.99856 -3.24478
# Velocity P-wave (km/s) = 4.72012 3.89365 4.32667
#
# Compressibility (1/GPa) = 0.01677284
#
# Stress axis : x y z
#
# Youngs Moduli (GPa) = 73.94504 73.48661 104.62817
#
# Poissons Ratio (x) = 0.08831 0.70338
# Poissons Ratio (y) = 0.08886 0.21279
# Poissons Ratio (z) = 0.49711 0.14945
#
# Static dielectric constant tensor:
#      x y z
#    x 1.735100 0.000000 0.000000 
#    y 0.000000 1.760010 0.000000 
#    z 0.000000 0.000000 1.684630 
# 
# From -- ./inp_files/31173.got.cif
#   From: 2010.05.17/outbox.cif.g08.bks.cpg/sg51_16_cif.got.tgz:31173.got - 2010.06.03 11:52:47.
