data_PCOD9405511
_publ_section_title
;
Structure prediction by ZEFSAII (Michael W. Deem and Ramdas Pophale) SiO2 
 PCOD9405511
Probable space group: P M M A
;
_chemical_formula_sum "Si O2"
_cell_formula_units_Z 48
_cell_length_a 14.460334
_cell_length_b 7.407435
_cell_length_c 18.803236
_cell_angle_alpha 90.000000
_cell_angle_beta 90.000000
_cell_angle_gamma 90.000000
_cell_volume 2014.089523
_symmetry_space_group_name_H-M "P M M A"
_symmetry_group_IT_number 51
_symmetry_cell_setting 'orthorhombic'
loop_
_space_group_symop_operation_xyz
x,y,z
1/2-x,-y,z
1/2+x,-y,-z
-x,y,-z
-x,-y,-z
1/2+x,y,-z
1/2-x,y,z
x,-y,z
loop_
_atom_site_type_symbol
_atom_site_label
_atom_site_fract_x
_atom_site_fract_y
_atom_site_fract_z
Si Si1 0.484036 0.206965 0.077563
Si Si2 0.642849 0.783963 0.641413
Si Si3 0.856903 0.719331 0.181980
Si Si4 0.355904 0.715350 0.512592
Si Si5 0.363085 0.289831 0.663726
Si Si6 0.358760 0.219559 0.204146
O O1 0.580173 0.209231 0.119573
O O2 0.413309 0.287854 0.135396
O O3 0.452753 0.000000 0.065150
O O4 0.500000 0.289858 0.000000
O O5 0.750000 0.718855 0.639040
O O6 0.599684 0.740609 0.564753
O O7 0.605507 0.719373 0.717731
O O8 0.645107 0.000000 0.644969
O O9 0.750000 0.768575 0.173108
O O10 0.861670 0.500000 0.182233
O O11 0.889541 0.787230 0.259770
O O12 0.250000 0.784761 0.506566
O O13 0.351243 0.500000 0.522000
O O14 0.393272 0.788475 0.587713
O O15 0.250000 0.285673 0.662707
O O16 0.390743 0.500000 0.665331
O O17 0.250000 0.262788 0.199953
O O18 0.366333 0.000000 0.203513
#
# Coordination Sequence:
#
# PCOD9405511 Si02
#       6
#     8   8   8   8   8   8
#     4  10  21  35  53  78 102 125 160 208 256 299
#     4   8  13  22  38  60  86 119 158 194 230 279
#     4   9  18  34  55  76 101 135 169 199 239 295
#     4   8  12  19  35  61  91 119 151 194 236 273
#     4   7  11  22  41  64  90 124 162 193 228 279
#     4   8  15  30  50  69  94 131 167 197 240 300
#
# _framework density 23.832108999999999
#
# number of rings (size 3 to 8) (size 9 to 14) (size 15 to 20)
#    0.000    3.667    0.000    3.000    0.000    1.333 
#    0.000    3.333    0.000    5.500    0.000    7.000 
#    0.000    0.000    0.000    0.000    0.000    0.000 
#
# Total GULP energy -267616.784465 kJ/mol
# GULP energy per Si atom -5575.349676 kJ/mol
# Density = 2.377787 g / cm^3
# Si number density = 23.832109 Si / 1000 Ang^3
#
#
#
# Elastic Constant Matrix: (Units=GPa)
#
#
# Indices 1 2 3 4 5 6 
#
# 1 70.2400 -7.5141 46.9475 0.0000 0.0000 0.0000
# 2 -7.5141 82.5757 8.4181 0.0000 0.0000 0.0000
# 3 46.9475 8.4181 293.4625 0.0000 0.0000 0.0000
# 4 0.0000 0.0000 0.0000 1.8727 0.0000 0.0000
# 5 0.0000 0.0000 0.0000 0.0000 46.6637 0.0000
# 6 0.0000 0.0000 0.0000 0.0000 0.0000 10.8419
#
#
#
# Elastic Compliance Matrix: (Units=1/GPa)
#
#
# Indices 1 2 3 4 5 6 
#
# 1 0.016188 0.001742 -0.002640 0.000000 0.000000 0.000000
# 2 0.001742 0.012333 -0.000632 0.000000 0.000000 0.000000
# 3 -0.002640 -0.000632 0.003848 0.000000 0.000000 0.000000
# 4 0.000000 0.000000 0.000000 0.533998 0.000000 0.000000
# 5 0.000000 0.000000 0.000000 0.000000 0.021430 0.000000
# 6 0.000000 0.000000 0.000000 0.000000 0.000000 0.092235
#
#
# Mechanical properties :
#
#
# Convention : Reuss Voigt Hill
#
# Bulk Modulus (GPa) = 34.11959 60.22013 47.16986
# Shear Modulus (GPa) = 7.21646 38.43743 22.82695
#
# Velocity S-wave (km/s) = 1.74201 4.02038 3.09823
# Velocity P-wave (km/s) = 4.28881 6.84650 5.71264
#
# Compressibility (1/GPa) = 0.02930868
#
# Stress axis : x y z
#
# Youngs Moduli (GPa) = 61.77586 81.08258 259.87428
#
# Poissons Ratio (x) = -0.14125 0.68597
# Poissons Ratio (y) = -0.10762 0.16436
# Poissons Ratio (z) = 0.16306 0.05128
#
# Static dielectric constant tensor:
#      x y z
#    x 1.949400 0.000000 0.000000 
#    y 0.000000 1.828950 0.000000 
#    z 0.000000 0.000000 1.952380 
# 
# From -- ./inp_files/24046.got.cif
#   From: 2010.05.17/outbox.cif.g08.bks.cpg/sg51_13_cif.got.tgz:24046.got - 2010.06.03 11:52:47.
