data_PCOD9405657
_publ_section_title
;
Structure prediction by ZEFSAII (Michael W. Deem and Ramdas Pophale) SiO2 
 PCOD9405657
Probable space group: P M M A
;
_chemical_formula_sum "Si O2"
_cell_formula_units_Z 40
_cell_length_a 8.670872
_cell_length_b 26.088502
_cell_length_c 9.447791
_cell_angle_alpha 90.000000
_cell_angle_beta 90.000000
_cell_angle_gamma 90.000000
_cell_volume 2137.185383
_symmetry_space_group_name_H-M "P M M A"
_symmetry_group_IT_number 51
_symmetry_cell_setting 'orthorhombic'
loop_
_space_group_symop_operation_xyz
x,y,z
1/2-x,-y,z
1/2+x,-y,-z
-x,y,-z
-x,-y,-z
1/2+x,y,-z
1/2-x,y,z
x,-y,z
loop_
_atom_site_type_symbol
_atom_site_label
_atom_site_fract_x
_atom_site_fract_y
_atom_site_fract_z
Si Si1 0.435038 0.649304 0.157259
Si Si2 0.934690 0.559595 0.344764
Si Si3 0.563831 0.941724 0.656161
Si Si4 0.563621 0.153967 0.842508
Si Si5 0.063952 0.252232 0.341866
O O1 0.250000 0.648367 0.151923
O O2 0.495912 0.597587 0.229580
O O3 0.483709 0.697206 0.255270
O O4 0.500000 0.655238 0.000000
O O5 0.750000 0.564106 0.346950
O O6 0.974797 0.500000 0.317182
O O7 0.000000 0.572956 0.500000
O O8 0.500000 0.930031 0.500000
O O9 0.750000 0.940546 0.649590
O O10 0.513423 0.898897 0.767637
O O11 0.516451 0.000000 0.692919
O O12 0.750000 0.154214 0.848578
O O13 0.515053 0.201791 0.744929
O O14 0.500000 0.158730 0.000000
O O15 0.250000 0.251984 0.349005
O O16 0.000000 0.252332 0.500000
#
# Coordination Sequence:
#
# PCOD9405657 Si02
#       5
#     8   8   8   8   8
#     4  11  23  38  57  82 112 145 182 224 272 324
#     4  10  21  38  60  85 113 146 184 225 269 319
#     4   9  18  33  53  77 105 138 178 222 265 313
#     4  10  21  36  53  77 109 141 176 219 267 318
#     4  10  22  38  57  81 107 139 179 222 268 320
#
# _framework density 18.716204000000001
#
# number of rings (size 3 to 8) (size 9 to 14) (size 15 to 20)
#    0.000    2.000    0.000    3.000    0.000    6.800 
#    0.000    0.000    0.000    0.000    0.000    0.000 
#    0.000    0.000    0.000    0.000    0.000    0.000 
#
# Total GULP energy -223474.862368 kJ/mol
# GULP energy per Si atom -5586.871559 kJ/mol
# Density = 1.867361 g / cm^3
# Si number density = 18.716204 Si / 1000 Ang^3
#
#
#
# Elastic Constant Matrix: (Units=GPa)
#
#
# Indices 1 2 3 4 5 6 
#
# 1 22.1987 35.7371 38.1498 0.0000 0.0000 0.0000
# 2 35.7371 126.2372 115.2351 0.0000 0.0000 0.0000
# 3 38.1498 115.2351 195.5431 0.0000 0.0000 0.0000
# 4 0.0000 0.0000 0.0000 -8.9737 0.0000 0.0000
# 5 0.0000 0.0000 0.0000 0.0000 40.5850 0.0000
# 6 0.0000 0.0000 0.0000 0.0000 0.0000 2.6241
#
#
#
# Elastic Compliance Matrix: (Units=1/GPa)
#
#
# Indices 1 2 3 4 5 6 
#
# 1 0.085153 -0.019351 -0.005209 0.000000 0.000000 0.000000
# 2 -0.019351 0.021542 -0.008919 0.000000 0.000000 0.000000
# 3 -0.005209 -0.008919 0.011387 0.000000 0.000000 0.000000
# 4 0.000000 0.000000 0.000000 -0.111437 0.000000 0.000000
# 5 0.000000 0.000000 0.000000 0.000000 0.024640 0.000000
# 6 0.000000 0.000000 0.000000 0.000000 0.000000 0.381083
#
#
# Mechanical properties :
#
#
# Convention : Reuss Voigt Hill
#
# Bulk Modulus (GPa) = 19.56113 80.24699 49.90406
# Shear Modulus (GPa) = 10.07319 17.17089 13.62204
#
# Velocity S-wave (km/s) = 2.32244 3.03220 2.70074
# Velocity P-wave (km/s) = 4.20307 7.43154 6.03712
#
# Compressibility (1/GPa) = 0.05112178
#
# Stress axis : x y z
#
# Youngs Moduli (GPa) = 11.74356 46.42123 87.82256
#
# Poissons Ratio (x) = 0.89830 0.45750
# Poissons Ratio (y) = 0.22725 0.78333
# Poissons Ratio (z) = 0.06118 0.41405
#
# Static dielectric constant tensor:
#      x y z
#    x 1.633380 0.000000 0.000000 
#    y 0.000000 1.654030 0.000000 
#    z 0.000000 0.000000 1.592930 
# 
# From -- ./inp_files/5203.got.cif
#   From: 2010.05.17/outbox.cif.g08.bks.cpg/sg51_3_cif.got.tgz:5203.got - 2010.06.03 11:52:47.
