data_PCOD9405113
_publ_section_title
;
Structure prediction by ZEFSAII (Michael W. Deem and Ramdas Pophale) SiO2 
 PCOD9405113
Probable space group: P M M A
;
_chemical_formula_sum "Si O2"
_cell_formula_units_Z 28
_cell_length_a 7.606149
_cell_length_b 19.867621
_cell_length_c 6.972211
_cell_angle_alpha 90.000000
_cell_angle_beta 90.000000
_cell_angle_gamma 90.000000
_cell_volume 1053.613234
_symmetry_space_group_name_H-M "P M M A"
_symmetry_group_IT_number 51
_symmetry_cell_setting 'orthorhombic'
loop_
_space_group_symop_operation_xyz
x,y,z
1/2-x,-y,z
1/2+x,-y,-z
-x,y,-z
-x,-y,-z
1/2+x,y,-z
1/2-x,y,z
x,-y,z
loop_
_atom_site_type_symbol
_atom_site_label
_atom_site_fract_x
_atom_site_fract_y
_atom_site_fract_z
Si Si1 0.552029 0.219531 0.227730
Si Si2 0.960144 0.927173 0.772763
Si Si3 0.750000 0.319140 0.750482
Si Si4 0.544773 0.577820 0.271789
O O1 0.750000 0.245281 0.240844
O O2 0.544026 0.142235 0.295348
O O3 0.403478 0.265620 0.316041
O O4 0.500000 0.219185 0.000000
O O5 0.750000 0.923122 0.746906
O O6 0.024716 0.000000 0.701194
O O7 0.000000 0.928126 0.000000
O O8 0.595613 0.372355 0.816809
O O9 0.500000 0.581967 0.500000
O O10 0.750000 0.594596 0.250348
O O11 0.518155 0.500000 0.216994
#
# Coordination Sequence:
#
# PCOD9405113 Si02
#       4
#     8   8   4   8
#     4  11  20  33  49  73 111 154 189 218 255 308
#     4   9  15  25  42  65  97 140 186 229 264 294
#     4  12  21  34  55  82 110 146 174 212 269 332
#     4  10  20  37  62  87 107 129 164 218 279 330
#
# _framework density 26.575216999999999
#
# number of rings (size 3 to 8) (size 9 to 14) (size 15 to 20)
#    0.000    1.714    4.286    3.857    0.000    1.714 
#    0.000    0.000    0.000    3.429    0.000    0.000 
#    0.000    4.571    0.000    0.286    0.000    0.000 
#
# Total GULP energy -155898.258822 kJ/mol
# GULP energy per Si atom -5567.794958 kJ/mol
# Density = 2.651473 g / cm^3
# Si number density = 26.575217 Si / 1000 Ang^3
#
#
#
# Elastic Constant Matrix: (Units=GPa)
#
#
# Indices 1 2 3 4 5 6 
#
# 1 299.9172 130.2227 19.4408 0.0000 0.0000 0.0000
# 2 130.2227 234.9832 -10.7589 0.0000 0.0000 0.0000
# 3 19.4408 -10.7589 119.2230 0.0000 0.0000 0.0000
# 4 0.0000 0.0000 0.0000 -11.4136 0.0000 0.0000
# 5 0.0000 0.0000 0.0000 0.0000 10.5814 0.0000
# 6 0.0000 0.0000 0.0000 0.0000 0.0000 75.6770
#
#
#
# Elastic Compliance Matrix: (Units=1/GPa)
#
#
# Indices 1 2 3 4 5 6 
#
# 1 0.004498 -0.002537 -0.000962 0.000000 0.000000 0.000000
# 2 -0.002537 0.005704 0.000928 0.000000 0.000000 0.000000
# 3 -0.000962 0.000928 0.008628 0.000000 0.000000 0.000000
# 4 0.000000 0.000000 0.000000 -0.087615 0.000000 0.000000
# 5 0.000000 0.000000 0.000000 0.000000 0.094505 0.000000
# 6 0.000000 0.000000 0.000000 0.000000 0.000000 0.013214
#
#
# Mechanical properties :
#
#
# Convention : Reuss Voigt Hill
#
# Bulk Modulus (GPa) = 73.05244 103.54807 88.30026
# Shear Modulus (GPa) = 102.79642 49.31688 76.05665
#
# Velocity S-wave (km/s) = 6.22618 4.31251 5.35551
# Velocity P-wave (km/s) = 8.90144 7.99035 8.45817
#
# Compressibility (1/GPa) = 0.01368880
#
# Stress axis : x y z
#
# Youngs Moduli (GPa) = 222.31539 175.31603 115.89700
#
# Poissons Ratio (x) = 0.44475 0.11154
# Poissons Ratio (y) = 0.56397 -0.10760
# Poissons Ratio (z) = 0.21396 -0.16276
#
# Static dielectric constant tensor:
#      x y z
#    x 1.945940 0.000000 0.000000 
#    y 0.000000 2.073080 0.000000 
#    z 0.000000 0.000000 2.395930 
# 
# From -- ./inp_files/13898.got.cif
#   From: 2010.05.17/outbox.cif.g08.bks.cpg/sg51_7_cif.got.tgz:13898.got - 2010.06.03 11:52:47.
