data_PCOD9405007
_publ_section_title
;
Structure prediction by ZEFSAII (Michael W. Deem and Ramdas Pophale) SiO2 
 PCOD9405007
Probable space group: P M M A
;
_chemical_formula_sum "Si O2"
_cell_formula_units_Z 48
_cell_length_a 8.539596
_cell_length_b 31.820275
_cell_length_c 9.535590
_cell_angle_alpha 90.000000
_cell_angle_beta 90.000000
_cell_angle_gamma 90.000000
_cell_volume 2591.127737
_symmetry_space_group_name_H-M "P M M A"
_symmetry_group_IT_number 51
_symmetry_cell_setting 'orthorhombic'
loop_
_space_group_symop_operation_xyz
x,y,z
1/2-x,-y,z
1/2+x,-y,-z
-x,y,-z
-x,-y,-z
1/2+x,y,-z
1/2-x,y,z
x,-y,z
loop_
_atom_site_type_symbol
_atom_site_label
_atom_site_fract_x
_atom_site_fract_y
_atom_site_fract_z
Si Si1 0.438892 0.829252 0.343104
Si Si2 0.438900 0.657368 0.157786
Si Si3 0.436302 0.000000 0.842511
Si Si4 0.438662 0.421989 0.341271
Si Si5 0.438132 0.923588 0.341477
Si Si6 0.560766 0.751708 0.843276
Si Si7 0.562616 0.500000 0.159388
O O1 0.500000 0.824351 0.500000
O O2 0.250000 0.828277 0.344399
O O3 0.484756 0.876258 0.295187
O O4 0.495825 0.790316 0.250744
O O5 0.250000 0.656636 0.151470
O O6 0.488450 0.621592 0.266614
O O7 0.488269 0.704580 0.201338
O O8 0.500000 0.649329 0.000000
O O9 0.495679 0.959110 0.759303
O O10 0.250000 0.000000 0.844771
O O11 0.500000 0.000000 0.000000
O O12 0.500000 0.425161 0.500000
O O13 0.250000 0.423905 0.343482
O O14 0.502183 0.459566 0.244773
O O15 0.500000 0.929670 0.500000
O O16 0.250000 0.926175 0.343687
O O17 0.750000 0.752387 0.843351
O O18 0.500000 0.757466 0.000000
O O19 0.750000 0.500000 0.156053
O O20 0.500000 0.500000 0.000000
#
# Coordination Sequence:
#
# PCOD9405007 Si02
#       7
#     8   8   4   8   8   8   4
#     4   9  19  34  54  79 109 141 178 220 264 314
#     4   9  19  35  56  79 108 144 184 225 269 321
#     4  12  25  40  57  80 108 140 176 222 273 324
#     4  11  23  39  58  84 115 148 184 228 277 326
#     4  10  20  37  58  81 108 143 182 222 267 322
#     4   9  18  34  53  78 109 143 181 223 268 319
#     4  12  25  42  63  86 112 146 184 226 273 328
#
# _framework density 18.524751999999999
#
# number of rings (size 3 to 8) (size 9 to 14) (size 15 to 20)
#    0.000    2.000    0.000    3.500    0.000    5.333 
#    0.000    1.667    0.000    0.000    0.000    0.000 
#    0.000    0.000    0.000    0.000    0.000    0.000 
#
# Total GULP energy -268004.720775 kJ/mol
# GULP energy per Si atom -5583.431683 kJ/mol
# Density = 1.848259 g / cm^3
# Si number density = 18.524752 Si / 1000 Ang^3
#
#
#
# Elastic Constant Matrix: (Units=GPa)
#
#
# Indices 1 2 3 4 5 6 
#
# 1 56.3557 52.4530 40.1622 0.0000 0.0000 0.0000
# 2 52.4530 212.4446 131.8172 0.0000 0.0000 0.0000
# 3 40.1622 131.8172 138.3630 0.0000 0.0000 0.0000
# 4 0.0000 0.0000 0.0000 38.0464 0.0000 0.0000
# 5 0.0000 0.0000 0.0000 0.0000 35.1277 0.0000
# 6 0.0000 0.0000 0.0000 0.0000 0.0000 42.0770
#
#
#
# Elastic Compliance Matrix: (Units=1/GPa)
#
#
# Indices 1 2 3 4 5 6 
#
# 1 0.023596 -0.003855 -0.003177 0.000000 0.000000 0.000000
# 2 -0.003855 0.012142 -0.010449 0.000000 0.000000 0.000000
# 3 -0.003177 -0.010449 0.018104 0.000000 0.000000 0.000000
# 4 0.000000 0.000000 0.000000 0.026284 0.000000 0.000000
# 5 0.000000 0.000000 0.000000 0.000000 0.028468 0.000000
# 6 0.000000 0.000000 0.000000 0.000000 0.000000 0.023766
#
#
# Mechanical properties :
#
#
# Convention : Reuss Voigt Hill
#
# Bulk Modulus (GPa) = 52.96160 95.11422 74.03791
# Shear Modulus (GPa) = 28.79954 35.23228 32.01591
#
# Velocity S-wave (km/s) = 3.94718 4.36581 4.16177
# Velocity P-wave (km/s) = 7.03032 8.76753 7.94654
#
# Compressibility (1/GPa) = 0.01888160
#
# Stress axis : x y z
#
# Youngs Moduli (GPa) = 42.37964 82.35805 55.23682
#
# Poissons Ratio (x) = 0.31748 0.17547
# Poissons Ratio (y) = 0.16337 0.57715
# Poissons Ratio (z) = 0.13463 0.86054
#
# Static dielectric constant tensor:
#      x y z
#    x 1.624300 0.000000 0.000000 
#    y 0.000000 1.663830 0.000000 
#    z 0.000000 0.000000 1.585380 
# 
# From -- ./inp_files/6111.got.cif
#   From: 2010.05.17/outbox.cif.g08.bks.cpg/sg51_4_cif.got.tgz:6111.got - 2010.06.03 11:52:47.
