data_PCOD9405505
_publ_section_title
;
Structure prediction by ZEFSAII (Michael W. Deem and Ramdas Pophale) SiO2 
 PCOD9405505
Probable space group: P M M A
;
_chemical_formula_sum "Si O2"
_cell_formula_units_Z 48
_cell_length_a 25.343728
_cell_length_b 9.020151
_cell_length_c 12.060317
_cell_angle_alpha 90.000000
_cell_angle_beta 90.000000
_cell_angle_gamma 90.000000
_cell_volume 2757.039764
_symmetry_space_group_name_H-M "P M M A"
_symmetry_group_IT_number 51
_symmetry_cell_setting 'orthorhombic'
loop_
_space_group_symop_operation_xyz
x,y,z
1/2-x,-y,z
1/2+x,-y,-z
-x,y,-z
-x,-y,-z
1/2+x,y,-z
1/2-x,y,z
x,-y,z
loop_
_atom_site_type_symbol
_atom_site_label
_atom_site_fract_x
_atom_site_fract_y
_atom_site_fract_z
Si Si1 0.899962 0.822889 0.738576
Si Si2 0.601753 0.676440 0.269299
Si Si3 0.312242 0.176407 0.881906
Si Si4 0.562045 0.822158 0.492696
Si Si5 0.504235 0.323078 0.870682
Si Si6 0.687653 0.675822 0.882149
O O1 0.911154 0.786520 0.610175
O O2 0.949130 0.763567 0.810157
O O3 0.847890 0.747661 0.787499
O O4 0.896453 0.000000 0.748708
O O5 0.609589 0.500000 0.273565
O O6 0.651647 0.754253 0.212931
O O7 0.588742 0.740165 0.390117
O O8 0.550671 0.706182 0.191974
O O9 0.250000 0.204593 0.862483
O O10 0.320126 0.000000 0.888713
O O11 0.326311 0.250703 0.999731
O O12 0.500000 0.782471 0.500000
O O13 0.564953 0.000000 0.475365
O O14 0.514934 0.500000 0.863863
O O15 0.500000 0.283366 0.000000
O O16 0.750000 0.700814 0.863442
O O17 0.678219 0.500000 0.888480
#
# Coordination Sequence:
#
# PCOD9405505 Si02
#       6
#     8   8   8   8   8   8
#     4  11  22  36  58  84 110 148 192 236 284 336
#     4  11  22  35  57  86 115 151 192 235 285 339
#     4  10  21  38  61  87 116 151 190 233 282 339
#     4  10  21  39  58  79 113 155 196 237 284 338
#     4  10  21  35  52  79 115 148 180 227 285 343
#     4  10  21  38  60  85 116 151 185 230 287 342
#
# _framework density 17.409977000000001
#
# number of rings (size 3 to 8) (size 9 to 14) (size 15 to 20)
#    0.000    1.667    1.667    3.000    0.000    6.000 
#    0.000    0.833    0.000    1.000    0.000    0.000 
#    0.000    0.000    0.000    0.000    0.000    0.000 
#
# Total GULP energy -268236.367462 kJ/mol
# GULP energy per Si atom -5588.257655 kJ/mol
# Density = 1.737035 g / cm^3
# Si number density = 17.409977 Si / 1000 Ang^3
#
#
#
# Elastic Constant Matrix: (Units=GPa)
#
#
# Indices 1 2 3 4 5 6 
#
# 1 90.3731 66.8497 86.3684 0.0000 0.0000 0.0000
# 2 66.8497 74.4467 83.2405 0.0000 0.0000 0.0000
# 3 86.3684 83.2405 174.0051 0.0000 0.0000 0.0000
# 4 0.0000 0.0000 0.0000 13.3283 0.0000 0.0000
# 5 0.0000 0.0000 0.0000 0.0000 19.3465 0.0000
# 6 0.0000 0.0000 0.0000 0.0000 0.0000 32.3131
#
#
#
# Elastic Compliance Matrix: (Units=1/GPa)
#
#
# Indices 1 2 3 4 5 6 
#
# 1 0.034872 -0.025714 -0.005008 0.000000 0.000000 0.000000
# 2 -0.025714 0.047841 -0.010123 0.000000 0.000000 0.000000
# 3 -0.005008 -0.010123 0.013075 0.000000 0.000000 0.000000
# 4 0.000000 0.000000 0.000000 0.075029 0.000000 0.000000
# 5 0.000000 0.000000 0.000000 0.000000 0.051689 0.000000
# 6 0.000000 0.000000 0.000000 0.000000 0.000000 0.030947
#
#
# Mechanical properties :
#
#
# Convention : Reuss Voigt Hill
#
# Bulk Modulus (GPa) = 70.92839 90.19358 80.56098
# Shear Modulus (GPa) = 14.71269 19.82200 17.26734
#
# Velocity S-wave (km/s) = 2.91017 3.37789 3.15271
# Velocity P-wave (km/s) = 7.21946 8.19339 7.72180
#
# Compressibility (1/GPa) = 0.01409873
#
# Stress axis : x y z
#
# Youngs Moduli (GPa) = 28.67613 20.90249 76.48070
#
# Poissons Ratio (x) = 0.53749 0.38300
# Poissons Ratio (y) = 0.73739 0.77420
# Poissons Ratio (z) = 0.14361 0.21159
#
# Static dielectric constant tensor:
#      x y z
#    x 1.575720 0.000000 0.000000 
#    y 0.000000 1.577190 0.000000 
#    z 0.000000 0.000000 1.559450 
# 
# From -- ./inp_files/18578.got.cif
#   From: 2010.05.17/outbox.cif.g08.bks.cpg/sg51_10_cif.got.tgz:18578.got - 2010.06.03 11:52:47.
