data_PCOD9405623
_publ_section_title
;
Structure prediction by ZEFSAII (Michael W. Deem and Ramdas Pophale) SiO2 
 PCOD9405623
Probable space group: P M M A
;
_chemical_formula_sum "Si O2"
_cell_formula_units_Z 56
_cell_length_a 8.870405
_cell_length_b 22.760808
_cell_length_c 15.250772
_cell_angle_alpha 90.000000
_cell_angle_beta 90.000000
_cell_angle_gamma 90.000000
_cell_volume 3079.094038
_symmetry_space_group_name_H-M "P M M A"
_symmetry_group_IT_number 51
_symmetry_cell_setting 'orthorhombic'
loop_
_space_group_symop_operation_xyz
x,y,z
1/2-x,-y,z
1/2+x,-y,-z
-x,y,-z
-x,-y,-z
1/2+x,y,-z
1/2-x,y,z
x,-y,z
loop_
_atom_site_type_symbol
_atom_site_label
_atom_site_fract_x
_atom_site_fract_y
_atom_site_fract_z
Si Si1 0.069024 0.242163 0.907972
Si Si2 0.569406 0.299098 0.594861
Si Si3 0.430996 0.658761 0.770738
Si Si4 0.569945 0.162050 0.594398
Si Si5 0.430783 0.894491 0.908932
Si Si6 0.931895 0.065057 0.280598
Si Si7 0.927739 0.570216 0.906083
O O1 0.250000 0.244154 0.914710
O O2 0.024406 0.283474 0.827544
O O3 0.024130 0.174077 0.896197
O O4 0.000000 0.262929 0.000000
O O5 0.500000 0.314082 0.500000
O O6 0.750000 0.304348 0.591573
O O7 0.502220 0.336226 0.674733
O O8 0.530668 0.230283 0.612555
O O9 0.250000 0.656995 0.764592
O O10 0.491444 0.604650 0.827965
O O11 0.500000 0.147325 0.500000
O O12 0.750000 0.157602 0.590691
O O13 0.504788 0.117404 0.665138
O O14 0.250000 0.896532 0.916385
O O15 0.474604 0.928595 0.821483
O O16 0.500000 0.915726 0.000000
O O17 0.750000 0.070467 0.285630
O O18 0.974126 0.000000 0.312919
O O19 0.750000 0.584081 0.907125
O O20 0.945129 0.500000 0.895591
O O21 0.000000 0.586287 0.000000
#
# Coordination Sequence:
#
# PCOD9405623 Si02
#       7
#     8   8   8   8   8   8   8
#     4   9  18  30  46  71 102 134 167 208 258 312
#     4  10  21  37  57  82 110 139 174 217 267 323
#     4  11  21  33  54  82 111 145 183 223 269 319
#     4  10  21  37  58  81 105 135 169 211 264 321
#     4   9  18  33  50  69  97 132 169 209 256 309
#     4  10  21  36  53  73  99 133 173 217 264 316
#     4  10  21  37  56  80 114 155 196 235 272 313
#
# _framework density 18.187166999999999
#
# number of rings (size 3 to 8) (size 9 to 14) (size 15 to 20)
#    0.000    2.143    0.000    3.000    0.000    7.429 
#    0.000    2.857    0.000    0.429    0.000    0.000 
#    0.000    0.000    0.000    0.000    0.000    0.000 
#
# Total GULP energy -312727.078770 kJ/mol
# GULP energy per Si atom -5584.412121 kJ/mol
# Density = 1.814577 g / cm^3
# Si number density = 18.187167 Si / 1000 Ang^3
#
#
#
# Elastic Constant Matrix: (Units=GPa)
#
#
# Indices 1 2 3 4 5 6 
#
# 1 47.5213 33.8813 52.1738 0.0000 0.0000 0.0000
# 2 33.8813 51.0337 54.0418 0.0000 0.0000 0.0000
# 3 52.1738 54.0418 145.9843 0.0000 0.0000 0.0000
# 4 0.0000 0.0000 0.0000 6.6076 0.0000 0.0000
# 5 0.0000 0.0000 0.0000 0.0000 36.1738 0.0000
# 6 0.0000 0.0000 0.0000 0.0000 0.0000 25.8993
#
#
#
# Elastic Compliance Matrix: (Units=1/GPa)
#
#
# Indices 1 2 3 4 5 6 
#
# 1 0.045381 -0.021306 -0.008332 0.000000 0.000000 0.000000
# 2 -0.021306 0.042232 -0.008019 0.000000 0.000000 0.000000
# 3 -0.008332 -0.008019 0.012796 0.000000 0.000000 0.000000
# 4 0.000000 0.000000 0.000000 0.151341 0.000000 0.000000
# 5 0.000000 0.000000 0.000000 0.000000 0.027644 0.000000
# 6 0.000000 0.000000 0.000000 0.000000 0.000000 0.038611
#
#
# Mechanical properties :
#
#
# Convention : Reuss Voigt Hill
#
# Bulk Modulus (GPa) = 39.84729 58.30368 49.07549
# Shear Modulus (GPa) = 12.44761 20.69896 16.57328
#
# Velocity S-wave (km/s) = 2.61898 3.37725 3.02199
# Velocity P-wave (km/s) = 5.57696 6.88004 6.26248
#
# Compressibility (1/GPa) = 0.02509581
#
# Stress axis : x y z
#
# Youngs Moduli (GPa) = 22.03569 23.67898 78.14710
#
# Poissons Ratio (x) = 0.50449 0.65110
# Poissons Ratio (y) = 0.46948 0.62668
# Poissons Ratio (z) = 0.18360 0.18989
#
# Static dielectric constant tensor:
#      x y z
#    x 1.607770 0.000000 0.000000 
#    y 0.000000 1.629870 0.000000 
#    z 0.000000 0.000000 1.600940 
# 
# From -- ./inp_files/21694.got.cif
#   From: 2010.05.17/outbox.cif.g08.bks.cpg/sg51_11_cif.got.tgz:21694.got - 2010.06.03 11:52:47.
