data_PCOD9405053
_publ_section_title
;
Structure prediction by ZEFSAII (Michael W. Deem and Ramdas Pophale) SiO2 
 PCOD9405053
Probable space group: P M M A
;
_chemical_formula_sum "Si O2"
_cell_formula_units_Z 64
_cell_length_a 15.334052
_cell_length_b 9.318121
_cell_length_c 24.448120
_cell_angle_alpha 90.000000
_cell_angle_beta 90.000000
_cell_angle_gamma 90.000000
_cell_volume 3493.258672
_symmetry_space_group_name_H-M "P M M A"
_symmetry_group_IT_number 51
_symmetry_cell_setting 'orthorhombic'
loop_
_space_group_symop_operation_xyz
x,y,z
1/2-x,-y,z
1/2+x,-y,-z
-x,y,-z
-x,-y,-z
1/2+x,y,-z
1/2-x,y,z
x,-y,z
loop_
_atom_site_type_symbol
_atom_site_label
_atom_site_fract_x
_atom_site_fract_y
_atom_site_fract_z
Si Si1 0.411020 0.663583 0.597685
Si Si2 0.148463 0.825151 0.009050
Si Si3 0.987634 0.173981 0.083546
Si Si4 0.151556 0.329377 0.262260
Si Si5 0.616173 0.336295 0.613678
Si Si6 0.349837 0.670845 0.714744
Si Si7 0.148624 0.837195 0.495422
Si Si8 0.489890 0.827260 0.790222
O O1 0.383367 0.500000 0.585426
O O2 0.511527 0.662803 0.615377
O O3 0.359344 0.715174 0.651088
O O4 0.401230 0.754377 0.543060
O O5 0.250000 0.776829 0.011964
O O6 0.094140 0.781548 0.954551
O O7 0.151514 0.000000 0.009542
O O8 0.081004 0.780982 0.057410
O O9 0.977579 0.215600 0.146422
O O10 0.988338 0.000000 0.081534
O O11 0.250000 0.308825 0.242010
O O12 0.130249 0.500000 0.259058
O O13 0.148430 0.291086 0.326711
O O14 0.081284 0.236194 0.230633
O O15 0.645524 0.500000 0.603787
O O16 0.642367 0.239008 0.563030
O O17 0.250000 0.689161 0.732182
O O18 0.371406 0.500000 0.716470
O O19 0.415426 0.758631 0.752342
O O20 0.250000 0.837048 0.511825
O O21 0.117530 0.000000 0.490848
O O22 0.488825 0.000000 0.786263
#
# Coordination Sequence:
#
# PCOD9405053 Si02
#       8
#     8   8   8   8   8   8   8   8
#     4  10  20  37  60  80  99 131 180 230 272 322
#     4   8  13  25  46  69 101 146 188 224 262 312
#     4   8  16  28  43  72 109 145 183 220 269 326
#     4  10  21  39  61  81 106 146 194 237 275 326
#     4  10  20  37  60  80  99 131 180 230 272 322
#     4  10  21  39  61  81 106 146 194 237 275 326
#     4  11  24  37  50  76 112 141 168 212 275 343
#     4  11  22  35  54  83 121 152 179 228 286 339
#
# _framework density 18.321003000000001
#
# number of rings (size 3 to 8) (size 9 to 14) (size 15 to 20)
#    0.000    2.250    1.250    2.625    0.000    6.500 
#    0.000    2.500    0.000    0.000    0.000    7.000 
#    0.000   12.000    0.000    0.000    0.000    0.000 
#
# Total GULP energy -356997.510024 kJ/mol
# GULP energy per Si atom -5578.086094 kJ/mol
# Density = 1.827930 g / cm^3
# Si number density = 18.321003 Si / 1000 Ang^3
#
#
#
# Elastic Constant Matrix: (Units=GPa)
#
#
# Indices 1 2 3 4 5 6 
#
# 1 91.2497 18.6597 15.7206 0.0000 0.0000 0.0000
# 2 18.6597 39.6040 33.8413 0.0000 0.0000 0.0000
# 3 15.7206 33.8413 81.7452 0.0000 0.0000 0.0000
# 4 0.0000 0.0000 0.0000 39.4193 0.0000 0.0000
# 5 0.0000 0.0000 0.0000 0.0000 144.5692 0.0000
# 6 0.0000 0.0000 0.0000 0.0000 0.0000 13.1169
#
#
#
# Elastic Compliance Matrix: (Units=1/GPa)
#
#
# Indices 1 2 3 4 5 6 
#
# 1 0.012128 -0.005758 0.000051 0.000000 0.000000 0.000000
# 2 -0.005758 0.041805 -0.016199 0.000000 0.000000 0.000000
# 3 0.000051 -0.016199 0.018930 0.000000 0.000000 0.000000
# 4 0.000000 0.000000 0.000000 0.025368 0.000000 0.000000
# 5 0.000000 0.000000 0.000000 0.000000 0.006917 0.000000
# 6 0.000000 0.000000 0.000000 0.000000 0.000000 0.076237
#
#
# Mechanical properties :
#
#
# Convention : Reuss Voigt Hill
#
# Bulk Modulus (GPa) = 34.42288 38.78245 36.60267
# Shear Modulus (GPa) = 21.28742 49.04623 35.16683
#
# Velocity S-wave (km/s) = 3.41238 5.17963 4.38594
# Velocity P-wave (km/s) = 5.86134 7.54889 6.75800
#
# Compressibility (1/GPa) = 0.02905044
#
# Stress axis : x y z
#
# Youngs Moduli (GPa) = 82.45703 23.92047 52.82741
#
# Poissons Ratio (x) = 0.13773 -0.00272
# Poissons Ratio (y) = 0.47478 0.85577
# Poissons Ratio (z) = -0.00424 0.38750
#
# Static dielectric constant tensor:
#      x y z
#    x 1.655210 0.000000 0.000000 
#    y 0.000000 1.618410 0.000000 
#    z 0.000000 0.000000 1.614320 
# 
# From -- ./inp_files/35833.got.cif
#   From: 2010.05.17/outbox.cif.g08.bks.cpg/sg51_18_cif.got.tgz:35833.got - 2010.06.03 11:52:47.
