data_PCOD9405970
_publ_section_title
;
Structure prediction by ZEFSAII (Michael W. Deem and Ramdas Pophale) SiO2 
 PCOD9405970
Probable space group: P M M A
;
_chemical_formula_sum "Si O2"
_cell_formula_units_Z 48
_cell_length_a 9.153629
_cell_length_b 10.009296
_cell_length_c 30.285345
_cell_angle_alpha 90.000000
_cell_angle_beta 90.000000
_cell_angle_gamma 90.000000
_cell_volume 2774.785167
_symmetry_space_group_name_H-M "P M M A"
_symmetry_group_IT_number 51
_symmetry_cell_setting 'orthorhombic'
loop_
_space_group_symop_operation_xyz
x,y,z
1/2-x,-y,z
1/2+x,-y,-z
-x,y,-z
-x,-y,-z
1/2+x,y,-z
1/2-x,y,z
x,-y,z
loop_
_atom_site_type_symbol
_atom_site_label
_atom_site_fract_x
_atom_site_fract_y
_atom_site_fract_z
Si Si1 0.925075 0.159002 0.192234
Si Si2 0.924906 0.232586 0.897975
Si Si3 0.417499 0.662459 0.366852
Si Si4 0.575266 0.000000 0.047424
Si Si5 0.581648 0.663023 0.455413
Si Si6 0.424719 0.344096 0.723959
Si Si7 0.422425 0.500000 0.047462
O O1 0.750000 0.171505 0.183835
O O2 0.959048 0.244123 0.236069
O O3 0.015399 0.219858 0.151606
O O4 0.956074 0.000000 0.196572
O O5 0.750000 0.206993 0.899126
O O6 0.954120 0.372103 0.922257
O O7 0.015159 0.125426 0.925776
O O8 0.250000 0.707067 0.367299
O O9 0.417697 0.500000 0.368193
O O10 0.501600 0.707654 0.410751
O O11 0.496694 0.697690 0.321242
O O12 0.750000 0.000000 0.044095
O O13 0.500000 0.000000 0.000000
O O14 0.500000 0.705615 0.500000
O O15 0.750000 0.704449 0.455786
O O16 0.579450 0.500000 0.455232
O O17 0.250000 0.340881 0.717043
O O18 0.463587 0.500000 0.733918
O O19 0.250000 0.500000 0.038074
O O20 0.500000 0.500000 0.000000
#
# Coordination Sequence:
#
# PCOD9405970 Si02
#       7
#     8   8   8   4   8   8   4
#     4  10  21  37  56  80 109 140 178 220 266 317
#     4  11  23  40  60  85 115 146 180 220 266 315
#     4   9  16  26  40  61  90 124 165 212 261 312
#     4  12  24  40  62  88 114 144 182 220 261 314
#     4   9  15  22  34  54  84 124 166 207 253 307
#     4   9  18  32  50  72  99 134 175 217 263 315
#     4  10  24  42  60  86 116 146 180 218 261 312
#
# _framework density 17.298635999999998
#
# number of rings (size 3 to 8) (size 9 to 14) (size 15 to 20)
#    0.000    2.167    0.833    2.750    1.167    7.333 
#    0.000    0.000    0.000    0.000    0.000    0.000 
#    0.000    0.667    0.000    1.833    0.000    3.333 
#
# Total GULP energy -267742.850136 kJ/mol
# GULP energy per Si atom -5577.976045 kJ/mol
# Density = 1.725926 g / cm^3
# Si number density = 17.298636 Si / 1000 Ang^3
#
#
#
# Elastic Constant Matrix: (Units=GPa)
#
#
# Indices 1 2 3 4 5 6 
#
# 1 116.7095 58.1171 109.8103 0.0000 0.0000 0.0000
# 2 58.1171 83.0084 66.5592 0.0000 0.0000 0.0000
# 3 109.8103 66.5592 199.4547 0.0000 0.0000 0.0000
# 4 0.0000 0.0000 0.0000 19.2469 0.0000 0.0000
# 5 0.0000 0.0000 0.0000 0.0000 40.4865 0.0000
# 6 0.0000 0.0000 0.0000 0.0000 0.0000 24.8173
#
#
#
# Elastic Compliance Matrix: (Units=1/GPa)
#
#
# Indices 1 2 3 4 5 6 
#
# 1 0.020547 -0.007257 -0.008890 0.000000 0.000000 0.000000
# 2 -0.007257 0.019011 -0.002349 0.000000 0.000000 0.000000
# 3 -0.008890 -0.002349 0.010692 0.000000 0.000000 0.000000
# 4 0.000000 0.000000 0.000000 0.051957 0.000000 0.000000
# 5 0.000000 0.000000 0.000000 0.000000 0.024700 0.000000
# 6 0.000000 0.000000 0.000000 0.000000 0.000000 0.040295
#
#
# Mechanical properties :
#
#
# Convention : Reuss Voigt Hill
#
# Bulk Modulus (GPa) = 75.42723 96.46063 85.94393
# Shear Modulus (GPa) = 23.96790 27.88921 25.92856
#
# Velocity S-wave (km/s) = 3.72632 4.01960 3.87574
# Velocity P-wave (km/s) = 7.88743 8.79920 8.35576
#
# Compressibility (1/GPa) = 0.01325781
#
# Stress axis : x y z
#
# Youngs Moduli (GPa) = 48.66932 52.60071 93.52655
#
# Poissons Ratio (x) = 0.38172 0.83149
# Poissons Ratio (y) = 0.35319 0.21968
# Poissons Ratio (z) = 0.43269 0.12355
#
# Static dielectric constant tensor:
#      x y z
#    x 1.580390 0.000000 0.000000 
#    y 0.000000 1.276540 0.000000 
#    z 0.000000 0.000000 1.579150 
# 
# From -- ./inp_files/37207.got.cif
#   From: 2010.05.17/outbox.cif.g08.bks.cpg/sg51_19_cif.got.tgz:37207.got - 2010.06.03 11:52:47.
