data_PCOD9405239
_publ_section_title
;
Structure prediction by ZEFSAII (Michael W. Deem and Ramdas Pophale) SiO2 
 PCOD9405239
Probable space group: P M M A
;
_chemical_formula_sum "Si O2"
_cell_formula_units_Z 54
_cell_length_a 16.618372
_cell_length_b 31.471109
_cell_length_c 5.088092
_cell_angle_alpha 90.000000
_cell_angle_beta 90.000000
_cell_angle_gamma 90.000000
_cell_volume 2661.064975
_symmetry_space_group_name_H-M "P M M A"
_symmetry_group_IT_number 51
_symmetry_cell_setting 'orthorhombic'
loop_
_space_group_symop_operation_xyz
x,y,z
1/2-x,-y,z
1/2+x,-y,-z
-x,y,-z
-x,-y,-z
1/2+x,y,-z
1/2-x,y,z
x,-y,z
loop_
_atom_site_type_symbol
_atom_site_label
_atom_site_fract_x
_atom_site_fract_y
_atom_site_fract_z
Si Si1 0.057581 0.500000 0.248853
Si Si2 0.652778 0.413448 0.685246
Si Si3 0.407823 0.225084 0.092493
Si Si4 0.250000 0.000000 0.619631
Si Si5 0.588526 0.126170 0.876780
Si Si6 0.155754 0.729059 0.601562
Si Si7 0.163925 0.911676 0.613300
Si Si8 0.847635 0.361492 0.181881
O O1 0.112400 0.541952 0.252331
O O2 0.000000 0.500000 0.500000
O O3 0.000000 0.500000 0.000000
O O4 0.750000 0.417239 0.699264
O O5 0.631053 0.397003 0.396206
O O6 0.626840 0.377695 0.896576
O O7 0.389162 0.253931 0.344717
O O8 0.500000 0.229650 0.000000
O O9 0.393342 0.175907 0.161945
O O10 0.354658 0.238668 0.843389
O O11 0.318689 0.038078 0.618826
O O12 0.644535 0.104932 0.097344
O O13 0.500000 0.123077 0.000000
O O14 0.599565 0.102453 0.601261
O O15 0.250000 0.724226 0.532102
O O16 0.124234 0.684089 0.714156
O O17 0.250000 0.892194 0.525279
O O18 0.750000 0.358458 0.173490
#
# Coordination Sequence:
#
# PCOD9405239 Si02
#       8
#     4   8   8   2   8   8   8   8
#     4  12  25  40  57  86 124 150 184 250 309 342
#     4  10  20  39  63  84 110 154 201 234 291 361
#     4  11  24  40  58  86 129 164 198 246 307 361
#     4   8  24  42  66  90 128 154 198 254 320 358
#     4  11  23  40  61  90 122 162 205 251 296 358
#     4  11  22  39  63  91 121 156 206 256 299 356
#     4  10  22  40  65  86 123 156 199 245 310 358
#     4   9  19  36  61  88 114 147 195 251 289 338
#
# _framework density 20.292629000000002
#
# number of rings (size 3 to 8) (size 9 to 14) (size 15 to 20)
#    0.444    1.185    0.000    4.667    0.000    9.481 
#    0.000   12.593    0.000    0.000    0.000    0.000 
#    0.000    0.000    0.000    0.000    0.000    0.000 
#
# Total GULP energy -301109.179137 kJ/mol
# GULP energy per Si atom -5576.095910 kJ/mol
# Density = 2.024644 g / cm^3
# Si number density = 20.292629 Si / 1000 Ang^3
#
#
#
# Elastic Constant Matrix: (Units=GPa)
#
#
# Indices 1 2 3 4 5 6 
#
# 1 29.6166 23.4879 3.9340 0.0000 0.0000 0.0000
# 2 23.4879 89.1035 2.1650 0.0000 0.0000 0.0000
# 3 3.9340 2.1650 87.2227 0.0000 0.0000 0.0000
# 4 0.0000 0.0000 0.0000 40.0617 0.0000 0.0000
# 5 0.0000 0.0000 0.0000 0.0000 28.6989 0.0000
# 6 0.0000 0.0000 0.0000 0.0000 0.0000 -64.5055
#
#
#
# Elastic Compliance Matrix: (Units=1/GPa)
#
#
# Indices 1 2 3 4 5 6 
#
# 1 0.042927 -0.011275 -0.001656 0.000000 0.000000 0.000000
# 2 -0.011275 0.014191 0.000156 0.000000 0.000000 0.000000
# 3 -0.001656 0.000156 0.011536 0.000000 0.000000 0.000000
# 4 0.000000 0.000000 0.000000 0.024962 0.000000 0.000000
# 5 0.000000 0.000000 0.000000 0.000000 0.034844 0.000000
# 6 0.000000 0.000000 0.000000 0.000000 0.000000 -0.015503
#
#
# Mechanical properties :
#
#
# Convention : Reuss Voigt Hill
#
# Bulk Modulus (GPa) = 23.20011 29.45742 26.32876
# Shear Modulus (GPa) = 32.70627 12.60807 22.65717
#
# Velocity S-wave (km/s) = 4.01899 2.49532 3.34507
# Velocity P-wave (km/s) = 5.74404 4.78017 5.28413
#
# Compressibility (1/GPa) = 0.04310325
#
# Stress axis : x y z
#
# Youngs Moduli (GPa) = 23.29541 70.46558 86.68724
#
# Poissons Ratio (x) = 0.79453 0.14358
# Poissons Ratio (y) = 0.26266 -0.01355
# Poissons Ratio (z) = 0.03858 -0.01101
#
# Static dielectric constant tensor:
#      x y z
#    x 1.754870 0.000000 0.000000 
#    y 0.000000 1.700750 0.000000 
#    z 0.000000 0.000000 1.699170 
# 
# From -- ./inp_files/1503.got.cif
#   From: 2010.05.17/outbox.cif.g08.bks.cpg/sg51_1_cif.got.tgz:1503.got - 2010.06.03 11:52:47.
