data_PCOD9405106
_publ_section_title
;
Structure prediction by ZEFSAII (Michael W. Deem and Ramdas Pophale) SiO2 
 PCOD9405106
Probable space group: P M M A
;
_chemical_formula_sum "Si O2"
_cell_formula_units_Z 40
_cell_length_a 14.269584
_cell_length_b 15.384137
_cell_length_c 8.415093
_cell_angle_alpha 90.000000
_cell_angle_beta 90.000000
_cell_angle_gamma 90.000000
_cell_volume 1847.325270
_symmetry_space_group_name_H-M "P M M A"
_symmetry_group_IT_number 51
_symmetry_cell_setting 'orthorhombic'
loop_
_space_group_symop_operation_xyz
x,y,z
1/2-x,-y,z
1/2+x,-y,-z
-x,y,-z
-x,-y,-z
1/2+x,y,-z
1/2-x,y,z
x,-y,z
loop_
_atom_site_type_symbol
_atom_site_label
_atom_site_fract_x
_atom_site_fract_y
_atom_site_fract_z
Si Si1 0.856276 0.744088 0.866146
Si Si2 0.048688 0.900981 0.262804
Si Si3 0.359532 0.847479 0.600061
Si Si4 0.035708 0.403890 0.320432
Si Si5 0.852569 0.332541 0.219306
O O1 0.750000 0.763766 0.816103
O O2 0.917539 0.830715 0.862553
O O3 0.899696 0.671946 0.748662
O O4 0.854017 0.708295 0.044262
O O5 0.101991 0.868369 0.423880
O O6 0.937290 0.894746 0.291870
O O7 0.074819 0.000000 0.229620
O O8 0.250000 0.872631 0.616141
O O9 0.365758 0.746509 0.654560
O O10 0.078537 0.500000 0.307409
O O11 0.000000 0.390524 0.500000
O O12 0.938370 0.397503 0.226027
O O13 0.750000 0.371433 0.249011
#
# Coordination Sequence:
#
# PCOD9405106 Si02
#       5
#     8   8   8   8   8
#     4  11  24  42  64  91 129 170 211 260 315 377
#     4  11  23  38  61  92 126 171 218 262 316 371
#     4  10  20  37  61  89 124 165 212 262 312 371
#     4  11  24  42  67  97 127 161 206 259 316 378
#     4  10  22  41  66  93 126 169 209 253 315 379
#
# _framework density 21.652925
#
# number of rings (size 3 to 8) (size 9 to 14) (size 15 to 20)
#    0.000    1.400    2.000    3.600    0.000    7.600 
#    0.000    7.000    0.000    7.200    0.000    0.000 
#    0.000    0.000    0.000    0.000    0.000    0.000 
#
# Total GULP energy -223502.344490 kJ/mol
# GULP energy per Si atom -5587.558612 kJ/mol
# Density = 2.160364 g / cm^3
# Si number density = 21.652925 Si / 1000 Ang^3
#
#
#
# Elastic Constant Matrix: (Units=GPa)
#
#
# Indices 1 2 3 4 5 6 
#
# 1 137.5117 39.7709 22.8157 0.0000 0.0000 0.0000
# 2 39.7709 100.9036 28.4037 0.0000 0.0000 0.0000
# 3 22.8157 28.4037 40.3030 0.0000 0.0000 0.0000
# 4 0.0000 0.0000 0.0000 0.2548 0.0000 0.0000
# 5 0.0000 0.0000 0.0000 0.0000 25.4046 0.0000
# 6 0.0000 0.0000 0.0000 0.0000 0.0000 -28.2490
#
#
#
# Elastic Compliance Matrix: (Units=1/GPa)
#
#
# Indices 1 2 3 4 5 6 
#
# 1 0.008499 -0.002489 -0.003057 0.000000 0.000000 0.000000
# 2 -0.002489 0.013092 -0.007818 0.000000 0.000000 0.000000
# 3 -0.003057 -0.007818 0.032052 0.000000 0.000000 0.000000
# 4 0.000000 0.000000 0.000000 3.924475 0.000000 0.000000
# 5 0.000000 0.000000 0.000000 0.000000 0.039363 0.000000
# 6 0.000000 0.000000 0.000000 0.000000 0.000000 -0.035399
#
#
# Mechanical properties :
#
#
# Convention : Reuss Voigt Hill
#
# Bulk Modulus (GPa) = 37.15316 51.18876 44.17096
# Shear Modulus (GPa) = 1.24447 11.99728 6.62087
#
# Velocity S-wave (km/s) = 0.75893 2.35643 1.75053
# Velocity P-wave (km/s) = 4.23836 5.57634 4.95274
#
# Compressibility (1/GPa) = 0.02691561
#
# Stress axis : x y z
#
# Youngs Moduli (GPa) = 117.65640 76.38124 31.19921
#
# Poissons Ratio (x) = 0.19015 0.09538
# Poissons Ratio (y) = 0.29290 0.24390
# Poissons Ratio (z) = 0.35968 0.59711
#
# Static dielectric constant tensor:
#      x y z
#    x 1.801940 0.000000 0.000000 
#    y 0.000000 1.773130 0.000000 
#    z 0.000000 0.000000 1.826090 
# 
# From -- ./inp_files/7939.got.cif
#   From: 2010.05.17/outbox.cif.g08.bks.cpg/sg51_4_cif.got.tgz:7939.got - 2010.06.03 11:52:47.
