data_PCOD9405680
_publ_section_title
;
Structure prediction by ZEFSAII (Michael W. Deem and Ramdas Pophale) SiO2 
 PCOD9405680
Probable space group: P M M A
;
_chemical_formula_sum "Si O2"
_cell_formula_units_Z 64
_cell_length_a 9.809009
_cell_length_b 28.079637
_cell_length_c 13.044725
_cell_angle_alpha 90.000000
_cell_angle_beta 90.000000
_cell_angle_gamma 90.000000
_cell_volume 3592.953116
_symmetry_space_group_name_H-M "P M M A"
_symmetry_group_IT_number 51
_symmetry_cell_setting 'orthorhombic'
loop_
_space_group_symop_operation_xyz
x,y,z
1/2-x,-y,z
1/2+x,-y,-z
-x,y,-z
-x,-y,-z
1/2+x,y,-z
1/2-x,y,z
x,-y,z
loop_
_atom_site_type_symbol
_atom_site_label
_atom_site_fract_x
_atom_site_fract_y
_atom_site_fract_z
Si Si1 0.593370 0.773777 0.094564
Si Si2 0.911335 0.150087 0.789949
Si Si3 0.594966 0.211965 0.598095
Si Si4 0.904559 0.618546 0.402147
Si Si5 0.000036 0.703056 0.738575
Si Si6 0.090549 0.443548 0.792940
Si Si7 0.593209 0.368395 0.905735
Si Si8 0.910430 0.054287 0.899447
O O1 0.750000 0.783481 0.065188
O O2 0.512671 0.819456 0.138978
O O3 0.590654 0.734572 0.184581
O O4 0.500000 0.757526 0.000000
O O5 0.750000 0.161056 0.811303
O O6 0.936480 0.168046 0.674493
O O7 0.933522 0.094794 0.814773
O O8 0.500000 0.214431 0.500000
O O9 0.750000 0.208115 0.563435
O O10 0.578409 0.259074 0.668215
O O11 0.750000 0.614679 0.437720
O O12 0.932873 0.575885 0.322247
O O13 0.000000 0.618890 0.500000
O O14 0.922523 0.666612 0.335626
O O15 0.911427 0.670081 0.814075
O O16 0.250000 0.431707 0.817538
O O17 0.074100 0.500000 0.800061
O O18 0.985100 0.415146 0.863838
O O19 0.750000 0.376900 0.935102
O O20 0.500000 0.351649 0.000000
O O21 0.750000 0.056500 0.926904
O O22 0.940089 0.000000 0.866059
O O23 0.000000 0.064406 0.000000
#
# Coordination Sequence:
#
# PCOD9405680 Si02
#       8
#     8   8   8   8   8   8   8   8
#     4  11  22  34  51  75 104 140 178 215 257 307
#     4   9  19  35  52  73 104 139 176 219 264 313
#     4  10  21  36  54  76 102 134 174 219 264 310
#     4  10  21  36  55  79 105 133 167 209 258 308
#     4  10  22  37  55  75 103 138 177 214 252 303
#     4   9  20  40  61  80 106 139 174 212 253 301
#     4  11  23  38  58  83 110 140 173 211 255 305
#     4   9  17  30  50  76 105 138 175 215 262 315
#
# _framework density 17.812643999999999
#
# number of rings (size 3 to 8) (size 9 to 14) (size 15 to 20)
#    0.000    2.125    0.000    2.625    0.000   12.250 
#    0.000    0.000    0.000    0.375    0.000    0.000 
#    0.000    0.000    0.000    0.000    0.000    0.000 
#
# Total GULP energy -357050.161657 kJ/mol
# GULP energy per Si atom -5578.908776 kJ/mol
# Density = 1.777210 g / cm^3
# Si number density = 17.812644 Si / 1000 Ang^3
#
#
#
# Elastic Constant Matrix: (Units=GPa)
#
#
# Indices 1 2 3 4 5 6 
#
# 1 113.1373 41.7690 69.1214 0.0000 0.0000 0.0000
# 2 41.7690 108.5365 49.4343 0.0000 0.0000 0.0000
# 3 69.1214 49.4343 105.5456 0.0000 0.0000 0.0000
# 4 0.0000 0.0000 0.0000 7.4969 0.0000 0.0000
# 5 0.0000 0.0000 0.0000 0.0000 23.3855 0.0000
# 6 0.0000 0.0000 0.0000 0.0000 0.0000 3.0706
#
#
#
# Elastic Compliance Matrix: (Units=1/GPa)
#
#
# Indices 1 2 3 4 5 6 
#
# 1 0.014962 -0.001646 -0.009027 0.000000 0.000000 0.000000
# 2 -0.001646 0.011893 -0.004492 0.000000 0.000000 0.000000
# 3 -0.009027 -0.004492 0.017491 0.000000 0.000000 0.000000
# 4 0.000000 0.000000 0.000000 0.133388 0.000000 0.000000
# 5 0.000000 0.000000 0.000000 0.000000 0.042762 0.000000
# 6 0.000000 0.000000 0.000000 0.000000 0.000000 0.325673
#
#
# Mechanical properties :
#
#
# Convention : Reuss Voigt Hill
#
# Bulk Modulus (GPa) = 71.35833 71.98541 71.67187
# Shear Modulus (GPa) = 8.60331 17.91691 13.26011
#
# Velocity S-wave (km/s) = 2.20009 3.17496 2.73137
# Velocity P-wave (km/s) = 6.82651 7.34444 7.09021
#
# Compressibility (1/GPa) = 0.01401378
#
# Stress axis : x y z
#
# Youngs Moduli (GPa) = 66.83627 84.08255 57.17347
#
# Poissons Ratio (x) = 0.13842 0.51613
# Poissons Ratio (y) = 0.11003 0.25684
# Poissons Ratio (z) = 0.60336 0.37772
#
# Static dielectric constant tensor:
#      x y z
#    x 1.603990 0.000000 0.000000 
#    y 0.000000 1.619760 0.000000 
#    z 0.000000 0.000000 1.604220 
# 
# From -- ./inp_files/14855.got.cif
#   From: 2010.05.17/outbox.cif.g08.bks.cpg/sg51_8_cif.got.tgz:14855.got - 2010.06.03 11:52:47.
