data_PCOD9405376
_publ_section_title
;
Structure prediction by ZEFSAII (Michael W. Deem and Ramdas Pophale) SiO2 
 PCOD9405376
Probable space group: P M M A
;
_chemical_formula_sum "Si O2"
_cell_formula_units_Z 48
_cell_length_a 9.759145
_cell_length_b 7.529036
_cell_length_c 32.393780
_cell_angle_alpha 90.000000
_cell_angle_beta 90.000000
_cell_angle_gamma 90.000000
_cell_volume 2380.196284
_symmetry_space_group_name_H-M "P M M A"
_symmetry_group_IT_number 51
_symmetry_cell_setting 'orthorhombic'
loop_
_space_group_symop_operation_xyz
x,y,z
1/2-x,-y,z
1/2+x,-y,-z
-x,y,-z
-x,-y,-z
1/2+x,y,-z
1/2-x,y,z
x,-y,z
loop_
_atom_site_type_symbol
_atom_site_label
_atom_site_fract_x
_atom_site_fract_y
_atom_site_fract_z
Si Si1 0.095358 0.288888 0.707841
Si Si2 0.593608 0.289564 0.781075
Si Si3 0.408060 0.216562 0.462243
Si Si4 0.409003 0.786563 0.128476
Si Si5 0.093314 0.214066 0.369749
Si Si6 0.409806 0.783054 0.038361
O O1 0.250000 0.217021 0.705837
O O2 0.106804 0.500000 0.714730
O O3 0.004074 0.215430 0.745539
O O4 0.011709 0.265513 0.665637
O O5 0.750000 0.216403 0.779705
O O6 0.605663 0.500000 0.774074
O O7 0.533581 0.267247 0.827201
O O8 0.500000 0.280027 0.500000
O O9 0.250000 0.266300 0.468449
O O10 0.447701 0.273588 0.415914
O O11 0.413777 0.000000 0.462359
O O12 0.250000 0.726987 0.129221
O O13 0.463414 0.727315 0.083802
O O14 0.409924 0.000000 0.127954
O O15 0.250000 0.275175 0.361327
O O16 0.097853 0.000000 0.370580
O O17 0.250000 0.731733 0.034483
O O18 0.411852 0.000000 0.037881
O O19 0.500000 0.721242 0.000000
#
# Coordination Sequence:
#
# PCOD9405376 Si02
#       6
#     8   8   8   8   8   8
#     4  10  21  35  49  67  93 124 156 191 233 280
#     4   9  17  30  48  66  83 110 149 186 221 267
#     4   8  14  25  42  66  95 123 150 182 222 268
#     4   8  14  25  42  64  87 110 139 177 218 257
#     4   9  18  32  50  73  98 123 155 194 231 269
#     4   8  13  22  37  57  81 108 137 169 206 250
#
# _framework density 20.166402999999999
#
# number of rings (size 3 to 8) (size 9 to 14) (size 15 to 20)
#    0.000    3.333    0.000    2.500    0.000    2.667 
#    0.000    4.167    0.000    2.000    0.000    0.000 
#    0.000    0.000    0.000    0.000    0.000    0.000 
#
# Total GULP energy -267450.108593 kJ/mol
# GULP energy per Si atom -5571.877262 kJ/mol
# Density = 2.012050 g / cm^3
# Si number density = 20.166403 Si / 1000 Ang^3
#
#
#
# Elastic Constant Matrix: (Units=GPa)
#
#
# Indices 1 2 3 4 5 6 
#
# 1 102.7363 5.2765 119.3043 0.0000 0.0000 0.0000
# 2 5.2765 47.6305 1.2157 0.0000 0.0000 0.0000
# 3 119.3043 1.2157 230.0814 0.0000 0.0000 0.0000
# 4 0.0000 0.0000 0.0000 30.0654 0.0000 0.0000
# 5 0.0000 0.0000 0.0000 0.0000 32.3228 0.0000
# 6 0.0000 0.0000 0.0000 0.0000 0.0000 6.2885
#
#
#
# Elastic Compliance Matrix: (Units=1/GPa)
#
#
# Indices 1 2 3 4 5 6 
#
# 1 0.024740 -0.002414 -0.012816 0.000000 0.000000 0.000000
# 2 -0.002414 0.021233 0.001139 0.000000 0.000000 0.000000
# 3 -0.012816 0.001139 0.010986 0.000000 0.000000 0.000000
# 4 0.000000 0.000000 0.000000 0.033261 0.000000 0.000000
# 5 0.000000 0.000000 0.000000 0.000000 0.030938 0.000000
# 6 0.000000 0.000000 0.000000 0.000000 0.000000 0.159020
#
#
# Mechanical properties :
#
#
# Convention : Reuss Voigt Hill
#
# Bulk Modulus (GPa) = 34.74760 70.22679 52.48720
# Shear Modulus (GPa) = 15.72569 30.71213 23.21891
#
# Velocity S-wave (km/s) = 2.79551 3.90671 3.39686
# Velocity P-wave (km/s) = 5.26191 7.43298 6.43960
#
# Compressibility (1/GPa) = 0.02877896
#
# Stress axis : x y z
#
# Youngs Moduli (GPa) = 40.42001 47.09597 91.02771
#
# Poissons Ratio (x) = 0.11367 1.16659
# Poissons Ratio (y) = 0.09756 -0.10371
# Poissons Ratio (z) = 0.51802 -0.05366
#
# Static dielectric constant tensor:
#      x y z
#    x 1.695330 0.000000 0.000000 
#    y 0.000000 1.766920 0.000000 
#    z 0.000000 0.000000 1.731960 
# 
# From -- ./inp_files/37304.got.cif
#   From: 2010.05.17/outbox.cif.g08.bks.cpg/sg51_19_cif.got.tgz:37304.got - 2010.06.03 11:52:47.
