data_PCOD9405530
_publ_section_title
;
Structure prediction by ZEFSAII (Michael W. Deem and Ramdas Pophale) SiO2 
 PCOD9405530
Probable space group: P M M A
;
_chemical_formula_sum "Si O2"
_cell_formula_units_Z 40
_cell_length_a 30.765870
_cell_length_b 8.382076
_cell_length_c 7.677826
_cell_angle_alpha 90.000000
_cell_angle_beta 90.000000
_cell_angle_gamma 90.000000
_cell_volume 1979.972054
_symmetry_space_group_name_H-M "P M M A"
_symmetry_group_IT_number 51
_symmetry_cell_setting 'orthorhombic'
loop_
_space_group_symop_operation_xyz
x,y,z
1/2-x,-y,z
1/2+x,-y,-z
-x,y,-z
-x,-y,-z
1/2+x,y,-z
1/2-x,y,z
x,-y,z
loop_
_atom_site_type_symbol
_atom_site_label
_atom_site_fract_x
_atom_site_fract_y
_atom_site_fract_z
Si Si1 0.953329 0.683356 0.912125
Si Si2 0.865304 0.188548 0.964978
Si Si3 0.199850 0.306758 0.744920
Si Si4 0.047104 0.816917 0.455256
Si Si5 0.860739 0.310397 0.569878
O O1 0.948838 0.500000 0.848585
O O2 0.910337 0.724491 0.020785
O O3 0.952012 0.805590 0.753234
O O4 0.000000 0.696638 0.000000
O O5 0.856899 0.234908 0.762426
O O6 0.870983 0.000000 0.978385
O O7 0.826672 0.243897 0.089640
O O8 0.250000 0.256198 0.746808
O O9 0.198598 0.500000 0.748925
O O10 0.175207 0.255246 0.568249
O O11 0.091470 0.730462 0.507191
O O12 0.000000 0.744797 0.500000
O O13 0.048172 0.000000 0.516666
O O14 0.857240 0.500000 0.591247
#
# Coordination Sequence:
#
# PCOD9405530 Si02
#       5
#     8   8   8   8   8
#     4  10  21  36  56  83 114 154 202 244 289 347
#     4  11  23  39  61  89 125 161 196 245 305 363
#     4  10  23  43  66  91 118 155 204 252 301 357
#     4  10  21  35  53  82 118 156 194 236 297 358
#     4  10  21  39  63  88 118 158 204 251 299 352
#
# _framework density 20.202306
#
# number of rings (size 3 to 8) (size 9 to 14) (size 15 to 20)
#    0.000    1.800    0.000    6.000    2.800    6.000 
#    0.000    2.000    0.000    0.000    0.000    0.000 
#    0.000    0.000    0.000    0.000    0.000    0.000 
#
# Total GULP energy -223268.906373 kJ/mol
# GULP energy per Si atom -5581.722659 kJ/mol
# Density = 2.015632 g / cm^3
# Si number density = 20.202306 Si / 1000 Ang^3
#
#
#
# Elastic Constant Matrix: (Units=GPa)
#
#
# Indices 1 2 3 4 5 6 
#
# 1 199.4467 31.2952 74.6778 0.0000 0.0000 0.0000
# 2 31.2952 52.5374 13.5250 0.0000 0.0000 0.0000
# 3 74.6778 13.5250 81.7392 0.0000 0.0000 0.0000
# 4 0.0000 0.0000 0.0000 21.7393 0.0000 0.0000
# 5 0.0000 0.0000 0.0000 0.0000 37.7868 0.0000
# 6 0.0000 0.0000 0.0000 0.0000 0.0000 5.8166
#
#
#
# Elastic Compliance Matrix: (Units=1/GPa)
#
#
# Indices 1 2 3 4 5 6 
#
# 1 0.008059 -0.003034 -0.006860 0.000000 0.000000 0.000000
# 2 -0.003034 0.021023 -0.000707 0.000000 0.000000 0.000000
# 3 -0.006860 -0.000707 0.018619 0.000000 0.000000 0.000000
# 4 0.000000 0.000000 0.000000 0.046000 0.000000 0.000000
# 5 0.000000 0.000000 0.000000 0.000000 0.026464 0.000000
# 6 0.000000 0.000000 0.000000 0.000000 0.000000 0.171921
#
#
# Mechanical properties :
#
#
# Convention : Reuss Voigt Hill
#
# Bulk Modulus (GPa) = 37.73820 63.63549 50.68685
# Shear Modulus (GPa) = 15.52211 27.35021 21.43616
#
# Velocity S-wave (km/s) = 2.77489 3.68342 3.26095
# Velocity P-wave (km/s) = 5.38399 7.04681 6.27076
#
# Compressibility (1/GPa) = 0.02649835
#
# Stress axis : x y z
#
# Youngs Moduli (GPa) = 124.08954 47.56609 53.70935
#
# Poissons Ratio (x) = 0.14433 0.36847
# Poissons Ratio (y) = 0.37652 0.03795
# Poissons Ratio (z) = 0.85131 0.03361
#
# Static dielectric constant tensor:
#      x y z
#    x 1.751520 0.000000 0.000000 
#    y 0.000000 1.693860 0.000000 
#    z 0.000000 0.000000 1.720760 
# 
# From -- ./inp_files/12115.got.cif
#   From: 2010.05.17/outbox.cif.g08.bks.cpg/sg51_7_cif.got.tgz:12115.got - 2010.06.03 11:52:47.
