data_PCOD9405373
_publ_section_title
;
Structure prediction by ZEFSAII (Michael W. Deem and Ramdas Pophale) SiO2 
 PCOD9405373
Probable space group: P M M A
;
_chemical_formula_sum "Si O2"
_cell_formula_units_Z 64
_cell_length_a 14.411126
_cell_length_b 8.685374
_cell_length_c 32.722232
_cell_angle_alpha 90.000000
_cell_angle_beta 90.000000
_cell_angle_gamma 90.000000
_cell_volume 4095.711515
_symmetry_space_group_name_H-M "P M M A"
_symmetry_group_IT_number 51
_symmetry_cell_setting 'orthorhombic'
loop_
_space_group_symop_operation_xyz
x,y,z
1/2-x,-y,z
1/2+x,-y,-z
-x,y,-z
-x,-y,-z
1/2+x,y,-z
1/2-x,y,z
x,-y,z
loop_
_atom_site_type_symbol
_atom_site_label
_atom_site_fract_x
_atom_site_fract_y
_atom_site_fract_z
Si Si1 0.531058 0.815952 0.895854
Si Si2 0.857713 0.686408 0.819730
Si Si3 0.644870 0.187681 0.481016
Si Si4 0.139810 0.182272 0.023038
Si Si5 0.538335 0.187682 0.563394
Si Si6 0.357281 0.185190 0.356176
Si Si7 0.862632 0.677883 0.729648
Si Si8 0.857525 0.683396 0.064884
O O1 0.578960 0.747033 0.855970
O O2 0.586775 0.764379 0.936596
O O3 0.426351 0.761863 0.903291
O O4 0.536288 0.000000 0.894033
O O5 0.750000 0.734252 0.825963
O O6 0.858578 0.500000 0.819254
O O7 0.890115 0.738334 0.774449
O O8 0.750000 0.241362 0.474146
O O9 0.606136 0.230866 0.525866
O O10 0.565721 0.237039 0.448842
O O11 0.646517 0.000000 0.480214
O O12 0.250000 0.202121 0.029498
O O13 0.121400 0.000000 0.017337
O O14 0.114708 0.266318 0.981059
O O15 0.579298 0.241280 0.606465
O O16 0.537445 0.000000 0.564183
O O17 0.250000 0.237775 0.361505
O O18 0.390814 0.235230 0.311363
O O19 0.355888 0.000000 0.357604
O O20 0.750000 0.680929 0.730628
O O21 0.891311 0.500000 0.726209
O O22 0.750000 0.730057 0.070265
O O23 0.863731 0.500000 0.068300
#
# Coordination Sequence:
#
# PCOD9405373 Si02
#       8
#     8   8   8   8   8   8   8   8
#     4  11  21  31  47  70  93 118 146 176 214 259
#     4   9  18  32  48  66  90 117 142 171 208 253
#     4   8  12  18  28  43  69 105 137 164 199 241
#     4   9  18  32  47  65  92 121 145 172 210 255
#     4   8  13  19  28  47  74 101 131 167 203 240
#     4   9  15  22  35  56  80 104 130 164 204 240
#     4   8  15  28  43  59  82 111 138 164 200 247
#     4  10  21  35  49  65  86 115 152 189 219 248
#
# _framework density 15.626099999999999
#
# number of rings (size 3 to 8) (size 9 to 14) (size 15 to 20)
#    0.000    3.000    0.000    3.375    0.000    6.000 
#    0.000    2.500    0.000    0.000    0.000    2.625 
#    0.000    4.500    0.000    0.000    0.000    0.000 
#
# Total GULP energy -356498.089928 kJ/mol
# GULP energy per Si atom -5570.282655 kJ/mol
# Density = 1.559053 g / cm^3
# Si number density = 15.626100 Si / 1000 Ang^3
#
#
#
# Elastic Constant Matrix: (Units=GPa)
#
#
# Indices 1 2 3 4 5 6 
#
# 1 91.7441 16.3991 75.1386 0.0000 0.0000 0.0000
# 2 16.3991 6.9817 23.6502 0.0000 0.0000 0.0000
# 3 75.1386 23.6502 142.5690 0.0000 0.0000 0.0000
# 4 0.0000 0.0000 0.0000 27.8691 0.0000 0.0000
# 5 0.0000 0.0000 0.0000 0.0000 24.4433 0.0000
# 6 0.0000 0.0000 0.0000 0.0000 0.0000 11.9521
#
#
#
# Elastic Compliance Matrix: (Units=1/GPa)
#
#
# Indices 1 2 3 4 5 6 
#
# 1 0.021240 -0.027325 -0.006661 0.000000 0.000000 0.000000
# 2 -0.027325 0.362116 -0.045669 0.000000 0.000000 0.000000
# 3 -0.006661 -0.045669 0.018101 0.000000 0.000000 0.000000
# 4 0.000000 0.000000 0.000000 0.035882 0.000000 0.000000
# 5 0.000000 0.000000 0.000000 0.000000 0.040911 0.000000
# 6 0.000000 0.000000 0.000000 0.000000 0.000000 0.083668
#
#
# Mechanical properties :
#
#
# Convention : Reuss Voigt Hill
#
# Bulk Modulus (GPa) = 4.12974 52.40785 28.26880
# Shear Modulus (GPa) = 6.23487 21.26002 13.74744
#
# Velocity S-wave (km/s) = 1.99967 3.69256 2.96932
# Velocity P-wave (km/s) = 2.82492 7.19663 5.46679
#
# Compressibility (1/GPa) = 0.24214620
#
# Stress axis : x y z
#
# Youngs Moduli (GPa) = 47.08163 2.76155 55.24658
#
# Poissons Ratio (x) = 0.07546 0.36801
# Poissons Ratio (y) = 1.28650 2.52305
# Poissons Ratio (z) = 0.31362 0.12612
#
# Static dielectric constant tensor:
#      x y z
#    x 1.524850 0.000000 0.000000 
#    y 0.000000 1.530570 0.000000 
#    z 0.000000 0.000000 1.518960 
# 
# From -- ./inp_files/37843.got.cif
#   From: 2010.05.17/outbox.cif.g08.bks.cpg/sg51_19_cif.got.tgz:37843.got - 2010.06.03 11:52:47.
