data_PCOD9405781
_publ_section_title
;
Structure prediction by ZEFSAII (Michael W. Deem and Ramdas Pophale) SiO2 
 PCOD9405781
Probable space group: P M M A
;
_chemical_formula_sum "Si O2"
_cell_formula_units_Z 64
_cell_length_a 21.270760
_cell_length_b 9.036403
_cell_length_c 16.747889
_cell_angle_alpha 90.000000
_cell_angle_beta 90.000000
_cell_angle_gamma 90.000000
_cell_volume 3219.131163
_symmetry_space_group_name_H-M "P M M A"
_symmetry_group_IT_number 51
_symmetry_cell_setting 'orthorhombic'
loop_
_space_group_symop_operation_xyz
x,y,z
1/2-x,-y,z
1/2+x,-y,-z
-x,y,-z
-x,-y,-z
1/2+x,y,-z
1/2-x,y,z
x,-y,z
loop_
_atom_site_type_symbol
_atom_site_label
_atom_site_fract_x
_atom_site_fract_y
_atom_site_fract_z
Si Si1 0.926661 0.177532 0.518538
Si Si2 0.822117 0.321993 0.404570
Si Si3 0.916166 0.169682 0.948384
Si Si4 0.995082 0.177311 0.185184
Si Si5 0.182265 0.673600 0.945751
Si Si6 0.590251 0.674585 0.689452
Si Si7 0.634071 0.672834 0.226002
Si Si8 0.821919 0.832773 0.798042
O O1 0.876635 0.243857 0.455694
O O2 0.912371 0.247824 0.604273
O O3 0.000000 0.212650 0.500000
O O4 0.920676 0.000000 0.520157
O O5 0.750000 0.278462 0.424955
O O6 0.826795 0.500000 0.415907
O O7 0.834823 0.291799 0.310781
O O8 0.979429 0.222878 0.903206
O O9 0.865961 0.174089 0.875380
O O10 0.925243 0.000000 0.973988
O O11 0.879972 0.256033 0.016902
O O12 0.038308 0.253758 0.252116
O O13 0.925326 0.226005 0.205930
O O14 0.002653 0.000000 0.189134
O O15 0.250000 0.736191 0.973410
O O16 0.181204 0.500000 0.966110
O O17 0.178859 0.686434 0.850244
O O18 0.580883 0.500000 0.682422
O O19 0.654973 0.715147 0.733767
O O20 0.613557 0.500000 0.229673
O O21 0.750000 0.811116 0.820371
O O22 0.829285 0.000000 0.764701
#
# Coordination Sequence:
#
# PCOD9405781 Si02
#       8
#     8   8   8   8   8   8   8   8
#     4  11  24  41  62  88 118 152 192 240 292 347
#     4  10  22  41  64  89 119 156 198 245 298 356
#     4   9  19  35  54  78 110 148 188 231 280 334
#     4  10  21  38  58  82 115 151 189 235 288 343
#     4  10  21  36  55  81 113 148 187 234 287 342
#     4  11  22  36  57  84 113 145 183 226 276 337
#     4  10  21  38  60  84 112 148 190 237 290 346
#     4   9  18  34  55  78 109 149 187 225 274 330
#
# _framework density 19.881141
#
# number of rings (size 3 to 8) (size 9 to 14) (size 15 to 20)
#    0.000    2.000    0.000    4.125    0.000   10.250 
#    0.000    2.500    0.000    2.250    0.000    0.000 
#    0.000    0.000    0.000    0.000    0.000    0.000 
#
# Total GULP energy -357294.544522 kJ/mol
# GULP energy per Si atom -5582.727258 kJ/mol
# Density = 1.983589 g / cm^3
# Si number density = 19.881141 Si / 1000 Ang^3
#
#
#
# Elastic Constant Matrix: (Units=GPa)
#
#
# Indices 1 2 3 4 5 6 
#
# 1 125.0674 47.1676 30.4061 0.0000 0.0000 0.0000
# 2 47.1676 59.8787 43.1924 0.0000 0.0000 0.0000
# 3 30.4061 43.1924 97.5149 0.0000 0.0000 0.0000
# 4 0.0000 0.0000 0.0000 37.1670 0.0000 0.0000
# 5 0.0000 0.0000 0.0000 0.0000 12.3156 0.0000
# 6 0.0000 0.0000 0.0000 0.0000 0.0000 23.5080
#
#
#
# Elastic Compliance Matrix: (Units=1/GPa)
#
#
# Indices 1 2 3 4 5 6 
#
# 1 0.011401 -0.009429 0.000621 0.000000 0.000000 0.000000
# 2 -0.009429 0.032339 -0.011384 0.000000 0.000000 0.000000
# 3 0.000621 -0.011384 0.015103 0.000000 0.000000 0.000000
# 4 0.000000 0.000000 0.000000 0.026906 0.000000 0.000000
# 5 0.000000 0.000000 0.000000 0.000000 0.081198 0.000000
# 6 0.000000 0.000000 0.000000 0.000000 0.000000 0.042539
#
#
# Mechanical properties :
#
#
# Convention : Reuss Voigt Hill
#
# Bulk Modulus (GPa) = 54.16949 58.22148 56.19548
# Shear Modulus (GPa) = 19.52957 25.37776 22.45366
#
# Velocity S-wave (km/s) = 3.13759 3.57665 3.36429
# Velocity P-wave (km/s) = 6.35860 6.81212 6.58926
#
# Compressibility (1/GPa) = 0.01846058
#
# Stress axis : x y z
#
# Youngs Moduli (GPa) = 87.71533 30.92205 66.20997
#
# Poissons Ratio (x) = 0.29155 -0.04115
# Poissons Ratio (y) = 0.82704 0.75375
# Poissons Ratio (z) = -0.05451 0.35202
#
# Static dielectric constant tensor:
#      x y z
#    x 1.746920 0.000000 0.000000 
#    y 0.000000 1.678850 0.000000 
#    z 0.000000 0.000000 1.693760 
# 
# From -- ./inp_files/26326.got.cif
#   From: 2010.05.17/outbox.cif.g08.bks.cpg/sg51_14_cif.got.tgz:26326.got - 2010.06.03 11:52:47.
