data_PCOD9405754
_publ_section_title
;
Structure prediction by ZEFSAII (Michael W. Deem and Ramdas Pophale) SiO2 
 PCOD9405754
Probable space group: P M M A
;
_chemical_formula_sum "Si O2"
_cell_formula_units_Z 48
_cell_length_a 7.690642
_cell_length_b 9.642650
_cell_length_c 35.204168
_cell_angle_alpha 90.000000
_cell_angle_beta 90.000000
_cell_angle_gamma 90.000000
_cell_volume 2610.676643
_symmetry_space_group_name_H-M "P M M A"
_symmetry_group_IT_number 51
_symmetry_cell_setting 'orthorhombic'
loop_
_space_group_symop_operation_xyz
x,y,z
1/2-x,-y,z
1/2+x,-y,-z
-x,y,-z
-x,-y,-z
1/2+x,y,-z
1/2-x,y,z
x,-y,z
loop_
_atom_site_type_symbol
_atom_site_label
_atom_site_fract_x
_atom_site_fract_y
_atom_site_fract_z
Si Si1 0.250000 0.664715 0.747488
Si Si2 0.543219 0.156045 0.614173
Si Si3 0.541690 0.342026 0.957860
Si Si4 0.043492 0.343252 0.542931
Si Si5 0.750000 0.165838 0.175096
Si Si6 0.956347 0.336150 0.686107
Si Si7 0.045035 0.835043 0.114588
O O1 0.250000 0.500000 0.755811
O O2 0.250000 0.751965 0.785776
O O3 0.420382 0.694296 0.721823
O O4 0.750000 0.145588 0.619191
O O5 0.515405 0.238385 0.575205
O O6 0.482581 0.246190 0.650093
O O7 0.470824 0.000000 0.613125
O O8 0.750000 0.348520 0.955350
O O9 0.473069 0.500000 0.955077
O O10 0.485092 0.247613 0.922840
O O11 0.500000 0.288256 0.000000
O O12 0.250000 0.351598 0.545754
O O13 0.971467 0.500000 0.548483
O O14 0.000000 0.299360 0.500000
O O15 0.580021 0.199286 0.149713
O O16 0.750000 0.000000 0.181905
O O17 0.750000 0.311413 0.693435
O O18 0.975249 0.500000 0.677110
O O19 0.250000 0.804821 0.121902
O O20 0.030512 0.000000 0.107664
#
# Coordination Sequence:
#
# PCOD9405754 Si02
#       7
#     4   8   8   8   4   8   8
#     4  10  22  38  58  86 112 138 182 228 272 332
#     4  10  21  36  55  81 111 143 179 221 273 329
#     4   9  18  31  48  74 105 137 175 221 271 318
#     4  10  21  36  55  78 105 142 187 229 270 320
#     4  10  22  38  56  80 108 142 180 222 274 326
#     4   9  19  37  59  82 112 146 179 223 273 324
#     4   9  19  36  54  74 104 141 181 221 263 318
#
# _framework density 18.386039
#
# number of rings (size 3 to 8) (size 9 to 14) (size 15 to 20)
#    0.000    2.500    0.000    1.000    2.333    4.667 
#    0.000    0.000    0.000    0.000    0.000    0.000 
#    0.000    0.000    0.000    0.000    0.000    0.000 
#
# Total GULP energy -267749.288158 kJ/mol
# GULP energy per Si atom -5578.110170 kJ/mol
# Density = 1.834419 g / cm^3
# Si number density = 18.386039 Si / 1000 Ang^3
#
#
#
# Elastic Constant Matrix: (Units=GPa)
#
#
# Indices 1 2 3 4 5 6 
#
# 1 65.1741 43.4807 53.8894 0.0000 0.0000 0.0000
# 2 43.4807 85.6372 110.7651 0.0000 0.0000 0.0000
# 3 53.8894 110.7651 195.1066 0.0000 0.0000 0.0000
# 4 0.0000 0.0000 0.0000 -751.9811 0.0000 0.0000
# 5 0.0000 0.0000 0.0000 0.0000 30.8069 0.0000
# 6 0.0000 0.0000 0.0000 0.0000 0.0000 15.8009
#
#
#
# Elastic Compliance Matrix: (Units=1/GPa)
#
#
# Indices 1 2 3 4 5 6 
#
# 1 0.023261 -0.013174 0.001054 0.000000 0.000000 0.000000
# 2 -0.013174 0.051409 -0.025547 0.000000 0.000000 0.000000
# 3 0.001054 -0.025547 0.019338 0.000000 0.000000 0.000000
# 4 0.000000 0.000000 0.000000 -0.001330 0.000000 0.000000
# 5 0.000000 0.000000 0.000000 0.000000 0.032460 0.000000
# 6 0.000000 0.000000 0.000000 0.000000 0.000000 0.063288
#
#
# Mechanical properties :
#
#
# Convention : Reuss Voigt Hill
#
# Bulk Modulus (GPa) = 53.54974 84.68760 69.11867
# Shear Modulus (GPa) = 18.51964 -131.88915 -56.68476
#
# Velocity S-wave (km/s) = 3.17719 -8.47874 -5.55853
# Velocity P-wave (km/s) = 6.53053 7.04920 1.87662
#
# Compressibility (1/GPa) = 0.01867423
#
# Stress axis : x y z
#
# Youngs Moduli (GPa) = 42.99107 19.45179 51.71238
#
# Poissons Ratio (x) = 0.25625 -0.05452
# Poissons Ratio (y) = 0.56635 1.32110
# Poissons Ratio (z) = -0.04532 0.49694
#
# Static dielectric constant tensor:
#      x y z
#    x 1.631700 0.000000 0.000000 
#    y 0.000000 1.646210 0.000000 
#    z 0.000000 0.000000 1.611170 
# 
# From -- ./inp_files/37101.got.cif
#   From: 2010.05.17/outbox.cif.g08.bks.cpg/sg51_19_cif.got.tgz:37101.got - 2010.06.03 11:52:47.
