data_PCOD9405494
_publ_section_title
;
Structure prediction by ZEFSAII (Michael W. Deem and Ramdas Pophale) SiO2 
 PCOD9405494
Probable space group: P M M A
;
_chemical_formula_sum "Si O2"
_cell_formula_units_Z 48
_cell_length_a 8.324275
_cell_length_b 7.645708
_cell_length_c 35.724851
_cell_angle_alpha 90.000000
_cell_angle_beta 90.000000
_cell_angle_gamma 90.000000
_cell_volume 2273.707283
_symmetry_space_group_name_H-M "P M M A"
_symmetry_group_IT_number 51
_symmetry_cell_setting 'orthorhombic'
loop_
_space_group_symop_operation_xyz
x,y,z
1/2-x,-y,z
1/2+x,-y,-z
-x,y,-z
-x,-y,-z
1/2+x,y,-z
1/2-x,y,z
x,-y,z
loop_
_atom_site_type_symbol
_atom_site_label
_atom_site_fract_x
_atom_site_fract_y
_atom_site_fract_z
Si Si1 0.571479 0.709252 0.120473
Si Si2 0.750000 0.785332 0.324294
Si Si3 0.433504 0.796919 0.281746
Si Si4 0.941519 0.699601 0.801469
Si Si5 0.562947 0.213072 0.541448
Si Si6 0.064359 0.791409 0.039296
Si Si7 0.750000 0.786910 0.411323
O O1 0.750000 0.779208 0.119154
O O2 0.571787 0.500000 0.124989
O O3 0.493900 0.778093 0.158773
O O4 0.499983 0.737755 0.079597
O O5 0.584421 0.722870 0.304754
O O6 0.750000 0.738706 0.367858
O O7 0.750000 0.000000 0.321438
O O8 0.250000 0.722502 0.285825
O O9 0.479726 0.789324 0.237781
O O10 0.420617 0.000000 0.292641
O O11 0.750000 0.692893 0.803372
O O12 0.003406 0.500000 0.798290
O O13 0.500000 0.260778 0.500000
O O14 0.750000 0.270439 0.547699
O O15 0.417829 0.269963 0.569067
O O16 0.567863 0.000000 0.543053
O O17 0.250000 0.751067 0.039514
O O18 0.039158 0.000000 0.037893
O O19 0.000000 0.717884 0.000000
O O20 0.750000 0.000000 0.413850
#
# Coordination Sequence:
#
# PCOD9405494 Si02
#       7
#     8   4   8   8   8   8   4
#     4  10  21  35  52  77 105 130 160 199 242 292
#     4   9  18  30  43  61  87 119 161 205 247 293
#     4   9  18  32  49  68  93 125 162 201 241 293
#     4   9  18  33  52  74  99 125 156 198 246 290
#     4   9  14  20  31  47  70 101 141 191 241 284
#     4  10  21  37  56  76 100 132 168 203 240 285
#     4   9  16  24  34  51  75 107 147 195 243 285
#
# _framework density 21.110896
#
# number of rings (size 3 to 8) (size 9 to 14) (size 15 to 20)
#    0.000    2.667    0.833    1.000    1.167    3.667 
#    0.000    5.000    0.000    0.000    0.000    0.000 
#    0.000    0.000    0.000    0.000    0.000    3.333 
#
# Total GULP energy -267372.000841 kJ/mol
# GULP energy per Si atom -5570.250018 kJ/mol
# Density = 2.106285 g / cm^3
# Si number density = 21.110896 Si / 1000 Ang^3
#
#
#
# Elastic Constant Matrix: (Units=GPa)
#
#
# Indices 1 2 3 4 5 6 
#
# 1 172.5703 9.9141 127.9139 0.0000 0.0000 0.0000
# 2 9.9141 35.6303 1.2349 0.0000 0.0000 0.0000
# 3 127.9139 1.2349 195.8982 0.0000 0.0000 0.0000
# 4 0.0000 0.0000 0.0000 20.4172 0.0000 0.0000
# 5 0.0000 0.0000 0.0000 0.0000 48.6949 0.0000
# 6 0.0000 0.0000 0.0000 0.0000 0.0000 3.6559
#
#
#
# Elastic Compliance Matrix: (Units=1/GPa)
#
#
# Indices 1 2 3 4 5 6 
#
# 1 0.011532 -0.002948 -0.007511 0.000000 0.000000 0.000000
# 2 -0.002948 0.028826 0.001743 0.000000 0.000000 0.000000
# 3 -0.007511 0.001743 0.009998 0.000000 0.000000 0.000000
# 4 0.000000 0.000000 0.000000 0.048978 0.000000 0.000000
# 5 0.000000 0.000000 0.000000 0.000000 0.020536 0.000000
# 6 0.000000 0.000000 0.000000 0.000000 0.000000 0.273534
#
#
# Mechanical properties :
#
#
# Convention : Reuss Voigt Hill
#
# Bulk Modulus (GPa) = 30.37326 75.80274 53.08800
# Shear Modulus (GPa) = 11.85367 32.22267 22.03817
#
# Velocity S-wave (km/s) = 2.37216 3.91109 3.23449
# Velocity P-wave (km/s) = 4.68205 7.50869 6.25708
#
# Compressibility (1/GPa) = 0.03292370
#
# Stress axis : x y z
#
# Youngs Moduli (GPa) = 86.71893 34.69098 100.01884
#
# Poissons Ratio (x) = 0.10228 0.75125
# Poissons Ratio (y) = 0.25567 -0.17438
# Poissons Ratio (z) = 0.65135 -0.06048
#
# Static dielectric constant tensor:
#      x y z
#    x 1.764870 0.000000 0.000000 
#    y 0.000000 1.815340 0.000000 
#    z 0.000000 0.000000 1.580860 
# 
# From -- ./inp_files/37114.got.cif
#   From: 2010.05.17/outbox.cif.g08.bks.cpg/sg51_19_cif.got.tgz:37114.got - 2010.06.03 11:52:47.
