data_PCOD9405757
_publ_section_title
;
Structure prediction by ZEFSAII (Michael W. Deem and Ramdas Pophale) SiO2 
 PCOD9405757
Probable space group: P M M A
;
_chemical_formula_sum "Si O2"
_cell_formula_units_Z 64
_cell_length_a 18.920414
_cell_length_b 8.599197
_cell_length_c 21.064198
_cell_angle_alpha 90.000000
_cell_angle_beta 90.000000
_cell_angle_gamma 90.000000
_cell_volume 3427.152752
_symmetry_space_group_name_H-M "P M M A"
_symmetry_group_IT_number 51
_symmetry_cell_setting 'orthorhombic'
loop_
_space_group_symop_operation_xyz
x,y,z
1/2-x,-y,z
1/2+x,-y,-z
-x,y,-z
-x,-y,-z
1/2+x,y,-z
1/2-x,y,z
x,-y,z
loop_
_atom_site_type_symbol
_atom_site_label
_atom_site_fract_x
_atom_site_fract_y
_atom_site_fract_z
Si Si1 0.920810 0.811941 0.690717
Si Si2 0.167904 0.188014 0.185305
Si Si3 0.078231 0.814620 0.930421
Si Si4 0.168146 0.312359 0.568636
Si Si5 0.579261 0.311944 0.309396
Si Si6 0.331852 0.187641 0.431218
Si Si7 0.667901 0.311984 0.185361
Si Si8 0.421435 0.685383 0.069315
O O1 0.875855 0.763853 0.752356
O O2 0.881078 0.760071 0.626569
O O3 0.000041 0.750019 0.693895
O O4 0.922426 0.000000 0.690195
O O5 0.250000 0.231879 0.190921
O O6 0.132032 0.258711 0.123125
O O7 0.164395 0.000000 0.181101
O O8 0.164406 0.500000 0.818856
O O9 0.131842 0.758752 0.876723
O O10 0.999925 0.749304 0.915752
O O11 0.098034 0.750676 0.999936
O O12 0.250000 0.264546 0.579181
O O13 0.166919 0.500000 0.567092
O O14 0.118922 0.260059 0.626424
O O15 0.145723 0.250001 0.499927
O O16 0.577622 0.500000 0.309935
O O17 0.624287 0.263919 0.247792
O O18 0.250000 0.235461 0.420673
O O19 0.333077 0.000000 0.432764
O O20 0.750000 0.268063 0.190830
O O21 0.574788 0.000000 0.067289
O O22 0.424296 0.500000 0.066566
#
# Coordination Sequence:
#
# PCOD9405757 Si02
#       8
#     8   8   8   8   8   8   8   8
#     4  10  21  36  55  79 108 143 181 223 271 324
#     4  10  21  38  59  82 110 145 184 227 276 328
#     4  11  22  38  60  85 114 147 184 225 271 324
#     4   9  18  34  55  78 105 139 179 221 267 320
#     4  10  21  36  55  79 108 143 181 223 271 324
#     4   9  18  34  55  78 105 139 179 221 267 320
#     4  10  21  38  59  82 110 145 184 227 276 328
#     4  11  22  38  60  85 114 147 184 225 271 324
#
# _framework density 18.674393999999999
#
# number of rings (size 3 to 8) (size 9 to 14) (size 15 to 20)
#    0.000    2.000    0.000    4.500    0.000    8.500 
#    0.000    2.500    0.000    4.500    0.000    0.000 
#    0.000    0.000    0.000    0.000    0.000    0.000 
#
# Total GULP energy -357546.029671 kJ/mol
# GULP energy per Si atom -5586.656714 kJ/mol
# Density = 1.863189 g / cm^3
# Si number density = 18.674394 Si / 1000 Ang^3
#
#
#
# Elastic Constant Matrix: (Units=GPa)
#
#
# Indices 1 2 3 4 5 6 
#
# 1 165.8263 48.0515 143.0614 0.0000 0.0000 0.0000
# 2 48.0515 40.4993 50.2450 0.0000 0.0000 0.0000
# 3 143.0614 50.2450 180.8059 0.0000 0.0000 0.0000
# 4 0.0000 0.0000 0.0000 25.9673 0.0000 0.0000
# 5 0.0000 0.0000 0.0000 0.0000 43.4805 0.0000
# 6 0.0000 0.0000 0.0000 0.0000 0.0000 28.5804
#
#
#
# Elastic Compliance Matrix: (Units=1/GPa)
#
#
# Indices 1 2 3 4 5 6 
#
# 1 0.019985 -0.006248 -0.014077 0.000000 0.000000 0.000000
# 2 -0.006248 0.039637 -0.006072 0.000000 0.000000 0.000000
# 3 -0.014077 -0.006072 0.018356 0.000000 0.000000 0.000000
# 4 0.000000 0.000000 0.000000 0.038510 0.000000 0.000000
# 5 0.000000 0.000000 0.000000 0.000000 0.022999 0.000000
# 6 0.000000 0.000000 0.000000 0.000000 0.000000 0.034989
#
#
# Mechanical properties :
#
#
# Convention : Reuss Voigt Hill
#
# Bulk Modulus (GPa) = 39.70406 96.64970 68.17688
# Shear Modulus (GPa) = 21.21660 29.32387 25.27024
#
# Velocity S-wave (km/s) = 3.37431 3.96696 3.68258
# Velocity P-wave (km/s) = 6.04059 8.53522 7.39387
#
# Compressibility (1/GPa) = 0.02518634
#
# Stress axis : x y z
#
# Youngs Moduli (GPa) = 50.03676 25.22893 54.47683
#
# Poissons Ratio (x) = 0.15762 0.76687
# Poissons Ratio (y) = 0.31261 0.33076
# Poissons Ratio (z) = 0.70437 0.15318
#
# Static dielectric constant tensor:
#      x y z
#    x 1.617460 0.000000 0.000000 
#    y 0.000000 1.637590 0.000000 
#    z 0.000000 0.000000 1.624300 
# 
# From -- ./inp_files/33947.got.cif
#   From: 2010.05.17/outbox.cif.g08.bks.cpg/sg51_17_cif.got.tgz:33947.got - 2010.06.03 11:52:47.
