data_PCOD9405407
_publ_section_title
;
Structure prediction by ZEFSAII (Michael W. Deem and Ramdas Pophale) SiO2 
 PCOD9405407
Probable space group: P M M A
;
_chemical_formula_sum "Si O2"
_cell_formula_units_Z 64
_cell_length_a 9.146591
_cell_length_b 14.163794
_cell_length_c 24.697815
_cell_angle_alpha 90.000000
_cell_angle_beta 90.000000
_cell_angle_gamma 90.000000
_cell_volume 3199.612571
_symmetry_space_group_name_H-M "P M M A"
_symmetry_group_IT_number 51
_symmetry_cell_setting 'orthorhombic'
loop_
_space_group_symop_operation_xyz
x,y,z
1/2-x,-y,z
1/2+x,-y,-z
-x,y,-z
-x,-y,-z
1/2+x,y,-z
1/2-x,y,z
x,-y,z
loop_
_atom_site_type_symbol
_atom_site_label
_atom_site_fract_x
_atom_site_fract_y
_atom_site_fract_z
Si Si1 0.916490 0.884926 0.724153
Si Si2 0.074148 0.794382 0.945244
Si Si3 0.424747 0.389812 0.338927
Si Si4 0.575020 0.727684 0.554859
Si Si5 0.581852 0.615212 0.230613
Si Si6 0.080689 0.886235 0.832007
Si Si7 0.072021 0.607028 0.889899
Si Si8 0.079133 0.887325 0.613046
O O1 0.750000 0.851466 0.716993
O O2 0.986785 0.853352 0.780724
O O3 0.014045 0.862138 0.672048
O O4 0.912491 0.000000 0.726251
O O5 0.250000 0.800062 0.950342
O O6 0.032312 0.849904 0.890658
O O7 0.030726 0.685712 0.933125
O O8 0.000000 0.828763 0.000000
O O9 0.250000 0.384578 0.334364
O O10 0.465915 0.500000 0.344629
O O11 0.467685 0.334611 0.392924
O O12 0.493142 0.353309 0.282967
O O13 0.500000 0.693176 0.500000
O O14 0.750000 0.727765 0.549726
O O15 0.513707 0.831114 0.568983
O O16 0.750000 0.645492 0.235846
O O17 0.580674 0.500000 0.230477
O O18 0.525864 0.639353 0.170511
O O19 0.250000 0.856706 0.824523
O O20 0.077455 0.000000 0.832437
O O21 0.250000 0.604792 0.887811
O O22 0.021890 0.500000 0.900497
O O23 0.250000 0.862104 0.609764
O O24 0.065891 0.000000 0.606606
#
# Coordination Sequence:
#
# PCOD9405407 Si02
#       8
#     8   8   8   8   8   8   8   8
#     4   9  17  31  54  84 113 138 168 210 261 316
#     4  10  21  35  50  70  96 130 173 216 257 304
#     4   9  19  36  56  80 112 144 172 212 268 321
#     4  11  24  40  57  79 108 144 187 230 269 314
#     4   8  14  27  50  78 103 130 168 209 251 308
#     4   9  18  33  51  72 102 138 172 208 253 306
#     4   8  15  30  51  73  98 127 160 203 254 306
#     4  10  21  38  60  84 111 144 179 218 267 321
#
# _framework density 20.002420999999998
#
# number of rings (size 3 to 8) (size 9 to 14) (size 15 to 20)
#    0.000    2.750    0.000    1.875    0.000    5.750 
#    0.000    1.875    0.000    0.750    0.000    0.000 
#    0.000    0.000    0.000    0.000    0.000    0.000 
#
# Total GULP energy -357304.911017 kJ/mol
# GULP energy per Si atom -5582.889235 kJ/mol
# Density = 1.995689 g / cm^3
# Si number density = 20.002421 Si / 1000 Ang^3
#
#
#
# Elastic Constant Matrix: (Units=GPa)
#
#
# Indices 1 2 3 4 5 6 
#
# 1 38.2874 8.9580 25.1754 0.0000 0.0000 0.0000
# 2 8.9580 41.1260 11.4436 0.0000 0.0000 0.0000
# 3 25.1754 11.4436 97.0813 0.0000 0.0000 0.0000
# 4 0.0000 0.0000 0.0000 27.6677 0.0000 0.0000
# 5 0.0000 0.0000 0.0000 0.0000 29.1659 0.0000
# 6 0.0000 0.0000 0.0000 0.0000 0.0000 13.9765
#
#
#
# Elastic Compliance Matrix: (Units=1/GPa)
#
#
# Indices 1 2 3 4 5 6 
#
# 1 0.032408 -0.004881 -0.007829 0.000000 0.000000 0.000000
# 2 -0.004881 0.025875 -0.001784 0.000000 0.000000 0.000000
# 3 -0.007829 -0.001784 0.012541 0.000000 0.000000 0.000000
# 4 0.000000 0.000000 0.000000 0.036143 0.000000 0.000000
# 5 0.000000 0.000000 0.000000 0.000000 0.034287 0.000000
# 6 0.000000 0.000000 0.000000 0.000000 0.000000 0.071549
#
#
# Mechanical properties :
#
#
# Convention : Reuss Voigt Hill
#
# Bulk Modulus (GPa) = 23.90258 29.73875 26.82066
# Shear Modulus (GPa) = 19.55142 22.88987 21.22064
#
# Velocity S-wave (km/s) = 3.12982 3.38650 3.26069
# Velocity P-wave (km/s) = 5.00368 5.49464 5.25489
#
# Compressibility (1/GPa) = 0.04183649
#
# Stress axis : x y z
#
# Youngs Moduli (GPa) = 30.85671 38.64716 79.73738
#
# Poissons Ratio (x) = 0.18862 0.62425
# Poissons Ratio (y) = 0.15060 0.14228
# Poissons Ratio (z) = 0.24157 0.06896
#
# Static dielectric constant tensor:
#      x y z
#    x 1.672300 0.000000 0.000000 
#    y 0.000000 1.765210 0.000000 
#    z 0.000000 0.000000 1.681050 
# 
# From -- ./inp_files/35015.got.cif
#   From: 2010.05.17/outbox.cif.g08.bks.cpg/sg51_18_cif.got.tgz:35015.got - 2010.06.03 11:52:47.
