data_PCOD9405619
_publ_section_title
;
Structure prediction by ZEFSAII (Michael W. Deem and Ramdas Pophale) SiO2 
 PCOD9405619
Probable space group: P M M A
;
_chemical_formula_sum "Si O2"
_cell_formula_units_Z 48
_cell_length_a 9.676954
_cell_length_b 7.776496
_cell_length_c 31.784999
_cell_angle_alpha 90.000000
_cell_angle_beta 90.000000
_cell_angle_gamma 90.000000
_cell_volume 2391.909984
_symmetry_space_group_name_H-M "P M M A"
_symmetry_group_IT_number 51
_symmetry_cell_setting 'orthorhombic'
loop_
_space_group_symop_operation_xyz
x,y,z
1/2-x,-y,z
1/2+x,-y,-z
-x,y,-z
-x,-y,-z
1/2+x,y,-z
1/2-x,y,z
x,-y,z
loop_
_atom_site_type_symbol
_atom_site_label
_atom_site_fract_x
_atom_site_fract_y
_atom_site_fract_z
Si Si1 0.406494 0.795449 0.537973
Si Si2 0.908748 0.792345 0.117557
Si Si3 0.090798 0.209890 0.788026
Si Si4 0.906688 0.294472 0.961753
Si Si5 0.407553 0.792493 0.289385
Si Si6 0.091738 0.295712 0.383396
O O1 0.500000 0.723408 0.500000
O O2 0.250000 0.725447 0.538918
O O3 0.488608 0.771254 0.581311
O O4 0.394777 0.000000 0.530957
O O5 0.750000 0.734834 0.109380
O O6 0.949687 0.735664 0.164748
O O7 0.013339 0.736020 0.081689
O O8 0.906413 0.000000 0.117714
O O9 0.250000 0.259295 0.781689
O O10 0.997819 0.271355 0.749577
O O11 0.086103 0.000000 0.787890
O O12 0.750000 0.225802 0.961663
O O13 0.896984 0.500000 0.967568
O O14 0.000000 0.224746 0.000000
O O15 0.250000 0.730033 0.285717
O O16 0.456727 0.745004 0.336056
O O17 0.405937 0.000000 0.287306
O O18 0.250000 0.227415 0.388178
O O19 0.098217 0.500000 0.387955
#
# Coordination Sequence:
#
# PCOD9405619 Si02
#       6
#     8   8   8   8   8   8
#     4  10  21  37  58  82 105 132 169 212 256 303
#     4   9  18  33  53  77 104 133 166 206 253 303
#     4   8  15  29  49  73 100 129 163 205 251 298
#     4  10  21  36  53  73  98 131 170 209 251 301
#     4   9  17  30  50  74  99 131 171 211 250 294
#     4  10  21  36  53  75 106 142 175 209 253 302
#
# _framework density 20.067644999999999
#
# number of rings (size 3 to 8) (size 9 to 14) (size 15 to 20)
#    0.000    2.667    0.000    2.500    0.000    5.333 
#    0.000    4.167    0.000    3.000    0.000    0.000 
#    0.000    0.000    0.000    0.000    0.000    0.000 
#
# Total GULP energy -267839.390445 kJ/mol
# GULP energy per Si atom -5579.987301 kJ/mol
# Density = 2.002197 g / cm^3
# Si number density = 20.067645 Si / 1000 Ang^3
#
#
#
# Elastic Constant Matrix: (Units=GPa)
#
#
# Indices 1 2 3 4 5 6 
#
# 1 150.4441 7.5660 134.6293 0.0000 0.0000 0.0000
# 2 7.5660 26.1599 -3.1067 0.0000 0.0000 0.0000
# 3 134.6293 -3.1067 198.7047 0.0000 0.0000 0.0000
# 4 0.0000 0.0000 0.0000 55.7531 0.0000 0.0000
# 5 0.0000 0.0000 0.0000 0.0000 39.3223 0.0000
# 6 0.0000 0.0000 0.0000 0.0000 0.0000 12.9537
#
#
#
# Elastic Compliance Matrix: (Units=1/GPa)
#
#
# Indices 1 2 3 4 5 6 
#
# 1 0.017971 -0.006656 -0.012280 0.000000 0.000000 0.000000
# 2 -0.006656 0.040763 0.005147 0.000000 0.000000 0.000000
# 3 -0.012280 0.005147 0.013433 0.000000 0.000000 0.000000
# 4 0.000000 0.000000 0.000000 0.017936 0.000000 0.000000
# 5 0.000000 0.000000 0.000000 0.000000 0.025431 0.000000
# 6 0.000000 0.000000 0.000000 0.000000 0.000000 0.077198
#
#
# Mechanical properties :
#
#
# Convention : Reuss Voigt Hill
#
# Bulk Modulus (GPa) = 22.42712 72.60954 47.51833
# Shear Modulus (GPa) = 21.26104 37.35385 29.30744
#
# Velocity S-wave (km/s) = 3.25848 4.31907 3.82571
# Velocity P-wave (km/s) = 5.03557 7.81879 6.57611
#
# Compressibility (1/GPa) = 0.04458888
#
# Stress axis : x y z
#
# Youngs Moduli (GPa) = 55.64622 24.53224 74.44318
#
# Poissons Ratio (x) = 0.16328 0.91415
# Poissons Ratio (y) = 0.37037 -0.38315
# Poissons Ratio (z) = 0.68333 -0.12626
#
# Static dielectric constant tensor:
#      x y z
#    x 1.702070 0.000000 0.000000 
#    y 0.000000 1.737520 0.000000 
#    z 0.000000 0.000000 1.685860 
# 
# From -- ./inp_files/36971.got.cif
#   From: 2010.05.17/outbox.cif.g08.bks.cpg/sg51_19_cif.got.tgz:36971.got - 2010.06.03 11:52:47.
