data_PCOD9405115
_publ_section_title
;
Structure prediction by ZEFSAII (Michael W. Deem and Ramdas Pophale) SiO2 
 PCOD9405115
Probable space group: P M M A
;
_chemical_formula_sum "Si O2"
_cell_formula_units_Z 48
_cell_length_a 9.514401
_cell_length_b 9.259908
_cell_length_c 29.473790
_cell_angle_alpha 90.000000
_cell_angle_beta 90.000000
_cell_angle_gamma 90.000000
_cell_volume 2596.713933
_symmetry_space_group_name_H-M "P M M A"
_symmetry_group_IT_number 51
_symmetry_cell_setting 'orthorhombic'
loop_
_space_group_symop_operation_xyz
x,y,z
1/2-x,-y,z
1/2+x,-y,-z
-x,y,-z
-x,-y,-z
1/2+x,y,-z
1/2-x,y,z
x,-y,z
loop_
_atom_site_type_symbol
_atom_site_label
_atom_site_fract_x
_atom_site_fract_y
_atom_site_fract_z
Si Si1 0.996768 0.331964 0.395317
Si Si2 0.916862 0.671114 0.952784
Si Si3 0.750000 0.338921 0.468341
Si Si4 0.415143 0.325420 0.208502
Si Si5 0.750000 0.169553 0.560662
Si Si6 0.916915 0.826468 0.127721
Si Si7 0.406374 0.674969 0.705608
O O1 0.042395 0.500000 0.391230
O O2 0.118565 0.231119 0.412362
O O3 0.880675 0.326742 0.434596
O O4 0.939439 0.285604 0.346226
O O5 0.750000 0.706687 0.956366
O O6 0.925314 0.500000 0.941042
O O7 0.997303 0.763599 0.915035
O O8 0.000000 0.690931 0.000000
O O9 0.750000 0.500000 0.489000
O O10 0.750000 0.229565 0.509489
O O11 0.250000 0.289924 0.203847
O O12 0.428100 0.500000 0.203519
O O13 0.510199 0.246885 0.171208
O O14 0.476578 0.283581 0.257827
O O15 0.750000 0.000000 0.559391
O O16 0.750000 0.791001 0.125036
O O17 0.929546 0.000000 0.129656
O O18 0.250000 0.726602 0.718542
O O19 0.402233 0.500000 0.706071
#
# Coordination Sequence:
#
# PCOD9405115 Si02
#       7
#     8   8   4   8   4   8   8
#     4  10  20  37  62  87 111 142 185 237 286 335
#     4  10  21  38  62  91 121 155 198 248 301 353
#     4  10  20  38  62  88 110 140 188 238 285 336
#     4  10  21  36  59  91 120 148 185 233 291 350
#     4  12  26  38  52  80 118 156 190 224 275 340
#     4  11  24  40  58  83 118 161 205 244 287 341
#     4   9  17  33  59  89 114 139 180 235 289 340
#
# _framework density 18.484902000000002
#
# number of rings (size 3 to 8) (size 9 to 14) (size 15 to 20)
#    0.000    1.833    0.833    3.250    1.167    8.333 
#    0.000    0.833    0.000    1.000    0.000    0.000 
#    0.000    0.000    0.000    0.000    0.000    0.000 
#
# Total GULP energy -267961.603907 kJ/mol
# GULP energy per Si atom -5582.533415 kJ/mol
# Density = 1.844283 g / cm^3
# Si number density = 18.484902 Si / 1000 Ang^3
#
#
#
# Elastic Constant Matrix: (Units=GPa)
#
#
# Indices 1 2 3 4 5 6 
#
# 1 161.9701 67.9879 62.8516 0.0000 0.0000 0.0000
# 2 67.9879 59.5177 36.8924 0.0000 0.0000 0.0000
# 3 62.8516 36.8924 93.9787 0.0000 0.0000 0.0000
# 4 0.0000 0.0000 0.0000 -21.0443 0.0000 0.0000
# 5 0.0000 0.0000 0.0000 0.0000 63.7989 0.0000
# 6 0.0000 0.0000 0.0000 0.0000 0.0000 -1.3397
#
#
#
# Elastic Compliance Matrix: (Units=1/GPa)
#
#
# Indices 1 2 3 4 5 6 
#
# 1 0.012775 -0.012287 -0.003720 0.000000 0.000000 0.000000
# 2 -0.012287 0.034023 -0.005138 0.000000 0.000000 0.000000
# 3 -0.003720 -0.005138 0.015146 0.000000 0.000000 0.000000
# 4 0.000000 0.000000 0.000000 -0.047519 0.000000 0.000000
# 5 0.000000 0.000000 0.000000 0.000000 0.015674 0.000000
# 6 0.000000 0.000000 0.000000 0.000000 0.000000 -0.746435
#
#
# Mechanical properties :
#
#
# Convention : Reuss Voigt Hill
#
# Bulk Modulus (GPa) = 50.88604 72.32559 61.60581
# Shear Modulus (GPa) = -7.49073 18.13196 5.32062
#
# Velocity S-wave (km/s) = -2.01523 3.13534 1.69841
# Velocity P-wave (km/s) = 4.70886 7.23318 6.10296
#
# Compressibility (1/GPa) = 0.01965176
#
# Stress axis : x y z
#
# Youngs Moduli (GPa) = 78.27584 29.39207 66.02381
#
# Poissons Ratio (x) = 0.36115 0.24564
# Poissons Ratio (y) = 0.96180 0.33926
# Poissons Ratio (z) = 0.29122 0.15103
#
# Static dielectric constant tensor:
#      x y z
#    x 1.618580 0.000000 0.000000 
#    y 0.000000 1.612420 0.000000 
#    z 0.000000 0.000000 1.619080 
# 
# From -- ./inp_files/37122.got.cif
#   From: 2010.05.17/outbox.cif.g08.bks.cpg/sg51_19_cif.got.tgz:37122.got - 2010.06.03 11:52:47.
