data_PCOD9405685
_publ_section_title
;
Structure prediction by ZEFSAII (Michael W. Deem and Ramdas Pophale) SiO2 
 PCOD9405685
Probable space group: P M M A
;
_chemical_formula_sum "Si O2"
_cell_formula_units_Z 64
_cell_length_a 8.969482
_cell_length_b 24.406232
_cell_length_c 15.582924
_cell_angle_alpha 90.000000
_cell_angle_beta 90.000000
_cell_angle_gamma 90.000000
_cell_volume 3411.277506
_symmetry_space_group_name_H-M "P M M A"
_symmetry_group_IT_number 51
_symmetry_cell_setting 'orthorhombic'
loop_
_space_group_symop_operation_xyz
x,y,z
1/2-x,-y,z
1/2+x,-y,-z
-x,y,-z
-x,-y,-z
1/2+x,y,-z
1/2-x,y,z
x,-y,z
loop_
_atom_site_type_symbol
_atom_site_label
_atom_site_fract_x
_atom_site_fract_y
_atom_site_fract_z
Si Si1 0.430241 0.848385 0.767879
Si Si2 0.929470 0.794354 0.409525
Si Si3 0.425919 0.764083 0.915215
Si Si4 0.074605 0.563347 0.906787
Si Si5 0.429005 0.935459 0.907966
Si Si6 0.577986 0.681985 0.645544
Si Si7 0.930534 0.440366 0.594497
Si Si8 0.580628 0.663443 0.843358
O O1 0.250000 0.852286 0.762252
O O2 0.479912 0.832069 0.671800
O O3 0.467309 0.798269 0.831176
O O4 0.480194 0.900892 0.824370
O O5 0.750000 0.795614 0.413845
O O6 0.000000 0.812019 0.500000
O O7 0.982377 0.731642 0.392333
O O8 0.250000 0.765429 0.924694
O O9 0.483225 0.702810 0.901925
O O10 0.500000 0.787886 0.000000
O O11 0.250000 0.575709 0.910999
O O12 0.056315 0.500000 0.882928
O O13 0.989865 0.603577 0.843537
O O14 0.000000 0.571025 0.000000
O O15 0.250000 0.927812 0.915334
O O16 0.459291 0.000000 0.895376
O O17 0.500000 0.919603 0.000000
O O18 0.750000 0.686752 0.614124
O O19 0.524072 0.619541 0.629369
O O20 0.579781 0.687112 0.747962
O O21 0.750000 0.439425 0.592256
O O22 0.972071 0.500000 0.635717
O O23 0.000000 0.442004 0.500000
O O24 0.750000 0.661422 0.874890
#
# Coordination Sequence:
#
# PCOD9405685 Si02
#       8
#     8   8   8   8   8   8   8   8
#     4   9  19  35  55  81 113 150 189 229 277 329
#     4  11  22  38  58  80 109 146 188 236 286 337
#     4  11  21  35  53  76 108 145 181 220 270 326
#     4  10  21  37  55  73  95 128 173 221 271 329
#     4   9  17  32  56  87 122 158 195 232 274 327
#     4  10  21  36  54  77 103 134 177 224 275 335
#     4   9  18  33  51  71  95 123 157 203 261 326
#     4  11  22  35  52  75 103 133 172 221 272 329
#
# _framework density 18.761299000000001
#
# number of rings (size 3 to 8) (size 9 to 14) (size 15 to 20)
#    0.000    2.000    1.250    2.625    0.000    3.250 
#    0.000    3.125    0.000    1.875    0.000    0.000 
#    0.000    0.000    0.000    0.000    0.000    0.125 
#
# Total GULP energy -356832.882088 kJ/mol
# GULP energy per Si atom -5575.513783 kJ/mol
# Density = 1.871860 g / cm^3
# Si number density = 18.761299 Si / 1000 Ang^3
#
#
#
# Elastic Constant Matrix: (Units=GPa)
#
#
# Indices 1 2 3 4 5 6 
#
# 1 30.4876 29.7950 36.0153 0.0000 0.0000 0.0000
# 2 29.7950 97.3527 53.5102 0.0000 0.0000 0.0000
# 3 36.0153 53.5102 125.4706 0.0000 0.0000 0.0000
# 4 0.0000 0.0000 0.0000 -38.7306 0.0000 0.0000
# 5 0.0000 0.0000 0.0000 0.0000 26.9409 0.0000
# 6 0.0000 0.0000 0.0000 0.0000 0.0000 15.8189
#
#
#
# Elastic Compliance Matrix: (Units=1/GPa)
#
#
# Indices 1 2 3 4 5 6 
#
# 1 0.057624 -0.011161 -0.011781 0.000000 0.000000 0.000000
# 2 -0.011161 0.015579 -0.003440 0.000000 0.000000 0.000000
# 3 -0.011781 -0.003440 0.012819 0.000000 0.000000 0.000000
# 4 0.000000 0.000000 0.000000 -0.025819 0.000000 0.000000
# 5 0.000000 0.000000 0.000000 0.000000 0.037118 0.000000
# 6 0.000000 0.000000 0.000000 0.000000 0.000000 0.063216
#
#
# Mechanical properties :
#
#
# Convention : Reuss Voigt Hill
#
# Bulk Modulus (GPa) = 30.06792 54.66132 42.36462
# Shear Modulus (GPa) = 22.28305 9.73852 16.01078
#
# Velocity S-wave (km/s) = 3.45006 2.28079 2.92446
# Velocity P-wave (km/s) = 5.65083 6.01119 5.83380
#
# Compressibility (1/GPa) = 0.03325804
#
# Stress axis : x y z
#
# Youngs Moduli (GPa) = 17.35382 64.19034 78.01034
#
# Poissons Ratio (x) = 0.71641 0.91903
# Poissons Ratio (y) = 0.19368 0.26838
# Poissons Ratio (z) = 0.20444 0.22084
#
# Static dielectric constant tensor:
#      x y z
#    x 1.640390 0.000000 0.000000 
#    y 0.000000 1.681360 0.000000 
#    z 0.000000 0.000000 1.670680 
# 
# From -- ./inp_files/22395.got.cif
#   From: 2010.05.17/outbox.cif.g08.bks.cpg/sg51_12_cif.got.tgz:22395.got - 2010.06.03 11:52:47.
