data_PCOD9405040
_publ_section_title
;
Structure prediction by ZEFSAII (Michael W. Deem and Ramdas Pophale) SiO2 
 PCOD9405040
Probable space group: P M M A
;
_chemical_formula_sum "Si O2"
_cell_formula_units_Z 40
_cell_length_a 8.615789
_cell_length_b 26.334927
_cell_length_c 9.409464
_cell_angle_alpha 90.000000
_cell_angle_beta 90.000000
_cell_angle_gamma 90.000000
_cell_volume 2134.971384
_symmetry_space_group_name_H-M "P M M A"
_symmetry_group_IT_number 51
_symmetry_cell_setting 'orthorhombic'
loop_
_space_group_symop_operation_xyz
x,y,z
1/2-x,-y,z
1/2+x,-y,-z
-x,y,-z
-x,-y,-z
1/2+x,y,-z
1/2-x,y,z
x,-y,z
loop_
_atom_site_type_symbol
_atom_site_label
_atom_site_fract_x
_atom_site_fract_y
_atom_site_fract_z
Si Si1 0.437473 0.598699 0.659817
Si Si2 0.937076 0.792454 0.342014
Si Si3 0.563533 0.092067 0.341527
Si Si4 0.437567 0.500000 0.839895
Si Si5 0.937630 0.303130 0.158794
Si Si6 0.934783 0.000000 0.841948
O O1 0.500000 0.596803 0.500000
O O2 0.250000 0.598430 0.653344
O O3 0.486792 0.549910 0.752256
O O4 0.486405 0.649763 0.742045
O O5 0.750000 0.790876 0.348579
O O6 0.981765 0.850070 0.301729
O O7 0.989271 0.749423 0.232360
O O8 0.000000 0.782103 0.500000
O O9 0.500000 0.083105 0.500000
O O10 0.750000 0.088674 0.342458
O O11 0.495273 0.049808 0.239042
O O12 0.250000 0.500000 0.846466
O O13 0.500000 0.500000 0.000000
O O14 0.750000 0.303232 0.153507
O O15 0.000000 0.308409 0.000000
O O16 0.750000 0.000000 0.842998
O O17 0.000000 0.000000 0.000000
#
# Coordination Sequence:
#
# PCOD9405040 Si02
#       6
#     8   8   8   4   8   4
#     4  10  21  36  55  79 108 140 181 225 267 317
#     4   9  19  35  56  81 108 138 177 220 264 315
#     4  10  20  37  59  83 110 142 180 222 266 319
#     4  10  21  36  54  80 110 142 179 222 268 320
#     4  10  21  36  53  78 109 142 179 221 267 319
#     4  12  25  40  57  80 110 144 180 222 271 322
#
# _framework density 18.735614999999999
#
# number of rings (size 3 to 8) (size 9 to 14) (size 15 to 20)
#    0.000    2.000    0.000    3.300    0.000    4.000 
#    0.000    2.000    0.000    0.000    0.000    0.000 
#    0.000    0.000    0.000    0.000    0.000    0.000 
#
# Total GULP energy -223453.168860 kJ/mol
# GULP energy per Si atom -5586.329221 kJ/mol
# Density = 1.869297 g / cm^3
# Si number density = 18.735615 Si / 1000 Ang^3
#
#
#
# Elastic Constant Matrix: (Units=GPa)
#
#
# Indices 1 2 3 4 5 6 
#
# 1 36.0897 45.5685 38.9162 0.0000 0.0000 0.0000
# 2 45.5685 179.9919 138.4800 0.0000 0.0000 0.0000
# 3 38.9162 138.4800 188.3734 0.0000 0.0000 0.0000
# 4 0.0000 0.0000 0.0000 -6.5537 0.0000 0.0000
# 5 0.0000 0.0000 0.0000 0.0000 39.5590 0.0000
# 6 0.0000 0.0000 0.0000 0.0000 0.0000 0.7682
#
#
#
# Elastic Compliance Matrix: (Units=1/GPa)
#
#
# Indices 1 2 3 4 5 6 
#
# 1 0.041032 -0.008900 -0.001934 0.000000 0.000000 0.000000
# 2 -0.008900 0.014720 -0.008982 0.000000 0.000000 0.000000
# 3 -0.001934 -0.008982 0.012311 0.000000 0.000000 0.000000
# 4 0.000000 0.000000 0.000000 -0.152586 0.000000 0.000000
# 5 0.000000 0.000000 0.000000 0.000000 0.025279 0.000000
# 6 0.000000 0.000000 0.000000 0.000000 0.000000 1.301704
#
#
# Mechanical properties :
#
#
# Convention : Reuss Voigt Hill
#
# Bulk Modulus (GPa) = 35.17395 94.48715 64.83055
# Shear Modulus (GPa) = 3.87126 18.85406 11.36266
#
# Velocity S-wave (km/s) = 1.43901 3.17570 2.46534
# Velocity P-wave (km/s) = 4.64495 7.99925 6.54078
#
# Compressibility (1/GPa) = 0.02843013
#
# Stress axis : x y z
#
# Youngs Moduli (GPa) = 24.37131 67.93601 81.22539
#
# Poissons Ratio (x) = 0.60463 0.15710
# Poissons Ratio (y) = 0.21690 0.72959
# Poissons Ratio (z) = 0.04714 0.61022
#
# Static dielectric constant tensor:
#      x y z
#    x 1.633030 0.000000 0.000000 
#    y 0.000000 1.658090 0.000000 
#    z 0.000000 0.000000 1.588910 
# 
# From -- ./inp_files/5547.got.cif
#   From: 2010.05.17/outbox.cif.g08.bks.cpg/sg51_3_cif.got.tgz:5547.got - 2010.06.03 11:52:47.
