data_PCOD9405096
_publ_section_title
;
Structure prediction by ZEFSAII (Michael W. Deem and Ramdas Pophale) SiO2 
 PCOD9405096
Probable space group: P M M A
;
_chemical_formula_sum "Si O2"
_cell_formula_units_Z 32
_cell_length_a 16.192885
_cell_length_b 7.344058
_cell_length_c 13.590821
_cell_angle_alpha 90.000000
_cell_angle_beta 90.000000
_cell_angle_gamma 90.000000
_cell_volume 1616.240638
_symmetry_space_group_name_H-M "P M M A"
_symmetry_group_IT_number 51
_symmetry_cell_setting 'orthorhombic'
loop_
_space_group_symop_operation_xyz
x,y,z
1/2-x,-y,z
1/2+x,-y,-z
-x,y,-z
-x,-y,-z
1/2+x,y,-z
1/2-x,y,z
x,-y,z
loop_
_atom_site_type_symbol
_atom_site_label
_atom_site_fract_x
_atom_site_fract_y
_atom_site_fract_z
Si Si1 0.343825 0.000000 0.874319
Si Si2 0.096304 0.283673 0.725207
Si Si3 0.750000 0.278603 0.635467
Si Si4 0.913380 0.717428 0.754479
Si Si5 0.579630 0.000000 0.928456
Si Si6 0.750000 0.278651 0.410372
O O1 0.386302 0.175043 0.825300
O O2 0.250000 0.000000 0.841349
O O3 0.348688 0.000000 0.991109
O O4 0.105182 0.500000 0.739964
O O5 0.166458 0.225614 0.647469
O O6 0.000628 0.247745 0.699057
O O7 0.750000 0.500000 0.633473
O O8 0.666822 0.225207 0.692703
O O9 0.750000 0.216321 0.522765
O O10 0.908395 0.500000 0.771724
O O11 0.916874 0.827525 0.856191
O O12 0.500000 0.000000 0.000000
O O13 0.750000 0.500000 0.411648
#
# Coordination Sequence:
#
# PCOD9405096 Si02
#       6
#     4   8   4   8   4   4
#     4  12  24  38  58  86 119 151 193 246 294 344
#     4  10  20  37  61  88 118 152 192 240 289 342
#     4   9  20  39  61  88 121 157 194 236 288 350
#     4  10  22  40  60  85 121 156 193 241 289 342
#     4  12  24  40  60  85 116 154 202 241 290 351
#     4   9  18  35  61  90 117 151 196 236 288 350
#
# _framework density 19.799030999999999
#
# number of rings (size 3 to 8) (size 9 to 14) (size 15 to 20)
#    0.000    1.750    3.750    0.000    1.750    2.500 
#    0.000    7.500    0.000    3.000    0.000    0.000 
#    0.000    0.000    0.000    0.000    0.000    0.000 
#
# Total GULP energy -178588.050181 kJ/mol
# GULP energy per Si atom -5580.876568 kJ/mol
# Density = 1.975397 g / cm^3
# Si number density = 19.799031 Si / 1000 Ang^3
#
#
#
# Elastic Constant Matrix: (Units=GPa)
#
#
# Indices 1 2 3 4 5 6 
#
# 1 193.6508 44.0874 92.5006 0.0000 0.0000 0.0000
# 2 44.0874 79.0681 42.2279 0.0000 0.0000 0.0000
# 3 92.5006 42.2279 155.9474 0.0000 0.0000 0.0000
# 4 0.0000 0.0000 0.0000 34.5928 0.0000 0.0000
# 5 0.0000 0.0000 0.0000 0.0000 30.9102 0.0000
# 6 0.0000 0.0000 0.0000 0.0000 0.0000 0.6945
#
#
#
# Elastic Compliance Matrix: (Units=1/GPa)
#
#
# Indices 1 2 3 4 5 6 
#
# 1 0.007495 -0.002110 -0.003874 0.000000 0.000000 0.000000
# 2 -0.002110 0.015380 -0.002913 0.000000 0.000000 0.000000
# 3 -0.003874 -0.002913 0.009499 0.000000 0.000000 0.000000
# 4 0.000000 0.000000 0.000000 0.028908 0.000000 0.000000
# 5 0.000000 0.000000 0.000000 0.000000 0.032352 0.000000
# 6 0.000000 0.000000 0.000000 0.000000 0.000000 1.439859
#
#
# Mechanical properties :
#
#
# Convention : Reuss Voigt Hill
#
# Bulk Modulus (GPa) = 68.59059 87.36645 77.97852
# Shear Modulus (GPa) = 3.21307 29.89619 16.55463
#
# Velocity S-wave (km/s) = 1.27529 3.89006 2.89473
# Velocity P-wave (km/s) = 6.07347 8.02491 7.11640
#
# Compressibility (1/GPa) = 0.01457926
#
# Stress axis : x y z
#
# Youngs Moduli (GPa) = 133.42376 65.02141 105.27137
#
# Poissons Ratio (x) = 0.13719 0.40785
# Poissons Ratio (y) = 0.28151 0.30666
# Poissons Ratio (z) = 0.51692 0.18941
#
# Static dielectric constant tensor:
#      x y z
#    x 1.743490 0.000000 0.000000 
#    y 0.000000 1.707980 0.000000 
#    z 0.000000 0.000000 1.645790 
# 
# From -- ./inp_files/17027.got.cif
#   From: 2010.05.17/outbox.cif.g08.bks.cpg/sg51_9_cif.got.tgz:17027.got - 2010.06.03 11:52:47.
