data_PCOD9405554
_publ_section_title
;
Structure prediction by ZEFSAII (Michael W. Deem and Ramdas Pophale) SiO2 
 PCOD9405554
Probable space group: P M M A
;
_chemical_formula_sum "Si O2"
_cell_formula_units_Z 64
_cell_length_a 14.695908
_cell_length_b 20.875091
_cell_length_c 9.589075
_cell_angle_alpha 90.000000
_cell_angle_beta 90.000000
_cell_angle_gamma 90.000000
_cell_volume 2941.721247
_symmetry_space_group_name_H-M "P M M A"
_symmetry_group_IT_number 51
_symmetry_cell_setting 'orthorhombic'
loop_
_space_group_symop_operation_xyz
x,y,z
1/2-x,-y,z
1/2+x,-y,-z
-x,y,-z
-x,-y,-z
1/2+x,y,-z
1/2-x,y,z
x,-y,z
loop_
_atom_site_type_symbol
_atom_site_label
_atom_site_fract_x
_atom_site_fract_y
_atom_site_fract_z
Si Si1 0.975671 0.571333 0.353552
Si Si2 0.857416 0.575910 0.105635
Si Si3 0.485427 0.808187 0.145582
Si Si4 0.641151 0.195307 0.359757
Si Si5 0.851816 0.394296 0.796825
Si Si6 0.142678 0.073371 0.150149
Si Si7 0.853188 0.740159 0.637587
Si Si8 0.641765 0.068091 0.515976
O O1 0.937661 0.500000 0.386296
O O2 0.069848 0.565408 0.272620
O O3 0.000000 0.603563 0.500000
O O4 0.908685 0.602372 0.241295
O O5 0.750000 0.578016 0.131474
O O6 0.883024 0.500000 0.087276
O O7 0.875224 0.612044 0.960616
O O8 0.583294 0.807617 0.219884
O O9 0.430303 0.873494 0.104836
O O10 0.420809 0.777697 0.262530
O O11 0.500000 0.771932 0.000000
O O12 0.750000 0.194571 0.333412
O O13 0.623199 0.251413 0.474072
O O14 0.608877 0.131183 0.440775
O O15 0.750000 0.421982 0.793079
O O16 0.850665 0.329936 0.705030
O O17 0.250000 0.088761 0.120206
O O18 0.132014 0.071844 0.318195
O O19 0.126511 0.000000 0.100082
O O20 0.750000 0.767611 0.648657
O O21 0.750000 0.067050 0.489939
O O22 0.603682 0.000000 0.464838
#
# Coordination Sequence:
#
# PCOD9405554 Si02
#       8
#     8   8   8   8   8   8   8   8
#     4  10  21  35  55  87 126 165 200 238 286 342
#     4   9  18  35  60  89 122 161 202 242 289 345
#     4  12  25  37  57  87 118 152 195 236 290 357
#     4  10  21  39  61  85 115 151 192 242 292 344
#     4  10  21  37  60  87 112 148 197 250 302 351
#     4   9  18  35  59  85 115 152 191 234 289 348
#     4  10  22  42  63  82 110 148 196 248 298 347
#     4   8  14  28  55  86 108 136 183 232 280 334
#
# _framework density 21.755970999999999
#
# number of rings (size 3 to 8) (size 9 to 14) (size 15 to 20)
#    0.000    2.250    1.250    2.250    0.000    6.000 
#    0.000    2.500    0.000    6.750    0.000    0.000 
#    0.000    0.000    0.000    0.000    0.000    0.000 
#
# Total GULP energy -356797.101508 kJ/mol
# GULP energy per Si atom -5574.954711 kJ/mol
# Density = 2.170645 g / cm^3
# Si number density = 21.755971 Si / 1000 Ang^3
#
#
#
# Elastic Constant Matrix: (Units=GPa)
#
#
# Indices 1 2 3 4 5 6 
#
# 1 99.0996 21.5127 56.5630 0.0000 0.0000 0.0000
# 2 21.5127 49.3489 15.8672 0.0000 0.0000 0.0000
# 3 56.5630 15.8672 126.0741 0.0000 0.0000 0.0000
# 4 0.0000 0.0000 0.0000 -2.4514 0.0000 0.0000
# 5 0.0000 0.0000 0.0000 0.0000 31.0376 0.0000
# 6 0.0000 0.0000 0.0000 0.0000 0.0000 5.6181
#
#
#
# Elastic Compliance Matrix: (Units=1/GPa)
#
#
# Indices 1 2 3 4 5 6 
#
# 1 0.014420 -0.004383 -0.005918 0.000000 0.000000 0.000000
# 2 -0.004383 0.022451 -0.000859 0.000000 0.000000 0.000000
# 3 -0.005918 -0.000859 0.010695 0.000000 0.000000 0.000000
# 4 0.000000 0.000000 0.000000 -0.407933 0.000000 0.000000
# 5 0.000000 0.000000 0.000000 0.000000 0.032219 0.000000
# 6 0.000000 0.000000 0.000000 0.000000 0.000000 0.177996
#
#
# Mechanical properties :
#
#
# Convention : Reuss Voigt Hill
#
# Bulk Modulus (GPa) = 39.61099 51.37871 45.49485
# Shear Modulus (GPa) = -41.87046 18.87950 -11.49548
#
# Velocity S-wave (km/s) = -4.39173 2.94901 -2.30115
# Velocity P-wave (km/s) = 2.73311 5.93825 3.72779
#
# Compressibility (1/GPa) = 0.02524552
#
# Stress axis : x y z
#
# Youngs Moduli (GPa) = 69.34716 44.54157 93.50141
#
# Poissons Ratio (x) = 0.19524 0.55333
# Poissons Ratio (y) = 0.30398 0.08031
# Poissons Ratio (z) = 0.41039 0.03826
#
# Static dielectric constant tensor:
#      x y z
#    x 1.796780 0.000000 0.000000 
#    y 0.000000 1.880260 0.000000 
#    z 0.000000 0.000000 1.757950 
# 
# From -- ./inp_files/8720.got.cif
#   From: 2010.05.17/outbox.cif.g08.bks.cpg/sg51_5_cif.got.tgz:8720.got - 2010.06.03 11:52:47.
