data_PCOD9405805
_publ_section_title
;
Structure prediction by ZEFSAII (Michael W. Deem and Ramdas Pophale) SiO2 
 PCOD9405805
Probable space group: P M M A
;
_chemical_formula_sum "Si O2"
_cell_formula_units_Z 64
_cell_length_a 32.383087
_cell_length_b 7.799214
_cell_length_c 12.081690
_cell_angle_alpha 90.000000
_cell_angle_beta 90.000000
_cell_angle_gamma 90.000000
_cell_volume 3051.383347
_symmetry_space_group_name_H-M "P M M A"
_symmetry_group_IT_number 51
_symmetry_cell_setting 'orthorhombic'
loop_
_space_group_symop_operation_xyz
x,y,z
1/2-x,-y,z
1/2+x,-y,-z
-x,y,-z
-x,-y,-z
1/2+x,y,-z
1/2-x,y,z
x,-y,z
loop_
_atom_site_type_symbol
_atom_site_label
_atom_site_fract_x
_atom_site_fract_y
_atom_site_fract_z
Si Si1 0.702549 0.296667 0.896648
Si Si2 0.124534 0.295441 0.968771
Si Si3 0.461874 0.201620 0.074162
Si Si4 0.974644 0.706988 0.671184
Si Si5 0.439414 0.708842 0.552276
Si Si6 0.202324 0.795526 0.345898
Si Si7 0.703739 0.294984 0.416208
Si Si8 0.370477 0.710348 0.721157
O O1 0.750000 0.227021 0.905430
O O2 0.705874 0.500000 0.916452
O O3 0.666671 0.225772 0.975895
O O4 0.686575 0.272418 0.770740
O O5 0.130441 0.500000 0.960975
O O6 0.082872 0.269015 0.037812
O O7 0.118736 0.230220 0.843805
O O8 0.468932 0.229435 0.204668
O O9 0.460550 0.000000 0.052374
O O10 0.500000 0.273865 0.000000
O O11 0.973090 0.500000 0.676690
O O12 0.942642 0.765247 0.575506
O O13 0.018968 0.754569 0.619014
O O14 0.438356 0.500000 0.549059
O O15 0.401720 0.769308 0.626348
O O16 0.250000 0.732463 0.350464
O O17 0.184014 0.741263 0.463333
O O18 0.202223 0.000000 0.340618
O O19 0.750000 0.221702 0.412748
O O20 0.706655 0.500000 0.407383
O O21 0.674837 0.235069 0.317580
O O22 0.371954 0.500000 0.720914
#
# Coordination Sequence:
#
# PCOD9405805 Si02
#       8
#     8   8   8   8   8   8   8   8
#     4   9  18  33  53  78 108 138 170 215 266 308
#     4  10  21  36  56  80 103 136 182 221 256 310
#     4  11  24  39  54  76 109 144 175 215 266 311
#     4   9  17  32  56  81 102 129 168 210 253 306
#     4   8  15  29  51  79 105 127 159 208 258 301
#     4   9  17  30  49  72  99 134 175 214 254 306
#     4   9  17  29  47  72 101 132 166 209 261 310
#     4   9  17  30  49  73 100 129 164 208 256 305
#
# _framework density 20.974094000000001
#
# number of rings (size 3 to 8) (size 9 to 14) (size 15 to 20)
#    0.000    2.750    0.000    2.250    0.000    5.500 
#    0.000    6.875    0.000    1.500    0.000    3.500 
#    0.000    0.000    0.000    0.000    0.000    0.000 
#
# Total GULP energy -356805.564639 kJ/mol
# GULP energy per Si atom -5575.086947 kJ/mol
# Density = 2.092636 g / cm^3
# Si number density = 20.974094 Si / 1000 Ang^3
#
#
#
# Elastic Constant Matrix: (Units=GPa)
#
#
# Indices 1 2 3 4 5 6 
#
# 1 86.4596 0.0914 60.7957 0.0000 0.0000 0.0000
# 2 0.0914 23.1761 -8.1794 0.0000 0.0000 0.0000
# 3 60.7957 -8.1794 141.2940 0.0000 0.0000 0.0000
# 4 0.0000 0.0000 0.0000 -35.9212 0.0000 0.0000
# 5 0.0000 0.0000 0.0000 0.0000 27.5212 0.0000
# 6 0.0000 0.0000 0.0000 0.0000 0.0000 0.6827
#
#
#
# Elastic Compliance Matrix: (Units=1/GPa)
#
#
# Indices 1 2 3 4 5 6 
#
# 1 0.016743 -0.002663 -0.007358 0.000000 0.000000 0.000000
# 2 -0.002663 0.044471 0.003720 0.000000 0.000000 0.000000
# 3 -0.007358 0.003720 0.010459 0.000000 0.000000 0.000000
# 4 0.000000 0.000000 0.000000 -0.027839 0.000000 0.000000
# 5 0.000000 0.000000 0.000000 0.000000 0.036336 0.000000
# 6 0.000000 0.000000 0.000000 0.000000 0.000000 1.464733
#
#
# Mechanical properties :
#
#
# Convention : Reuss Voigt Hill
#
# Bulk Modulus (GPa) = 16.92874 39.59390 28.26132
# Shear Modulus (GPa) = 3.17018 11.67135 7.42077
#
# Velocity S-wave (km/s) = 1.23075 2.36151 1.88301
# Velocity P-wave (km/s) = 3.17938 5.13363 4.26981
#
# Compressibility (1/GPa) = 0.05907115
#
# Stress axis : x y z
#
# Youngs Moduli (GPa) = 59.72631 22.48642 95.61217
#
# Poissons Ratio (x) = 0.05988 0.70354
# Poissons Ratio (y) = 0.15905 -0.35570
# Poissons Ratio (z) = 0.43948 -0.08365
#
# Static dielectric constant tensor:
#      x y z
#    x 1.775110 0.000000 0.000000 
#    y 0.000000 1.758060 0.000000 
#    z 0.000000 0.000000 1.755970 
# 
# From -- ./inp_files/19591.got.cif
#   From: 2010.05.17/outbox.cif.g08.bks.cpg/sg51_10_cif.got.tgz:19591.got - 2010.06.03 11:52:47.
