data_PCOD9405266
_publ_section_title
;
Structure prediction by ZEFSAII (Michael W. Deem and Ramdas Pophale) SiO2 
 PCOD9405266
Probable space group: P M M A
;
_chemical_formula_sum "Si O2"
_cell_formula_units_Z 48
_cell_length_a 17.511421
_cell_length_b 15.300149
_cell_length_c 9.478751
_cell_angle_alpha 90.000000
_cell_angle_beta 90.000000
_cell_angle_gamma 90.000000
_cell_volume 2539.616641
_symmetry_space_group_name_H-M "P M M A"
_symmetry_group_IT_number 51
_symmetry_cell_setting 'orthorhombic'
loop_
_space_group_symop_operation_xyz
x,y,z
1/2-x,-y,z
1/2+x,-y,-z
-x,y,-z
-x,-y,-z
1/2+x,y,-z
1/2-x,y,z
x,-y,z
loop_
_atom_site_type_symbol
_atom_site_label
_atom_site_fract_x
_atom_site_fract_y
_atom_site_fract_z
Si Si1 0.106785 0.000000 0.116006
Si Si2 0.555488 0.323108 0.873078
Si Si3 0.915324 0.149681 0.436618
Si Si4 0.338412 0.826816 0.265273
Si Si5 0.070957 0.000000 0.787951
Si Si6 0.407605 0.500000 0.007123
Si Si7 0.160614 0.500000 0.694991
Si Si8 0.057771 0.346506 0.627502
O O1 0.147401 0.086594 0.173313
O O2 0.020664 0.000000 0.182193
O O3 0.104258 0.000000 0.945939
O O4 0.604919 0.247980 0.796687
O O5 0.607190 0.405703 0.920520
O O6 0.493855 0.360345 0.763929
O O7 0.500000 0.289456 0.000000
O O8 0.860697 0.148927 0.573141
O O9 0.905095 0.082151 0.309170
O O10 0.913912 0.247366 0.376024
O O11 0.000000 0.133118 0.500000
O O12 0.250000 0.799768 0.258023
O O13 0.500000 0.500000 0.000000
O O14 0.367265 0.500000 0.856770
O O15 0.250000 0.500000 0.687845
O O16 0.125259 0.414799 0.623215
O O17 0.000000 0.359023 0.500000
#
# Coordination Sequence:
#
# PCOD9405266 Si02
#       8
#     4   8   8   8   4   4   4   8
#     4  11  24  39  65 100 134 161 219 275 316 376
#     4  11  21  41  71  93 124 172 221 257 313 392
#     4  11  21  41  67  97 126 169 219 261 315 390
#     4  12  26  43  64  96 135 170 210 274 335 376
#     4  11  22  38  72 101 118 170 231 263 302 391
#     4  10  20  40  67  90 126 170 213 256 319 385
#     4  12  25  40  64 100 133 166 211 274 330 374
#     4  11  21  41  67  95 126 169 219 261 313 383
#
# _framework density 18.900490999999999
#
# number of rings (size 3 to 8) (size 9 to 14) (size 15 to 20)
#    0.000    0.833    8.333    1.250    4.667    1.333 
#    0.000    1.667    0.000    0.000    0.000    0.000 
#    0.000    0.000    0.000    0.000    0.000    0.000 
#
# Total GULP energy -267939.030452 kJ/mol
# GULP energy per Si atom -5582.063134 kJ/mol
# Density = 1.885747 g / cm^3
# Si number density = 18.900491 Si / 1000 Ang^3
#
#
#
# Elastic Constant Matrix: (Units=GPa)
#
#
# Indices 1 2 3 4 5 6 
#
# 1 91.2416 57.2038 23.7470 0.0000 0.0000 0.0000
# 2 57.2038 126.6281 74.5069 0.0000 0.0000 0.0000
# 3 23.7470 74.5069 105.5195 0.0000 0.0000 0.0000
# 4 0.0000 0.0000 0.0000 36.8342 0.0000 0.0000
# 5 0.0000 0.0000 0.0000 0.0000 19.6690 0.0000
# 6 0.0000 0.0000 0.0000 0.0000 0.0000 -122.0823
#
#
#
# Elastic Compliance Matrix: (Units=1/GPa)
#
#
# Indices 1 2 3 4 5 6 
#
# 1 0.015672 -0.008562 0.002518 0.000000 0.000000 0.000000
# 2 -0.008562 0.018187 -0.010915 0.000000 0.000000 0.000000
# 3 0.002518 -0.010915 0.016617 0.000000 0.000000 0.000000
# 4 0.000000 0.000000 0.000000 0.027149 0.000000 0.000000
# 5 0.000000 0.000000 0.000000 0.000000 0.050841 0.000000
# 6 0.000000 0.000000 0.000000 0.000000 0.000000 -0.008191
#
#
# Mechanical properties :
#
#
# Convention : Reuss Voigt Hill
#
# Bulk Modulus (GPa) = 60.38707 70.47829 65.43268
# Shear Modulus (GPa) = 31.30629 -1.92038 14.69296
#
# Velocity S-wave (km/s) = 4.07427 -1.00908 2.79119
# Velocity P-wave (km/s) = 7.35882 6.00103 6.71434
#
# Compressibility (1/GPa) = 0.01655984
#
# Stress axis : x y z
#
# Youngs Moduli (GPa) = 63.80741 54.98384 60.17827
#
# Poissons Ratio (x) = 0.47075 -0.15155
# Poissons Ratio (y) = 0.54629 0.65685
# Poissons Ratio (z) = -0.16069 0.60015
#
# Static dielectric constant tensor:
#      x y z
#    x 1.624760 0.000000 0.000000 
#    y 0.000000 1.673510 0.000000 
#    z 0.000000 0.000000 1.644080 
# 
# From -- ./inp_files/9747.got.cif
#   From: 2010.05.17/outbox.cif.g08.bks.cpg/sg51_5_cif.got.tgz:9747.got - 2010.06.03 11:52:47.
