data_PCOD9405606
_publ_section_title
;
Structure prediction by ZEFSAII (Michael W. Deem and Ramdas Pophale) SiO2 
 PCOD9405606
Probable space group: P M M A
;
_chemical_formula_sum "Si O2"
_cell_formula_units_Z 48
_cell_length_a 9.457030
_cell_length_b 7.345179
_cell_length_c 31.873812
_cell_angle_alpha 90.000000
_cell_angle_beta 90.000000
_cell_angle_gamma 90.000000
_cell_volume 2214.069031
_symmetry_space_group_name_H-M "P M M A"
_symmetry_group_IT_number 51
_symmetry_cell_setting 'orthorhombic'
loop_
_space_group_symop_operation_xyz
x,y,z
1/2-x,-y,z
1/2+x,-y,-z
-x,y,-z
-x,-y,-z
1/2+x,y,-z
1/2-x,y,z
x,-y,z
loop_
_atom_site_type_symbol
_atom_site_label
_atom_site_fract_x
_atom_site_fract_y
_atom_site_fract_z
Si Si1 0.912595 0.722291 0.705388
Si Si2 0.410675 0.281225 0.879901
Si Si3 0.586588 0.278378 0.214072
Si Si4 0.086707 0.277914 0.623485
Si Si5 0.086388 0.722087 0.458800
Si Si6 0.407862 0.784957 0.038296
O O1 0.750000 0.779815 0.701564
O O2 0.912531 0.500000 0.705402
O O3 0.984511 0.781862 0.748809
O O4 0.007216 0.778899 0.665848
O O5 0.250000 0.217681 0.888217
O O6 0.405947 0.500000 0.878320
O O7 0.452918 0.219821 0.833097
O O8 0.513326 0.233158 0.917534
O O9 0.750000 0.225623 0.221705
O O10 0.584342 0.500000 0.214372
O O11 0.250000 0.219528 0.621941
O O12 0.088128 0.500000 0.623384
O O13 0.997214 0.221124 0.582888
O O14 0.250000 0.780336 0.459231
O O15 0.087997 0.500000 0.458822
O O16 0.000000 0.778792 0.500000
O O17 0.250000 0.708611 0.039695
O O18 0.394981 0.000000 0.030395
O O19 0.500000 0.708438 0.000000
#
# Coordination Sequence:
#
# PCOD9405606 Si02
#       6
#     8   8   8   8   8   8
#     4   9  15  21  30  45  64  86 113 145 182 227
#     4   9  18  32  50  72  96 121 150 184 223 267
#     4   8  14  25  39  55  77 103 128 156 194 241
#     4   9  15  21  28  37  50  71 100 134 175 224
#     4   9  15  21  27  34  45  62  88 126 173 224
#     4  10  21  36  53  72  94 122 155 188 223 264
#
# _framework density 21.679539999999999
#
# number of rings (size 3 to 8) (size 9 to 14) (size 15 to 20)
#    0.000    3.000    0.000    3.000    0.000    8.333 
#    0.000    1.667    0.000    0.000    0.000    0.000 
#    0.000    0.000    0.000    0.000    0.000    0.000 
#
# Total GULP energy -268122.049213 kJ/mol
# GULP energy per Si atom -5585.876025 kJ/mol
# Density = 2.163020 g / cm^3
# Si number density = 21.679540 Si / 1000 Ang^3
#
#
#
# Elastic Constant Matrix: (Units=GPa)
#
#
# Indices 1 2 3 4 5 6 
#
# 1 233.5928 6.7601 167.1466 0.0000 0.0000 0.0000
# 2 6.7601 81.1352 2.8316 0.0000 0.0000 0.0000
# 3 167.1466 2.8316 223.0619 0.0000 0.0000 0.0000
# 4 0.0000 0.0000 0.0000 21.0143 0.0000 0.0000
# 5 0.0000 0.0000 0.0000 0.0000 34.7852 0.0000
# 6 0.0000 0.0000 0.0000 0.0000 0.0000 -7.6627
#
#
#
# Elastic Compliance Matrix: (Units=1/GPa)
#
#
# Indices 1 2 3 4 5 6 
#
# 1 0.009252 -0.000529 -0.006926 0.000000 0.000000 0.000000
# 2 -0.000529 0.012361 0.000240 0.000000 0.000000 0.000000
# 3 -0.006926 0.000240 0.009670 0.000000 0.000000 0.000000
# 4 0.000000 0.000000 0.000000 0.047587 0.000000 0.000000
# 5 0.000000 0.000000 0.000000 0.000000 0.028748 0.000000
# 6 0.000000 0.000000 0.000000 0.000000 0.000000 -0.130502
#
#
# Mechanical properties :
#
#
# Convention : Reuss Voigt Hill
#
# Bulk Modulus (GPa) = 59.34180 99.02961 79.18570
# Shear Modulus (GPa) = -1763.46153 33.69747 -864.88203
#
# Velocity S-wave (km/s) = -28.55150 3.94679 -19.99513
# Velocity P-wave (km/s) = 32.54974 8.15767 22.28158
#
# Compressibility (1/GPa) = 0.01685153
#
# Stress axis : x y z
#
# Youngs Moduli (GPa) = 108.07985 80.90064 103.41099
#
# Poissons Ratio (x) = 0.04281 0.71626
# Poissons Ratio (y) = 0.05719 -0.02478
# Poissons Ratio (z) = 0.74860 -0.01938
#
# Static dielectric constant tensor:
#      x y z
#    x 1.739780 0.000000 0.000000 
#    y 0.000000 1.848490 0.000000 
#    z 0.000000 0.000000 1.738820 
# 
# From -- ./inp_files/36991.got.cif
#   From: 2010.05.17/outbox.cif.g08.bks.cpg/sg51_19_cif.got.tgz:36991.got - 2010.06.03 11:52:47.
