data_PCOD9405025
_publ_section_title
;
Structure prediction by ZEFSAII (Michael W. Deem and Ramdas Pophale) SiO2 
 PCOD9405025
Probable space group: P M M A
;
_chemical_formula_sum "Si O2"
_cell_formula_units_Z 40
_cell_length_a 10.182794
_cell_length_b 9.352369
_cell_length_c 25.196192
_cell_angle_alpha 90.000000
_cell_angle_beta 90.000000
_cell_angle_gamma 90.000000
_cell_volume 2399.515175
_symmetry_space_group_name_H-M "P M M A"
_symmetry_group_IT_number 51
_symmetry_cell_setting 'orthorhombic'
loop_
_space_group_symop_operation_xyz
x,y,z
1/2-x,-y,z
1/2+x,-y,-z
-x,y,-z
-x,-y,-z
1/2+x,y,-z
1/2-x,y,z
x,-y,z
loop_
_atom_site_type_symbol
_atom_site_label
_atom_site_fract_x
_atom_site_fract_y
_atom_site_fract_z
Si Si1 0.095617 0.671052 0.731172
Si Si2 0.409707 0.835333 0.835964
Si Si3 0.486968 0.331244 0.382687
Si Si4 0.750000 0.170485 0.561456
Si Si5 0.098238 0.174581 0.953732
Si Si6 0.750000 0.664571 0.452162
O O1 0.250000 0.708284 0.723253
O O2 0.089408 0.500000 0.736974
O O3 0.048372 0.745215 0.785084
O O4 0.017052 0.709568 0.678134
O O5 0.250000 0.834603 0.836536
O O6 0.446988 0.781072 0.894616
O O7 0.451913 0.000000 0.830229
O O8 0.449961 0.500000 0.384134
O O9 0.376473 0.235546 0.409193
O O10 0.621542 0.317703 0.415937
O O11 0.750000 0.229313 0.501424
O O12 0.750000 0.000000 0.562466
O O13 0.250000 0.218667 0.962413
O O14 0.098675 0.000000 0.952909
O O15 0.000000 0.220970 0.000000
O O16 0.750000 0.500000 0.472385
#
# Coordination Sequence:
#
# PCOD9405025 Si02
#       6
#     8   8   8   4   8   4
#     4   9  16  29  51  77  98 119 160 210 246 285
#     4   8  14  24  40  65  94 123 155 194 242 290
#     4  10  20  37  59  79  99 131 173 210 246 294
#     4  12  26  38  50  76 112 140 163 198 251 308
#     4   8  13  22  38  60  86 118 157 194 229 274
#     4  10  20  38  62  82  98 126 173 216 245 288
#
# _framework density 16.670034999999999
#
# number of rings (size 3 to 8) (size 9 to 14) (size 15 to 20)
#    0.000    2.800    1.000    2.700    0.000    4.000 
#    0.000    0.000    2.200    0.600    0.000    0.000 
#    0.000    0.000    0.000    0.000    0.000    0.000 
#
# Total GULP energy -222888.034322 kJ/mol
# GULP energy per Si atom -5572.200858 kJ/mol
# Density = 1.663209 g / cm^3
# Si number density = 16.670035 Si / 1000 Ang^3
#
#
#
# Elastic Constant Matrix: (Units=GPa)
#
#
# Indices 1 2 3 4 5 6 
#
# 1 61.8053 38.4909 48.1273 0.0000 0.0000 0.0000
# 2 38.4909 49.4403 59.8404 0.0000 0.0000 0.0000
# 3 48.1273 59.8404 168.8628 0.0000 0.0000 0.0000
# 4 0.0000 0.0000 0.0000 29.0155 0.0000 0.0000
# 5 0.0000 0.0000 0.0000 0.0000 17.6807 0.0000
# 6 0.0000 0.0000 0.0000 0.0000 0.0000 11.8257
#
#
#
# Elastic Compliance Matrix: (Units=1/GPa)
#
#
# Indices 1 2 3 4 5 6 
#
# 1 0.031432 -0.023864 -0.000502 0.000000 0.000000 0.000000
# 2 -0.023864 0.053535 -0.012170 0.000000 0.000000 0.000000
# 3 -0.000502 -0.012170 0.010378 0.000000 0.000000 0.000000
# 4 0.000000 0.000000 0.000000 0.034464 0.000000 0.000000
# 5 0.000000 0.000000 0.000000 0.000000 0.056559 0.000000
# 6 0.000000 0.000000 0.000000 0.000000 0.000000 0.084561
#
#
# Mechanical properties :
#
#
# Convention : Reuss Voigt Hill
#
# Bulk Modulus (GPa) = 44.89527 63.66953 54.28240
# Shear Modulus (GPa) = 14.22774 20.61437 17.42106
#
# Velocity S-wave (km/s) = 2.92463 3.52037 3.23623
# Velocity P-wave (km/s) = 6.19635 7.40276 6.82626
#
# Compressibility (1/GPa) = 0.02227406
#
# Stress axis : x y z
#
# Youngs Moduli (GPa) = 31.81427 18.67926 96.36010
#
# Poissons Ratio (x) = 0.44576 0.04836
# Poissons Ratio (y) = 0.75921 1.17271
# Poissons Ratio (z) = 0.01596 0.22733
#
# Static dielectric constant tensor:
#      x y z
#    x 1.550140 0.000000 0.000000 
#    y 0.000000 1.552840 0.000000 
#    z 0.000000 0.000000 1.571040 
# 
# From -- ./inp_files/36035.got.cif
#   From: 2010.05.17/outbox.cif.g08.bks.cpg/sg51_19_cif.got.tgz:36035.got - 2010.06.03 11:52:47.
