data_PCOD9405224
_publ_section_title
;
Structure prediction by ZEFSAII (Michael W. Deem and Ramdas Pophale) SiO2 
 PCOD9405224
Probable space group: P M M A
;
_chemical_formula_sum "Si O2"
_cell_formula_units_Z 64
_cell_length_a 15.663595
_cell_length_b 19.220498
_cell_length_c 11.587393
_cell_angle_alpha 90.000000
_cell_angle_beta 90.000000
_cell_angle_gamma 90.000000
_cell_volume 3488.524828
_symmetry_space_group_name_H-M "P M M A"
_symmetry_group_IT_number 51
_symmetry_cell_setting 'orthorhombic'
loop_
_space_group_symop_operation_xyz
x,y,z
1/2-x,-y,z
1/2+x,-y,-z
-x,y,-z
-x,-y,-z
1/2+x,y,-z
1/2-x,y,z
x,-y,z
loop_
_atom_site_type_symbol
_atom_site_label
_atom_site_fract_x
_atom_site_fract_y
_atom_site_fract_z
Si Si1 0.091433 0.680811 0.023065
Si Si2 0.846596 0.918106 0.736191
Si Si3 0.345196 0.665656 0.763406
Si Si4 0.008450 0.417046 0.632019
Si Si5 0.479820 0.828502 0.121666
Si Si6 0.153577 0.820043 0.730906
Si Si7 0.899477 0.081530 0.477091
Si Si8 0.655440 0.580661 0.786160
O O1 0.064047 0.754044 0.084894
O O2 0.145064 0.633510 0.108535
O O3 0.135130 0.684989 0.897662
O O4 0.000000 0.644840 0.000000
O O5 0.750000 0.903818 0.774807
O O6 0.914240 0.870805 0.801176
O O7 0.853754 0.906378 0.599043
O O8 0.865165 0.000000 0.754867
O O9 0.250000 0.635047 0.757268
O O10 0.417313 0.618477 0.706484
O O11 0.345701 0.739043 0.696673
O O12 0.023654 0.500000 0.629358
O O13 0.000000 0.392261 0.500000
O O14 0.919031 0.404214 0.695977
O O15 0.571103 0.824675 0.185682
O O16 0.500000 0.864418 0.000000
O O17 0.250000 0.834289 0.778822
O O18 0.136119 0.870444 0.623746
O O19 0.000000 0.094418 0.500000
O O20 0.889828 0.000000 0.445969
O O21 0.750000 0.587661 0.735087
O O22 0.645791 0.500000 0.824240
#
# Coordination Sequence:
#
# PCOD9405224 Si02
#       8
#     8   8   8   8   8   8   8   8
#     4  11  20  39  63  86 117 159 196 244 300 350
#     4  10  22  40  62  89 119 152 197 251 301 354
#     4  11  23  40  61  89 123 158 202 252 299 354
#     4  10  22  41  63  87 120 162 201 243 298 359
#     4  11  22  39  61  86 118 162 200 236 293 360
#     4  11  22  37  58  88 123 156 195 247 301 356
#     4  10  20  38  65  89 115 154 197 248 307 358
#     4  10  21  37  60  90 119 151 197 250 298 350
#
# _framework density 18.345863999999999
#
# number of rings (size 3 to 8) (size 9 to 14) (size 15 to 20)
#    0.000    1.500    5.000    0.750    0.000    4.500 
#    2.250    1.250    0.000    0.000    0.000    0.000 
#    0.000    0.000    0.000    0.000    0.000    0.000 
#
# Total GULP energy -356815.190134 kJ/mol
# GULP energy per Si atom -5575.237346 kJ/mol
# Density = 1.830411 g / cm^3
# Si number density = 18.345864 Si / 1000 Ang^3
#
#
#
# Elastic Constant Matrix: (Units=GPa)
#
#
# Indices 1 2 3 4 5 6 
#
# 1 164.5999 63.1002 66.2674 0.0000 0.0000 0.0000
# 2 63.1002 59.9321 61.3424 0.0000 0.0000 0.0000
# 3 66.2674 61.3424 101.7930 0.0000 0.0000 0.0000
# 4 0.0000 0.0000 0.0000 13.0542 0.0000 0.0000
# 5 0.0000 0.0000 0.0000 0.0000 12.8869 0.0000
# 6 0.0000 0.0000 0.0000 0.0000 0.0000 27.6030
#
#
#
# Elastic Compliance Matrix: (Units=1/GPa)
#
#
# Indices 1 2 3 4 5 6 
#
# 1 0.010195 -0.010283 -0.000440 0.000000 0.000000 0.000000
# 2 -0.010283 0.053916 -0.025796 0.000000 0.000000 0.000000
# 3 -0.000440 -0.025796 0.025655 0.000000 0.000000 0.000000
# 4 0.000000 0.000000 0.000000 0.076604 0.000000 0.000000
# 5 0.000000 0.000000 0.000000 0.000000 0.077598 0.000000
# 6 0.000000 0.000000 0.000000 0.000000 0.000000 0.036228
#
#
# Mechanical properties :
#
#
# Convention : Reuss Voigt Hill
#
# Bulk Modulus (GPa) = 59.78307 78.63831 69.21069
# Shear Modulus (GPa) = 13.93499 19.74983 16.84241
#
# Velocity S-wave (km/s) = 2.75902 3.28461 3.03322
# Velocity P-wave (km/s) = 6.54271 7.57247 7.07634
#
# Compressibility (1/GPa) = 0.01672714
#
# Stress axis : x y z
#
# Youngs Moduli (GPa) = 98.09164 18.54752 38.97832
#
# Poissons Ratio (x) = 0.19073 0.01714
# Poissons Ratio (y) = 1.00871 1.00549
# Poissons Ratio (z) = 0.04313 0.47845
#
# Static dielectric constant tensor:
#      x y z
#    x 1.661300 0.000000 0.000000 
#    y 0.000000 1.627180 0.000000 
#    z 0.000000 0.000000 1.624080 
# 
# From -- ./inp_files/16815.got.cif
#   From: 2010.05.17/outbox.cif.g08.bks.cpg/sg51_9_cif.got.tgz:16815.got - 2010.06.03 11:52:47.
