data_PCOD9405242
_publ_section_title
;
Structure prediction by ZEFSAII (Michael W. Deem and Ramdas Pophale) SiO2 
 PCOD9405242
Probable space group: P M M A
;
_chemical_formula_sum "Si O2"
_cell_formula_units_Z 64
_cell_length_a 25.474331
_cell_length_b 8.714387
_cell_length_c 14.866938
_cell_angle_alpha 90.000000
_cell_angle_beta 90.000000
_cell_angle_gamma 90.000000
_cell_volume 3300.358827
_symmetry_space_group_name_H-M "P M M A"
_symmetry_group_IT_number 51
_symmetry_cell_setting 'orthorhombic'
loop_
_space_group_symop_operation_xyz
x,y,z
1/2-x,-y,z
1/2+x,-y,-z
-x,y,-z
-x,-y,-z
1/2+x,y,-z
1/2-x,y,z
x,-y,z
loop_
_atom_site_type_symbol
_atom_site_label
_atom_site_fract_x
_atom_site_fract_y
_atom_site_fract_z
Si Si1 0.193152 0.815463 0.180692
Si Si2 0.162978 0.678684 0.993461
Si Si3 0.585998 0.815180 0.723562
Si Si4 0.519906 0.677480 0.208753
Si Si5 0.058380 0.823601 0.963474
Si Si6 0.440179 0.313606 0.472049
Si Si7 0.390014 0.321463 0.653035
Si Si8 0.189331 0.182243 0.797607
O O1 0.250000 0.764743 0.217259
O O2 0.142060 0.763975 0.236242
O O3 0.191908 0.000000 0.181701
O O4 0.189275 0.761924 0.077520
O O5 0.174934 0.500000 0.996011
O O6 0.101043 0.711992 0.004965
O O7 0.177251 0.742989 0.894871
O O8 0.538149 0.742025 0.779562
O O9 0.576746 0.760293 0.621753
O O10 0.582536 0.000000 0.729377
O O11 0.519480 0.500000 0.177955
O O12 0.552626 0.782020 0.140684
O O13 0.552303 0.682688 0.301103
O O14 0.074613 0.000000 0.978099
O O15 0.000000 0.802806 0.000000
O O16 0.500000 0.272074 0.500000
O O17 0.438967 0.500000 0.464385
O O18 0.400295 0.266231 0.551869
O O19 0.374139 0.500000 0.650292
O O20 0.349283 0.238049 0.718607
O O21 0.250000 0.217212 0.774795
O O22 0.183621 0.000000 0.808177
#
# Coordination Sequence:
#
# PCOD9405242 Si02
#       8
#     8   8   8   8   8   8   8   8
#     4  10  23  44  64  83 116 161 205 250 299 350
#     4  12  24  38  60  90 120 155 202 252 298 352
#     4  11  23  38  61  93 122 155 200 249 303 361
#     4  11  21  36  58  86 121 158 194 239 299 357
#     4  11  23  37  54  81 119 161 201 243 295 357
#     4  10  20  39  63  88 122 158 194 240 298 362
#     4  10  21  38  61  88 119 157 197 243 299 355
#     4  11  24  41  62  88 121 162 204 250 302 353
#
# _framework density 19.391831
#
# number of rings (size 3 to 8) (size 9 to 14) (size 15 to 20)
#    0.000    1.250    2.500    3.750    0.000    9.000 
#    0.000    0.625    0.000    2.250    0.000    0.000 
#    0.000    0.000    0.000    0.000    0.000    0.000 
#
# Total GULP energy -357568.337671 kJ/mol
# GULP energy per Si atom -5587.005276 kJ/mol
# Density = 1.934769 g / cm^3
# Si number density = 19.391831 Si / 1000 Ang^3
#
#
#
# Elastic Constant Matrix: (Units=GPa)
#
#
# Indices 1 2 3 4 5 6 
#
# 1 124.8127 22.9491 32.7265 0.0000 0.0000 0.0000
# 2 22.9491 17.7916 -2.4377 0.0000 0.0000 0.0000
# 3 32.7265 -2.4377 64.6755 0.0000 0.0000 0.0000
# 4 0.0000 0.0000 0.0000 31.9689 0.0000 0.0000
# 5 0.0000 0.0000 0.0000 0.0000 17.2112 0.0000
# 6 0.0000 0.0000 0.0000 0.0000 0.0000 44.5473
#
#
#
# Elastic Compliance Matrix: (Units=1/GPa)
#
#
# Indices 1 2 3 4 5 6 
#
# 1 0.013296 -0.018165 -0.007412 0.000000 0.000000 0.000000
# 2 -0.018165 0.081317 0.012257 0.000000 0.000000 0.000000
# 3 -0.007412 0.012257 0.019675 0.000000 0.000000 0.000000
# 4 0.000000 0.000000 0.000000 0.031280 0.000000 0.000000
# 5 0.000000 0.000000 0.000000 0.000000 0.058102 0.000000
# 6 0.000000 0.000000 0.000000 0.000000 0.000000 0.022448
#
#
# Mechanical properties :
#
#
# Convention : Reuss Voigt Hill
#
# Bulk Modulus (GPa) = 11.40968 34.86174 23.13571
# Shear Modulus (GPa) = 17.73216 29.01495 23.37356
#
# Velocity S-wave (km/s) = 3.02721 3.87233 3.47555
# Velocity P-wave (km/s) = 4.25619 6.16521 5.29741
#
# Compressibility (1/GPa) = 0.08764486
#
# Stress axis : x y z
#
# Youngs Moduli (GPa) = 75.21293 12.29761 50.82714
#
# Poissons Ratio (x) = 0.22339 0.37675
# Poissons Ratio (y) = 1.36627 -0.62298
# Poissons Ratio (z) = 0.55751 -0.15073
#
# Static dielectric constant tensor:
#      x y z
#    x 1.706580 0.000000 0.000000 
#    y 0.000000 1.657540 0.000000 
#    z 0.000000 0.000000 1.689650 
# 
# From -- ./inp_files/26233.got.cif
#   From: 2010.05.17/outbox.cif.g08.bks.cpg/sg51_14_cif.got.tgz:26233.got - 2010.06.03 11:52:47.
