data_PCOD9405279
_publ_section_title
;
Structure prediction by ZEFSAII (Michael W. Deem and Ramdas Pophale) SiO2 
 PCOD9405279
Probable space group: P M M A
;
_chemical_formula_sum "Si O2"
_cell_formula_units_Z 48
_cell_length_a 15.694236
_cell_length_b 9.351638
_cell_length_c 18.080351
_cell_angle_alpha 90.000000
_cell_angle_beta 90.000000
_cell_angle_gamma 90.000000
_cell_volume 2653.595508
_symmetry_space_group_name_H-M "P M M A"
_symmetry_group_IT_number 51
_symmetry_cell_setting 'orthorhombic'
loop_
_space_group_symop_operation_xyz
x,y,z
1/2-x,-y,z
1/2+x,-y,-z
-x,y,-z
-x,-y,-z
1/2+x,y,-z
1/2-x,y,z
x,-y,z
loop_
_atom_site_type_symbol
_atom_site_label
_atom_site_fract_x
_atom_site_fract_y
_atom_site_fract_z
Si Si1 0.848442 0.174656 0.691577
Si Si2 0.601247 0.338478 0.998478
Si Si3 0.500424 0.174234 0.415296
Si Si4 0.351931 0.336916 0.841138
Si Si5 0.147758 0.161404 0.145488
Si Si6 0.650142 0.171741 0.305558
O O1 0.750000 0.219000 0.678329
O O2 0.916427 0.219705 0.630155
O O3 0.878324 0.219946 0.773912
O O4 0.847743 0.000000 0.693510
O O5 0.637301 0.500000 0.994930
O O6 0.627719 0.275425 0.077886
O O7 0.500000 0.346946 0.000000
O O8 0.626589 0.252858 0.925977
O O9 0.500000 0.223566 0.500000
O O10 0.585777 0.215064 0.370710
O O11 0.499067 0.000000 0.416451
O O12 0.250000 0.344820 0.836387
O O13 0.386353 0.500000 0.837783
O O14 0.379152 0.244307 0.771012
O O15 0.250000 0.152529 0.150484
O O16 0.113662 0.000000 0.136756
O O17 0.750000 0.208131 0.319707
O O18 0.645784 0.000000 0.297653
#
# Coordination Sequence:
#
# PCOD9405279 Si02
#       6
#     8   8   8   8   8   8
#     4   8  15  28  45  66  93 125 161 199 238 285
#     4  10  21  33  46  70 100 128 162 202 242 288
#     4   9  17  28  45  70  98 128 158 191 239 293
#     4   9  18  33  50  66  90 128 165 194 233 285
#     4   9  18  32  49  69  93 125 166 205 242 287
#     4   9  18  31  48  73 101 125 156 200 241 280
#
# _framework density 18.088664999999999
#
# number of rings (size 3 to 8) (size 9 to 14) (size 15 to 20)
#    0.000    3.000    0.000    1.500    2.333    2.667 
#    0.000    5.000    0.000    0.500    0.000    0.000 
#    0.000    2.667    0.000    0.000    0.000    0.000 
#
# Total GULP energy -267332.344488 kJ/mol
# GULP energy per Si atom -5569.423844 kJ/mol
# Density = 1.804749 g / cm^3
# Si number density = 18.088665 Si / 1000 Ang^3
#
#
#
# Elastic Constant Matrix: (Units=GPa)
#
#
# Indices 1 2 3 4 5 6 
#
# 1 70.1700 17.6714 75.6284 0.0000 0.0000 0.0000
# 2 17.6714 14.6413 40.8184 0.0000 0.0000 0.0000
# 3 75.6284 40.8184 213.3426 0.0000 0.0000 0.0000
# 4 0.0000 0.0000 0.0000 -317.5582 0.0000 0.0000
# 5 0.0000 0.0000 0.0000 0.0000 36.5667 0.0000
# 6 0.0000 0.0000 0.0000 0.0000 0.0000 6.8386
#
#
#
# Elastic Compliance Matrix: (Units=1/GPa)
#
#
# Indices 1 2 3 4 5 6 
#
# 1 0.023889 -0.011196 -0.006327 0.000000 0.000000 0.000000
# 2 -0.011196 0.151625 -0.025041 0.000000 0.000000 0.000000
# 3 -0.006327 -0.025041 0.011721 0.000000 0.000000 0.000000
# 4 0.000000 0.000000 0.000000 -0.003149 0.000000 0.000000
# 5 0.000000 0.000000 0.000000 0.000000 0.027347 0.000000
# 6 0.000000 0.000000 0.000000 0.000000 0.000000 0.146230
#
#
# Mechanical properties :
#
#
# Convention : Reuss Voigt Hill
#
# Bulk Modulus (GPa) = 9.79353 62.93224 36.36289
# Shear Modulus (GPa) = 10.48601 -43.89486 -16.70443
#
# Velocity S-wave (km/s) = 2.41031 -4.93145 -3.04217
# Velocity P-wave (km/s) = 3.62933 1.56235 2.79401
#
# Compressibility (1/GPa) = 0.10210821
#
# Stress axis : x y z
#
# Youngs Moduli (GPa) = 41.85985 6.59524 85.31628
#
# Poissons Ratio (x) = 0.07384 0.53976
# Poissons Ratio (y) = 0.46864 2.13643
# Poissons Ratio (z) = 0.26483 0.16515
#
# Static dielectric constant tensor:
#      x y z
#    x 1.629810 0.000000 0.000000 
#    y 0.000000 1.630500 0.000000 
#    z 0.000000 0.000000 1.630170 
# 
# From -- ./inp_files/24003.got.cif
#   From: 2010.05.17/outbox.cif.g08.bks.cpg/sg51_13_cif.got.tgz:24003.got - 2010.06.03 11:52:47.
