data_PCOD9405314
_publ_section_title
;
Structure prediction by ZEFSAII (Michael W. Deem and Ramdas Pophale) SiO2 
 PCOD9405314
Probable space group: P M M A
;
_chemical_formula_sum "Si O2"
_cell_formula_units_Z 48
_cell_length_a 8.221919
_cell_length_b 32.134399
_cell_length_c 9.489057
_cell_angle_alpha 90.000000
_cell_angle_beta 90.000000
_cell_angle_gamma 90.000000
_cell_volume 2507.069833
_symmetry_space_group_name_H-M "P M M A"
_symmetry_group_IT_number 51
_symmetry_cell_setting 'orthorhombic'
loop_
_space_group_symop_operation_xyz
x,y,z
1/2-x,-y,z
1/2+x,-y,-z
-x,y,-z
-x,-y,-z
1/2+x,y,-z
1/2-x,y,z
x,-y,z
loop_
_atom_site_type_symbol
_atom_site_label
_atom_site_fract_x
_atom_site_fract_y
_atom_site_fract_z
Si Si1 0.446725 0.829842 0.339341
Si Si2 0.446653 0.657534 0.159972
Si Si3 0.446080 0.000000 0.163108
Si Si4 0.444343 0.420447 0.339345
Si Si5 0.553189 0.909346 0.837454
Si Si6 0.553592 0.751447 0.840443
Si Si7 0.557029 0.500000 0.161577
O O1 0.500000 0.831224 0.500000
O O2 0.250000 0.829854 0.333867
O O3 0.504949 0.870515 0.254331
O O4 0.504571 0.787669 0.262881
O O5 0.250000 0.657548 0.162544
O O6 0.505859 0.622158 0.266663
O O7 0.502694 0.704518 0.194868
O O8 0.500000 0.648146 0.000000
O O9 0.502164 0.045067 0.218432
O O10 0.250000 0.000000 0.170043
O O11 0.500000 0.000000 0.000000
O O12 0.500000 0.424816 0.500000
O O13 0.250000 0.419082 0.339117
O O14 0.497110 0.459335 0.244587
O O15 0.750000 0.909124 0.835623
O O16 0.500000 0.904984 0.000000
O O17 0.750000 0.751178 0.837029
O O18 0.500000 0.760528 0.000000
O O19 0.750000 0.500000 0.162631
O O20 0.500000 0.500000 0.000000
#
# Coordination Sequence:
#
# PCOD9405314 Si02
#       7
#     8   8   4   8   8   8   4
#     4  10  21  34  48  69 100 133 167 205 250 301
#     4   9  19  35  56  80 107 137 172 213 258 307
#     4   8  14  26  45  68  94 120 154 200 249 294
#     4  11  23  39  58  83 114 147 181 219 263 312
#     4   9  17  30  49  72  95 124 161 204 249 298
#     4   9  18  34  54  77 102 131 169 213 256 303
#     4  12  25  42  63  86 112 144 182 224 267 312
#
# _framework density 19.145858
#
# number of rings (size 3 to 8) (size 9 to 14) (size 15 to 20)
#    0.000    2.333    0.000    2.500    0.000    4.667 
#    0.000    0.417    0.000    0.000    0.000    0.000 
#    0.000    0.000    0.000    0.000    0.000    0.000 
#
# Total GULP energy -267827.681195 kJ/mol
# GULP energy per Si atom -5579.743358 kJ/mol
# Density = 1.910228 g / cm^3
# Si number density = 19.145858 Si / 1000 Ang^3
#
#
#
# Elastic Constant Matrix: (Units=GPa)
#
#
# Indices 1 2 3 4 5 6 
#
# 1 19.2794 22.6758 13.4450 0.0000 0.0000 0.0000
# 2 22.6758 194.2920 128.4351 0.0000 0.0000 0.0000
# 3 13.4450 128.4351 145.1381 0.0000 0.0000 0.0000
# 4 0.0000 0.0000 0.0000 -2.6715 0.0000 0.0000
# 5 0.0000 0.0000 0.0000 0.0000 31.4058 0.0000
# 6 0.0000 0.0000 0.0000 0.0000 0.0000 1.9313
#
#
#
# Elastic Compliance Matrix: (Units=1/GPa)
#
#
# Indices 1 2 3 4 5 6 
#
# 1 0.060265 -0.008055 0.001545 0.000000 0.000000 0.000000
# 2 -0.008055 0.013478 -0.011181 0.000000 0.000000 0.000000
# 3 0.001545 -0.011181 0.016641 0.000000 0.000000 0.000000
# 4 0.000000 0.000000 0.000000 -0.374323 0.000000 0.000000
# 5 0.000000 0.000000 0.000000 0.000000 0.031841 0.000000
# 6 0.000000 0.000000 0.000000 0.000000 0.000000 0.517789
#
#
# Mechanical properties :
#
#
# Convention : Reuss Voigt Hill
#
# Bulk Modulus (GPa) = 18.18075 76.42458 47.30266
# Shear Modulus (GPa) = 15.65409 19.07669 17.36539
#
# Velocity S-wave (km/s) = 2.86251 3.15998 3.01492
# Velocity P-wave (km/s) = 4.52126 7.30190 6.07287
#
# Compressibility (1/GPa) = 0.05500324
#
# Stress axis : x y z
#
# Youngs Moduli (GPa) = 16.59329 74.19606 60.09365
#
# Poissons Ratio (x) = 0.59765 -0.09286
# Poissons Ratio (y) = 0.13366 0.67188
# Poissons Ratio (z) = -0.02564 0.82955
#
# Static dielectric constant tensor:
#      x y z
#    x 1.659130 0.000000 0.000000 
#    y 0.000000 1.719020 0.000000 
#    z 0.000000 0.000000 1.600010 
# 
# From -- ./inp_files/6112.got.cif
#   From: 2010.05.17/outbox.cif.g08.bks.cpg/sg51_4_cif.got.tgz:6112.got - 2010.06.03 11:52:47.
