data_PCOD9405364
_publ_section_title
;
Structure prediction by ZEFSAII (Michael W. Deem and Ramdas Pophale) SiO2 
 PCOD9405364
Probable space group: P M M A
;
_chemical_formula_sum "Si O2"
_cell_formula_units_Z 64
_cell_length_a 15.238929
_cell_length_b 23.658458
_cell_length_c 9.158503
_cell_angle_alpha 90.000000
_cell_angle_beta 90.000000
_cell_angle_gamma 90.000000
_cell_volume 3301.911073
_symmetry_space_group_name_H-M "P M M A"
_symmetry_group_IT_number 51
_symmetry_cell_setting 'orthorhombic'
loop_
_space_group_symop_operation_xyz
x,y,z
1/2-x,-y,z
1/2+x,-y,-z
-x,y,-z
-x,-y,-z
1/2+x,y,-z
1/2-x,y,z
x,-y,z
loop_
_atom_site_type_symbol
_atom_site_label
_atom_site_fract_x
_atom_site_fract_y
_atom_site_fract_z
Si Si1 0.352541 0.854647 0.337543
Si Si2 0.646795 0.760081 0.267990
Si Si3 0.650918 0.437679 0.880657
Si Si4 0.646573 0.883956 0.318388
Si Si5 0.087813 0.659235 0.909967
Si Si6 0.485720 0.935569 0.171901
Si Si7 0.144080 0.273592 0.409082
Si Si8 0.028060 0.381567 0.338158
O O1 0.250000 0.862074 0.297713
O O2 0.361590 0.874061 0.507241
O O3 0.416974 0.891577 0.240108
O O4 0.371715 0.787286 0.334326
O O5 0.750000 0.766556 0.294399
O O6 0.616126 0.824015 0.247662
O O7 0.632611 0.717340 0.136181
O O8 0.613915 0.734871 0.422181
O O9 0.750000 0.435722 0.825171
O O10 0.635450 0.500000 0.946585
O O11 0.584305 0.427230 0.749316
O O12 0.638767 0.386936 0.995464
O O13 0.750000 0.895016 0.287389
O O14 0.578347 0.928585 0.256085
O O15 0.056674 0.630750 0.759866
O O16 0.000000 0.672288 0.000000
O O17 0.453732 0.000000 0.190494
O O18 0.500000 0.925408 0.000000
O O19 0.250000 0.284478 0.403726
O O20 0.088711 0.324955 0.343809
O O21 0.000000 0.397155 0.500000
#
# Coordination Sequence:
#
# PCOD9405364 Si02
#       8
#     8   8   8   8   8   8   8   8
#     4   9  20  39  63  90 117 154 200 250 302 355
#     4   9  17  33  56  83 116 149 186 235 291 351
#     4  10  23  44  62  77 112 164 206 243 290 350
#     4   9  20  38  61  88 117 154 198 252 305 355
#     4  10  21  34  56  86 116 154 194 235 290 350
#     4  11  25  41  58  83 119 163 203 248 299 357
#     4   9  18  34  58  86 120 152 182 231 296 358
#     4  11  21  34  58  92 119 147 190 248 304 347
#
# _framework density 19.382715000000001
#
# number of rings (size 3 to 8) (size 9 to 14) (size 15 to 20)
#    0.000    2.250    1.250    2.625    1.750    5.000 
#    2.250    2.500    0.000    1.500    0.000    0.000 
#    0.000    0.000    0.000    0.000    0.000    0.000 
#
# Total GULP energy -357096.571183 kJ/mol
# GULP energy per Si atom -5579.633925 kJ/mol
# Density = 1.933860 g / cm^3
# Si number density = 19.382715 Si / 1000 Ang^3
#
#
#
# Elastic Constant Matrix: (Units=GPa)
#
#
# Indices 1 2 3 4 5 6 
#
# 1 52.8134 28.9534 11.1180 0.0000 0.0000 0.0000
# 2 28.9534 90.2372 24.4423 0.0000 0.0000 0.0000
# 3 11.1180 24.4423 53.3735 0.0000 0.0000 0.0000
# 4 0.0000 0.0000 0.0000 45.1794 0.0000 0.0000
# 5 0.0000 0.0000 0.0000 0.0000 11.0775 0.0000
# 6 0.0000 0.0000 0.0000 0.0000 0.0000 25.7993
#
#
#
# Elastic Compliance Matrix: (Units=1/GPa)
#
#
# Indices 1 2 3 4 5 6 
#
# 1 0.023098 -0.006973 -0.001618 0.000000 0.000000 0.000000
# 2 -0.006973 0.014756 -0.005305 0.000000 0.000000 0.000000
# 3 -0.001618 -0.005305 0.021502 0.000000 0.000000 0.000000
# 4 0.000000 0.000000 0.000000 0.022134 0.000000 0.000000
# 5 0.000000 0.000000 0.000000 0.000000 0.090273 0.000000
# 6 0.000000 0.000000 0.000000 0.000000 0.000000 0.038761
#
#
# Mechanical properties :
#
#
# Convention : Reuss Voigt Hill
#
# Bulk Modulus (GPa) = 31.68143 36.16128 33.92135
# Shear Modulus (GPa) = 20.09337 25.20526 22.64932
#
# Velocity S-wave (km/s) = 3.22322 3.61002 3.42209
# Velocity P-wave (km/s) = 5.49844 6.00610 5.75787
#
# Compressibility (1/GPa) = 0.03156423
#
# Stress axis : x y z
#
# Youngs Moduli (GPa) = 43.29394 67.76823 46.50639
#
# Poissons Ratio (x) = 0.47254 0.07526
# Poissons Ratio (y) = 0.30188 0.24672
# Poissons Ratio (z) = 0.07006 0.35952
#
# Static dielectric constant tensor:
#      x y z
#    x 1.681400 0.000000 0.000000 
#    y 0.000000 1.695830 0.000000 
#    z 0.000000 0.000000 1.672460 
# 
# From -- ./inp_files/8686.got.cif
#   From: 2010.05.17/outbox.cif.g08.bks.cpg/sg51_5_cif.got.tgz:8686.got - 2010.06.03 11:52:47.
