data_PCOD9405697
_publ_section_title
;
Structure prediction by ZEFSAII (Michael W. Deem and Ramdas Pophale) SiO2 
 PCOD9405697
Probable space group: P M M A
;
_chemical_formula_sum "Si O2"
_cell_formula_units_Z 40
_cell_length_a 9.083607
_cell_length_b 7.607715
_cell_length_c 30.367758
_cell_angle_alpha 90.000000
_cell_angle_beta 90.000000
_cell_angle_gamma 90.000000
_cell_volume 2098.578895
_symmetry_space_group_name_H-M "P M M A"
_symmetry_group_IT_number 51
_symmetry_cell_setting 'orthorhombic'
loop_
_space_group_symop_operation_xyz
x,y,z
1/2-x,-y,z
1/2+x,-y,-z
-x,y,-z
-x,-y,-z
1/2+x,y,-z
1/2-x,y,z
x,-y,z
loop_
_atom_site_type_symbol
_atom_site_label
_atom_site_fract_x
_atom_site_fract_y
_atom_site_fract_z
Si Si1 0.071400 0.000000 0.709087
Si Si2 0.428246 0.000000 0.607167
Si Si3 0.584331 0.789455 0.043022
Si Si4 0.925010 0.707802 0.547368
Si Si5 0.416831 0.711416 0.133096
Si Si6 0.927048 0.294485 0.222812
O O1 0.026263 0.000000 0.658406
O O2 0.025644 0.828770 0.736901
O O3 0.250000 0.000000 0.708712
O O4 0.495184 0.169414 0.582683
O O5 0.250000 0.000000 0.604083
O O6 0.750000 0.719261 0.045392
O O7 0.499401 0.756614 0.088218
O O8 0.593540 0.000000 0.038003
O O9 0.500000 0.720408 0.000000
O O10 0.750000 0.745249 0.545341
O O11 0.943320 0.500000 0.557078
O O12 0.000000 0.741580 0.500000
O O13 0.250000 0.778357 0.132251
O O14 0.412380 0.500000 0.135321
O O15 0.501158 0.768544 0.177147
O O16 0.750000 0.282952 0.218420
O O17 0.964106 0.500000 0.230038
#
# Coordination Sequence:
#
# PCOD9405697 Si02
#       6
#     4   4   8   8   8   8
#     4   9  20  36  56  83 110 145 192 232 281 342
#     4  11  22  36  57  87 122 157 195 244 295 350
#     4  10  21  36  54  77 105 137 172 212 259 316
#     4  10  21  38  60  86 118 158 202 246 292 344
#     4  10  21  36  54  78 106 136 172 215 266 324
#     4   9  18  35  57  79 106 140 182 233 279 325
#
# _framework density 19.060518999999999
#
# number of rings (size 3 to 8) (size 9 to 14) (size 15 to 20)
#    0.000    2.200    0.000    2.400    1.400    4.800 
#    0.000    4.000    0.000    2.400    0.000    0.000 
#    0.000    0.000    0.000    0.000    0.000    0.000 
#
# Total GULP energy -223357.189320 kJ/mol
# GULP energy per Si atom -5583.929733 kJ/mol
# Density = 1.901714 g / cm^3
# Si number density = 19.060519 Si / 1000 Ang^3
#
#
#
# Elastic Constant Matrix: (Units=GPa)
#
#
# Indices 1 2 3 4 5 6 
#
# 1 110.4714 50.8570 86.5578 0.0000 0.0000 0.0000
# 2 50.8570 79.7056 79.5598 0.0000 0.0000 0.0000
# 3 86.5578 79.5598 212.8190 0.0000 0.0000 0.0000
# 4 0.0000 0.0000 0.0000 -8.2027 0.0000 0.0000
# 5 0.0000 0.0000 0.0000 0.0000 31.5349 0.0000
# 6 0.0000 0.0000 0.0000 0.0000 0.0000 19.7903
#
#
#
# Elastic Compliance Matrix: (Units=1/GPa)
#
#
# Indices 1 2 3 4 5 6 
#
# 1 0.014616 -0.005411 -0.003922 0.000000 0.000000 0.000000
# 2 -0.005411 0.022018 -0.006030 0.000000 0.000000 0.000000
# 3 -0.003922 -0.006030 0.008548 0.000000 0.000000 0.000000
# 4 0.000000 0.000000 0.000000 -0.121911 0.000000 0.000000
# 5 0.000000 0.000000 0.000000 0.000000 0.031711 0.000000
# 6 0.000000 0.000000 0.000000 0.000000 0.000000 0.050530
#
#
# Mechanical properties :
#
#
# Convention : Reuss Voigt Hill
#
# Bulk Modulus (GPa) = 69.17677 92.99390 81.08534
# Shear Modulus (GPa) = 121.77936 21.02594 71.40265
#
# Velocity S-wave (km/s) = 8.00185 3.32492 6.12718
# Velocity P-wave (km/s) = 11.03380 7.97714 9.62755
#
# Compressibility (1/GPa) = 0.01445572
#
# Stress axis : x y z
#
# Youngs Moduli (GPa) = 68.41772 45.41678 116.98356
#
# Poissons Ratio (x) = 0.24577 0.45877
# Poissons Ratio (y) = 0.37024 0.70545
# Poissons Ratio (z) = 0.26831 0.27388
#
# Static dielectric constant tensor:
#      x y z
#    x 1.657610 0.000000 0.000000 
#    y 0.000000 1.688370 0.000000 
#    z 0.000000 0.000000 1.620190 
# 
# From -- ./inp_files/36012.got.cif
#   From: 2010.05.17/outbox.cif.g08.bks.cpg/sg51_19_cif.got.tgz:36012.got - 2010.06.03 11:52:47.
