data_PCOD9405732
_publ_section_title
;
Structure prediction by ZEFSAII (Michael W. Deem and Ramdas Pophale) SiO2 
 PCOD9405732
Probable space group: P M M A
;
_chemical_formula_sum "Si O2"
_cell_formula_units_Z 40
_cell_length_a 26.459514
_cell_length_b 7.683595
_cell_length_c 9.386528
_cell_angle_alpha 90.000000
_cell_angle_beta 90.000000
_cell_angle_gamma 90.000000
_cell_volume 1908.320467
_symmetry_space_group_name_H-M "P M M A"
_symmetry_group_IT_number 51
_symmetry_cell_setting 'orthorhombic'
loop_
_space_group_symop_operation_xyz
x,y,z
1/2-x,-y,z
1/2+x,-y,-z
-x,y,-z
-x,-y,-z
1/2+x,y,-z
1/2-x,y,z
x,-y,z
loop_
_atom_site_type_symbol
_atom_site_label
_atom_site_fract_x
_atom_site_fract_y
_atom_site_fract_z
Si Si1 0.405099 0.294829 0.316033
Si Si2 0.806688 0.209904 0.174229
Si Si3 0.902526 0.788370 0.352966
Si Si4 0.693422 0.707986 0.844370
Si Si5 0.006188 0.202728 0.842485
O O1 0.407580 0.500000 0.283850
O O2 0.407067 0.269840 0.484831
O O3 0.352370 0.224716 0.251836
O O4 0.453463 0.212363 0.240298
O O5 0.750000 0.273071 0.208472
O O6 0.850331 0.270416 0.279973
O O7 0.806035 0.000000 0.180510
O O8 0.817791 0.258861 0.010719
O O9 0.949183 0.724544 0.256189
O O10 0.903170 0.000000 0.354868
O O11 0.750000 0.778015 0.814615
O O12 0.695714 0.500000 0.823383
O O13 0.020101 0.000000 0.863790
O O14 0.000000 0.281191 0.000000
#
# Coordination Sequence:
#
# PCOD9405732 Si02
#       5
#     8   8   8   8   8
#     4  11  23  36  53  79 109 140 176 218 260 306
#     4   9  18  34  57  83 107 134 175 223 263 304
#     4  10  21  36  54  78 109 141 172 211 262 317
#     4   9  19  36  55  76 105 140 176 214 259 311
#     4  10  21  38  59  79 102 137 177 215 262 319
#
# _framework density 20.960840000000001
#
# number of rings (size 3 to 8) (size 9 to 14) (size 15 to 20)
#    0.000    2.200    0.000    2.400    0.000    8.400 
#    0.000    0.000    0.000    0.000    0.000    0.000 
#    0.000    0.000    0.000    0.000    0.000    0.000 
#
# Total GULP energy -223422.400288 kJ/mol
# GULP energy per Si atom -5585.560007 kJ/mol
# Density = 2.091313 g / cm^3
# Si number density = 20.960840 Si / 1000 Ang^3
#
#
#
# Elastic Constant Matrix: (Units=GPa)
#
#
# Indices 1 2 3 4 5 6 
#
# 1 137.1298 -12.8102 95.8040 0.0000 0.0000 0.0000
# 2 -12.8102 32.5908 -20.4799 0.0000 0.0000 0.0000
# 3 95.8040 -20.4799 141.4250 0.0000 0.0000 0.0000
# 4 0.0000 0.0000 0.0000 27.8383 0.0000 0.0000
# 5 0.0000 0.0000 0.0000 0.0000 -42.5710 0.0000
# 6 0.0000 0.0000 0.0000 0.0000 0.0000 13.4427
#
#
#
# Elastic Compliance Matrix: (Units=1/GPa)
#
#
# Indices 1 2 3 4 5 6 
#
# 1 0.013852 -0.000497 -0.009456 0.000000 0.000000 0.000000
# 2 -0.000497 0.033773 0.005227 0.000000 0.000000 0.000000
# 3 -0.009456 0.005227 0.014233 0.000000 0.000000 0.000000
# 4 0.000000 0.000000 0.000000 0.035922 0.000000 0.000000
# 5 0.000000 0.000000 0.000000 0.000000 -0.023490 0.000000
# 6 0.000000 0.000000 0.000000 0.000000 0.000000 0.074390
#
#
# Mechanical properties :
#
#
# Convention : Reuss Voigt Hill
#
# Bulk Modulus (GPa) = 19.08116 48.46372 33.77244
# Shear Modulus (GPa) = 28.47388 16.31743 22.39565
#
# Velocity S-wave (km/s) = 3.68969 2.79314 3.27226
# Velocity P-wave (km/s) = 5.22252 5.79426 5.51580
#
# Compressibility (1/GPa) = 0.05240772
#
# Stress axis : x y z
#
# Youngs Moduli (GPa) = 72.19213 29.60947 70.25795
#
# Poissons Ratio (x) = 0.01472 0.66433
# Poissons Ratio (y) = 0.03589 -0.36727
# Poissons Ratio (z) = 0.68262 -0.15478
#
# Static dielectric constant tensor:
#      x y z
#    x 1.756420 0.000000 0.000000 
#    y 0.000000 1.799790 0.000000 
#    z 0.000000 0.000000 1.694020 
# 
# From -- ./inp_files/11417.got.cif
#   From: 2010.05.17/outbox.cif.g08.bks.cpg/sg51_6_cif.got.tgz:11417.got - 2010.06.03 11:52:47.
