data_PCOD9405698
_publ_section_title
;
Structure prediction by ZEFSAII (Michael W. Deem and Ramdas Pophale) SiO2 
 PCOD9405698
Probable space group: P M M A
;
_chemical_formula_sum "Si O2"
_cell_formula_units_Z 48
_cell_length_a 30.657369
_cell_length_b 8.995010
_cell_length_c 10.245256
_cell_angle_alpha 90.000000
_cell_angle_beta 90.000000
_cell_angle_gamma 90.000000
_cell_volume 2825.266021
_symmetry_space_group_name_H-M "P M M A"
_symmetry_group_IT_number 51
_symmetry_cell_setting 'orthorhombic'
loop_
_space_group_symop_operation_xyz
x,y,z
1/2-x,-y,z
1/2+x,-y,-z
-x,y,-z
-x,-y,-z
1/2+x,y,-z
1/2-x,y,z
x,-y,z
loop_
_atom_site_type_symbol
_atom_site_label
_atom_site_fract_x
_atom_site_fract_y
_atom_site_fract_z
Si Si1 0.630618 0.678225 0.402613
Si Si2 0.200146 0.821075 0.100123
Si Si3 0.366093 0.322489 0.899005
Si Si4 0.533280 0.321166 0.114693
Si Si5 0.300902 0.178670 0.401787
Si Si6 0.536679 0.177981 0.393095
O O1 0.627315 0.500000 0.411263
O O2 0.642697 0.716353 0.252458
O O3 0.666412 0.740348 0.501265
O O4 0.583211 0.749308 0.428011
O O5 0.250000 0.773999 0.071299
O O6 0.190396 0.780162 0.250596
O O7 0.198998 0.000000 0.093735
O O8 0.166227 0.754999 0.998762
O O9 0.361647 0.500000 0.912170
O O10 0.416851 0.284272 0.923413
O O11 0.531392 0.500000 0.135014
O O12 0.523745 0.241310 0.251289
O O13 0.500000 0.281524 0.000000
O O14 0.250000 0.212998 0.429065
O O15 0.306002 0.000000 0.413278
O O16 0.500000 0.214027 0.500000
O O17 0.541422 0.000000 0.386629
#
# Coordination Sequence:
#
# PCOD9405698 Si02
#       6
#     8   8   8   8   8   8
#     4  10  21  36  54  77 105 137 174 214 257 308
#     4   9  19  35  53  74 101 134 171 209 252 303
#     4   9  19  34  51  75 104 133 168 209 251 297
#     4   9  19  36  55  76 105 138 171 209 255 308
#     4   9  19  36  55  76 105 138 172 213 258 304
#     4  10  21  36  54  78 106 135 172 216 259 307
#
# _framework density 16.989550999999999
#
# number of rings (size 3 to 8) (size 9 to 14) (size 15 to 20)
#    0.000    2.667    0.000    3.000    0.000    8.333 
#    0.000    8.333    0.000    0.000    0.000    0.000 
#    0.000    0.000    0.000    0.000    0.000    0.000 
#
# Total GULP energy -267745.580365 kJ/mol
# GULP energy per Si atom -5578.032924 kJ/mol
# Density = 1.695088 g / cm^3
# Si number density = 16.989551 Si / 1000 Ang^3
#
#
#
# Elastic Constant Matrix: (Units=GPa)
#
#
# Indices 1 2 3 4 5 6 
#
# 1 145.5690 65.1334 140.8814 0.0000 0.0000 0.0000
# 2 65.1334 44.1654 67.5698 0.0000 0.0000 0.0000
# 3 140.8814 67.5698 155.6877 0.0000 0.0000 0.0000
# 4 0.0000 0.0000 0.0000 10.8879 0.0000 0.0000
# 5 0.0000 0.0000 0.0000 0.0000 41.1610 0.0000
# 6 0.0000 0.0000 0.0000 0.0000 0.0000 27.8108
#
#
#
# Elastic Compliance Matrix: (Units=1/GPa)
#
#
# Indices 1 2 3 4 5 6 
#
# 1 0.058778 -0.015803 -0.046330 0.000000 0.000000 0.000000
# 2 -0.015803 0.071636 -0.016791 0.000000 0.000000 0.000000
# 3 -0.046330 -0.016791 0.055634 0.000000 0.000000 0.000000
# 4 0.000000 0.000000 0.000000 0.091845 0.000000 0.000000
# 5 0.000000 0.000000 0.000000 0.000000 0.024295 0.000000
# 6 0.000000 0.000000 0.000000 0.000000 0.000000 0.035957
#
#
# Mechanical properties :
#
#
# Convention : Reuss Voigt Hill
#
# Bulk Modulus (GPa) = 35.45855 99.17683 67.31769
# Shear Modulus (GPa) = 9.89329 20.76110 15.32720
#
# Velocity S-wave (km/s) = 2.41574 3.49949 3.00685
# Velocity P-wave (km/s) = 5.35698 8.65046 7.19471
#
# Compressibility (1/GPa) = 0.02820194
#
# Stress axis : x y z
#
# Youngs Moduli (GPa) = 17.01316 13.95938 17.97459
#
# Poissons Ratio (x) = 0.22060 0.83276
# Poissons Ratio (y) = 0.26885 0.30181
# Poissons Ratio (z) = 0.78821 0.23439
#
# Static dielectric constant tensor:
#      x y z
#    x 1.554090 0.000000 0.000000 
#    y 0.000000 1.567480 0.000000 
#    z 0.000000 0.000000 1.553140 
# 
# From -- ./inp_files/12753.got.cif
#   From: 2010.05.17/outbox.cif.g08.bks.cpg/sg51_7_cif.got.tgz:12753.got - 2010.06.03 11:52:47.
