data_PCOD9405571
_publ_section_title
;
Structure prediction by ZEFSAII (Michael W. Deem and Ramdas Pophale) SiO2 
 PCOD9405571
Probable space group: P M M A
;
_chemical_formula_sum "Si O2"
_cell_formula_units_Z 40
_cell_length_a 8.583779
_cell_length_b 26.963360
_cell_length_c 9.277755
_cell_angle_alpha 90.000000
_cell_angle_beta 90.000000
_cell_angle_gamma 90.000000
_cell_volume 2147.313417
_symmetry_space_group_name_H-M "P M M A"
_symmetry_group_IT_number 51
_symmetry_cell_setting 'orthorhombic'
loop_
_space_group_symop_operation_xyz
x,y,z
1/2-x,-y,z
1/2+x,-y,-z
-x,y,-z
-x,-y,-z
1/2+x,y,-z
1/2-x,y,z
x,-y,z
loop_
_atom_site_type_symbol
_atom_site_label
_atom_site_fract_x
_atom_site_fract_y
_atom_site_fract_z
Si Si1 0.061387 0.000000 0.660998
Si Si2 0.437893 0.096219 0.837372
Si Si3 0.935702 0.308466 0.836212
Si Si4 0.437028 0.205002 0.836050
Si Si5 0.437862 0.500000 0.837958
Si Si6 0.937363 0.402131 0.337944
O O1 0.008686 0.049591 0.744036
O O2 0.000000 0.000000 0.500000
O O3 0.250000 0.000000 0.660147
O O4 0.250000 0.095133 0.844181
O O5 0.481039 0.150732 0.775934
O O6 0.500000 0.091854 0.000000
O O7 0.750000 0.309613 0.842000
O O8 0.991224 0.255280 0.773887
O O9 0.999709 0.353467 0.741993
O O10 0.000000 0.312822 0.000000
O O11 0.250000 0.209479 0.837049
O O12 0.500000 0.203605 0.000000
O O13 0.250000 0.500000 0.843270
O O14 0.487241 0.549211 0.751856
O O15 0.500000 0.500000 0.000000
O O16 0.750000 0.400643 0.340371
O O17 0.000000 0.404863 0.500000
#
# Coordination Sequence:
#
# PCOD9405571 Si02
#       6
#     4   8   8   8   4   8
#     4  10  21  36  50  72 104 138 173 214 262 318
#     4   9  18  32  53  78 104 133 173 220 267 316
#     4  11  21  35  56  83 112 146 184 226 270 319
#     4   9  16  29  50  77 106 137 173 221 270 316
#     4  10  23  40  62  88 114 144 183 226 271 320
#     4  11  23  40  59  84 115 149 185 225 271 323
#
# _framework density 18.627929999999999
#
# number of rings (size 3 to 8) (size 9 to 14) (size 15 to 20)
#    0.000    2.000    0.000    5.400    0.000    4.800 
#    0.000    1.000    0.000    2.400    0.000    0.000 
#    0.000    0.000    0.000    0.000    0.000    0.000 
#
# Total GULP energy -223253.474589 kJ/mol
# GULP energy per Si atom -5581.336865 kJ/mol
# Density = 1.858553 g / cm^3
# Si number density = 18.627930 Si / 1000 Ang^3
#
#
#
# Elastic Constant Matrix: (Units=GPa)
#
#
# Indices 1 2 3 4 5 6 
#
# 1 69.1612 56.1754 31.0516 0.0000 0.0000 0.0000
# 2 56.1754 237.4069 99.3730 0.0000 0.0000 0.0000
# 3 31.0516 99.3730 109.8275 0.0000 0.0000 0.0000
# 4 0.0000 0.0000 0.0000 -2.0842 0.0000 0.0000
# 5 0.0000 0.0000 0.0000 0.0000 30.0796 0.0000
# 6 0.0000 0.0000 0.0000 0.0000 0.0000 11.1000
#
#
#
# Elastic Compliance Matrix: (Units=1/GPa)
#
#
# Indices 1 2 3 4 5 6 
#
# 1 0.018170 -0.003459 -0.002007 0.000000 0.000000 0.000000
# 2 -0.003459 0.007439 -0.005752 0.000000 0.000000 0.000000
# 3 -0.002007 -0.005752 0.014878 0.000000 0.000000 0.000000
# 4 0.000000 0.000000 0.000000 -0.479808 0.000000 0.000000
# 5 0.000000 0.000000 0.000000 0.000000 0.033245 0.000000
# 6 0.000000 0.000000 0.000000 0.000000 0.000000 0.090090
#
#
# Mechanical properties :
#
#
# Convention : Reuss Voigt Hill
#
# Bulk Modulus (GPa) = 55.40723 87.73284 71.57004
# Shear Modulus (GPa) = -17.38935 23.13878 2.87472
#
# Velocity S-wave (km/s) = -3.05865 3.52825 1.24362
# Velocity P-wave (km/s) = 4.16352 7.98735 6.36917
#
# Compressibility (1/GPa) = 0.01804819
#
# Stress axis : x y z
#
# Youngs Moduli (GPa) = 55.03616 134.43521 67.21529
#
# Poissons Ratio (x) = 0.46503 0.13492
# Poissons Ratio (y) = 0.19038 0.38665
# Poissons Ratio (z) = 0.11047 0.77333
#
# Static dielectric constant tensor:
#      x y z
#    x 1.626080 0.000000 0.000000 
#    y 0.000000 1.685630 0.000000 
#    z 0.000000 0.000000 1.555370 
# 
# From -- ./inp_files/5559.got.cif
#   From: 2010.05.17/outbox.cif.g08.bks.cpg/sg51_3_cif.got.tgz:5559.got - 2010.06.03 11:52:47.
