data_PCOD9405719
_publ_section_title
;
Structure prediction by ZEFSAII (Michael W. Deem and Ramdas Pophale) SiO2 
 PCOD9405719
Probable space group: P M M A
;
_chemical_formula_sum "Si O2"
_cell_formula_units_Z 48
_cell_length_a 8.982875
_cell_length_b 9.806763
_cell_length_c 31.666777
_cell_angle_alpha 90.000000
_cell_angle_beta 90.000000
_cell_angle_gamma 90.000000
_cell_volume 2789.619049
_symmetry_space_group_name_H-M "P M M A"
_symmetry_group_IT_number 51
_symmetry_cell_setting 'orthorhombic'
loop_
_space_group_symop_operation_xyz
x,y,z
1/2-x,-y,z
1/2+x,-y,-z
-x,y,-z
-x,-y,-z
1/2+x,y,-z
1/2-x,y,z
x,-y,z
loop_
_atom_site_type_symbol
_atom_site_label
_atom_site_fract_x
_atom_site_fract_y
_atom_site_fract_z
Si Si1 0.571037 0.340768 0.287677
Si Si2 0.571739 0.839755 0.207869
Si Si3 0.572635 0.661001 0.045022
Si Si4 0.927428 0.838858 0.881548
Si Si5 0.429124 0.840777 0.455635
Si Si6 0.070855 0.340888 0.376349
O O1 0.750000 0.331463 0.291274
O O2 0.532319 0.500000 0.280849
O O3 0.524564 0.250126 0.247835
O O4 0.499209 0.296765 0.331900
O O5 0.750000 0.823121 0.202230
O O6 0.490842 0.800988 0.164501
O O7 0.542938 0.000000 0.215895
O O8 0.750000 0.680310 0.043017
O O9 0.543228 0.500000 0.052487
O O10 0.503465 0.750366 0.082187
O O11 0.500000 0.697008 0.000000
O O12 0.750000 0.820824 0.882572
O O13 0.960104 0.000000 0.887793
O O14 0.500000 0.796862 0.500000
O O15 0.250000 0.831476 0.458909
O O16 0.477493 0.750024 0.415973
O O17 0.467889 0.000000 0.448882
O O18 0.250000 0.332096 0.373229
O O19 0.031393 0.500000 0.383048
#
# Coordination Sequence:
#
# PCOD9405719 Si02
#       6
#     8   8   8   8   8   8
#     4   9  18  32  49  70  96 125 159 199 241 287
#     4   9  18  33  51  71  98 131 165 203 247 293
#     4  10  21  37  57  80 106 137 173 213 257 304
#     4  10  21  36  54  78 107 138 173 212 254 302
#     4   9  18  32  48  67  92 121 153 190 232 278
#     4   9  18  32  48  67  93 123 154 190 234 283
#
# _framework density 17.20665
#
# number of rings (size 3 to 8) (size 9 to 14) (size 15 to 20)
#    0.000    2.667    0.000    1.000    0.000    5.333 
#    0.000    1.667    0.000    0.000    0.000    0.000 
#    0.000    0.000    0.000    0.000    0.000    0.000 
#
# Total GULP energy -267750.155051 kJ/mol
# GULP energy per Si atom -5578.128230 kJ/mol
# Density = 1.716749 g / cm^3
# Si number density = 17.206650 Si / 1000 Ang^3
#
#
#
# Elastic Constant Matrix: (Units=GPa)
#
#
# Indices 1 2 3 4 5 6 
#
# 1 31.5929 42.1738 66.3702 0.0000 0.0000 0.0000
# 2 42.1738 69.3430 107.6993 0.0000 0.0000 0.0000
# 3 66.3702 107.6993 217.6111 0.0000 0.0000 0.0000
# 4 0.0000 0.0000 0.0000 43.2076 0.0000 0.0000
# 5 0.0000 0.0000 0.0000 0.0000 38.0146 0.0000
# 6 0.0000 0.0000 0.0000 0.0000 0.0000 51.8303
#
#
#
# Elastic Compliance Matrix: (Units=1/GPa)
#
#
# Indices 1 2 3 4 5 6 
#
# 1 0.168683 -0.098071 -0.002910 0.000000 0.000000 0.000000
# 2 -0.098071 0.119359 -0.029162 0.000000 0.000000 0.000000
# 3 -0.002910 -0.029162 0.019915 0.000000 0.000000 0.000000
# 4 0.000000 0.000000 0.000000 0.023144 0.000000 0.000000
# 5 0.000000 0.000000 0.000000 0.000000 0.026306 0.000000
# 6 0.000000 0.000000 0.000000 0.000000 0.000000 0.019294
#
#
# Mechanical properties :
#
#
# Convention : Reuss Voigt Hill
#
# Bulk Modulus (GPa) = 20.97704 83.44817 52.21261
# Shear Modulus (GPa) = 7.65841 33.43077 20.54459
#
# Velocity S-wave (km/s) = 2.11199 4.41261 3.45917
# Velocity P-wave (km/s) = 4.26205 8.63507 6.80917
#
# Compressibility (1/GPa) = 0.04767117
#
# Stress axis : x y z
#
# Youngs Moduli (GPa) = 5.92828 8.37808 50.21227
#
# Poissons Ratio (x) = 0.82165 0.14613
# Poissons Ratio (y) = 0.58140 1.46427
# Poissons Ratio (z) = 0.01725 0.24432
#
# Static dielectric constant tensor:
#      x y z
#    x 1.573460 0.000000 0.000000 
#    y 0.000000 1.577930 0.000000 
#    z 0.000000 0.000000 1.549090 
# 
# From -- ./inp_files/36131.got.cif
#   From: 2010.05.17/outbox.cif.g08.bks.cpg/sg51_19_cif.got.tgz:36131.got - 2010.06.03 11:52:47.
