data_PCOD9405354
_publ_section_title
;
Structure prediction by ZEFSAII (Michael W. Deem and Ramdas Pophale) SiO2 
 PCOD9405354
Probable space group: P M M A
;
_chemical_formula_sum "Si O2"
_cell_formula_units_Z 64
_cell_length_a 19.718030
_cell_length_b 7.327532
_cell_length_c 20.043295
_cell_angle_alpha 90.000000
_cell_angle_beta 90.000000
_cell_angle_gamma 90.000000
_cell_volume 2895.945372
_symmetry_space_group_name_H-M "P M M A"
_symmetry_group_IT_number 51
_symmetry_cell_setting 'orthorhombic'
loop_
_space_group_symop_operation_xyz
x,y,z
1/2-x,-y,z
1/2+x,-y,-z
-x,y,-z
-x,-y,-z
1/2+x,y,-z
1/2-x,y,z
x,-y,z
loop_
_atom_site_type_symbol
_atom_site_label
_atom_site_fract_x
_atom_site_fract_y
_atom_site_fract_z
Si Si1 0.175069 0.219437 0.776306
Si Si2 0.396015 0.777918 0.286152
Si Si3 0.068767 0.777970 0.536971
Si Si4 0.827654 0.777304 0.574661
Si Si5 0.671557 0.777250 0.853105
Si Si6 0.566122 0.796451 0.965090
Si Si7 0.175269 0.286263 0.932705
Si Si8 0.450736 0.776976 0.689021
O O1 0.250000 0.284086 0.754640
O O2 0.166970 0.265652 0.853823
O O3 0.111018 0.285297 0.734948
O O4 0.175774 0.000000 0.770825
O O5 0.362981 0.720341 0.356254
O O6 0.353413 0.723338 0.220965
O O7 0.474754 0.720464 0.286250
O O8 0.395492 0.000000 0.285921
O O9 0.130809 0.718623 0.490552
O O10 0.064353 0.719132 0.613314
O O11 0.000000 0.724391 0.500000
O O12 0.070449 0.000000 0.538271
O O13 0.750000 0.719667 0.572896
O O14 0.828868 0.000000 0.574948
O O15 0.750000 0.719735 0.866130
O O16 0.613092 0.717345 0.905621
O O17 0.672243 0.000000 0.856473
O O18 0.544358 0.000000 0.941924
O O19 0.500000 0.708648 0.000000
O O20 0.618308 0.809419 0.025685
O O21 0.250000 0.217322 0.950546
O O22 0.172164 0.500000 0.948962
O O23 0.451591 0.000000 0.689449
#
# Coordination Sequence:
#
# PCOD9405354 Si02
#       8
#     8   8   8   8   8   8   8   8
#     4   9  18  31  48  71  97 126 162 204 247 291
#     4   9  15  23  36  55  79 113 153 193 234 279
#     4   9  14  22  32  48  76 116 158 190 228 279
#     4   9  15  21  31  48  73 109 152 192 229 276
#     4   9  17  28  42  62  90 120 152 194 240 284
#     4  10  21  34  52  78 103 129 163 204 249 299
#     4  10  21  37  56  75  98 132 168 202 247 302
#     4   9  16  24  39  58  85 121 157 197 238 285
#
# _framework density 22.099864
#
# number of rings (size 3 to 8) (size 9 to 14) (size 15 to 20)
#    0.000    2.750    1.250    1.125    1.750    3.500 
#    0.000    2.500    0.000    0.000    0.000    0.000 
#    0.000    0.500    0.000    0.250    0.000   11.625 
#
# Total GULP energy -357306.332719 kJ/mol
# GULP energy per Si atom -5582.911449 kJ/mol
# Density = 2.204956 g / cm^3
# Si number density = 22.099864 Si / 1000 Ang^3
#
#
#
# Elastic Constant Matrix: (Units=GPa)
#
#
# Indices 1 2 3 4 5 6 
#
# 1 168.1009 6.4883 86.3505 0.0000 0.0000 0.0000
# 2 6.4883 86.4036 -0.2455 0.0000 0.0000 0.0000
# 3 86.3505 -0.2455 92.7685 0.0000 0.0000 0.0000
# 4 0.0000 0.0000 0.0000 51.7345 0.0000 0.0000
# 5 0.0000 0.0000 0.0000 0.0000 44.7870 0.0000
# 6 0.0000 0.0000 0.0000 0.0000 0.0000 -18.6072
#
#
#
# Elastic Compliance Matrix: (Units=1/GPa)
#
#
# Indices 1 2 3 4 5 6 
#
# 1 0.011468 -0.000891 -0.010677 0.000000 0.000000 0.000000
# 2 -0.000891 0.011643 0.000861 0.000000 0.000000 0.000000
# 3 -0.010677 0.000861 0.020720 0.000000 0.000000 0.000000
# 4 0.000000 0.000000 0.000000 0.019329 0.000000 0.000000
# 5 0.000000 0.000000 0.000000 0.000000 0.022328 0.000000
# 6 0.000000 0.000000 0.000000 0.000000 0.000000 -0.053743
#
#
# Mechanical properties :
#
#
# Convention : Reuss Voigt Hill
#
# Bulk Modulus (GPa) = 44.61215 59.16217 51.88716
# Shear Modulus (GPa) = 82.46530 32.56153 57.51341
#
# Velocity S-wave (km/s) = 6.11521 3.84263 5.10694
# Velocity P-wave (km/s) = 8.37207 6.82028 7.63570
#
# Compressibility (1/GPa) = 0.02241542
#
# Stress axis : x y z
#
# Youngs Moduli (GPa) = 87.20235 85.88863 48.26318
#
# Poissons Ratio (x) = 0.07657 0.51529
# Poissons Ratio (y) = 0.07774 -0.04154
# Poissons Ratio (z) = 0.93102 -0.07392
#
# Static dielectric constant tensor:
#      x y z
#    x 1.759690 0.000000 0.000000 
#    y 0.000000 1.904690 0.000000 
#    z 0.000000 0.000000 1.758550 
# 
# From -- ./inp_files/33827.got.cif
#   From: 2010.05.17/outbox.cif.g08.bks.cpg/sg51_17_cif.got.tgz:33827.got - 2010.06.03 11:52:47.
