data_PCOD9405524
_publ_section_title
;
Structure prediction by ZEFSAII (Michael W. Deem and Ramdas Pophale) SiO2 
 PCOD9405524
Probable space group: P M M A
;
_chemical_formula_sum "Si O2"
_cell_formula_units_Z 64
_cell_length_a 18.863300
_cell_length_b 8.947733
_cell_length_c 21.674010
_cell_angle_alpha 90.000000
_cell_angle_beta 90.000000
_cell_angle_gamma 90.000000
_cell_volume 3658.221160
_symmetry_space_group_name_H-M "P M M A"
_symmetry_group_IT_number 51
_symmetry_cell_setting 'orthorhombic'
loop_
_space_group_symop_operation_xyz
x,y,z
1/2-x,-y,z
1/2+x,-y,-z
-x,y,-z
-x,-y,-z
1/2+x,y,-z
1/2-x,y,z
x,-y,z
loop_
_atom_site_type_symbol
_atom_site_label
_atom_site_fract_x
_atom_site_fract_y
_atom_site_fract_z
Si Si1 0.474143 0.320020 0.432729
Si Si2 0.462551 0.821717 0.688907
Si Si3 0.109938 0.178810 0.248015
Si Si4 0.831301 0.679437 0.243653
Si Si5 0.333948 0.325150 0.900522
Si Si6 0.170680 0.321032 0.370604
Si Si7 0.081996 0.177667 0.008524
Si Si8 0.666744 0.320683 0.878124
O O1 0.500000 0.271055 0.500000
O O2 0.481416 0.500000 0.429497
O O3 0.518332 0.248365 0.377138
O O4 0.391975 0.282916 0.418184
O O5 0.528213 0.783928 0.734824
O O6 0.389742 0.758331 0.715244
O O7 0.459995 0.000000 0.683834
O O8 0.154371 0.238672 0.306418
O O9 0.136751 0.254406 0.185615
O O10 0.116438 0.000000 0.243219
O O11 0.750000 0.723408 0.257444
O O12 0.835951 0.500000 0.250934
O O13 0.845178 0.711491 0.171348
O O14 0.250000 0.311158 0.912836
O O15 0.352726 0.500000 0.910110
O O16 0.377321 0.222875 0.946428
O O17 0.250000 0.285519 0.392142
O O18 0.166779 0.500000 0.359603
O O19 0.120765 0.258331 0.065279
O O20 0.084834 0.000000 0.018721
O O21 0.000000 0.221939 0.000000
O O22 0.750000 0.279918 0.885212
O O23 0.662267 0.500000 0.876745
#
# Coordination Sequence:
#
# PCOD9405524 Si02
#       8
#     8   8   8   8   8   8   8   8
#     4   9  18  34  55  78 107 146 188 225 267 319
#     4  10  21  35  54  81 113 145 178 220 269 322
#     4  10  21  35  53  80 112 143 175 216 268 324
#     4   9  19  36  58  83 109 139 179 226 272 320
#     4   9  19  37  59  81 104 134 177 225 271 322
#     4   9  17  31  52  78 107 139 180 226 267 313
#     4  11  25  40  54  77 109 141 177 221 268 323
#     4  11  24  40  58  80 106 139 180 223 268 320
#
# _framework density 17.494841999999998
#
# number of rings (size 3 to 8) (size 9 to 14) (size 15 to 20)
#    0.000    2.250    0.000    3.000    1.750    8.000 
#    0.000    1.875    0.000    2.250    0.000    0.000 
#    0.000    0.000    0.000    0.000    0.000    0.000 
#
# Total GULP energy -357257.133915 kJ/mol
# GULP energy per Si atom -5582.142717 kJ/mol
# Density = 1.745502 g / cm^3
# Si number density = 17.494842 Si / 1000 Ang^3
#
#
#
# Elastic Constant Matrix: (Units=GPa)
#
#
# Indices 1 2 3 4 5 6 
#
# 1 139.3323 57.1363 109.8185 0.0000 0.0000 0.0000
# 2 57.1363 39.9255 53.7070 0.0000 0.0000 0.0000
# 3 109.8185 53.7070 115.7299 0.0000 0.0000 0.0000
# 4 0.0000 0.0000 0.0000 -11.8053 0.0000 0.0000
# 5 0.0000 0.0000 0.0000 0.0000 19.9339 0.0000
# 6 0.0000 0.0000 0.0000 0.0000 0.0000 19.6256
#
#
#
# Elastic Compliance Matrix: (Units=1/GPa)
#
#
# Indices 1 2 3 4 5 6 
#
# 1 0.030690 -0.012628 -0.023262 0.000000 0.000000 0.000000
# 2 -0.012628 0.071856 -0.021363 0.000000 0.000000 0.000000
# 3 -0.023262 -0.021363 0.040629 0.000000 0.000000 0.000000
# 4 0.000000 0.000000 0.000000 -0.084708 0.000000 0.000000
# 5 0.000000 0.000000 0.000000 0.000000 0.050166 0.000000
# 6 0.000000 0.000000 0.000000 0.000000 0.000000 0.050954
#
#
# Mechanical properties :
#
#
# Convention : Reuss Voigt Hill
#
# Bulk Modulus (GPa) = 34.88233 81.81235 58.34734
# Shear Modulus (GPa) = 17.62737 10.50591 14.06664
#
# Velocity S-wave (km/s) = 3.17768 2.45320 2.83864
# Velocity P-wave (km/s) = 5.78320 7.40874 6.64586
#
# Compressibility (1/GPa) = 0.02866781
#
# Stress axis : x y z
#
# Youngs Moduli (GPa) = 32.58347 13.91681 24.61295
#
# Poissons Ratio (x) = 0.17574 0.57256
# Poissons Ratio (y) = 0.41147 0.52581
# Poissons Ratio (z) = 0.75797 0.29731
#
# Static dielectric constant tensor:
#      x y z
#    x 1.591070 0.000000 0.000000 
#    y 0.000000 1.582900 0.000000 
#    z 0.000000 0.000000 1.557970 
# 
# From -- ./inp_files/33751.got.cif
#   From: 2010.05.17/outbox.cif.g08.bks.cpg/sg51_17_cif.got.tgz:33751.got - 2010.06.03 11:52:47.
