data_PCOD9405791
_publ_section_title
;
Structure prediction by ZEFSAII (Michael W. Deem and Ramdas Pophale) SiO2 
 PCOD9405791
Probable space group: P M M A
;
_chemical_formula_sum "Si O2"
_cell_formula_units_Z 40
_cell_length_a 25.986068
_cell_length_b 8.924817
_cell_length_c 9.716284
_cell_angle_alpha 90.000000
_cell_angle_beta 90.000000
_cell_angle_gamma 90.000000
_cell_volume 2253.409344
_symmetry_space_group_name_H-M "P M M A"
_symmetry_group_IT_number 51
_symmetry_cell_setting 'orthorhombic'
loop_
_space_group_symop_operation_xyz
x,y,z
1/2-x,-y,z
1/2+x,-y,-z
-x,y,-z
-x,-y,-z
1/2+x,y,-z
1/2-x,y,z
x,-y,z
loop_
_atom_site_type_symbol
_atom_site_label
_atom_site_fract_x
_atom_site_fract_y
_atom_site_fract_z
Si Si1 0.951717 0.178549 0.404559
Si Si2 0.750000 0.821187 0.909093
Si Si3 0.750000 0.180328 0.588441
Si Si4 0.161462 0.678447 0.909766
Si Si5 0.956143 0.321376 0.110543
Si Si6 0.341585 0.679778 0.587216
O O1 0.963925 0.229832 0.249672
O O2 0.898817 0.261091 0.444472
O O3 0.000000 0.218169 0.500000
O O4 0.943720 0.000000 0.410880
O O5 0.750000 0.774677 0.749072
O O6 0.750000 0.000000 0.912957
O O7 0.799577 0.760803 0.990296
O O8 0.799700 0.245375 0.510565
O O9 0.750000 0.000000 0.580275
O O10 0.169616 0.500000 0.922259
O O11 0.101643 0.710963 0.941765
O O12 0.169436 0.717436 0.748283
O O13 0.957310 0.500000 0.142606
O O14 0.000000 0.289388 0.000000
O O15 0.339832 0.500000 0.575131
#
# Coordination Sequence:
#
# PCOD9405791 Si02
#       6
#     8   4   4   8   8   8
#     4  10  21  36  55  82 114 146 181 223 273 327
#     4  11  24  37  52  78 110 143 178 217 266 322
#     4  11  24  39  54  80 116 145 176 223 274 324
#     4   9  19  36  57  80 106 137 178 224 265 315
#     4   9  19  36  57  82 110 141 181 226 270 320
#     4  10  21  38  60  83 106 141 188 228 268 323
#
# _framework density 17.750879000000001
#
# number of rings (size 3 to 8) (size 9 to 14) (size 15 to 20)
#    0.000    2.200    0.000    3.600    0.000   11.600 
#    0.000    4.000    0.000    0.000    0.000    0.000 
#    0.000    0.000    0.000    0.000    0.000    0.000 
#
# Total GULP energy -223338.684744 kJ/mol
# GULP energy per Si atom -5583.467119 kJ/mol
# Density = 1.771048 g / cm^3
# Si number density = 17.750879 Si / 1000 Ang^3
#
#
#
# Elastic Constant Matrix: (Units=GPa)
#
#
# Indices 1 2 3 4 5 6 
#
# 1 150.3976 66.0214 115.1700 0.0000 0.0000 0.0000
# 2 66.0214 53.3328 61.3434 0.0000 0.0000 0.0000
# 3 115.1700 61.3434 117.7543 0.0000 0.0000 0.0000
# 4 0.0000 0.0000 0.0000 9.8601 0.0000 0.0000
# 5 0.0000 0.0000 0.0000 0.0000 35.5078 0.0000
# 6 0.0000 0.0000 0.0000 0.0000 0.0000 37.0412
#
#
#
# Elastic Compliance Matrix: (Units=1/GPa)
#
#
# Indices 1 2 3 4 5 6 
#
# 1 0.027734 -0.007816 -0.023053 0.000000 0.000000 0.000000
# 2 -0.007816 0.048983 -0.017873 0.000000 0.000000 0.000000
# 3 -0.023053 -0.017873 0.040351 0.000000 0.000000 0.000000
# 4 0.000000 0.000000 0.000000 0.101419 0.000000 0.000000
# 5 0.000000 0.000000 0.000000 0.000000 0.028163 0.000000
# 6 0.000000 0.000000 0.000000 0.000000 0.000000 0.026997
#
#
# Mechanical properties :
#
#
# Convention : Reuss Voigt Hill
#
# Bulk Modulus (GPa) = 51.06554 89.61715 70.34134
# Shear Modulus (GPa) = 13.23947 21.74515 17.49231
#
# Velocity S-wave (km/s) = 2.73399 3.50382 3.14257
# Velocity P-wave (km/s) = 6.22869 8.18319 7.27191
#
# Compressibility (1/GPa) = 0.01958268
#
# Stress axis : x y z
#
# Youngs Moduli (GPa) = 36.05744 20.41513 24.78279
#
# Poissons Ratio (x) = 0.15956 0.57132
# Poissons Ratio (y) = 0.28182 0.44295
# Poissons Ratio (z) = 0.83124 0.36489
#
# Static dielectric constant tensor:
#      x y z
#    x 1.593110 0.000000 0.000000 
#    y 0.000000 1.593330 0.000000 
#    z 0.000000 0.000000 1.580620 
# 
# From -- ./inp_files/12177.got.cif
#   From: 2010.05.17/outbox.cif.g08.bks.cpg/sg51_7_cif.got.tgz:12177.got - 2010.06.03 11:52:47.
