data_PCOD9405184
_publ_section_title
;
Structure prediction by ZEFSAII (Michael W. Deem and Ramdas Pophale) SiO2 
 PCOD9405184
Probable space group: P M M A
;
_chemical_formula_sum "Si O2"
_cell_formula_units_Z 32
_cell_length_a 16.909810
_cell_length_b 13.419873
_cell_length_c 7.380787
_cell_angle_alpha 90.000000
_cell_angle_beta 90.000000
_cell_angle_gamma 90.000000
_cell_volume 1674.903562
_symmetry_space_group_name_H-M "P M M A"
_symmetry_group_IT_number 51
_symmetry_cell_setting 'orthorhombic'
loop_
_space_group_symop_operation_xyz
x,y,z
1/2-x,-y,z
1/2+x,-y,-z
-x,y,-z
-x,-y,-z
1/2+x,y,-z
1/2-x,y,z
x,-y,z
loop_
_atom_site_type_symbol
_atom_site_label
_atom_site_fract_x
_atom_site_fract_y
_atom_site_fract_z
Si Si1 0.575060 0.803953 0.112775
Si Si2 0.159073 0.270914 0.223369
Si Si3 0.155941 0.887520 0.538314
Si Si4 0.007186 0.611924 0.283169
O O1 0.605775 0.866541 0.281772
O O2 0.545419 0.697476 0.191669
O O3 0.500000 0.845542 0.000000
O O4 0.643260 0.783937 0.966670
O O5 0.250000 0.300068 0.242559
O O6 0.137817 0.193610 0.384201
O O7 0.097389 0.360961 0.234608
O O8 0.250000 0.878891 0.578592
O O9 0.141227 0.000000 0.472858
O O10 0.985897 0.500000 0.226775
O O11 0.000000 0.618282 0.500000
#
# Coordination Sequence:
#
# PCOD9405184 Si02
#       4
#     8   8   8   8
#     4  10  21  36  59  86 114 147 188 237 287 338
#     4  10  21  37  59  85 114 149 192 234 278 338
#     4  10  21  38  58  81 115 154 190 235 288 337
#     4  10  20  38  61  83 113 152 188 229 284 339
#
# _framework density 19.105577
#
# number of rings (size 3 to 8) (size 9 to 14) (size 15 to 20)
#    0.000    2.000    2.500    0.750    0.000    6.500 
#    0.000   11.250    0.000    2.250    0.000    0.000 
#    0.000    0.000    0.000    0.000    0.000    0.000 
#
# Total GULP energy -178624.206760 kJ/mol
# GULP energy per Si atom -5582.006461 kJ/mol
# Density = 1.906209 g / cm^3
# Si number density = 19.105577 Si / 1000 Ang^3
#
#
#
# Elastic Constant Matrix: (Units=GPa)
#
#
# Indices 1 2 3 4 5 6 
#
# 1 38.4428 15.1133 9.9375 0.0000 0.0000 0.0000
# 2 15.1133 50.2015 1.0253 0.0000 0.0000 0.0000
# 3 9.9375 1.0253 82.6657 0.0000 0.0000 0.0000
# 4 0.0000 0.0000 0.0000 9.2372 0.0000 0.0000
# 5 0.0000 0.0000 0.0000 0.0000 34.2231 0.0000
# 6 0.0000 0.0000 0.0000 0.0000 0.0000 23.9744
#
#
#
# Elastic Compliance Matrix: (Units=1/GPa)
#
#
# Indices 1 2 3 4 5 6 
#
# 1 0.030515 -0.009114 -0.003555 0.000000 0.000000 0.000000
# 2 -0.009114 0.022647 0.000815 0.000000 0.000000 0.000000
# 3 -0.003555 0.000815 0.012514 0.000000 0.000000 0.000000
# 4 0.000000 0.000000 0.000000 0.108258 0.000000 0.000000
# 5 0.000000 0.000000 0.000000 0.000000 0.029220 0.000000
# 6 0.000000 0.000000 0.000000 0.000000 0.000000 0.041711
#
#
# Mechanical properties :
#
#
# Convention : Reuss Voigt Hill
#
# Bulk Modulus (GPa) = 23.82827 24.82911 24.32869
# Shear Modulus (GPa) = 17.69518 23.16919 20.43218
#
# Velocity S-wave (km/s) = 3.04662 3.48615 3.27377
# Velocity P-wave (km/s) = 4.98747 5.40632 5.20111
#
# Compressibility (1/GPa) = 0.04196696
#
# Stress axis : x y z
#
# Youngs Moduli (GPa) = 32.77104 44.15625 79.90925
#
# Poissons Ratio (x) = 0.40244 0.28410
# Poissons Ratio (y) = 0.29867 -0.06510
# Poissons Ratio (z) = 0.11651 -0.03598
#
# Static dielectric constant tensor:
#      x y z
#    x 1.657030 0.000000 0.000000 
#    y 0.000000 1.641090 0.000000 
#    z 0.000000 0.000000 1.668820 
# 
# From -- ./inp_files/1776.got.cif
#   From: 2010.05.17/outbox.cif.g08.bks.cpg/sg51_1_cif.got.tgz:1776.got - 2010.06.03 11:52:47.
