data_PCOD9405987
_publ_section_title
;
Structure prediction by ZEFSAII (Michael W. Deem and Ramdas Pophale) SiO2 
 PCOD9405987
Probable space group: P M M A
;
_chemical_formula_sum "Si O2"
_cell_formula_units_Z 56
_cell_length_a 8.795126
_cell_length_b 14.719603
_cell_length_c 23.707387
_cell_angle_alpha 90.000000
_cell_angle_beta 90.000000
_cell_angle_gamma 90.000000
_cell_volume 3069.176411
_symmetry_space_group_name_H-M "P M M A"
_symmetry_group_IT_number 51
_symmetry_cell_setting 'orthorhombic'
loop_
_space_group_symop_operation_xyz
x,y,z
1/2-x,-y,z
1/2+x,-y,-z
-x,y,-z
-x,-y,-z
1/2+x,y,-z
1/2-x,y,z
x,-y,z
loop_
_atom_site_type_symbol
_atom_site_label
_atom_site_fract_x
_atom_site_fract_y
_atom_site_fract_z
Si Si1 0.932179 0.604825 0.562179
Si Si2 0.572388 0.108801 0.162933
Si Si3 0.068536 0.105881 0.285128
Si Si4 0.065529 0.397037 0.764867
Si Si5 0.067274 0.726443 0.660613
Si Si6 0.567010 0.605764 0.105390
Si Si7 0.069642 0.216745 0.058695
O O1 0.750000 0.613275 0.560580
O O2 0.969690 0.500000 0.578184
O O3 0.000000 0.620104 0.500000
O O4 0.002216 0.674007 0.606899
O O5 0.750000 0.134502 0.165483
O O6 0.496547 0.129480 0.223142
O O7 0.494286 0.160506 0.111586
O O8 0.561370 0.000000 0.154553
O O9 0.250000 0.116040 0.284800
O O10 0.994615 0.172497 0.330521
O O11 0.031702 0.000000 0.295352
O O12 0.250000 0.397150 0.764523
O O13 0.015367 0.500000 0.752212
O O14 0.015302 0.328851 0.716564
O O15 0.022532 0.375508 0.829209
O O16 0.250000 0.726321 0.658729
O O17 0.750000 0.616740 0.100646
O O18 0.532261 0.500000 0.093339
O O19 0.483859 0.679381 0.067672
O O20 0.250000 0.211199 0.056893
O O21 0.000000 0.182558 0.000000
#
# Coordination Sequence:
#
# PCOD9405987 Si02
#       7
#     8   8   8   8   8   8   8
#     4  10  21  37  56  80 114 155 197 238 278 324
#     4  10  21  39  62  85 110 140 175 218 271 331
#     4  10  21  37  57  83 115 148 183 225 272 323
#     4   8  15  28  48  76 107 137 169 208 259 318
#     4  11  20  31  54  84 114 149 188 230 275 325
#     4   9  18  35  57  78 104 139 178 221 268 319
#     4  12  25  39  56  77 104 138 178 224 271 325
#
# _framework density 18.245937999999999
#
# number of rings (size 3 to 8) (size 9 to 14) (size 15 to 20)
#    0.000    2.000    0.000    5.143    0.000    5.143 
#    0.000    0.714    0.000    2.143    0.000    0.000 
#    0.000    0.000    0.000    0.000    0.000    0.000 
#
# Total GULP energy -312863.676760 kJ/mol
# GULP energy per Si atom -5586.851371 kJ/mol
# Density = 1.820441 g / cm^3
# Si number density = 18.245938 Si / 1000 Ang^3
#
#
#
# Elastic Constant Matrix: (Units=GPa)
#
#
# Indices 1 2 3 4 5 6 
#
# 1 86.0950 57.4233 52.4301 0.0000 0.0000 0.0000
# 2 57.4233 90.4406 75.5429 0.0000 0.0000 0.0000
# 3 52.4301 75.5429 98.3155 0.0000 0.0000 0.0000
# 4 0.0000 0.0000 0.0000 23.7644 0.0000 0.0000
# 5 0.0000 0.0000 0.0000 0.0000 30.2860 0.0000
# 6 0.0000 0.0000 0.0000 0.0000 0.0000 28.7524
#
#
#
# Elastic Compliance Matrix: (Units=1/GPa)
#
#
# Indices 1 2 3 4 5 6 
#
# 1 0.020379 -0.010781 -0.002584 0.000000 0.000000 0.000000
# 2 -0.010781 0.036571 -0.022351 0.000000 0.000000 0.000000
# 3 -0.002584 -0.022351 0.028724 0.000000 0.000000 0.000000
# 4 0.000000 0.000000 0.000000 0.042080 0.000000 0.000000
# 5 0.000000 0.000000 0.000000 0.000000 0.033019 0.000000
# 6 0.000000 0.000000 0.000000 0.000000 0.000000 0.034780
#
#
# Mechanical properties :
#
#
# Convention : Reuss Voigt Hill
#
# Bulk Modulus (GPa) = 70.21650 71.73818 70.97734
# Shear Modulus (GPa) = 18.40044 22.52421 20.46232
#
# Velocity S-wave (km/s) = 3.17908 3.51733 3.35247
# Velocity P-wave (km/s) = 7.21404 7.47651 7.34644
#
# Compressibility (1/GPa) = 0.01424167
#
# Stress axis : x y z
#
# Youngs Moduli (GPa) = 49.06903 27.34373 34.81460
#
# Poissons Ratio (x) = 0.29479 0.08997
# Poissons Ratio (y) = 0.52900 0.77815
# Poissons Ratio (z) = 0.12681 0.61117
#
# Static dielectric constant tensor:
#      x y z
#    x 1.606060 0.000000 0.000000 
#    y 0.000000 1.641290 0.000000 
#    z 0.000000 0.000000 1.603140 
# 
# From -- ./inp_files/31866.got.cif
#   From: 2010.05.17/outbox.cif.g08.bks.cpg/sg51_16_cif.got.tgz:31866.got - 2010.06.03 11:52:47.
