data_PCOD9405534
_publ_section_title
;
Structure prediction by ZEFSAII (Michael W. Deem and Ramdas Pophale) SiO2 
 PCOD9405534
Probable space group: P M M A
;
_chemical_formula_sum "Si O2"
_cell_formula_units_Z 64
_cell_length_a 16.114101
_cell_length_b 9.184553
_cell_length_c 23.137699
_cell_angle_alpha 90.000000
_cell_angle_beta 90.000000
_cell_angle_gamma 90.000000
_cell_volume 3424.398302
_symmetry_space_group_name_H-M "P M M A"
_symmetry_group_IT_number 51
_symmetry_cell_setting 'orthorhombic'
loop_
_space_group_symop_operation_xyz
x,y,z
1/2-x,-y,z
1/2+x,-y,-z
-x,y,-z
-x,-y,-z
1/2+x,y,-z
1/2-x,y,z
x,-y,z
loop_
_atom_site_type_symbol
_atom_site_label
_atom_site_fract_x
_atom_site_fract_y
_atom_site_fract_z
Si Si1 0.650182 0.834797 0.764239
Si Si2 0.111548 0.335270 0.119144
Si Si3 0.000890 0.322707 0.566287
Si Si4 0.846401 0.321844 0.352649
Si Si5 0.653825 0.164974 0.995506
Si Si6 0.415309 0.334051 0.896255
Si Si7 0.650309 0.668046 0.224076
Si Si8 0.153223 0.324716 0.354185
O O1 0.750000 0.841675 0.764416
O O2 0.625494 0.748718 0.821368
O O3 0.627782 0.749098 0.706093
O O4 0.617769 0.000000 0.764374
O O5 0.144365 0.500000 0.122702
O O6 0.147765 0.249905 0.064682
O O7 0.013546 0.342542 0.108683
O O8 0.003141 0.500000 0.565799
O O9 0.083282 0.276477 0.601713
O O10 0.000000 0.272923 0.500000
O O11 0.915307 0.282102 0.598444
O O12 0.750000 0.279519 0.364842
O O13 0.846001 0.500000 0.351030
O O14 0.870467 0.271355 0.287568
O O15 0.750000 0.160488 0.012617
O O16 0.623285 0.000000 0.987629
O O17 0.607084 0.245338 0.046980
O O18 0.381371 0.500000 0.901898
O O19 0.382233 0.267224 0.835878
O O20 0.750000 0.665635 0.221848
O O21 0.619532 0.500000 0.223733
O O22 0.250000 0.286402 0.367511
O O23 0.150555 0.500000 0.347870
#
# Coordination Sequence:
#
# PCOD9405534 Si02
#       8
#     8   8   8   8   8   8   8   8
#     4  10  21  37  56  78 105 139 180 222 268 323
#     4  11  23  36  55  83 109 135 172 219 270 322
#     4   9  17  27  43  70 106 146 181 217 265 318
#     4   8  14  24  40  64  96 133 173 217 263 312
#     4  11  24  40  56  74 102 142 182 218 261 316
#     4  10  21  35  54  79 104 132 170 219 270 321
#     4   8  14  26  45  69  95 125 162 207 260 310
#     4   9  18  32  51  76 108 144 181 224 274 325
#
# _framework density 18.689413999999999
#
# number of rings (size 3 to 8) (size 9 to 14) (size 15 to 20)
#    0.000    2.500    0.000    3.000    1.750    6.750 
#    0.000    2.500    0.000    0.375    0.000    0.000 
#    0.000    0.500    0.000    0.000    0.000    0.000 
#
# Total GULP energy -356802.701404 kJ/mol
# GULP energy per Si atom -5575.042209 kJ/mol
# Density = 1.864688 g / cm^3
# Si number density = 18.689414 Si / 1000 Ang^3
#
#
#
# Elastic Constant Matrix: (Units=GPa)
#
#
# Indices 1 2 3 4 5 6 
#
# 1 65.7272 24.5643 63.7319 0.0000 0.0000 0.0000
# 2 24.5643 55.1340 52.9218 0.0000 0.0000 0.0000
# 3 63.7319 52.9218 164.6143 0.0000 0.0000 0.0000
# 4 0.0000 0.0000 0.0000 -13.9117 0.0000 0.0000
# 5 0.0000 0.0000 0.0000 0.0000 40.5567 0.0000
# 6 0.0000 0.0000 0.0000 0.0000 0.0000 -3.1394
#
#
#
# Elastic Compliance Matrix: (Units=1/GPa)
#
#
# Indices 1 2 3 4 5 6 
#
# 1 0.024620 -0.002632 -0.008686 0.000000 0.000000 0.000000
# 2 -0.002632 0.026514 -0.007505 0.000000 0.000000 0.000000
# 3 -0.008686 -0.007505 0.011850 0.000000 0.000000 0.000000
# 4 0.000000 0.000000 0.000000 -0.071882 0.000000 0.000000
# 5 0.000000 0.000000 0.000000 0.000000 0.024657 0.000000
# 6 0.000000 0.000000 0.000000 0.000000 0.000000 -0.318529
#
#
# Mechanical properties :
#
#
# Convention : Reuss Voigt Hill
#
# Bulk Modulus (GPa) = 39.46463 63.10128 51.28296
# Shear Modulus (GPa) = -19.47969 14.31828 -2.58070
#
# Velocity S-wave (km/s) = -3.23195 2.77088 -1.17636
# Velocity P-wave (km/s) = 2.68972 6.63879 5.06498
#
# Compressibility (1/GPa) = 0.02533914
#
# Stress axis : x y z
#
# Youngs Moduli (GPa) = 40.61723 37.71564 84.38566
#
# Poissons Ratio (x) = 0.09927 0.73295
# Poissons Ratio (y) = 0.10690 0.63332
# Poissons Ratio (z) = 0.35279 0.28306
#
# Static dielectric constant tensor:
#      x y z
#    x 1.630210 0.000000 0.000000 
#    y 0.000000 1.653040 0.000000 
#    z 0.000000 0.000000 1.635810 
# 
# From -- ./inp_files/35786.got.cif
#   From: 2010.05.17/outbox.cif.g08.bks.cpg/sg51_18_cif.got.tgz:35786.got - 2010.06.03 11:52:47.
