data_PCOD9405083
_publ_section_title
;
Structure prediction by ZEFSAII (Michael W. Deem and Ramdas Pophale) SiO2 
 PCOD9405083
Probable space group: P M M A
;
_chemical_formula_sum "Si O2"
_cell_formula_units_Z 64
_cell_length_a 15.313449
_cell_length_b 9.098792
_cell_length_c 23.903786
_cell_angle_alpha 90.000000
_cell_angle_beta 90.000000
_cell_angle_gamma 90.000000
_cell_volume 3330.607423
_symmetry_space_group_name_H-M "P M M A"
_symmetry_group_IT_number 51
_symmetry_cell_setting 'orthorhombic'
loop_
_space_group_symop_operation_xyz
x,y,z
1/2-x,-y,z
1/2+x,-y,-z
-x,y,-z
-x,-y,-z
1/2+x,y,-z
1/2-x,y,z
x,-y,z
loop_
_atom_site_type_symbol
_atom_site_label
_atom_site_fract_x
_atom_site_fract_y
_atom_site_fract_z
Si Si1 0.847786 0.672115 0.753871
Si Si2 0.648009 0.666834 0.002503
Si Si3 0.517285 0.322227 0.412935
Si Si4 0.090366 0.329981 0.122746
Si Si5 0.483789 0.825263 0.706392
Si Si6 0.851622 0.678026 0.513340
Si Si7 0.650709 0.671038 0.210545
Si Si8 0.914654 0.828631 0.106376
O O1 0.750000 0.707471 0.735154
O O2 0.865477 0.500000 0.740670
O O3 0.853662 0.685447 0.821269
O O4 0.921346 0.771494 0.726762
O O5 0.750000 0.675929 0.016360
O O6 0.617173 0.500000 0.013938
O O7 0.597670 0.776720 0.042732
O O8 0.637478 0.692456 0.936437
O O9 0.517479 0.500000 0.407064
O O10 0.532184 0.245132 0.354163
O O11 0.595017 0.283926 0.456590
O O12 0.421807 0.279838 0.438394
O O13 0.057639 0.500000 0.122533
O O14 0.011508 0.216406 0.124887
O O15 0.414347 0.760828 0.750375
O O16 0.478518 0.000000 0.704759
O O17 0.750000 0.729786 0.516697
O O18 0.847666 0.500000 0.514831
O O19 0.750000 0.682126 0.230910
O O20 0.624772 0.500000 0.210077
O O21 0.645425 0.735000 0.147994
O O22 0.897751 0.000000 0.112419
#
# Coordination Sequence:
#
# PCOD9405083 Si02
#       8
#     8   8   8   8   8   8   8   8
#     4  10  21  39  64  89 114 153 205 255 301 353
#     4  10  21  37  57  82 110 144 191 243 293 352
#     4   9  18  34  58  87 119 157 203 250 290 339
#     4  10  20  37  61  84 110 146 194 246 295 353
#     4  12  25  40  59  88 128 166 200 245 300 359
#     4   8  15  31  58  90 120 153 199 252 296 332
#     4  11  24  43  66  87 110 150 204 257 305 357
#     4  12  24  37  56  84 117 151 187 234 301 371
#
# _framework density 19.215713999999998
#
# number of rings (size 3 to 8) (size 9 to 14) (size 15 to 20)
#    0.000    1.750    1.250    4.500    0.000    7.500 
#    0.000    3.750    0.000    3.000    0.000    0.000 
#    0.000    0.000    0.000    0.000    0.000    0.000 
#
# Total GULP energy -357345.039998 kJ/mol
# GULP energy per Si atom -5583.516250 kJ/mol
# Density = 1.917198 g / cm^3
# Si number density = 19.215714 Si / 1000 Ang^3
#
#
#
# Elastic Constant Matrix: (Units=GPa)
#
#
# Indices 1 2 3 4 5 6 
#
# 1 78.2502 24.4339 0.7834 0.0000 0.0000 0.0000
# 2 24.4339 78.7622 25.9869 0.0000 0.0000 0.0000
# 3 0.7834 25.9869 62.6976 0.0000 0.0000 0.0000
# 4 0.0000 0.0000 0.0000 -26.0162 0.0000 0.0000
# 5 0.0000 0.0000 0.0000 0.0000 -5.5594 0.0000
# 6 0.0000 0.0000 0.0000 0.0000 0.0000 602.6980
#
#
#
# Elastic Compliance Matrix: (Units=1/GPa)
#
#
# Indices 1 2 3 4 5 6 
#
# 1 0.014349 -0.005088 0.001930 0.000000 0.000000 0.000000
# 2 -0.005088 0.016512 -0.006780 0.000000 0.000000 0.000000
# 3 0.001930 -0.006780 0.018736 0.000000 0.000000 0.000000
# 4 0.000000 0.000000 0.000000 -0.038438 0.000000 0.000000
# 5 0.000000 0.000000 0.000000 0.000000 -0.179876 0.000000
# 6 0.000000 0.000000 0.000000 0.000000 0.000000 0.001659
#
#
# Mechanical properties :
#
#
# Convention : Reuss Voigt Hill
#
# Bulk Modulus (GPa) = 33.64828 35.79093 34.71961
# Shear Modulus (GPa) = -36.42359 125.45820 44.51730
#
# Velocity S-wave (km/s) = -4.35847 8.08895 4.81845
# Velocity P-wave (km/s) = 2.78918 10.29115 7.00458
#
# Compressibility (1/GPa) = 0.02971920
#
# Stress axis : x y z
#
# Youngs Moduli (GPa) = 69.69146 60.56211 53.37387
#
# Poissons Ratio (x) = 0.30814 -0.10299
# Poissons Ratio (y) = 0.35459 0.36189
# Poissons Ratio (z) = -0.13448 0.41063
#
# Static dielectric constant tensor:
#      x y z
#    x 1.685580 0.000000 0.000000 
#    y 0.000000 1.636760 0.000000 
#    z 0.000000 0.000000 1.668150 
# 
# From -- ./inp_files/35876.got.cif
#   From: 2010.05.17/outbox.cif.g08.bks.cpg/sg51_18_cif.got.tgz:35876.got - 2010.06.03 11:52:47.
