data_PCOD9405475
_publ_section_title
;
Structure prediction by ZEFSAII (Michael W. Deem and Ramdas Pophale) SiO2 
 PCOD9405475
Probable space group: P M M A
;
_chemical_formula_sum "Si O2"
_cell_formula_units_Z 28
_cell_length_a 9.371841
_cell_length_b 7.533779
_cell_length_c 20.159701
_cell_angle_alpha 90.000000
_cell_angle_beta 90.000000
_cell_angle_gamma 90.000000
_cell_volume 1423.383328
_symmetry_space_group_name_H-M "P M M A"
_symmetry_group_IT_number 51
_symmetry_cell_setting 'orthorhombic'
loop_
_space_group_symop_operation_xyz
x,y,z
1/2-x,-y,z
1/2+x,-y,-z
-x,y,-z
-x,-y,-z
1/2+x,y,-z
1/2-x,y,z
x,-y,z
loop_
_atom_site_type_symbol
_atom_site_label
_atom_site_fract_x
_atom_site_fract_y
_atom_site_fract_z
Si Si1 0.408960 0.288804 0.438587
Si Si2 0.410237 0.786715 0.690209
Si Si3 0.422348 0.500000 0.070990
Si Si4 0.920010 0.787492 0.158270
O O1 0.500000 0.215699 0.500000
O O2 0.250000 0.214221 0.437936
O O3 0.398243 0.500000 0.448975
O O4 0.485093 0.264170 0.368338
O O5 0.250000 0.720695 0.675729
O O6 0.449343 0.733953 0.765126
O O7 0.404341 0.000000 0.691783
O O8 0.250000 0.500000 0.065993
O O9 0.481753 0.328624 0.110701
O O10 0.500000 0.500000 0.000000
O O11 0.750000 0.755120 0.146458
O O12 0.942771 0.000000 0.151229
#
# Coordination Sequence:
#
# PCOD9405475 Si02
#       4
#     8   8   4   8
#     4  10  21  35  51  75 108 146 191 238 288 342
#     4   9  19  36  58  83 110 145 188 232 285 346
#     4  12  26  42  64  94 127 162 203 244 294 358
#     4   9  20  41  66  92 124 161 202 248 299 357
#
# _framework density 19.67144
#
# number of rings (size 3 to 8) (size 9 to 14) (size 15 to 20)
#    0.000    2.286    0.000    3.857    2.000    5.143 
#    0.000    2.857    0.000    0.000    0.000    0.000 
#    0.000    0.000    0.000    0.000    0.000    0.000 
#
# Total GULP energy -156324.081410 kJ/mol
# GULP energy per Si atom -5583.002907 kJ/mol
# Density = 1.962667 g / cm^3
# Si number density = 19.671440 Si / 1000 Ang^3
#
#
#
# Elastic Constant Matrix: (Units=GPa)
#
#
# Indices 1 2 3 4 5 6 
#
# 1 178.5713 49.1702 137.1548 0.0000 0.0000 0.0000
# 2 49.1702 73.9244 40.7522 0.0000 0.0000 0.0000
# 3 137.1548 40.7522 160.7296 0.0000 0.0000 0.0000
# 4 0.0000 0.0000 0.0000 42.5009 0.0000 0.0000
# 5 0.0000 0.0000 0.0000 0.0000 24.9148 0.0000
# 6 0.0000 0.0000 0.0000 0.0000 0.0000 27.4369
#
#
#
# Elastic Compliance Matrix: (Units=1/GPa)
#
#
# Indices 1 2 3 4 5 6 
#
# 1 0.017160 -0.003885 -0.013658 0.000000 0.000000 0.000000
# 2 -0.003885 0.016605 -0.000895 0.000000 0.000000 0.000000
# 3 -0.013658 -0.000895 0.018104 0.000000 0.000000 0.000000
# 4 0.000000 0.000000 0.000000 0.023529 0.000000 0.000000
# 5 0.000000 0.000000 0.000000 0.000000 0.040137 0.000000
# 6 0.000000 0.000000 0.000000 0.000000 0.000000 0.036447
#
#
# Mechanical properties :
#
#
# Convention : Reuss Voigt Hill
#
# Bulk Modulus (GPa) = 66.70127 96.37550 81.53838
# Shear Modulus (GPa) = 25.79254 31.38041 28.58647
#
# Velocity S-wave (km/s) = 3.62493 3.99836 3.81622
# Velocity P-wave (km/s) = 7.17645 8.39135 7.80757
#
# Compressibility (1/GPa) = 0.01499222
#
# Stress axis : x y z
#
# Youngs Moduli (GPa) = 58.27489 60.22418 55.23785
#
# Poissons Ratio (x) = 0.23394 0.75445
# Poissons Ratio (y) = 0.22637 0.04945
# Poissons Ratio (z) = 0.79593 0.05392
#
# Static dielectric constant tensor:
#      x y z
#    x 1.688680 0.000000 0.000000 
#    y 0.000000 1.723230 0.000000 
#    z 0.000000 0.000000 1.671630 
# 
# From -- ./inp_files/26872.got.cif
#   From: 2010.05.17/outbox.cif.g08.bks.cpg/sg51_14_cif.got.tgz:26872.got - 2010.06.03 11:52:47.
