data_PCOD9405826
_publ_section_title
;
Structure prediction by ZEFSAII (Michael W. Deem and Ramdas Pophale) SiO2 
 PCOD9405826
Probable space group: P M M A
;
_chemical_formula_sum "Si O2"
_cell_formula_units_Z 56
_cell_length_a 14.902710
_cell_length_b 7.990697
_cell_length_c 22.478360
_cell_angle_alpha 90.000000
_cell_angle_beta 90.000000
_cell_angle_gamma 90.000000
_cell_volume 2676.791445
_symmetry_space_group_name_H-M "P M M A"
_symmetry_group_IT_number 51
_symmetry_cell_setting 'orthorhombic'
loop_
_space_group_symop_operation_xyz
x,y,z
1/2-x,-y,z
1/2+x,-y,-z
-x,y,-z
-x,-y,-z
1/2+x,y,-z
1/2-x,y,z
x,-y,z
loop_
_atom_site_type_symbol
_atom_site_label
_atom_site_fract_x
_atom_site_fract_y
_atom_site_fract_z
Si Si1 0.520606 0.798840 0.345784
Si Si2 0.648576 0.799141 0.585722
Si Si3 0.853321 0.296426 0.845807
Si Si4 0.140465 0.692971 0.023130
Si Si5 0.528769 0.197031 0.215183
Si Si6 0.647847 0.299603 0.104527
Si Si7 0.353091 0.700272 0.546181
O O1 0.423372 0.734453 0.367059
O O2 0.549021 0.734032 0.281007
O O3 0.588646 0.760909 0.398811
O O4 0.513890 0.000000 0.340545
O O5 0.750000 0.732527 0.592251
O O6 0.616019 0.760470 0.518799
O O7 0.652633 0.000000 0.591293
O O8 0.750000 0.248214 0.834708
O O9 0.856330 0.500000 0.846679
O O10 0.881022 0.234298 0.912191
O O11 0.924608 0.230376 0.799139
O O12 0.250000 0.689748 0.021037
O O13 0.108768 0.500000 0.025275
O O14 0.112486 0.767192 0.959478
O O15 0.586465 0.268588 0.161069
O O16 0.546125 0.000000 0.215107
O O17 0.750000 0.237934 0.114249
O O18 0.652918 0.500000 0.096570
O O19 0.250000 0.758285 0.552709
O O20 0.354464 0.500000 0.545587
#
# Coordination Sequence:
#
# PCOD9405826 Si02
#       7
#     8   8   8   8   8   8   8
#     4  10  22  38  54  74 104 145 185 213 244 297
#     4   9  18  35  59  82 103 132 172 213 252 301
#     4   9  18  35  58  80 103 134 176 224 268 315
#     4   7  12  27  53  80 100 125 169 222 270 314
#     4  11  24  37  50  75 111 147 180 216 262 314
#     4   9  18  35  58  79 101 134 178 226 271 317
#     4  10  21  36  56  84 112 134 162 209 267 313
#
# _framework density 20.920570000000001
#
# number of rings (size 3 to 8) (size 9 to 14) (size 15 to 20)
#    0.000    2.714    0.000    3.000    0.000    6.571 
#    0.000    7.857    0.000    4.286    0.000    0.000 
#    0.000    0.000    0.000    0.000    0.000    0.000 
#
# Total GULP energy -312425.237363 kJ/mol
# GULP energy per Si atom -5579.022096 kJ/mol
# Density = 2.087295 g / cm^3
# Si number density = 20.920570 Si / 1000 Ang^3
#
#
#
# Elastic Constant Matrix: (Units=GPa)
#
#
# Indices 1 2 3 4 5 6 
#
# 1 24.4876 -5.9531 -6.5155 0.0000 0.0000 0.0000
# 2 -5.9531 10.8676 0.1094 0.0000 0.0000 0.0000
# 3 -6.5155 0.1094 45.9477 0.0000 0.0000 0.0000
# 4 0.0000 0.0000 0.0000 16.5027 0.0000 0.0000
# 5 0.0000 0.0000 0.0000 0.0000 3.2921 0.0000
# 6 0.0000 0.0000 0.0000 0.0000 0.0000 28.7127
#
#
#
# Elastic Compliance Matrix: (Units=1/GPa)
#
#
# Indices 1 2 3 4 5 6 
#
# 1 0.049214 0.026889 0.006915 0.000000 0.000000 0.000000
# 2 0.026889 0.106710 0.003559 0.000000 0.000000 0.000000
# 3 0.006915 0.003559 0.022736 0.000000 0.000000 0.000000
# 4 0.000000 0.000000 0.000000 0.060596 0.000000 0.000000
# 5 0.000000 0.000000 0.000000 0.000000 0.303756 0.000000
# 6 0.000000 0.000000 0.000000 0.000000 0.000000 0.034828
#
#
# Mechanical properties :
#
#
# Convention : Reuss Voigt Hill
#
# Bulk Modulus (GPa) = 3.94656 6.28715 5.11686
# Shear Modulus (GPa) = 8.50953 15.94566 12.22759
#
# Velocity S-wave (km/s) = 2.01900 2.76379 2.42022
# Velocity P-wave (km/s) = 2.70660 3.63270 3.20330
#
# Compressibility (1/GPa) = 0.25338500
#
# Stress axis : x y z
#
# Youngs Moduli (GPa) = 20.31956 9.37118 43.98327
#
# Poissons Ratio (x) = -0.25198 -0.30413
# Poissons Ratio (y) = -0.54637 -0.15653
# Poissons Ratio (z) = -0.14050 -0.03335
#
# Static dielectric constant tensor:
#      x y z
#    x 1.763550 0.000000 0.000000 
#    y 0.000000 1.754500 0.000000 
#    z 0.000000 0.000000 1.768020 
# 
# From -- ./inp_files/33392.got.cif
#   From: 2010.05.17/outbox.cif.g08.bks.cpg/sg51_17_cif.got.tgz:33392.got - 2010.06.03 11:52:47.
