data_PCOD9405128
_publ_section_title
;
Structure prediction by ZEFSAII (Michael W. Deem and Ramdas Pophale) SiO2 
 PCOD9405128
Probable space group: P M M A
;
_chemical_formula_sum "Si O2"
_cell_formula_units_Z 38
_cell_length_a 10.147351
_cell_length_b 12.645145
_cell_length_c 15.908114
_cell_angle_alpha 90.000000
_cell_angle_beta 90.000000
_cell_angle_gamma 90.000000
_cell_volume 2041.245269
_symmetry_space_group_name_H-M "P M M A"
_symmetry_group_IT_number 51
_symmetry_cell_setting 'orthorhombic'
loop_
_space_group_symop_operation_xyz
x,y,z
1/2-x,-y,z
1/2+x,-y,-z
-x,y,-z
-x,-y,-z
1/2+x,y,-z
1/2-x,y,z
x,-y,z
loop_
_atom_site_type_symbol
_atom_site_label
_atom_site_fract_x
_atom_site_fract_y
_atom_site_fract_z
Si Si1 0.750000 0.814797 0.129993
Si Si2 0.393445 0.500000 0.425449
Si Si3 0.250000 0.000000 0.477657
Si Si4 0.032666 0.122488 0.199024
Si Si5 0.506570 0.295412 0.662591
Si Si6 0.250000 0.622756 0.758042
Si Si7 0.500000 0.157527 0.500000
Si Si8 0.750000 0.875176 0.939699
O O1 0.619203 0.866848 0.170177
O O2 0.750000 0.693793 0.158984
O O3 0.750000 0.821968 0.029938
O O4 0.250000 0.500000 0.466044
O O5 0.500000 0.500000 0.500000
O O6 0.408706 0.395208 0.368323
O O7 0.368753 0.090290 0.480687
O O8 0.061920 0.208534 0.271223
O O9 0.123495 0.146101 0.118456
O O10 0.058345 0.000000 0.225677
O O11 0.377894 0.344521 0.705570
O O12 0.470238 0.229635 0.580224
O O13 0.250000 0.500000 0.775942
O O14 0.750000 0.000000 0.958196
#
# Coordination Sequence:
#
# PCOD9405128 Si02
#       8
#     4   4   2   8   8   4   4   4
#     4  10  20  37  64  90 122 161 205 256 305 380
#     4  12  28  44  68  92 119 167 224 270 311 361
#     4  10  26  40  58  86 130 162 202 248 306 374
#     4  10  22  37  60  96 125 162 202 251 312 379
#     4  11  24  41  67  90 128 164 216 260 313 364
#     4  10  21  41  65  92 122 163 213 268 312 364
#     4  11  24  43  60  92 120 177 201 252 304 372
#     4  10  20  37  62  89 127 161 199 250 314 379
#
# _framework density 18.616088000000001
#
# number of rings (size 3 to 8) (size 9 to 14) (size 15 to 20)
#    0.000    1.474    2.105    2.211    7.368    1.684 
#    1.895    0.000    2.316    2.526    0.000    0.000 
#    0.000    0.000    0.000    0.000    0.000    0.000 
#
# Total GULP energy -211642.885330 kJ/mol
# GULP energy per Si atom -5569.549614 kJ/mol
# Density = 1.857372 g / cm^3
# Si number density = 18.616088 Si / 1000 Ang^3
#
#
#
# Elastic Constant Matrix: (Units=GPa)
#
#
# Indices 1 2 3 4 5 6 
#
# 1 104.3785 23.1979 22.4076 0.0000 0.0000 0.0000
# 2 23.1979 141.7461 65.5957 0.0000 0.0000 0.0000
# 3 22.4076 65.5957 119.3476 0.0000 0.0000 0.0000
# 4 0.0000 0.0000 0.0000 39.4863 0.0000 0.0000
# 5 0.0000 0.0000 0.0000 0.0000 11.7439 0.0000
# 6 0.0000 0.0000 0.0000 0.0000 0.0000 7.1585
#
#
#
# Elastic Compliance Matrix: (Units=1/GPa)
#
#
# Indices 1 2 3 4 5 6 
#
# 1 0.010096 -0.001039 -0.001324 0.000000 0.000000 0.000000
# 2 -0.001039 0.009568 -0.005064 0.000000 0.000000 0.000000
# 3 -0.001324 -0.005064 0.011411 0.000000 0.000000 0.000000
# 4 0.000000 0.000000 0.000000 0.025325 0.000000 0.000000
# 5 0.000000 0.000000 0.000000 0.000000 0.085151 0.000000
# 6 0.000000 0.000000 0.000000 0.000000 0.000000 0.139694
#
#
# Mechanical properties :
#
#
# Convention : Reuss Voigt Hill
#
# Bulk Modulus (GPa) = 61.65252 65.31939 63.48596
# Shear Modulus (GPa) = 16.58337 28.62913 22.60625
#
# Velocity S-wave (km/s) = 2.98788 3.92582 3.48852
# Velocity P-wave (km/s) = 6.71513 7.46413 7.09951
#
# Compressibility (1/GPa) = 0.01621994
#
# Stress axis : x y z
#
# Youngs Moduli (GPa) = 99.05097 104.51122 87.63735
#
# Poissons Ratio (x) = 0.10864 0.11605
# Poissons Ratio (y) = 0.10296 0.44378
# Poissons Ratio (z) = 0.13116 0.52922
#
# Static dielectric constant tensor:
#      x y z
#    x 1.649250 0.000000 0.000000 
#    y 0.000000 1.651050 0.000000 
#    z 0.000000 0.000000 1.633750 
# 
# From -- ./inp_files/23116.got.cif
#   From: 2010.05.17/outbox.cif.g08.bks.cpg/sg51_12_cif.got.tgz:23116.got - 2010.06.03 11:52:47.
