data_PCOD9405419
_publ_section_title
;
Structure prediction by ZEFSAII (Michael W. Deem and Ramdas Pophale) SiO2 
 PCOD9405419
Probable space group: P M M A
;
_chemical_formula_sum "Si O2"
_cell_formula_units_Z 48
_cell_length_a 9.229918
_cell_length_b 9.477933
_cell_length_c 32.079335
_cell_angle_alpha 90.000000
_cell_angle_beta 90.000000
_cell_angle_gamma 90.000000
_cell_volume 2806.317690
_symmetry_space_group_name_H-M "P M M A"
_symmetry_group_IT_number 51
_symmetry_cell_setting 'orthorhombic'
loop_
_space_group_symop_operation_xyz
x,y,z
1/2-x,-y,z
1/2+x,-y,-z
-x,y,-z
-x,-y,-z
1/2+x,y,-z
1/2-x,y,z
x,-y,z
loop_
_atom_site_type_symbol
_atom_site_label
_atom_site_fract_x
_atom_site_fract_y
_atom_site_fract_z
Si Si1 0.075605 0.164976 0.709364
Si Si2 0.926253 0.337216 0.876889
Si Si3 0.923293 0.666404 0.373794
Si Si4 0.583300 0.671941 0.541477
Si Si5 0.423070 0.167272 0.042258
Si Si6 0.423660 0.332107 0.216697
O O1 0.250000 0.175854 0.713003
O O2 0.034155 0.243184 0.666431
O O3 0.002632 0.243381 0.748089
O O4 0.036897 0.000000 0.708234
O O5 0.750000 0.334063 0.876664
O O6 0.969635 0.500000 0.882467
O O7 0.974672 0.244953 0.915947
O O8 0.970119 0.290911 0.830389
O O9 0.750000 0.679138 0.379835
O O10 0.954491 0.500000 0.366463
O O11 0.003601 0.712605 0.415866
O O12 0.500000 0.719773 0.500000
O O13 0.750000 0.717154 0.541042
O O14 0.581576 0.500000 0.540747
O O15 0.250000 0.188308 0.038339
O O16 0.449383 0.000000 0.046458
O O17 0.500000 0.216998 0.000000
O O18 0.250000 0.312996 0.219868
O O19 0.451983 0.500000 0.221456
#
# Coordination Sequence:
#
# PCOD9405419 Si02
#       6
#     8   8   8   8   8   8
#     4  10  21  35  50  71 100 132 164 199 242 291
#     4   8  15  29  48  69  92 118 150 190 234 279
#     4   9  17  30  48  68  92 125 161 195 235 282
#     4   9  16  26  43  69  98 124 153 193 238 282
#     4   9  17  29  45  65  90 121 155 189 227 273
#     4   9  18  33  53  75  97 123 159 202 245 290
#
# _framework density 17.104263
#
# number of rings (size 3 to 8) (size 9 to 14) (size 15 to 20)
#    0.000    3.000    0.000    2.000    0.000    5.000 
#    0.000    4.167    0.000    3.500    0.000    0.000 
#    0.000    0.000    0.000    0.000    0.000    0.000 
#
# Total GULP energy -267481.799906 kJ/mol
# GULP energy per Si atom -5572.537498 kJ/mol
# Density = 1.706533 g / cm^3
# Si number density = 17.104263 Si / 1000 Ang^3
#
#
#
# Elastic Constant Matrix: (Units=GPa)
#
#
# Indices 1 2 3 4 5 6 
#
# 1 32.7580 37.8794 66.7410 0.0000 0.0000 0.0000
# 2 37.8794 58.9868 90.7790 0.0000 0.0000 0.0000
# 3 66.7410 90.7790 223.3275 0.0000 0.0000 0.0000
# 4 0.0000 0.0000 0.0000 -10.2491 0.0000 0.0000
# 5 0.0000 0.0000 0.0000 0.0000 35.2482 0.0000
# 6 0.0000 0.0000 0.0000 0.0000 0.0000 16.5864
#
#
#
# Elastic Compliance Matrix: (Units=1/GPa)
#
#
# Indices 1 2 3 4 5 6 
#
# 1 0.131925 -0.064212 -0.013324 0.000000 0.000000 0.000000
# 2 -0.064212 0.076530 -0.011919 0.000000 0.000000 0.000000
# 3 -0.013324 -0.011919 0.013304 0.000000 0.000000 0.000000
# 4 0.000000 0.000000 0.000000 -0.097570 0.000000 0.000000
# 5 0.000000 0.000000 0.000000 0.000000 0.028370 0.000000
# 6 0.000000 0.000000 0.000000 0.000000 0.000000 0.060290
#
#
# Mechanical properties :
#
#
# Convention : Reuss Voigt Hill
#
# Bulk Modulus (GPa) = 23.33746 78.43011 50.88379
# Shear Modulus (GPa) = 12.31396 16.29530 14.30463
#
# Velocity S-wave (km/s) = 2.68607 3.08994 2.89506
# Velocity P-wave (km/s) = 4.82637 7.66055 6.40226
#
# Compressibility (1/GPa) = 0.04284956
#
# Stress axis : x y z
#
# Youngs Moduli (GPa) = 7.58007 13.06676 75.16281
#
# Poissons Ratio (x) = 0.83904 1.00150
# Poissons Ratio (y) = 0.48673 0.89584
# Poissons Ratio (z) = 0.10100 0.15574
#
# Static dielectric constant tensor:
#      x y z
#    x 1.572630 0.000000 0.000000 
#    y 0.000000 1.564980 0.000000 
#    z 0.000000 0.000000 1.569330 
# 
# From -- ./inp_files/37047.got.cif
#   From: 2010.05.17/outbox.cif.g08.bks.cpg/sg51_19_cif.got.tgz:37047.got - 2010.06.03 11:52:47.
