data_PCOD9405579
_publ_section_title
;
Structure prediction by ZEFSAII (Michael W. Deem and Ramdas Pophale) SiO2 
 PCOD9405579
Probable space group: P M M A
;
_chemical_formula_sum "Si O2"
_cell_formula_units_Z 40
_cell_length_a 19.102113
_cell_length_b 7.503392
_cell_length_c 13.777333
_cell_angle_alpha 90.000000
_cell_angle_beta 90.000000
_cell_angle_gamma 90.000000
_cell_volume 1974.713982
_symmetry_space_group_name_H-M "P M M A"
_symmetry_group_IT_number 51
_symmetry_cell_setting 'orthorhombic'
loop_
_space_group_symop_operation_xyz
x,y,z
1/2-x,-y,z
1/2+x,-y,-z
-x,y,-z
-x,-y,-z
1/2+x,y,-z
1/2-x,y,z
x,-y,z
loop_
_atom_site_type_symbol
_atom_site_label
_atom_site_fract_x
_atom_site_fract_y
_atom_site_fract_z
Si Si1 0.023639 0.706863 0.397001
Si Si2 0.469594 0.793474 0.813218
Si Si3 0.171905 0.782024 0.904214
Si Si4 0.826996 0.215672 0.677345
Si Si5 0.116795 0.217496 0.114277
O O1 0.003174 0.500000 0.395397
O O2 0.107138 0.721244 0.384535
O O3 0.000000 0.784105 0.500000
O O4 0.989468 0.787032 0.300103
O O5 0.393262 0.720192 0.838466
O O6 0.536815 0.718255 0.870839
O O7 0.466770 0.000000 0.843277
O O8 0.250000 0.720999 0.878106
O O9 0.174048 0.000000 0.901361
O O10 0.152278 0.728989 0.014258
O O11 0.750000 0.274798 0.646256
O O12 0.841606 0.270231 0.788851
O O13 0.828489 0.000000 0.675387
O O14 0.115474 0.000000 0.114123
#
# Coordination Sequence:
#
# PCOD9405579 Si02
#       5
#     8   8   8   8   8
#     4  10  21  36  52  68  89 123 164 200 238 285
#     4   9  17  29  47  70  94 122 158 198 238 278
#     4   9  15  23  40  69 101 128 155 189 228 274
#     4   9  17  30  51  79 103 121 148 191 240 282
#     4   8  13  23  42  69  99 126 151 183 226 278
#
# _framework density 20.256098999999999
#
# number of rings (size 3 to 8) (size 9 to 14) (size 15 to 20)
#    0.000    3.000    0.000    3.000    0.000    6.800 
#    0.000    1.000    0.000   13.800    0.000    0.000 
#    0.000    0.000    0.000    0.000    0.000    0.000 
#
# Total GULP energy -223075.464367 kJ/mol
# GULP energy per Si atom -5576.886609 kJ/mol
# Density = 2.020999 g / cm^3
# Si number density = 20.256099 Si / 1000 Ang^3
#
#
#
# Elastic Constant Matrix: (Units=GPa)
#
#
# Indices 1 2 3 4 5 6 
#
# 1 161.4302 -7.6118 52.8737 0.0000 0.0000 0.0000
# 2 -7.6118 49.1977 -14.3031 0.0000 0.0000 0.0000
# 3 52.8737 -14.3031 55.3908 0.0000 0.0000 0.0000
# 4 0.0000 0.0000 0.0000 22.3875 0.0000 0.0000
# 5 0.0000 0.0000 0.0000 0.0000 19.8813 0.0000
# 6 0.0000 0.0000 0.0000 0.0000 0.0000 -12.0458
#
#
#
# Elastic Compliance Matrix: (Units=1/GPa)
#
#
# Indices 1 2 3 4 5 6 
#
# 1 0.009078 -0.001205 -0.008977 0.000000 0.000000 0.000000
# 2 -0.001205 0.022136 0.006866 0.000000 0.000000 0.000000
# 3 -0.008977 0.006866 0.028395 0.000000 0.000000 0.000000
# 4 0.000000 0.000000 0.000000 0.044668 0.000000 0.000000
# 5 0.000000 0.000000 0.000000 0.000000 0.050298 0.000000
# 6 0.000000 0.000000 0.000000 0.000000 0.000000 -0.083017
#
#
# Mechanical properties :
#
#
# Convention : Reuss Voigt Hill
#
# Bulk Modulus (GPa) = 18.87564 36.43738 27.65651
# Shear Modulus (GPa) = 52.16549 21.71528 36.94039
#
# Velocity S-wave (km/s) = 5.08024 3.27775 4.27507
# Velocity P-wave (km/s) = 6.61442 5.68790 6.16858
#
# Compressibility (1/GPa) = 0.05297835
#
# Stress axis : x y z
#
# Youngs Moduli (GPa) = 110.15718 45.17539 35.21712
#
# Poissons Ratio (x) = 0.05445 0.31613
# Poissons Ratio (y) = 0.13276 -0.24182
# Poissons Ratio (z) = 0.98884 -0.31019
#
# Static dielectric constant tensor:
#      x y z
#    x 1.732630 0.000000 0.000000 
#    y 0.000000 1.780410 0.000000 
#    z 0.000000 0.000000 1.687150 
# 
# From -- ./inp_files/24534.got.cif
#   From: 2010.05.17/outbox.cif.g08.bks.cpg/sg51_13_cif.got.tgz:24534.got - 2010.06.03 11:52:47.
