data_PCOD9405661
_publ_section_title
;
Structure prediction by ZEFSAII (Michael W. Deem and Ramdas Pophale) SiO2 
 PCOD9405661
Probable space group: P M M A
;
_chemical_formula_sum "Si O2"
_cell_formula_units_Z 48
_cell_length_a 8.579628
_cell_length_b 32.136849
_cell_length_c 9.304055
_cell_angle_alpha 90.000000
_cell_angle_beta 90.000000
_cell_angle_gamma 90.000000
_cell_volume 2565.334602
_symmetry_space_group_name_H-M "P M M A"
_symmetry_group_IT_number 51
_symmetry_cell_setting 'orthorhombic'
loop_
_space_group_symop_operation_xyz
x,y,z
1/2-x,-y,z
1/2+x,-y,-z
-x,y,-z
-x,-y,-z
1/2+x,y,-z
1/2-x,y,z
x,-y,z
loop_
_atom_site_type_symbol
_atom_site_label
_atom_site_fract_x
_atom_site_fract_y
_atom_site_fract_z
Si Si1 0.438060 0.292416 0.161301
Si Si2 0.562988 0.954631 0.836276
Si Si3 0.937382 0.789451 0.661559
Si Si4 0.561752 0.546875 0.839423
Si Si5 0.064229 0.132203 0.836739
Si Si6 0.938478 0.626538 0.660600
O O1 0.250000 0.292669 0.156549
O O2 0.486798 0.251751 0.250862
O O3 0.489294 0.334332 0.242668
O O4 0.500000 0.290928 0.000000
O O5 0.750000 0.951096 0.839385
O O6 0.491760 0.912378 0.774475
O O7 0.522275 0.000000 0.771662
O O8 0.500000 0.955636 0.000000
O O9 0.750000 0.790849 0.659408
O O10 0.000000 0.787667 0.500000
O O11 0.000687 0.829966 0.742904
O O12 0.750000 0.547643 0.843892
O O13 0.513036 0.500000 0.796677
O O14 0.509225 0.583332 0.733483
O O15 0.500000 0.554583 0.000000
O O16 0.250000 0.132983 0.842462
O O17 0.000000 0.135924 0.000000
O O18 0.750000 0.626618 0.657283
O O19 0.000000 0.630592 0.500000
#
# Coordination Sequence:
#
# PCOD9405661 Si02
#       6
#     8   8   8   8   8   8
#     4  10  22  38  58  82 107 137 175 220 266 317
#     4   9  16  27  46  74 107 141 178 222 269 315
#     4  11  23  39  57  79 107 139 177 219 268 323
#     4   9  18  33  53  77 106 140 180 225 269 316
#     4  11  21  34  54  80 110 144 182 224 269 318
#     4  10  21  36  53  78 110 142 178 219 266 319
#
# _framework density 18.711009000000001
#
# number of rings (size 3 to 8) (size 9 to 14) (size 15 to 20)
#    0.000    2.000    0.000    5.000    0.000    5.333 
#    0.000    0.000    0.000    0.500    0.000    0.000 
#    0.000    0.000    0.000    0.000    0.000    0.000 
#
# Total GULP energy -267980.390307 kJ/mol
# GULP energy per Si atom -5582.924798 kJ/mol
# Density = 1.866842 g / cm^3
# Si number density = 18.711009 Si / 1000 Ang^3
#
#
#
# Elastic Constant Matrix: (Units=GPa)
#
#
# Indices 1 2 3 4 5 6 
#
# 1 54.8401 49.3397 32.7203 0.0000 0.0000 0.0000
# 2 49.3397 205.0985 109.3922 0.0000 0.0000 0.0000
# 3 32.7203 109.3922 131.7665 0.0000 0.0000 0.0000
# 4 0.0000 0.0000 0.0000 -7.7235 0.0000 0.0000
# 5 0.0000 0.0000 0.0000 0.0000 32.1389 0.0000
# 6 0.0000 0.0000 0.0000 0.0000 0.0000 30.6397
#
#
#
# Elastic Compliance Matrix: (Units=1/GPa)
#
#
# Indices 1 2 3 4 5 6 
#
# 1 0.023578 -0.004575 -0.002057 0.000000 0.000000 0.000000
# 2 -0.004575 0.009638 -0.006865 0.000000 0.000000 0.000000
# 3 -0.002057 -0.006865 0.013800 0.000000 0.000000 0.000000
# 4 0.000000 0.000000 0.000000 -0.129475 0.000000 0.000000
# 5 0.000000 0.000000 0.000000 0.000000 0.031115 0.000000
# 6 0.000000 0.000000 0.000000 0.000000 0.000000 0.032637
#
#
# Mechanical properties :
#
#
# Convention : Reuss Voigt Hill
#
# Bulk Modulus (GPa) = 49.94659 86.06773 68.00716
# Shear Modulus (GPa) = 334.18927 24.36121 179.27524
#
# Velocity S-wave (km/s) = 13.37884 3.61220 9.79902
# Velocity P-wave (km/s) = 16.29139 7.96841 12.82391
#
# Compressibility (1/GPa) = 0.02002139
#
# Stress axis : x y z
#
# Youngs Moduli (GPa) = 42.41197 103.75486 72.46619
#
# Poissons Ratio (x) = 0.47470 0.14904
# Poissons Ratio (y) = 0.19404 0.49751
# Poissons Ratio (z) = 0.08723 0.71232
#
# Static dielectric constant tensor:
#      x y z
#    x 1.629540 0.000000 0.000000 
#    y 0.000000 1.678920 0.000000 
#    z 0.000000 0.000000 1.599740 
# 
# From -- ./inp_files/5941.got.cif
#   From: 2010.05.17/outbox.cif.g08.bks.cpg/sg51_3_cif.got.tgz:5941.got - 2010.06.03 11:52:47.
