data_PCOD9405905
_publ_section_title
;
Structure prediction by ZEFSAII (Michael W. Deem and Ramdas Pophale) SiO2 
 PCOD9405905
Probable space group: P M M A
;
_chemical_formula_sum "Si O2"
_cell_formula_units_Z 36
_cell_length_a 8.906750
_cell_length_b 12.781461
_cell_length_c 20.322393
_cell_angle_alpha 90.000000
_cell_angle_beta 90.000000
_cell_angle_gamma 90.000000
_cell_volume 2313.527186
_symmetry_space_group_name_H-M "P M M A"
_symmetry_group_IT_number 51
_symmetry_cell_setting 'orthorhombic'
loop_
_space_group_symop_operation_xyz
x,y,z
1/2-x,-y,z
1/2+x,-y,-z
-x,y,-z
-x,-y,-z
1/2+x,y,-z
1/2-x,y,z
x,-y,z
loop_
_atom_site_type_symbol
_atom_site_label
_atom_site_fract_x
_atom_site_fract_y
_atom_site_fract_z
Si Si1 0.070246 0.377662 0.203140
Si Si2 0.069215 0.305212 0.347208
Si Si3 0.569035 0.500000 0.426839
Si Si4 0.924845 0.373046 0.067562
Si Si5 0.428291 0.123357 0.571413
O O1 0.250000 0.374943 0.195835
O O2 0.026702 0.500000 0.211755
O O3 0.030266 0.319143 0.270310
O O4 0.998368 0.336916 0.135753
O O5 0.250000 0.313843 0.353748
O O6 0.991888 0.398489 0.388181
O O7 0.009639 0.196967 0.376387
O O8 0.750000 0.500000 0.429491
O O9 0.500000 0.500000 0.500000
O O10 0.750000 0.348352 0.066819
O O11 0.941032 0.500000 0.067848
O O12 0.000000 0.335362 0.000000
O O13 0.500000 0.145385 0.500000
O O14 0.250000 0.144736 0.569657
O O15 0.449683 0.000000 0.584958
#
# Coordination Sequence:
#
# PCOD9405905 Si02
#       5
#     8   8   4   8   8
#     4   9  17  30  45  63  92 126 157 192 234 280
#     4  11  21  35  52  72  98 127 161 199 244 291
#     4  12  24  36  50  68  95 128 163 198 238 288
#     4   9  16  25  39  60  86 120 160 196 229 270
#     4  10  21  37  55  74  95 122 159 203 249 294
#
# _framework density 15.560656
#
# number of rings (size 3 to 8) (size 9 to 14) (size 15 to 20)
#    0.000    2.000    1.111    3.667    0.000    5.778 
#    0.000    0.000    0.000    0.000    0.000    0.000 
#    0.000    0.889    0.000    2.889    0.000    4.222 
#
# Total GULP energy -200849.971554 kJ/mol
# GULP energy per Si atom -5579.165877 kJ/mol
# Density = 1.552524 g / cm^3
# Si number density = 15.560656 Si / 1000 Ang^3
#
#
#
# Elastic Constant Matrix: (Units=GPa)
#
#
# Indices 1 2 3 4 5 6 
#
# 1 83.4664 35.1246 80.5249 0.0000 0.0000 0.0000
# 2 35.1246 40.5301 54.3266 0.0000 0.0000 0.0000
# 3 80.5249 54.3266 182.1299 0.0000 0.0000 0.0000
# 4 0.0000 0.0000 0.0000 11.3849 0.0000 0.0000
# 5 0.0000 0.0000 0.0000 0.0000 31.9135 0.0000
# 6 0.0000 0.0000 0.0000 0.0000 0.0000 20.3027
#
#
#
# Elastic Compliance Matrix: (Units=1/GPa)
#
#
# Indices 1 2 3 4 5 6 
#
# 1 0.023368 -0.010668 -0.007149 0.000000 0.000000 0.000000
# 2 -0.010668 0.045980 -0.008998 0.000000 0.000000 0.000000
# 3 -0.007149 -0.008998 0.011336 0.000000 0.000000 0.000000
# 4 0.000000 0.000000 0.000000 0.087836 0.000000 0.000000
# 5 0.000000 0.000000 0.000000 0.000000 0.031335 0.000000
# 6 0.000000 0.000000 0.000000 0.000000 0.000000 0.049255
#
#
# Mechanical properties :
#
#
# Convention : Reuss Voigt Hill
#
# Bulk Modulus (GPa) = 36.96680 71.78651 54.37666
# Shear Modulus (GPa) = 16.03813 21.79690 18.91752
#
# Velocity S-wave (km/s) = 3.21391 3.74675 3.49051
# Velocity P-wave (km/s) = 6.13029 8.05922 7.16001
#
# Compressibility (1/GPa) = 0.02705130
#
# Stress axis : x y z
#
# Youngs Moduli (GPa) = 42.79411 21.74875 88.21736
#
# Poissons Ratio (x) = 0.23202 0.63070
# Poissons Ratio (y) = 0.45653 0.79381
# Poissons Ratio (z) = 0.30595 0.19570
#
# Static dielectric constant tensor:
#      x y z
#    x 1.520010 0.000000 0.000000 
#    y 0.000000 1.498120 0.000000 
#    z 0.000000 0.000000 1.516970 
# 
# From -- ./inp_files/27008.got.cif
#   From: 2010.05.17/outbox.cif.g08.bks.cpg/sg51_14_cif.got.tgz:27008.got - 2010.06.03 11:52:47.
