data_PCOD9405077
_publ_section_title
;
Structure prediction by ZEFSAII (Michael W. Deem and Ramdas Pophale) SiO2 
 PCOD9405077
Probable space group: P M M A
;
_chemical_formula_sum "Si O2"
_cell_formula_units_Z 48
_cell_length_a 16.326498
_cell_length_b 8.713536
_cell_length_c 17.319643
_cell_angle_alpha 90.000000
_cell_angle_beta 90.000000
_cell_angle_gamma 90.000000
_cell_volume 2463.918879
_symmetry_space_group_name_H-M "P M M A"
_symmetry_group_IT_number 51
_symmetry_cell_setting 'orthorhombic'
loop_
_space_group_symop_operation_xyz
x,y,z
1/2-x,-y,z
1/2+x,-y,-z
-x,y,-z
-x,-y,-z
1/2+x,y,-z
1/2-x,y,z
x,-y,z
loop_
_atom_site_type_symbol
_atom_site_label
_atom_site_fract_x
_atom_site_fract_y
_atom_site_fract_z
Si Si1 0.654319 0.682230 0.802811
Si Si2 0.932986 0.182687 0.659710
Si Si3 0.389852 0.680816 0.663594
Si Si4 0.250000 0.181753 0.770567
Si Si5 0.750000 0.685580 0.058094
Si Si6 0.087060 0.312819 0.034261
Si Si7 0.846167 0.181822 0.501167
O O1 0.750000 0.701749 0.822112
O O2 0.640737 0.500000 0.789849
O O3 0.630580 0.772264 0.726135
O O4 0.601330 0.731882 0.876789
O O5 0.898864 0.227891 0.575481
O O6 0.017440 0.267446 0.677329
O O7 0.945881 0.000000 0.658645
O O8 0.380292 0.500000 0.673959
O O9 0.328507 0.765695 0.721320
O O10 0.367985 0.727881 0.576020
O O11 0.250000 0.258500 0.854314
O O12 0.250000 0.000000 0.778727
O O13 0.750000 0.500000 0.056645
O O14 0.666731 0.736377 0.014759
O O15 0.086955 0.500000 0.032967
O O16 0.000000 0.261220 0.000000
O O17 0.750000 0.201162 0.518628
O O18 0.860548 0.000000 0.486635
#
# Coordination Sequence:
#
# PCOD9405077 Si02
#       7
#     8   8   8   4   4   8   8
#     4  10  20  37  60  89 125 165 211 261 306 358
#     4  11  24  40  61  91 126 166 206 250 310 374
#     4  12  25  42  64  92 121 158 207 259 309 362
#     4  12  26  44  64  89 126 163 200 251 314 377
#     4  10  20  38  64  93 122 159 212 259 304 373
#     4   9  18  34  59  90 123 161 206 257 313 369
#     4  10  21  40  64  88 122 168 208 247 305 370
#
# _framework density 19.481159999999999
#
# number of rings (size 3 to 8) (size 9 to 14) (size 15 to 20)
#    0.000    1.500    1.667    3.750    2.333    4.333 
#    0.000    0.833    0.000    1.000    0.000    0.000 
#    0.000    0.000    0.000    0.000    0.000    0.000 
#
# Total GULP energy -268339.458099 kJ/mol
# GULP energy per Si atom -5590.405377 kJ/mol
# Density = 1.943682 g / cm^3
# Si number density = 19.481160 Si / 1000 Ang^3
#
#
#
# Elastic Constant Matrix: (Units=GPa)
#
#
# Indices 1 2 3 4 5 6 
#
# 1 73.8764 13.4496 11.6483 0.0000 0.0000 0.0000
# 2 13.4496 20.6051 2.1399 0.0000 0.0000 0.0000
# 3 11.6483 2.1399 88.3852 0.0000 0.0000 0.0000
# 4 0.0000 0.0000 0.0000 38.0252 0.0000 0.0000
# 5 0.0000 0.0000 0.0000 0.0000 65.8221 0.0000
# 6 0.0000 0.0000 0.0000 0.0000 0.0000 22.5115
#
#
#
# Elastic Compliance Matrix: (Units=1/GPa)
#
#
# Indices 1 2 3 4 5 6 
#
# 1 0.015648 -0.010025 -0.001820 0.000000 0.000000 0.000000
# 2 -0.010025 0.055077 -0.000012 0.000000 0.000000 0.000000
# 3 -0.001820 -0.000012 0.011554 0.000000 0.000000 0.000000
# 4 0.000000 0.000000 0.000000 0.026298 0.000000 0.000000
# 5 0.000000 0.000000 0.000000 0.000000 0.015192 0.000000
# 6 0.000000 0.000000 0.000000 0.000000 0.000000 0.044422
#
#
# Mechanical properties :
#
#
# Convention : Reuss Voigt Hill
#
# Bulk Modulus (GPa) = 17.07499 26.37136 21.72318
# Shear Modulus (GPa) = 23.64884 35.64702 29.64793
#
# Velocity S-wave (km/s) = 3.48794 4.28228 3.90536
# Velocity P-wave (km/s) = 5.00048 6.16578 5.61345
#
# Compressibility (1/GPa) = 0.05856518
#
# Stress axis : x y z
#
# Youngs Moduli (GPa) = 63.90533 18.15655 86.54854
#
# Poissons Ratio (x) = 0.18202 0.15748
# Poissons Ratio (y) = 0.64066 0.00106
# Poissons Ratio (z) = 0.11628 0.00022
#
# Static dielectric constant tensor:
#      x y z
#    x 1.679480 0.000000 0.000000 
#    y 0.000000 1.656330 0.000000 
#    z 0.000000 0.000000 1.650940 
# 
# From -- ./inp_files/29528.got.cif
#   From: 2010.05.17/outbox.cif.g08.bks.cpg/sg51_15_cif.got.tgz:29528.got - 2010.06.03 11:52:47.
