data_PCOD9405446
_publ_section_title
;
Structure prediction by ZEFSAII (Michael W. Deem and Ramdas Pophale) SiO2 
 PCOD9405446
Probable space group: P M M A
;
_chemical_formula_sum "Si O2"
_cell_formula_units_Z 64
_cell_length_a 13.469822
_cell_length_b 9.232255
_cell_length_c 24.141386
_cell_angle_alpha 90.000000
_cell_angle_beta 90.000000
_cell_angle_gamma 90.000000
_cell_volume 3002.146271
_symmetry_space_group_name_H-M "P M M A"
_symmetry_group_IT_number 51
_symmetry_cell_setting 'orthorhombic'
loop_
_space_group_symop_operation_xyz
x,y,z
1/2-x,-y,z
1/2+x,-y,-z
-x,y,-z
-x,-y,-z
1/2+x,y,-z
1/2-x,y,z
x,-y,z
loop_
_atom_site_type_symbol
_atom_site_label
_atom_site_fract_x
_atom_site_fract_y
_atom_site_fract_z
Si Si1 0.368868 0.664592 0.186238
Si Si2 0.370782 0.834882 0.857583
Si Si3 0.628736 0.834833 0.922021
Si Si4 0.438016 0.673084 0.308351
Si Si5 0.570717 0.825773 0.582229
Si Si6 0.142687 0.824202 0.538812
Si Si7 0.862561 0.326244 0.255697
Si Si8 0.628912 0.334552 0.032355
O O1 0.250000 0.656452 0.181418
O O2 0.408303 0.500000 0.178751
O O3 0.402500 0.769428 0.137099
O O4 0.392152 0.711946 0.248736
O O5 0.250000 0.837884 0.859155
O O6 0.393921 0.742644 0.802892
O O7 0.404927 0.000000 0.852381
O O8 0.401155 0.761960 0.915231
O O9 0.750000 0.836871 0.921782
O O10 0.600167 0.734270 0.973635
O O11 0.596098 0.000000 0.930262
O O12 0.427485 0.500000 0.314865
O O13 0.394586 0.753075 0.361303
O O14 0.554691 0.710650 0.300825
O O15 0.629101 0.787311 0.526151
O O16 0.456632 0.778172 0.570320
O O17 0.573538 0.000000 0.587457
O O18 0.250000 0.772237 0.559200
O O19 0.142125 0.000000 0.541330
O O20 0.750000 0.279413 0.268849
O O21 0.862605 0.500000 0.249521
O O22 0.750000 0.336673 0.032606
O O23 0.595859 0.500000 0.038594
#
# Coordination Sequence:
#
# PCOD9405446 Si02
#       8
#     8   8   8   8   8   8   8   8
#     4   9  18  33  50  67  92 129 168 202 243 299
#     4   9  16  26  42  66  94 122 158 207 256 299
#     4   9  16  26  42  66  94 122 158 207 256 299
#     4  10  21  35  51  73 103 136 167 204 248 290
#     4   9  18  32  52  78 103 131 171 208 239 285
#     4   8  15  31  54  78 106 138 168 202 244 286
#     4   9  18  33  50  67  92 129 168 202 243 299
#     4   9  15  23  39  64  93 126 162 199 247 310
#
# _framework density 21.318080999999999
#
# number of rings (size 3 to 8) (size 9 to 14) (size 15 to 20)
#    0.000    3.000    0.000    1.875    0.000    6.500 
#    0.000    1.250    0.000    1.500    0.000    5.250 
#    0.000    0.000    0.000    0.000    0.000    0.000 
#
# Total GULP energy -357470.152985 kJ/mol
# GULP energy per Si atom -5585.471140 kJ/mol
# Density = 2.126956 g / cm^3
# Si number density = 21.318081 Si / 1000 Ang^3
#
#
#
# Elastic Constant Matrix: (Units=GPa)
#
#
# Indices 1 2 3 4 5 6 
#
# 1 49.0504 -8.4890 -15.4044 0.0000 0.0000 0.0000
# 2 -8.4890 54.8002 36.6748 0.0000 0.0000 0.0000
# 3 -15.4044 36.6748 99.0822 0.0000 0.0000 0.0000
# 4 0.0000 0.0000 0.0000 33.7864 0.0000 0.0000
# 5 0.0000 0.0000 0.0000 0.0000 13.7085 0.0000
# 6 0.0000 0.0000 0.0000 0.0000 0.0000 11.7122
#
#
#
# Elastic Compliance Matrix: (Units=1/GPa)
#
#
# Indices 1 2 3 4 5 6 
#
# 1 0.021521 0.001455 0.002807 0.000000 0.000000 0.000000
# 2 0.001455 0.024355 -0.008789 0.000000 0.000000 0.000000
# 3 0.002807 -0.008789 0.013782 0.000000 0.000000 0.000000
# 4 0.000000 0.000000 0.000000 0.029598 0.000000 0.000000
# 5 0.000000 0.000000 0.000000 0.000000 0.072948 0.000000
# 6 0.000000 0.000000 0.000000 0.000000 0.000000 0.085381
#
#
# Mechanical properties :
#
#
# Convention : Reuss Voigt Hill
#
# Bulk Modulus (GPa) = 19.76086 25.38839 22.57463
# Shear Modulus (GPa) = 18.28112 24.51817 21.39964
#
# Velocity S-wave (km/s) = 2.93156 3.39501 3.17176
# Velocity P-wave (km/s) = 4.55504 5.22525 4.90161
#
# Compressibility (1/GPa) = 0.05060510
#
# Stress axis : x y z
#
# Youngs Moduli (GPa) = 46.46703 41.05867 72.55727
#
# Poissons Ratio (x) = -0.05974 -0.20369
# Poissons Ratio (y) = -0.06761 0.63769
# Poissons Ratio (z) = -0.13045 0.36086
#
# Static dielectric constant tensor:
#      x y z
#    x 1.872320 0.000000 0.000000 
#    y 0.000000 1.722060 0.000000 
#    z 0.000000 0.000000 1.709000 
# 
# From -- ./inp_files/35780.got.cif
#   From: 2010.05.17/outbox.cif.g08.bks.cpg/sg51_18_cif.got.tgz:35780.got - 2010.06.03 11:52:47.
