data_PCOD9405533
_publ_section_title
;
Structure prediction by ZEFSAII (Michael W. Deem and Ramdas Pophale) SiO2 
 PCOD9405533
Probable space group: P M M A
;
_chemical_formula_sum "Si O2"
_cell_formula_units_Z 40
_cell_length_a 30.349273
_cell_length_b 9.091671
_cell_length_c 7.629474
_cell_angle_alpha 90.000000
_cell_angle_beta 90.000000
_cell_angle_gamma 90.000000
_cell_volume 2105.167231
_symmetry_space_group_name_H-M "P M M A"
_symmetry_group_IT_number 51
_symmetry_cell_setting 'orthorhombic'
loop_
_space_group_symop_operation_xyz
x,y,z
1/2-x,-y,z
1/2+x,-y,-z
-x,y,-z
-x,-y,-z
1/2+x,y,-z
1/2-x,y,z
x,-y,z
loop_
_atom_site_type_symbol
_atom_site_label
_atom_site_fract_x
_atom_site_fract_y
_atom_site_fract_z
Si Si1 0.638244 0.674978 0.047050
Si Si2 0.356595 0.328708 0.535520
Si Si3 0.048232 0.172589 0.940855
Si Si4 0.698325 0.824788 0.761052
Si Si5 0.452942 0.666884 0.591449
O O1 0.638374 0.500000 0.024308
O O2 0.645094 0.705343 0.255652
O O3 0.590711 0.740201 0.991645
O O4 0.675061 0.748074 0.926426
O O5 0.344210 0.500000 0.513879
O O6 0.326112 0.230760 0.413958
O O7 0.408232 0.314890 0.481005
O O8 0.048250 0.206568 0.734842
O O9 0.052410 0.000000 0.980567
O O10 0.000000 0.225052 0.000000
O O11 0.750000 0.788104 0.753927
O O12 0.693690 0.000000 0.776673
O O13 0.500000 0.671453 0.500000
O O14 0.448510 0.500000 0.670471
#
# Coordination Sequence:
#
# PCOD9405533 Si02
#       5
#     8   8   8   8   8
#     4  10  22  41  64  88 118 158 203 251 300 352
#     4   9  20  39  61  88 119 155 199 247 297 350
#     4  10  21  35  53  84 120 155 195 238 293 355
#     4  11  25  42  62  90 122 158 198 245 306 365
#     4   9  19  35  55  83 116 154 198 240 290 349
#
# _framework density 19.000865999999998
#
# number of rings (size 3 to 8) (size 9 to 14) (size 15 to 20)
#    0.000    2.200    0.000    3.000    2.800    8.400 
#    0.000    4.000    0.000    0.000    0.000    0.000 
#    0.000    0.000    0.000    0.000    0.000    0.000 
#
# Total GULP energy -223109.215572 kJ/mol
# GULP energy per Si atom -5577.730389 kJ/mol
# Density = 1.895762 g / cm^3
# Si number density = 19.000866 Si / 1000 Ang^3
#
#
#
# Elastic Constant Matrix: (Units=GPa)
#
#
# Indices 1 2 3 4 5 6 
#
# 1 180.9411 81.3175 70.2231 0.0000 0.0000 0.0000
# 2 81.3175 61.8749 44.6640 0.0000 0.0000 0.0000
# 3 70.2231 44.6640 67.7847 0.0000 0.0000 0.0000
# 4 0.0000 0.0000 0.0000 32.1708 0.0000 0.0000
# 5 0.0000 0.0000 0.0000 0.0000 30.8052 0.0000
# 6 0.0000 0.0000 0.0000 0.0000 0.0000 26.0139
#
#
#
# Elastic Compliance Matrix: (Units=1/GPa)
#
#
# Indices 1 2 3 4 5 6 
#
# 1 0.014218 -0.015358 -0.004610 0.000000 0.000000 0.000000
# 2 -0.015358 0.047410 -0.015329 0.000000 0.000000 0.000000
# 3 -0.004610 -0.015329 0.029629 0.000000 0.000000 0.000000
# 4 0.000000 0.000000 0.000000 0.031084 0.000000 0.000000
# 5 0.000000 0.000000 0.000000 0.000000 0.032462 0.000000
# 6 0.000000 0.000000 0.000000 0.000000 0.000000 0.038441
#
#
# Mechanical properties :
#
#
# Convention : Reuss Voigt Hill
#
# Bulk Modulus (GPa) = 48.39414 78.11223 63.25319
# Shear Modulus (GPa) = 18.46899 25.42439 21.94669
#
# Velocity S-wave (km/s) = 3.12109 3.66193 3.40227
# Velocity P-wave (km/s) = 6.20588 7.68626 6.98540
#
# Compressibility (1/GPa) = 0.02066366
#
# Stress axis : x y z
#
# Youngs Moduli (GPa) = 70.33510 21.09257 33.75113
#
# Poissons Ratio (x) = 0.32393 0.15559
# Poissons Ratio (y) = 1.08018 0.51737
# Poissons Ratio (z) = 0.32423 0.32333
#
# Static dielectric constant tensor:
#      x y z
#    x 1.671470 0.000000 0.000000 
#    y 0.000000 1.646480 0.000000 
#    z 0.000000 0.000000 1.672240 
# 
# From -- ./inp_files/12124.got.cif
#   From: 2010.05.17/outbox.cif.g08.bks.cpg/sg51_7_cif.got.tgz:12124.got - 2010.06.03 11:52:47.
