data_PCOD9405282
_publ_section_title
;
Structure prediction by ZEFSAII (Michael W. Deem and Ramdas Pophale) SiO2 
 PCOD9405282
Probable space group: P M M A
;
_chemical_formula_sum "Si O2"
_cell_formula_units_Z 64
_cell_length_a 19.475609
_cell_length_b 7.597082
_cell_length_c 21.354922
_cell_angle_alpha 90.000000
_cell_angle_beta 90.000000
_cell_angle_gamma 90.000000
_cell_volume 3159.627248
_symmetry_space_group_name_H-M "P M M A"
_symmetry_group_IT_number 51
_symmetry_cell_setting 'orthorhombic'
loop_
_space_group_symop_operation_xyz
x,y,z
1/2-x,-y,z
1/2+x,-y,-z
-x,y,-z
-x,-y,-z
1/2+x,y,-z
1/2-x,y,z
x,-y,z
loop_
_atom_site_type_symbol
_atom_site_label
_atom_site_fract_x
_atom_site_fract_y
_atom_site_fract_z
Si Si1 0.826485 0.212728 0.117525
Si Si2 0.076461 0.207859 0.504814
Si Si3 0.172989 0.288902 0.390600
Si Si4 0.826142 0.792924 0.754422
Si Si5 0.389466 0.215339 0.750405
Si Si6 0.328501 0.215667 0.617364
Si Si7 0.968221 0.794818 0.801472
Si Si8 0.471515 0.707093 0.934449
O O1 0.750000 0.273685 0.100574
O O2 0.845896 0.268346 0.188451
O O3 0.889841 0.268611 0.074137
O O4 0.826095 0.000000 0.117208
O O5 0.117218 0.227755 0.440155
O O6 0.122813 0.278915 0.561396
O O7 0.000000 0.283347 0.500000
O O8 0.069066 0.000000 0.518006
O O9 0.250000 0.231660 0.410056
O O10 0.171944 0.500000 0.388751
O O11 0.161727 0.223161 0.320079
O O12 0.750000 0.716804 0.767294
O O13 0.893216 0.716915 0.788529
O O14 0.822082 0.000000 0.770371
O O15 0.357221 0.270772 0.684973
O O16 0.467490 0.278220 0.761887
O O17 0.390234 0.000000 0.750704
O O18 0.250000 0.271954 0.608588
O O19 0.328284 0.000000 0.616981
O O20 0.991874 0.786203 0.873424
O O21 0.963503 0.000000 0.783365
O O22 0.486533 0.500000 0.932288
O O23 0.500000 0.778057 0.000000
#
# Coordination Sequence:
#
# PCOD9405282 Si02
#       8
#     8   8   8   8   8   8   8   8
#     4   9  17  31  53  80 106 133 170 217 265 309
#     4  10  21  33  49  72  98 131 173 221 264 307
#     4  10  21  36  53  72  98 136 176 214 262 318
#     4   9  18  33  55  81 105 130 167 218 272 320
#     4   8  14  25  45  73 100 125 157 200 251 306
#     4   9  16  26  43  68  96 125 159 202 252 304
#     4   9  18  32  54  79 104 133 166 212 262 307
#     4  10  21  36  53  75 107 146 182 213 249 299
#
# _framework density 20.255554
#
# number of rings (size 3 to 8) (size 9 to 14) (size 15 to 20)
#    0.000    2.750    0.000    2.250    1.750    4.750 
#    0.000    0.625    0.000    3.000    0.000    0.000 
#    0.000    0.000    0.000    0.000    0.000    0.000 
#
# Total GULP energy -357069.256847 kJ/mol
# GULP energy per Si atom -5579.207138 kJ/mol
# Density = 2.020945 g / cm^3
# Si number density = 20.255554 Si / 1000 Ang^3
#
#
#
# Elastic Constant Matrix: (Units=GPa)
#
#
# Indices 1 2 3 4 5 6 
#
# 1 205.2693 -1.0034 90.5898 0.0000 0.0000 0.0000
# 2 -1.0034 40.6689 -7.1211 0.0000 0.0000 0.0000
# 3 90.5898 -7.1211 74.3588 0.0000 0.0000 0.0000
# 4 0.0000 0.0000 0.0000 39.4000 0.0000 0.0000
# 5 0.0000 0.0000 0.0000 0.0000 28.0771 0.0000
# 6 0.0000 0.0000 0.0000 0.0000 0.0000 -3.4606
#
#
#
# Elastic Compliance Matrix: (Units=1/GPa)
#
#
# Indices 1 2 3 4 5 6 
#
# 1 0.010703 -0.002053 -0.013236 0.000000 0.000000 0.000000
# 2 -0.002053 0.025402 0.004934 0.000000 0.000000 0.000000
# 3 -0.013236 0.004934 0.030046 0.000000 0.000000 0.000000
# 4 0.000000 0.000000 0.000000 0.025381 0.000000 0.000000
# 5 0.000000 0.000000 0.000000 0.000000 0.035616 0.000000
# 6 0.000000 0.000000 0.000000 0.000000 0.000000 -0.288964
#
#
# Mechanical properties :
#
#
# Convention : Reuss Voigt Hill
#
# Bulk Modulus (GPa) = 22.00657 53.91419 37.96038
# Shear Modulus (GPa) = -39.69515 28.65874 -5.51820
#
# Velocity S-wave (km/s) = -4.43167 3.76554 -1.65233
# Velocity P-wave (km/s) = 3.91130 6.75133 3.89116
#
# Compressibility (1/GPa) = 0.04544098
#
# Stress axis : x y z
#
# Youngs Moduli (GPa) = 93.43376 39.36678 33.28284
#
# Poissons Ratio (x) = 0.08084 0.44052
# Poissons Ratio (y) = 0.19186 -0.16423
# Poissons Ratio (z) = 1.23665 -0.19425
#
# Static dielectric constant tensor:
#      x y z
#    x 1.737520 0.000000 0.000000 
#    y 0.000000 1.754440 0.000000 
#    z 0.000000 0.000000 1.671760 
# 
# From -- ./inp_files/33882.got.cif
#   From: 2010.05.17/outbox.cif.g08.bks.cpg/sg51_17_cif.got.tgz:33882.got - 2010.06.03 11:52:47.
