data_PCOD9405179
_publ_section_title
;
Structure prediction by ZEFSAII (Michael W. Deem and Ramdas Pophale) SiO2 
 PCOD9405179
Probable space group: P M M A
;
_chemical_formula_sum "Si O2"
_cell_formula_units_Z 40
_cell_length_a 11.394155
_cell_length_b 8.138924
_cell_length_c 19.745301
_cell_angle_alpha 90.000000
_cell_angle_beta 90.000000
_cell_angle_gamma 90.000000
_cell_volume 1831.103424
_symmetry_space_group_name_H-M "P M M A"
_symmetry_group_IT_number 51
_symmetry_cell_setting 'orthorhombic'
loop_
_space_group_symop_operation_xyz
x,y,z
1/2-x,-y,z
1/2+x,-y,-z
-x,y,-z
-x,-y,-z
1/2+x,y,-z
1/2-x,y,z
x,-y,z
loop_
_atom_site_type_symbol
_atom_site_label
_atom_site_fract_x
_atom_site_fract_y
_atom_site_fract_z
Si Si1 0.250000 0.201251 0.159061
Si Si2 0.527338 0.192171 0.926349
Si Si3 0.250000 0.693864 0.316060
Si Si4 0.881080 0.799589 0.462155
Si Si5 0.503913 0.805868 0.325054
Si Si6 0.381263 0.691869 0.808921
O O1 0.362631 0.258378 0.116254
O O2 0.250000 0.265403 0.235587
O O3 0.250000 0.000000 0.164339
O O4 0.419505 0.210611 0.875285
O O5 0.554776 0.000000 0.937054
O O6 0.500000 0.265152 0.000000
O O7 0.250000 0.500000 0.325789
O O8 0.370052 0.767720 0.345381
O O9 0.750000 0.743364 0.483116
O O10 0.000000 0.743101 0.500000
O O11 0.906474 0.756011 0.383865
O O12 0.880524 0.000000 0.467176
O O13 0.533649 0.722914 0.254040
O O14 0.514417 0.000000 0.314841
O O15 0.250000 0.738141 0.787609
O O16 0.384321 0.500000 0.826223
#
# Coordination Sequence:
#
# PCOD9405179 Si02
#       6
#     4   8   4   8   8   8
#     4  10  20  38  60  88 120 149 194 249 302 361
#     4  10  22  38  60  87 116 152 196 251 307 365
#     4  12  24  38  60  90 124 161 202 251 312 371
#     4   9  19  35  59  94 131 162 198 252 313 365
#     4  11  22  38  63  92 121 158 207 255 304 361
#     4  11  24  40  58  84 118 158 201 249 305 366
#
# _framework density 21.844752
#
# number of rings (size 3 to 8) (size 9 to 14) (size 15 to 20)
#    0.000    1.600    2.000    2.700    2.800    2.800 
#    0.000    0.000    0.000    2.400    0.000    0.000 
#    0.000    0.000    0.000    0.000    0.000    0.000 
#
# Total GULP energy -223451.305079 kJ/mol
# GULP energy per Si atom -5586.282627 kJ/mol
# Density = 2.179503 g / cm^3
# Si number density = 21.844752 Si / 1000 Ang^3
#
#
#
# Elastic Constant Matrix: (Units=GPa)
#
#
# Indices 1 2 3 4 5 6 
#
# 1 133.1304 -12.2097 19.5932 0.0000 0.0000 0.0000
# 2 -12.2097 6.7778 -3.5099 0.0000 0.0000 0.0000
# 3 19.5932 -3.5099 65.2536 0.0000 0.0000 0.0000
# 4 0.0000 0.0000 0.0000 134.9351 0.0000 0.0000
# 5 0.0000 0.0000 0.0000 0.0000 28.7512 0.0000
# 6 0.0000 0.0000 0.0000 0.0000 0.0000 19.4944
#
#
#
# Elastic Compliance Matrix: (Units=1/GPa)
#
#
# Indices 1 2 3 4 5 6 
#
# 1 0.009229 0.015625 -0.001931 0.000000 0.000000 0.000000
# 2 0.015625 0.178223 0.004895 0.000000 0.000000 0.000000
# 3 -0.001931 0.004895 0.016168 0.000000 0.000000 0.000000
# 4 0.000000 0.000000 0.000000 0.007411 0.000000 0.000000
# 5 0.000000 0.000000 0.000000 0.000000 0.034781 0.000000
# 6 0.000000 0.000000 0.000000 0.000000 0.000000 0.051297
#
#
# Mechanical properties :
#
#
# Convention : Reuss Voigt Hill
#
# Bulk Modulus (GPa) = 4.15287 23.65656 13.90472
# Shear Modulus (GPa) = 14.69743 50.05535 32.37639
#
# Velocity S-wave (km/s) = 2.59668 4.79206 3.85400
# Velocity P-wave (km/s) = 3.30084 6.43983 5.11698
#
# Compressibility (1/GPa) = 0.24079716
#
# Stress axis : x y z
#
# Youngs Moduli (GPa) = 108.35952 5.61096 61.85138
#
# Poissons Ratio (x) = -0.08767 0.11941
# Poissons Ratio (y) = -1.69310 -0.30275
# Poissons Ratio (z) = 0.20919 -0.02746
#
# Static dielectric constant tensor:
#      x y z
#    x 1.840810 0.000000 0.000000 
#    y 0.000000 1.760640 0.000000 
#    z 0.000000 0.000000 1.774780 
# 
# From -- ./inp_files/32805.got.cif
#   From: 2010.05.17/outbox.cif.g08.bks.cpg/sg51_17_cif.got.tgz:32805.got - 2010.06.03 11:52:47.
