data_PCOD9405807
_publ_section_title
;
Structure prediction by ZEFSAII (Michael W. Deem and Ramdas Pophale) SiO2 
 PCOD9405807
Probable space group: P M M A
;
_chemical_formula_sum "Si O2"
_cell_formula_units_Z 56
_cell_length_a 8.018590
_cell_length_b 20.577586
_cell_length_c 16.145617
_cell_angle_alpha 90.000000
_cell_angle_beta 90.000000
_cell_angle_gamma 90.000000
_cell_volume 2664.078880
_symmetry_space_group_name_H-M "P M M A"
_symmetry_group_IT_number 51
_symmetry_cell_setting 'orthorhombic'
loop_
_space_group_symop_operation_xyz
x,y,z
1/2-x,-y,z
1/2+x,-y,-z
-x,y,-z
-x,-y,-z
1/2+x,y,-z
1/2-x,y,z
x,-y,z
loop_
_atom_site_type_symbol
_atom_site_label
_atom_site_fract_x
_atom_site_fract_y
_atom_site_fract_z
Si Si1 0.940495 0.071632 0.260998
Si Si2 0.433884 0.922552 0.085007
Si Si3 0.048124 0.570475 0.650867
Si Si4 0.448900 0.712256 0.092837
Si Si5 0.049585 0.703903 0.588126
Si Si6 0.049216 0.427462 0.156261
Si Si7 0.952212 0.788480 0.257541
O O1 0.750000 0.068941 0.290806
O O2 0.018665 0.140286 0.284783
O O3 0.942839 0.081300 0.161531
O O4 0.017255 0.000000 0.277301
O O5 0.250000 0.896843 0.106408
O O6 0.415607 0.000000 0.071878
O O7 0.500000 0.893566 0.000000
O O8 0.250000 0.570794 0.649443
O O9 0.987871 0.500000 0.622719
O O10 0.985982 0.630300 0.597090
O O11 0.996246 0.578904 0.746744
O O12 0.250000 0.709971 0.095840
O O13 0.513287 0.638291 0.111657
O O14 0.502801 0.760606 0.167051
O O15 0.500000 0.731438 0.000000
O O16 0.250000 0.703649 0.591363
O O17 0.990977 0.740113 0.670555
O O18 0.000000 0.732661 0.500000
O O19 0.250000 0.428101 0.148657
O O20 0.988957 0.500000 0.128976
O O21 0.750000 0.792533 0.258756
#
# Coordination Sequence:
#
# PCOD9405807 Si02
#       7
#     8   8   8   8   8   8   8
#     4   9  18  33  54  77  99 129 170 215 267 324
#     4   9  16  26  42  66  97 130 164 204 250 303
#     4   9  17  31  53  80 110 144 180 220 269 321
#     4  11  23  37  56  81 111 149 191 231 274 323
#     4  10  21  36  56  82 111 144 182 222 269 324
#     4   9  18  33  53  78 108 143 185 231 275 317
#     4  10  21  39  59  80 110 143 179 227 276 326
#
# _framework density 21.020401
#
# number of rings (size 3 to 8) (size 9 to 14) (size 15 to 20)
#    0.000    2.429    1.429    0.857    0.000    5.143 
#    0.000    0.000    0.000    0.429    0.000    0.000 
#    0.000    0.000    0.000    0.000    0.000    0.000 
#
# Total GULP energy -312054.534827 kJ/mol
# GULP energy per Si atom -5572.402408 kJ/mol
# Density = 2.097256 g / cm^3
# Si number density = 21.020401 Si / 1000 Ang^3
#
#
#
# Elastic Constant Matrix: (Units=GPa)
#
#
# Indices 1 2 3 4 5 6 
#
# 1 26.8262 9.3971 -3.4159 0.0000 0.0000 0.0000
# 2 9.3971 153.3637 46.5516 0.0000 0.0000 0.0000
# 3 -3.4159 46.5516 83.8789 0.0000 0.0000 0.0000
# 4 0.0000 0.0000 0.0000 -0.3292 0.0000 0.0000
# 5 0.0000 0.0000 0.0000 0.0000 20.7942 0.0000
# 6 0.0000 0.0000 0.0000 0.0000 0.0000 9.1966
#
#
#
# Elastic Compliance Matrix: (Units=1/GPa)
#
#
# Indices 1 2 3 4 5 6 
#
# 1 0.038930 -0.003447 0.003499 0.000000 0.000000 0.000000
# 2 -0.003447 0.008147 -0.004662 0.000000 0.000000 0.000000
# 3 0.003499 -0.004662 0.014652 0.000000 0.000000 0.000000
# 4 0.000000 0.000000 0.000000 -3.037876 0.000000 0.000000
# 5 0.000000 0.000000 0.000000 0.000000 0.048090 0.000000
# 6 0.000000 0.000000 0.000000 0.000000 0.000000 0.108736
#
#
# Mechanical properties :
#
#
# Convention : Reuss Voigt Hill
#
# Bulk Modulus (GPa) = 19.04487 41.01493 30.02990
# Shear Modulus (GPa) = -1.79045 20.03472 9.12214
#
# Velocity S-wave (km/s) = -0.92391 3.09059 2.08544
# Velocity P-wave (km/s) = 2.81810 5.68243 4.48507
#
# Compressibility (1/GPa) = 0.05250757
#
# Stress axis : x y z
#
# Youngs Moduli (GPa) = 25.68705 122.74961 68.25199
#
# Poissons Ratio (x) = 0.42316 -0.23879
# Poissons Ratio (y) = 0.08855 0.31817
# Poissons Ratio (z) = -0.08987 0.57222
#
# Static dielectric constant tensor:
#      x y z
#    x 1.771050 0.000000 0.000000 
#    y 0.000000 1.861250 0.000000 
#    z 0.000000 0.000000 1.719710 
# 
# From -- ./inp_files/21771.got.cif
#   From: 2010.05.17/outbox.cif.g08.bks.cpg/sg51_11_cif.got.tgz:21771.got - 2010.06.03 11:52:47.
