data_PCOD9405755
_publ_section_title
;
Structure prediction by ZEFSAII (Michael W. Deem and Ramdas Pophale) SiO2 
 PCOD9405755
Probable space group: P M M A
;
_chemical_formula_sum "Si O2"
_cell_formula_units_Z 48
_cell_length_a 14.735516
_cell_length_b 7.757989
_cell_length_c 18.490378
_cell_angle_alpha 90.000000
_cell_angle_beta 90.000000
_cell_angle_gamma 90.000000
_cell_volume 2113.782497
_symmetry_space_group_name_H-M "P M M A"
_symmetry_group_IT_number 51
_symmetry_cell_setting 'orthorhombic'
loop_
_space_group_symop_operation_xyz
x,y,z
1/2-x,-y,z
1/2+x,-y,-z
-x,y,-z
-x,-y,-z
1/2+x,y,-z
1/2-x,y,z
x,-y,z
loop_
_atom_site_type_symbol
_atom_site_label
_atom_site_fract_x
_atom_site_fract_y
_atom_site_fract_z
Si Si1 0.143841 0.202682 0.968567
Si Si2 0.153283 0.288357 0.367737
Si Si3 0.453572 0.704794 0.670873
Si Si4 0.606199 0.696978 0.477039
Si Si5 0.453635 0.802120 0.828074
Si Si6 0.148273 0.699005 0.132500
O O1 0.250000 0.211798 0.949085
O O2 0.086105 0.275620 0.902092
O O3 0.120129 0.000000 0.980548
O O4 0.133145 0.291406 0.045972
O O5 0.250000 0.237532 0.334132
O O6 0.151152 0.500000 0.367305
O O7 0.151636 0.228276 0.451504
O O8 0.057845 0.229955 0.334346
O O9 0.458061 0.500000 0.657539
O O10 0.395313 0.775847 0.603267
O O11 0.420137 0.730130 0.751917
O O12 0.500000 0.690106 0.500000
O O13 0.640319 0.500000 0.471566
O O14 0.562391 0.788050 0.831856
O O15 0.425480 0.000000 0.829747
O O16 0.250000 0.768822 0.145577
O O17 0.147021 0.500000 0.156316
#
# Coordination Sequence:
#
# PCOD9405755 Si02
#       6
#     8   8   8   8   8   8
#     4   9  19  37  57  74  96 130 172 213 251 297
#     4   8  13  23  43  69  92 118 158 205 249 294
#     4   9  17  29  45  67  97 129 160 200 249 297
#     4   7  11  22  40  60  83 113 148 187 233 282
#     4  11  22  34  51  75 103 138 173 204 247 301
#     4  10  21  36  55  79 104 130 163 206 254 301
#
# _framework density 22.708106999999998
#
# number of rings (size 3 to 8) (size 9 to 14) (size 15 to 20)
#    0.000    3.000    0.000    3.500    0.000    5.000 
#    0.000    2.500    0.000    5.500    0.000    0.000 
#    0.000    0.000    0.000    0.000    0.000    0.000 
#
# Total GULP energy -267603.012563 kJ/mol
# GULP energy per Si atom -5575.062762 kJ/mol
# Density = 2.265642 g / cm^3
# Si number density = 22.708107 Si / 1000 Ang^3
#
#
#
# Elastic Constant Matrix: (Units=GPa)
#
#
# Indices 1 2 3 4 5 6 
#
# 1 33.6002 -2.2980 9.3812 0.0000 0.0000 0.0000
# 2 -2.2980 29.4599 -5.3751 0.0000 0.0000 0.0000
# 3 9.3812 -5.3751 98.8930 0.0000 0.0000 0.0000
# 4 0.0000 0.0000 0.0000 35.3048 0.0000 0.0000
# 5 0.0000 0.0000 0.0000 0.0000 5.4769 0.0000
# 6 0.0000 0.0000 0.0000 0.0000 0.0000 -3.9726
#
#
#
# Elastic Compliance Matrix: (Units=1/GPa)
#
#
# Indices 1 2 3 4 5 6 
#
# 1 0.030674 0.001880 -0.002808 0.000000 0.000000 0.000000
# 2 0.001880 0.034400 0.001691 0.000000 0.000000 0.000000
# 3 -0.002808 0.001691 0.010470 0.000000 0.000000 0.000000
# 4 0.000000 0.000000 0.000000 0.028325 0.000000 0.000000
# 5 0.000000 0.000000 0.000000 0.000000 0.182585 0.000000
# 6 0.000000 0.000000 0.000000 0.000000 0.000000 -0.251722
#
#
# Mechanical properties :
#
#
# Convention : Reuss Voigt Hill
#
# Bulk Modulus (GPa) = 12.97481 18.37436 15.67459
# Shear Modulus (GPa) = 84.89790 18.04482 51.47136
#
# Velocity S-wave (km/s) = 6.12109 2.82200 4.76610
# Velocity P-wave (km/s) = 7.46211 4.32751 6.09961
#
# Compressibility (1/GPa) = 0.07707243
#
# Stress axis : x y z
#
# Youngs Moduli (GPa) = 32.60067 29.07001 95.50914
#
# Poissons Ratio (x) = -0.05466 0.26815
# Poissons Ratio (y) = -0.06130 -0.16154
# Poissons Ratio (z) = 0.09153 -0.04917
#
# Static dielectric constant tensor:
#      x y z
#    x 1.852450 0.000000 0.000000 
#    y 0.000000 1.851470 0.000000 
#    z 0.000000 0.000000 1.891830 
# 
# From -- ./inp_files/29475.got.cif
#   From: 2010.05.17/outbox.cif.g08.bks.cpg/sg51_15_cif.got.tgz:29475.got - 2010.06.03 11:52:47.
