data_PCOD9405651
_publ_section_title
;
Structure prediction by ZEFSAII (Michael W. Deem and Ramdas Pophale) SiO2 
 PCOD9405651
Probable space group: P M M A
;
_chemical_formula_sum "Si O2"
_cell_formula_units_Z 56
_cell_length_a 19.761501
_cell_length_b 7.806116
_cell_length_c 16.990104
_cell_angle_alpha 90.000000
_cell_angle_beta 90.000000
_cell_angle_gamma 90.000000
_cell_volume 2620.903113
_symmetry_space_group_name_H-M "P M M A"
_symmetry_group_IT_number 51
_symmetry_cell_setting 'orthorhombic'
loop_
_space_group_symop_operation_xyz
x,y,z
1/2-x,-y,z
1/2+x,-y,-z
-x,y,-z
-x,-y,-z
1/2+x,y,-z
1/2-x,y,z
x,-y,z
loop_
_atom_site_type_symbol
_atom_site_label
_atom_site_fract_x
_atom_site_fract_y
_atom_site_fract_z
Si Si1 0.173964 0.294075 0.476964
Si Si2 0.421568 0.300762 0.160398
Si Si3 0.828107 0.795850 0.697017
Si Si4 0.548237 0.709391 0.428738
Si Si5 0.423476 0.196765 0.993042
Si Si6 0.826643 0.702911 0.147695
Si Si7 0.447491 0.289738 0.748784
O O1 0.250000 0.224638 0.483597
O O2 0.177206 0.500000 0.480678
O O3 0.146507 0.249475 0.390313
O O4 0.123257 0.237958 0.544480
O O5 0.428526 0.500000 0.140030
O O6 0.371746 0.283523 0.233936
O O7 0.396722 0.208049 0.082191
O O8 0.494104 0.234360 0.190830
O O9 0.750000 0.736664 0.700762
O O10 0.829406 0.000000 0.705797
O O11 0.500000 0.766515 0.500000
O O12 0.544630 0.500000 0.427751
O O13 0.535259 0.766677 0.339742
O O14 0.431119 0.000000 0.968654
O O15 0.500000 0.272019 0.000000
O O16 0.371202 0.276013 0.931475
O O17 0.750000 0.773480 0.142709
O O18 0.820312 0.500000 0.160754
O O19 0.874906 0.768208 0.218222
O O20 0.448405 0.500000 0.748651
#
# Coordination Sequence:
#
# PCOD9405651 Si02
#       7
#     8   8   8   8   8   8   8
#     4   9  17  30  50  75 103 139 183 226 270 326
#     4  11  21  35  60  85 110 144 185 230 276 331
#     4  10  21  36  53  76 110 147 183 230 285 337
#     4   9  16  27  47  77 111 141 178 227 278 324
#     4  11  23  39  60  84 113 149 186 228 280 339
#     4  10  21  38  60  86 116 150 191 237 283 335
#     4   9  18  32  53  83 114 147 183 230 284 329
#
# _framework density 21.366679999999999
#
# number of rings (size 3 to 8) (size 9 to 14) (size 15 to 20)
#    0.000    2.143    1.429    2.143    0.000    5.143 
#    0.000    2.857    0.000    5.571    0.000    2.000 
#    0.000    0.000    0.000    0.000    0.000    0.000 
#
# Total GULP energy -312641.333340 kJ/mol
# GULP energy per Si atom -5582.880953 kJ/mol
# Density = 2.131805 g / cm^3
# Si number density = 21.366680 Si / 1000 Ang^3
#
#
#
# Elastic Constant Matrix: (Units=GPa)
#
#
# Indices 1 2 3 4 5 6 
#
# 1 88.9238 4.9533 38.1956 0.0000 0.0000 0.0000
# 2 4.9533 31.8405 -1.3116 0.0000 0.0000 0.0000
# 3 38.1956 -1.3116 117.8553 0.0000 0.0000 0.0000
# 4 0.0000 0.0000 0.0000 -18.1053 0.0000 0.0000
# 5 0.0000 0.0000 0.0000 0.0000 31.5740 0.0000
# 6 0.0000 0.0000 0.0000 0.0000 0.0000 9.3535
#
#
#
# Elastic Compliance Matrix: (Units=1/GPa)
#
#
# Indices 1 2 3 4 5 6 
#
# 1 0.013221 -0.002234 -0.004310 0.000000 0.000000 0.000000
# 2 -0.002234 0.031799 0.001078 0.000000 0.000000 0.000000
# 3 -0.004310 0.001078 0.009894 0.000000 0.000000 0.000000
# 4 0.000000 0.000000 0.000000 -0.055232 0.000000 0.000000
# 5 0.000000 0.000000 0.000000 0.000000 0.031672 0.000000
# 6 0.000000 0.000000 0.000000 0.000000 0.000000 0.106912
#
#
# Mechanical properties :
#
#
# Convention : Reuss Voigt Hill
#
# Bulk Modulus (GPa) = 22.73689 35.81048 29.27369
# Shear Modulus (GPa) = 30.51445 17.68326 24.09885
#
# Velocity S-wave (km/s) = 3.78316 2.87994 3.36202
# Velocity P-wave (km/s) = 5.45413 5.27779 5.36668
#
# Compressibility (1/GPa) = 0.04398138
#
# Stress axis : x y z
#
# Youngs Moduli (GPa) = 75.63614 31.44802 101.07437
#
# Poissons Ratio (x) = 0.07026 0.43560
# Poissons Ratio (y) = 0.16899 -0.10896
# Poissons Ratio (z) = 0.32597 -0.03390
#
# Static dielectric constant tensor:
#      x y z
#    x 1.803950 0.000000 0.000000 
#    y 0.000000 1.778270 0.000000 
#    z 0.000000 0.000000 1.748090 
# 
# From -- ./inp_files/25777.got.cif
#   From: 2010.05.17/outbox.cif.g08.bks.cpg/sg51_13_cif.got.tgz:25777.got - 2010.06.03 11:52:47.
