data_PCOD9405321
_publ_section_title
;
Structure prediction by ZEFSAII (Michael W. Deem and Ramdas Pophale) SiO2 
 PCOD9405321
Probable space group: P M M A
;
_chemical_formula_sum "Si O2"
_cell_formula_units_Z 44
_cell_length_a 7.422262
_cell_length_b 30.939130
_cell_length_c 9.115307
_cell_angle_alpha 90.000000
_cell_angle_beta 90.000000
_cell_angle_gamma 90.000000
_cell_volume 2093.223867
_symmetry_space_group_name_H-M "P M M A"
_symmetry_group_IT_number 51
_symmetry_cell_setting 'orthorhombic'
loop_
_space_group_symop_operation_xyz
x,y,z
1/2-x,-y,z
1/2+x,-y,-z
-x,y,-z
-x,-y,-z
1/2+x,y,-z
1/2-x,y,z
x,-y,z
loop_
_atom_site_type_symbol
_atom_site_label
_atom_site_fract_x
_atom_site_fract_y
_atom_site_fract_z
Si Si1 0.534397 0.586263 0.326518
Si Si2 0.965525 0.319079 0.326815
Si Si3 0.034215 0.766994 0.826400
Si Si4 0.034409 0.860530 0.824435
Si Si5 0.465801 0.046505 0.824228
Si Si6 0.534423 0.500000 0.171892
O O1 0.500000 0.581972 0.500000
O O2 0.750000 0.587173 0.305647
O O3 0.465277 0.633613 0.278409
O O4 0.463204 0.544110 0.244211
O O5 0.750000 0.319573 0.303800
O O6 0.037782 0.276265 0.248832
O O7 0.000000 0.315859 0.500000
O O8 0.250000 0.767622 0.804542
O O9 0.965424 0.813876 0.771106
O O10 0.000000 0.764509 0.000000
O O11 0.250000 0.860751 0.803425
O O12 0.964978 0.906998 0.768037
O O13 0.000000 0.860398 0.000000
O O14 0.250000 0.046469 0.803936
O O15 0.534919 0.000000 0.768086
O O16 0.500000 0.046539 0.000000
O O17 0.750000 0.500000 0.196607
O O18 0.500000 0.500000 0.000000
#
# Coordination Sequence:
#
# PCOD9405321 Si02
#       6
#     8   8   8   8   8   4
#     4   9  18  33  51  69  89 115 147 180 213 251
#     4   9  18  32  48  66  88 113 143 179 215 250
#     4   9  17  28  42  61  85 112 140 171 209 253
#     4   8  13  21  32  47  70  99 128 159 197 240
#     4   8  12  17  26  41  62  90 123 156 190 231
#     4  10  21  34  48  70  98 122 145 176 212 250
#
# _framework density 21.020206000000002
#
# number of rings (size 3 to 8) (size 9 to 14) (size 15 to 20)
#    0.000    3.273    0.000    0.273    0.000    2.182 
#    0.000    0.000    0.000    0.000    0.000    0.000 
#    0.000    0.727    0.000    0.545    0.000   10.909 
#
# Total GULP energy -244991.178562 kJ/mol
# GULP energy per Si atom -5567.981331 kJ/mol
# Density = 2.097236 g / cm^3
# Si number density = 21.020206 Si / 1000 Ang^3
#
#
#
# Elastic Constant Matrix: (Units=GPa)
#
#
# Indices 1 2 3 4 5 6 
#
# 1 75.2160 16.9362 -6.0701 0.0000 0.0000 0.0000
# 2 16.9362 326.0644 70.6056 0.0000 0.0000 0.0000
# 3 -6.0701 70.6056 24.1482 0.0000 0.0000 0.0000
# 4 0.0000 0.0000 0.0000 -10.7256 0.0000 0.0000
# 5 0.0000 0.0000 0.0000 0.0000 12.5885 0.0000
# 6 0.0000 0.0000 0.0000 0.0000 0.0000 0.6454
#
#
#
# Elastic Compliance Matrix: (Units=1/GPa)
#
#
# Indices 1 2 3 4 5 6 
#
# 1 0.015715 -0.004556 0.017272 0.000000 0.000000 0.000000
# 2 -0.004556 0.009681 -0.029450 0.000000 0.000000 0.000000
# 3 0.017272 -0.029450 0.131859 0.000000 0.000000 0.000000
# 4 0.000000 0.000000 0.000000 -0.093235 0.000000 0.000000
# 5 0.000000 0.000000 0.000000 0.000000 0.079438 0.000000
# 6 0.000000 0.000000 0.000000 0.000000 0.000000 1.549477
#
#
# Mechanical properties :
#
#
# Convention : Reuss Voigt Hill
#
# Bulk Modulus (GPa) = 8.07840 65.37468 36.72654
# Shear Modulus (GPa) = 2.82859 23.43212 13.13036
#
# Velocity S-wave (km/s) = 1.16128 3.34240 2.50202
# Velocity P-wave (km/s) = 2.37689 6.78704 5.08495
#
# Compressibility (1/GPa) = 0.12378684
#
# Stress axis : x y z
#
# Youngs Moduli (GPa) = 63.63384 103.29995 7.58387
#
# Poissons Ratio (x) = 0.47068 -0.13099
# Poissons Ratio (y) = 0.28994 0.22334
# Poissons Ratio (z) = -1.09911 3.04215
#
# Static dielectric constant tensor:
#      x y z
#    x 1.753370 0.000000 0.000000 
#    y 0.000000 1.870100 0.000000 
#    z 0.000000 0.000000 1.634040 
# 
# From -- ./inp_files/5777.got.cif
#   From: 2010.05.17/outbox.cif.g08.bks.cpg/sg51_3_cif.got.tgz:5777.got - 2010.06.03 11:52:47.
