data_PCOD9405361
_publ_section_title
;
Structure prediction by ZEFSAII (Michael W. Deem and Ramdas Pophale) SiO2 
 PCOD9405361
Probable space group: P M M A
;
_chemical_formula_sum "Si O2"
_cell_formula_units_Z 64
_cell_length_a 15.585808
_cell_length_b 24.231327
_cell_length_c 9.187726
_cell_angle_alpha 90.000000
_cell_angle_beta 90.000000
_cell_angle_gamma 90.000000
_cell_volume 3469.880796
_symmetry_space_group_name_H-M "P M M A"
_symmetry_group_IT_number 51
_symmetry_cell_setting 'orthorhombic'
loop_
_space_group_symop_operation_xyz
x,y,z
1/2-x,-y,z
1/2+x,-y,-z
-x,y,-z
-x,-y,-z
1/2+x,y,-z
1/2-x,y,z
x,-y,z
loop_
_atom_site_type_symbol
_atom_site_label
_atom_site_fract_x
_atom_site_fract_y
_atom_site_fract_z
Si Si1 0.347985 0.849905 0.357016
Si Si2 0.649106 0.753692 0.260587
Si Si3 0.650530 0.438464 0.876778
Si Si4 0.651326 0.873184 0.292910
Si Si5 0.083950 0.655054 0.910349
Si Si6 0.488752 0.938064 0.323748
Si Si7 0.146190 0.275121 0.413161
Si Si8 0.033425 0.380835 0.340874
O O1 0.250000 0.858948 0.306505
O O2 0.347796 0.861317 0.532127
O O3 0.416908 0.891957 0.291568
O O4 0.369162 0.784881 0.340949
O O5 0.750000 0.761588 0.284534
O O6 0.617802 0.815197 0.227340
O O7 0.634910 0.708911 0.136971
O O8 0.617461 0.731891 0.417667
O O9 0.750000 0.435802 0.836729
O O10 0.631814 0.500000 0.934314
O O11 0.592293 0.425906 0.737467
O O12 0.631258 0.390880 0.994273
O O13 0.750000 0.885399 0.250558
O O14 0.581393 0.919794 0.263791
O O15 0.047693 0.628302 0.763286
O O16 0.000000 0.672273 0.000000
O O17 0.500000 0.938424 0.500000
O O18 0.464631 0.000000 0.279177
O O19 0.250000 0.285577 0.407117
O O20 0.091212 0.324868 0.347388
O O21 0.000000 0.394602 0.500000
#
# Coordination Sequence:
#
# PCOD9405361 Si02
#       8
#     8   8   8   8   8   8   8   8
#     4   8  15  25  37  58  89 129 170 212 260 314
#     4   9  16  29  49  72 100 133 173 218 266 321
#     4  10  23  44  62  75 105 152 187 214 259 324
#     4   8  15  25  38  59  87 124 167 217 268 314
#     4  10  21  34  54  82 108 140 178 218 270 326
#     4   9  16  23  34  54  85 131 175 212 255 318
#     4   9  17  29  48  74 105 136 169 214 272 330
#     4  11  21  33  56  88 112 135 172 226 279 320
#
# _framework density 18.444437000000001
#
# number of rings (size 3 to 8) (size 9 to 14) (size 15 to 20)
#    0.000    2.750    1.250    2.250    1.750    3.500 
#    0.000    2.500    0.000    1.500    0.000    0.000 
#    0.000    0.500    0.000    0.000    1.000    0.500 
#
# Total GULP energy -356584.293314 kJ/mol
# GULP energy per Si atom -5571.629583 kJ/mol
# Density = 1.840246 g / cm^3
# Si number density = 18.444437 Si / 1000 Ang^3
#
#
#
# Elastic Constant Matrix: (Units=GPa)
#
#
# Indices 1 2 3 4 5 6 
#
# 1 64.1377 43.8504 10.7084 0.0000 0.0000 0.0000
# 2 43.8504 101.6298 12.8642 0.0000 0.0000 0.0000
# 3 10.7084 12.8642 44.2461 0.0000 0.0000 0.0000
# 4 0.0000 0.0000 0.0000 6.9741 0.0000 0.0000
# 5 0.0000 0.0000 0.0000 0.0000 11.4953 0.0000
# 6 0.0000 0.0000 0.0000 0.0000 0.0000 26.3503
#
#
#
# Elastic Compliance Matrix: (Units=1/GPa)
#
#
# Indices 1 2 3 4 5 6 
#
# 1 0.022425 -0.009332 -0.002714 0.000000 0.000000 0.000000
# 2 -0.009332 0.014099 -0.001841 0.000000 0.000000 0.000000
# 3 -0.002714 -0.001841 0.023793 0.000000 0.000000 0.000000
# 4 0.000000 0.000000 0.000000 0.143388 0.000000 0.000000
# 5 0.000000 0.000000 0.000000 0.000000 0.086992 0.000000
# 6 0.000000 0.000000 0.000000 0.000000 0.000000 0.037950
#
#
# Mechanical properties :
#
#
# Convention : Reuss Voigt Hill
#
# Bulk Modulus (GPa) = 30.72830 38.31773 34.52302
# Shear Modulus (GPa) = 13.61401 18.46999 16.04200
#
# Velocity S-wave (km/s) = 2.71976 3.16790 2.95235
# Velocity P-wave (km/s) = 5.15353 5.84813 5.51178
#
# Compressibility (1/GPa) = 0.03254329
#
# Stress axis : x y z
#
# Youngs Moduli (GPa) = 44.59331 70.92605 42.02942
#
# Poissons Ratio (x) = 0.66189 0.11407
# Poissons Ratio (y) = 0.41615 0.07736
# Poissons Ratio (z) = 0.12102 0.13055
#
# Static dielectric constant tensor:
#      x y z
#    x 1.645360 0.000000 0.000000 
#    y 0.000000 1.654130 0.000000 
#    z 0.000000 0.000000 1.636880 
# 
# From -- ./inp_files/8736.got.cif
#   From: 2010.05.17/outbox.cif.g08.bks.cpg/sg51_5_cif.got.tgz:8736.got - 2010.06.03 11:52:47.
