data_PCOD9405538
_publ_section_title
;
Structure prediction by ZEFSAII (Michael W. Deem and Ramdas Pophale) SiO2 
 PCOD9405538
Probable space group: P M M A
;
_chemical_formula_sum "Si O2"
_cell_formula_units_Z 48
_cell_length_a 17.708157
_cell_length_b 17.886161
_cell_length_c 8.202033
_cell_angle_alpha 90.000000
_cell_angle_beta 90.000000
_cell_angle_gamma 90.000000
_cell_volume 2597.837680
_symmetry_space_group_name_H-M "P M M A"
_symmetry_group_IT_number 51
_symmetry_cell_setting 'orthorhombic'
loop_
_space_group_symop_operation_xyz
x,y,z
1/2-x,-y,z
1/2+x,-y,-z
-x,y,-z
-x,-y,-z
1/2+x,y,-z
1/2-x,y,z
x,-y,z
loop_
_atom_site_type_symbol
_atom_site_label
_atom_site_fract_x
_atom_site_fract_y
_atom_site_fract_z
Si Si1 0.340103 0.168598 0.717834
Si Si2 0.587937 0.090111 0.970686
Si Si3 0.069660 0.303766 0.597394
Si Si4 0.838292 0.585827 0.626867
Si Si5 0.020619 0.586800 0.174779
Si Si6 0.160251 0.911153 0.371966
O O1 0.250000 0.179930 0.721813
O O2 0.386116 0.245497 0.707719
O O3 0.358096 0.127255 0.545048
O O4 0.365296 0.123692 0.878388
O O5 0.616267 0.115194 0.790737
O O6 0.596339 0.000000 0.974144
O O7 0.500000 0.108236 0.000000
O O8 0.129831 0.348599 0.487197
O O9 0.000000 0.265309 0.500000
O O10 0.025546 0.367702 0.693966
O O11 0.750000 0.594790 0.657052
O O12 0.850250 0.500000 0.562531
O O13 0.890842 0.590977 0.785950
O O14 0.998402 0.500000 0.182549
O O15 0.000000 0.617615 0.000000
O O16 0.250000 0.900336 0.342943
O O17 0.146582 0.000000 0.389787
#
# Coordination Sequence:
#
# PCOD9405538 Si02
#       6
#     8   8   8   8   8   8
#     4  11  23  38  58  84 116 153 191 232 285 344
#     4  10  22  38  60  87 114 146 189 240 287 335
#     4  10  21  35  54  80 112 149 184 226 277 333
#     4   9  17  33  57  81 107 142 186 232 274 324
#     4   9  18  35  58  82 109 144 186 229 277 332
#     4   9  19  37  60  83 109 146 191 236 283 335
#
# _framework density 18.476904000000001
#
# number of rings (size 3 to 8) (size 9 to 14) (size 15 to 20)
#    0.000    2.333    0.000    2.000    2.333    4.333 
#    3.000    4.167    0.000    4.000    0.000    0.000 
#    0.000    0.000    0.000    0.000    0.000    0.000 
#
# Total GULP energy -267557.413669 kJ/mol
# GULP energy per Si atom -5574.112785 kJ/mol
# Density = 1.843485 g / cm^3
# Si number density = 18.476904 Si / 1000 Ang^3
#
#
#
# Elastic Constant Matrix: (Units=GPa)
#
#
# Indices 1 2 3 4 5 6 
#
# 1 98.4934 28.6008 34.3347 0.0000 0.0000 0.0000
# 2 28.6008 22.7716 7.7567 0.0000 0.0000 0.0000
# 3 34.3347 7.7567 75.5442 0.0000 0.0000 0.0000
# 4 0.0000 0.0000 0.0000 17.5579 0.0000 0.0000
# 5 0.0000 0.0000 0.0000 0.0000 24.4538 0.0000
# 6 0.0000 0.0000 0.0000 0.0000 0.0000 30.1265
#
#
#
# Elastic Compliance Matrix: (Units=1/GPa)
#
#
# Indices 1 2 3 4 5 6 
#
# 1 0.018425 -0.021024 -0.006215 0.000000 0.000000 0.000000
# 2 -0.021024 0.069496 0.002420 0.000000 0.000000 0.000000
# 3 -0.006215 0.002420 0.015814 0.000000 0.000000 0.000000
# 4 0.000000 0.000000 0.000000 0.056954 0.000000 0.000000
# 5 0.000000 0.000000 0.000000 0.000000 0.040893 0.000000
# 6 0.000000 0.000000 0.000000 0.000000 0.000000 0.033193
#
#
# Mechanical properties :
#
#
# Convention : Reuss Voigt Hill
#
# Bulk Modulus (GPa) = 18.48592 37.57705 28.03148
# Shear Modulus (GPa) = 16.53187 22.83546 19.68366
#
# Velocity S-wave (km/s) = 2.99445 3.51934 3.26745
# Velocity P-wave (km/s) = 4.68852 6.07419 5.42577
#
# Compressibility (1/GPa) = 0.05409523
#
# Stress axis : x y z
#
# Youngs Moduli (GPa) = 54.27533 14.38931 63.23649
#
# Poissons Ratio (x) = 0.30252 0.39303
# Poissons Ratio (y) = 1.14108 -0.15301
# Poissons Ratio (z) = 0.33733 -0.03482
#
# Static dielectric constant tensor:
#      x y z
#    x 1.623140 0.000000 0.000000 
#    y 0.000000 1.637820 0.000000 
#    z 0.000000 0.000000 1.667100 
# 
# From -- ./inp_files/8207.got.cif
#   From: 2010.05.17/outbox.cif.g08.bks.cpg/sg51_5_cif.got.tgz:8207.got - 2010.06.03 11:52:47.
