data_PCOD9405486
_publ_section_title
;
Structure prediction by ZEFSAII (Michael W. Deem and Ramdas Pophale) SiO2 
 PCOD9405486
Probable space group: P M M A
;
_chemical_formula_sum "Si O2"
_cell_formula_units_Z 56
_cell_length_a 14.475502
_cell_length_b 7.763292
_cell_length_c 21.894064
_cell_angle_alpha 90.000000
_cell_angle_beta 90.000000
_cell_angle_gamma 90.000000
_cell_volume 2460.401247
_symmetry_space_group_name_H-M "P M M A"
_symmetry_group_IT_number 51
_symmetry_cell_setting 'orthorhombic'
loop_
_space_group_symop_operation_xyz
x,y,z
1/2-x,-y,z
1/2+x,-y,-z
-x,y,-z
-x,-y,-z
1/2+x,y,-z
1/2-x,y,z
x,-y,z
loop_
_atom_site_type_symbol
_atom_site_label
_atom_site_fract_x
_atom_site_fract_y
_atom_site_fract_z
Si Si1 0.954384 0.199985 0.650824
Si Si2 0.354527 0.300828 0.828736
Si Si3 0.955592 0.799471 0.782521
Si Si4 0.145650 0.300081 0.607405
Si Si5 0.862234 0.197585 0.035573
Si Si6 0.357762 0.210822 0.096502
Si Si7 0.640716 0.202275 0.530438
O O1 0.929561 0.276836 0.716721
O O2 0.064517 0.206979 0.642917
O O3 0.911239 0.276633 0.589219
O O4 0.924328 0.000000 0.651182
O O5 0.250000 0.231515 0.822056
O O6 0.353763 0.500000 0.810412
O O7 0.434475 0.209294 0.791595
O O8 0.380075 0.289559 0.900691
O O9 0.910587 0.724999 0.843813
O O10 0.927768 0.000000 0.781103
O O11 0.250000 0.232230 0.616025
O O12 0.144674 0.500000 0.625327
O O13 0.124036 0.287023 0.535036
O O14 0.750000 0.193391 0.029810
O O15 0.894533 0.267948 0.970029
O O16 0.894729 0.000000 0.042910
O O17 0.250000 0.256334 0.102195
O O18 0.363027 0.000000 0.094170
O O19 0.750000 0.211972 0.542303
O O20 0.615249 0.000000 0.522935
#
# Coordination Sequence:
#
# PCOD9405486 Si02
#       7
#     8   8   8   8   8   8   8
#     4  10  21  35  52  77 107 138 171 206 248 298
#     4  10  21  36  52  71  99 134 171 214 261 305
#     4  10  21  35  52  76 104 136 173 208 246 298
#     4  10  21  36  55  79 104 133 171 212 254 298
#     4   8  14  28  52  77  98 125 164 209 257 305
#     4   8  15  30  53  79 104 130 164 208 254 301
#     4   9  18  34  56  81 108 135 164 203 251 300
#
# _framework density 22.760514000000001
#
# number of rings (size 3 to 8) (size 9 to 14) (size 15 to 20)
#    0.000    2.714    0.000    2.143    0.000    6.286 
#    0.000    9.286    0.000    1.286    0.000    2.000 
#    0.000    0.000    0.000    0.000    0.000    0.000 
#
# Total GULP energy -312618.654159 kJ/mol
# GULP energy per Si atom -5582.475967 kJ/mol
# Density = 2.270871 g / cm^3
# Si number density = 22.760514 Si / 1000 Ang^3
#
#
#
# Elastic Constant Matrix: (Units=GPa)
#
#
# Indices 1 2 3 4 5 6 
#
# 1 47.3208 -7.0885 22.1440 0.0000 0.0000 0.0000
# 2 -7.0885 34.6768 -7.0819 0.0000 0.0000 0.0000
# 3 22.1440 -7.0819 51.8180 0.0000 0.0000 0.0000
# 4 0.0000 0.0000 0.0000 64.4043 0.0000 0.0000
# 5 0.0000 0.0000 0.0000 0.0000 10.2406 0.0000
# 6 0.0000 0.0000 0.0000 0.0000 0.0000 1.5366
#
#
#
# Elastic Compliance Matrix: (Units=1/GPa)
#
#
# Indices 1 2 3 4 5 6 
#
# 1 0.026761 0.003225 -0.010995 0.000000 0.000000 0.000000
# 2 0.003225 0.030054 0.002729 0.000000 0.000000 0.000000
# 3 -0.010995 0.002729 0.024370 0.000000 0.000000 0.000000
# 4 0.000000 0.000000 0.000000 0.015527 0.000000 0.000000
# 5 0.000000 0.000000 0.000000 0.000000 0.097651 0.000000
# 6 0.000000 0.000000 0.000000 0.000000 0.000000 0.650787
#
#
# Mechanical properties :
#
#
# Convention : Reuss Voigt Hill
#
# Bulk Modulus (GPa) = 14.06411 16.64032 15.35221
# Shear Modulus (GPa) = 5.68871 23.62575 14.65723
#
# Velocity S-wave (km/s) = 1.58266 3.22532 2.54042
# Velocity P-wave (km/s) = 3.08745 4.60404 3.91979
#
# Compressibility (1/GPa) = 0.07110299
#
# Stress axis : x y z
#
# Youngs Moduli (GPa) = 37.36824 33.27308 41.03398
#
# Poissons Ratio (x) = -0.10730 0.45118
# Poissons Ratio (y) = -0.12050 -0.11200
# Poissons Ratio (z) = 0.41087 -0.09082
#
# Static dielectric constant tensor:
#      x y z
#    x 1.847870 0.000000 0.000000 
#    y 0.000000 1.852140 0.000000 
#    z 0.000000 0.000000 1.879340 
# 
# From -- ./inp_files/33414.got.cif
#   From: 2010.05.17/outbox.cif.g08.bks.cpg/sg51_17_cif.got.tgz:33414.got - 2010.06.03 11:52:47.
