data_PCOD9405933
_publ_section_title
;
Structure prediction by ZEFSAII (Michael W. Deem and Ramdas Pophale) SiO2 
 PCOD9405933
Probable space group: P M M A
;
_chemical_formula_sum "Si O2"
_cell_formula_units_Z 38
_cell_length_a 7.305438
_cell_length_b 26.769149
_cell_length_c 8.236920
_cell_angle_alpha 90.000000
_cell_angle_beta 90.000000
_cell_angle_gamma 90.000000
_cell_volume 1610.815027
_symmetry_space_group_name_H-M "P M M A"
_symmetry_group_IT_number 51
_symmetry_cell_setting 'orthorhombic'
loop_
_space_group_symop_operation_xyz
x,y,z
1/2-x,-y,z
1/2+x,-y,-z
-x,y,-z
-x,-y,-z
1/2+x,y,-z
1/2-x,y,z
x,-y,z
loop_
_atom_site_type_symbol
_atom_site_label
_atom_site_fract_x
_atom_site_fract_y
_atom_site_fract_z
Si Si1 0.532768 0.922363 0.813197
Si Si2 0.750000 0.000000 0.319234
Si Si3 0.031661 0.500000 0.304778
Si Si4 0.032416 0.713824 0.188816
Si Si5 0.968183 0.607645 0.693171
Si Si6 0.033352 0.818044 0.313826
O O1 0.750000 0.926754 0.777389
O O2 0.410419 0.956677 0.699344
O O3 0.471837 0.864672 0.793813
O O4 0.500000 0.938134 0.000000
O O5 0.250000 0.500000 0.279464
O O6 0.960494 0.553770 0.245151
O O7 0.000000 0.500000 0.500000
O O8 0.250000 0.711386 0.222157
O O9 0.958006 0.659269 0.235205
O O10 0.957973 0.762775 0.279214
O O11 0.000000 0.722345 0.000000
O O12 0.750000 0.606824 0.721468
O O13 0.000000 0.609456 0.500000
O O14 0.250000 0.814578 0.284865
O O15 0.000000 0.831263 0.500000
#
# Coordination Sequence:
#
# PCOD9405933 Si02
#       6
#     8   2   4   8   8   8
#     4  11  23  39  64  94 123 157 202 242 285 349
#     4  12  24  40  68  92 128 162 198 238 296 330
#     4   8  14  26  45  72 104 144 182 230 275 332
#     4  10  21  37  55  81 110 145 187 235 284 344
#     4   9  17  30  51  77 109 143 188 231 283 336
#     4  10  23  40  61  85 115 146 189 234 289 346
#
# _framework density 23.590540000000001
#
# number of rings (size 3 to 8) (size 9 to 14) (size 15 to 20)
#    0.000    2.105    1.053    1.895    1.474    1.684 
#    0.000    1.053    0.000    0.000    0.000    0.000 
#    0.000    0.000    0.000    0.000    0.000    0.000 
#
# Total GULP energy -211753.426412 kJ/mol
# GULP energy per Si atom -5572.458590 kJ/mol
# Density = 2.353685 g / cm^3
# Si number density = 23.590540 Si / 1000 Ang^3
#
#
#
# Elastic Constant Matrix: (Units=GPa)
#
#
# Indices 1 2 3 4 5 6 
#
# 1 136.4123 39.2945 -15.5552 0.0000 0.0000 0.0000
# 2 39.2945 195.2488 9.1751 0.0000 0.0000 0.0000
# 3 -15.5552 9.1751 33.4923 0.0000 0.0000 0.0000
# 4 0.0000 0.0000 0.0000 -338.0329 0.0000 0.0000
# 5 0.0000 0.0000 0.0000 0.0000 14.8713 0.0000
# 6 0.0000 0.0000 0.0000 0.0000 0.0000 9.7926
#
#
#
# Elastic Compliance Matrix: (Units=1/GPa)
#
#
# Indices 1 2 3 4 5 6 
#
# 1 0.008379 -0.001894 0.004410 0.000000 0.000000 0.000000
# 2 -0.001894 0.005616 -0.002418 0.000000 0.000000 0.000000
# 3 0.004410 -0.002418 0.032568 0.000000 0.000000 0.000000
# 4 0.000000 0.000000 0.000000 -0.002958 0.000000 0.000000
# 5 0.000000 0.000000 0.000000 0.000000 0.067244 0.000000
# 6 0.000000 0.000000 0.000000 0.000000 0.000000 0.102118
#
#
# Mechanical properties :
#
#
# Convention : Reuss Voigt Hill
#
# Bulk Modulus (GPa) = 21.38525 47.88693 34.63609
# Shear Modulus (GPa) = 21.89551 -40.52455 -9.31452
#
# Velocity S-wave (km/s) = 3.04986 -4.14917 -1.98922
# Velocity P-wave (km/s) = 4.63541 1.61581 3.07215
#
# Compressibility (1/GPa) = 0.04676121
#
# Stress axis : x y z
#
# Youngs Moduli (GPa) = 119.34479 178.05044 30.70469
#
# Poissons Ratio (x) = 0.33715 -0.13542
# Poissons Ratio (y) = 0.22599 0.07424
# Poissons Ratio (z) = -0.52635 0.43053
#
# Static dielectric constant tensor:
#      x y z
#    x 1.871420 0.000000 0.000000 
#    y 0.000000 1.942310 0.000000 
#    z 0.000000 0.000000 1.851760 
# 
# From -- ./inp_files/5285.got.cif
#   From: 2010.05.17/outbox.cif.g08.bks.cpg/sg51_3_cif.got.tgz:5285.got - 2010.06.03 11:52:47.
