data_PCOD9405060
_publ_section_title
;
Structure prediction by ZEFSAII (Michael W. Deem and Ramdas Pophale) SiO2 
 PCOD9405060
Probable space group: P M M A
;
_chemical_formula_sum "Si O2"
_cell_formula_units_Z 64
_cell_length_a 29.042031
_cell_length_b 7.923007
_cell_length_c 13.250114
_cell_angle_alpha 90.000000
_cell_angle_beta 90.000000
_cell_angle_gamma 90.000000
_cell_volume 3048.854079
_symmetry_space_group_name_H-M "P M M A"
_symmetry_group_IT_number 51
_symmetry_cell_setting 'orthorhombic'
loop_
_space_group_symop_operation_xyz
x,y,z
1/2-x,-y,z
1/2+x,-y,-z
-x,y,-z
-x,-y,-z
1/2+x,y,-z
1/2-x,y,z
x,-y,z
loop_
_atom_site_type_symbol
_atom_site_label
_atom_site_fract_x
_atom_site_fract_y
_atom_site_fract_z
Si Si1 0.050448 0.304411 0.523849
Si Si2 0.351356 0.802427 0.463317
Si Si3 0.696780 0.793313 0.741300
Si Si4 0.801766 0.700382 0.332695
Si Si5 0.470015 0.793724 0.096814
Si Si6 0.042680 0.803194 0.746635
Si Si7 0.864644 0.795751 0.929252
Si Si8 0.133581 0.700892 0.846643
O O1 0.050544 0.500000 0.493444
O O2 0.093806 0.220643 0.470009
O O3 0.056097 0.290648 0.644464
O O4 0.000000 0.231633 0.500000
O O5 0.329206 0.735846 0.360117
O O6 0.328505 0.724985 0.562805
O O7 0.340903 0.000000 0.467936
O O8 0.750000 0.740827 0.741359
O O9 0.669139 0.738402 0.840537
O O10 0.696094 0.000000 0.741276
O O11 0.750000 0.770672 0.338107
O O12 0.798131 0.500000 0.316260
O O13 0.831507 0.766810 0.238821
O O14 0.496656 0.740445 0.198159
O O15 0.417278 0.738673 0.090057
O O16 0.470579 0.000000 0.096856
O O17 0.500000 0.739148 0.000000
O O18 0.084178 0.784861 0.826030
O O19 0.037237 0.000000 0.720743
O O20 0.865060 0.000000 0.928945
O O21 0.850386 0.737543 0.040393
O O22 0.127670 0.500000 0.834152
#
# Coordination Sequence:
#
# PCOD9405060 Si02
#       8
#     8   8   8   8   8   8   8   8
#     4  11  25  42  58  84 126 164 192 235 299 364
#     4  11  22  38  64  92 119 153 202 255 300 358
#     4   9  20  38  60  88 120 153 196 257 313 350
#     4  10  22  40  61  84 116 158 197 242 308 370
#     4   9  17  31  53  82 112 145 188 238 285 339
#     4  11  21  36  61  86 115 152 198 245 293 354
#     4  10  20  37  60  83 115 158 203 246 296 353
#     4  11  22  37  57  85 123 158 195 244 301 359
#
# _framework density 20.991493999999999
#
# number of rings (size 3 to 8) (size 9 to 14) (size 15 to 20)
#    0.000    1.750    2.500    1.875    1.750    2.750 
#    0.000    3.125    0.000    1.500    0.000    0.000 
#    0.000    0.000    0.000    0.000    0.000    0.000 
#
# Total GULP energy -357643.573653 kJ/mol
# GULP energy per Si atom -5588.180838 kJ/mol
# Density = 2.094372 g / cm^3
# Si number density = 20.991494 Si / 1000 Ang^3
#
#
#
# Elastic Constant Matrix: (Units=GPa)
#
#
# Indices 1 2 3 4 5 6 
#
# 1 134.3256 -3.8382 75.5870 0.0000 0.0000 0.0000
# 2 -3.8382 21.0243 -6.2932 0.0000 0.0000 0.0000
# 3 75.5870 -6.2932 147.5546 0.0000 0.0000 0.0000
# 4 0.0000 0.0000 0.0000 11.0018 0.0000 0.0000
# 5 0.0000 0.0000 0.0000 0.0000 28.1424 0.0000
# 6 0.0000 0.0000 0.0000 0.0000 0.0000 5.7752
#
#
#
# Elastic Compliance Matrix: (Units=1/GPa)
#
#
# Indices 1 2 3 4 5 6 
#
# 1 0.010462 0.000310 -0.005346 0.000000 0.000000 0.000000
# 2 0.000310 0.048188 0.001897 0.000000 0.000000 0.000000
# 3 -0.005346 0.001897 0.009597 0.000000 0.000000 0.000000
# 4 0.000000 0.000000 0.000000 0.090894 0.000000 0.000000
# 5 0.000000 0.000000 0.000000 0.000000 0.035534 0.000000
# 6 0.000000 0.000000 0.000000 0.000000 0.000000 0.173154
#
#
# Mechanical properties :
#
#
# Convention : Reuss Voigt Hill
#
# Bulk Modulus (GPa) = 16.13760 48.20176 32.16968
# Shear Modulus (GPa) = 12.66583 24.81382 18.73982
#
# Velocity S-wave (km/s) = 2.45904 3.44188 2.99111
# Velocity P-wave (km/s) = 3.97076 6.22959 5.22373
#
# Compressibility (1/GPa) = 0.06196707
#
# Stress axis : x y z
#
# Youngs Moduli (GPa) = 95.58686 20.75198 104.20375
#
# Poissons Ratio (x) = -0.00643 0.55707
# Poissons Ratio (y) = -0.02960 -0.19763
# Poissons Ratio (z) = 0.51100 -0.03936
#
# Static dielectric constant tensor:
#      x y z
#    x 1.754560 0.000000 0.000000 
#    y 0.000000 1.760290 0.000000 
#    z 0.000000 0.000000 1.746110 
# 
# From -- ./inp_files/19649.got.cif
#   From: 2010.05.17/outbox.cif.g08.bks.cpg/sg51_10_cif.got.tgz:19649.got - 2010.06.03 11:52:47.
