data_PCOD9405728
_publ_section_title
;
Structure prediction by ZEFSAII (Michael W. Deem and Ramdas Pophale) SiO2 
 PCOD9405728
Probable space group: P M M A
;
_chemical_formula_sum "Si O2"
_cell_formula_units_Z 40
_cell_length_a 9.128020
_cell_length_b 9.294568
_cell_length_c 26.390154
_cell_angle_alpha 90.000000
_cell_angle_beta 90.000000
_cell_angle_gamma 90.000000
_cell_volume 2238.967124
_symmetry_space_group_name_H-M "P M M A"
_symmetry_group_IT_number 51
_symmetry_cell_setting 'orthorhombic'
loop_
_space_group_symop_operation_xyz
x,y,z
1/2-x,-y,z
1/2+x,-y,-z
-x,y,-z
-x,-y,-z
1/2+x,y,-z
1/2-x,y,z
x,-y,z
loop_
_atom_site_type_symbol
_atom_site_label
_atom_site_fract_x
_atom_site_fract_y
_atom_site_fract_z
Si Si1 0.425106 0.329652 0.845094
Si Si2 0.574481 0.831179 0.052275
Si Si3 0.076557 0.828512 0.248180
Si Si4 0.077740 0.672728 0.447294
Si Si5 0.922314 0.172635 0.353824
O O1 0.250000 0.305034 0.839187
O O2 0.450761 0.500000 0.845785
O O3 0.469972 0.258929 0.898530
O O4 0.508402 0.255613 0.798857
O O5 0.750000 0.819887 0.046928
O O6 0.538262 0.000000 0.060219
O O7 0.500000 0.783845 0.000000
O O8 0.250000 0.802608 0.252300
O O9 0.997154 0.787259 0.300543
O O10 0.053834 0.000000 0.240771
O O11 0.250000 0.707715 0.449209
O O12 0.063381 0.500000 0.441752
O O13 0.000000 0.713722 0.500000
O O14 0.001123 0.749699 0.400266
O O15 0.750000 0.207483 0.352879
O O16 0.937337 0.000000 0.359488
#
# Coordination Sequence:
#
# PCOD9405728 Si02
#       5
#     8   8   8   8   8
#     4  10  21  36  54  78 108 142 179 218 263 316
#     4   9  18  33  53  76 103 137 177 219 262 311
#     4  10  21  37  57  80 106 138 177 221 268 318
#     4  10  21  37  57  81 110 145 183 222 266 317
#     4  10  21  37  58  83 109 140 179 222 269 319
#
# _framework density 17.865379999999998
#
# number of rings (size 3 to 8) (size 9 to 14) (size 15 to 20)
#    0.000    2.200    0.000    2.400    0.000    7.200 
#    0.000    2.000    0.000    0.000    0.000    0.000 
#    0.000    0.000    0.000    0.000    0.000    0.000 
#
# Total GULP energy -223386.487727 kJ/mol
# GULP energy per Si atom -5584.662193 kJ/mol
# Density = 1.782472 g / cm^3
# Si number density = 17.865380 Si / 1000 Ang^3
#
#
#
# Elastic Constant Matrix: (Units=GPa)
#
#
# Indices 1 2 3 4 5 6 
#
# 1 111.0413 68.9373 115.9087 0.0000 0.0000 0.0000
# 2 68.9373 50.7843 88.6897 0.0000 0.0000 0.0000
# 3 115.9087 88.6897 226.4130 0.0000 0.0000 0.0000
# 4 0.0000 0.0000 0.0000 2936.3254 0.0000 0.0000
# 5 0.0000 0.0000 0.0000 0.0000 42.3702 0.0000
# 6 0.0000 0.0000 0.0000 0.0000 0.0000 26.7355
#
#
#
# Elastic Compliance Matrix: (Units=1/GPa)
#
#
# Indices 1 2 3 4 5 6 
#
# 1 0.058203 -0.085379 0.003648 0.000000 0.000000 0.000000
# 2 -0.085379 0.187577 -0.029768 0.000000 0.000000 0.000000
# 3 0.003648 -0.029768 0.014210 0.000000 0.000000 0.000000
# 4 0.000000 0.000000 0.000000 0.000341 0.000000 0.000000
# 5 0.000000 0.000000 0.000000 0.000000 0.023602 0.000000
# 6 0.000000 0.000000 0.000000 0.000000 0.000000 0.037403
#
#
# Mechanical properties :
#
#
# Convention : Reuss Voigt Hill
#
# Bulk Modulus (GPa) = 27.03362 103.92334 65.47848
# Shear Modulus (GPa) = 8.98208 608.73308 308.85758
#
# Velocity S-wave (km/s) = 2.24467 18.47899 13.16267
# Velocity P-wave (km/s) = 4.67790 22.66261 16.36271
#
# Compressibility (1/GPa) = 0.03699097
#
# Stress axis : x y z
#
# Youngs Moduli (GPa) = 17.18119 5.33116 70.37438
#
# Poissons Ratio (x) = 0.45517 -0.25674
# Poissons Ratio (y) = 1.46692 2.09492
# Poissons Ratio (z) = -0.06268 0.15870
#
# Static dielectric constant tensor:
#      x y z
#    x 1.596330 0.000000 0.000000 
#    y 0.000000 1.595930 0.000000 
#    z 0.000000 0.000000 1.570410 
# 
# From -- ./inp_files/34281.got.cif
#   From: 2010.05.17/outbox.cif.g08.bks.cpg/sg51_18_cif.got.tgz:34281.got - 2010.06.03 11:52:47.
