data_PCOD9405415
_publ_section_title
;
Structure prediction by ZEFSAII (Michael W. Deem and Ramdas Pophale) SiO2 
 PCOD9405415
Probable space group: P M M A
;
_chemical_formula_sum "Si O2"
_cell_formula_units_Z 56
_cell_length_a 19.956652
_cell_length_b 7.833747
_cell_length_c 18.198238
_cell_angle_alpha 90.000000
_cell_angle_beta 90.000000
_cell_angle_gamma 90.000000
_cell_volume 2845.028139
_symmetry_space_group_name_H-M "P M M A"
_symmetry_group_IT_number 51
_symmetry_cell_setting 'orthorhombic'
loop_
_space_group_symop_operation_xyz
x,y,z
1/2-x,-y,z
1/2+x,-y,-z
-x,y,-z
-x,-y,-z
1/2+x,y,-z
1/2-x,y,z
x,-y,z
loop_
_atom_site_type_symbol
_atom_site_label
_atom_site_fract_x
_atom_site_fract_y
_atom_site_fract_z
Si Si1 0.922857 0.800452 0.212414
Si Si2 0.911192 0.297855 0.628549
Si Si3 0.172804 0.793631 0.079803
Si Si4 0.827567 0.791354 0.084894
Si Si5 0.563498 0.792257 0.378428
Si Si6 0.325446 0.798351 0.507341
Si Si7 0.929163 0.298541 0.793472
O O1 0.874244 0.726734 0.150444
O O2 0.920487 0.730680 0.295482
O O3 0.999830 0.785396 0.187787
O O4 0.905248 0.000000 0.219170
O O5 0.900428 0.500000 0.628435
O O6 0.857668 0.221128 0.572962
O O7 0.906655 0.234344 0.712802
O O8 0.987576 0.261643 0.603387
O O9 0.250000 0.740366 0.091168
O O10 0.125016 0.730885 0.143901
O O11 0.171536 0.000000 0.080625
O O12 0.152202 0.737551 0.997523
O O13 0.750000 0.744305 0.096160
O O14 0.830277 0.000000 0.084709
O O15 0.619733 0.729348 0.434955
O O16 0.562982 0.000000 0.378743
O O17 0.250000 0.726939 0.512189
O O18 0.320638 0.000000 0.522976
O O19 0.941824 0.500000 0.785815
#
# Coordination Sequence:
#
# PCOD9405415 Si02
#       7
#     8   8   8   8   8   8   8
#     4   9  17  31  53  77 100 129 164 200 239 287
#     4  10  21  36  53  72  96 130 169 205 243 289
#     4   9  18  33  52  73  98 129 165 203 244 292
#     4   8  15  29  50  76 102 128 162 203 243 285
#     4   9  18  33  53  76 101 130 163 198 240 291
#     4  10  21  35  51  75 105 131 158 198 246 292
#     4  10  21  35  50  71 100 130 163 206 249 289
#
# _framework density 19.683461000000001
#
# number of rings (size 3 to 8) (size 9 to 14) (size 15 to 20)
#    0.000    2.714    0.000    2.143    0.000    6.286 
#    0.000    9.286    0.000    1.286    0.000    4.000 
#    0.000    0.000    0.000    0.000    0.000    0.000 
#
# Total GULP energy -312360.822910 kJ/mol
# GULP energy per Si atom -5577.871838 kJ/mol
# Density = 1.963866 g / cm^3
# Si number density = 19.683461 Si / 1000 Ang^3
#
#
#
# Elastic Constant Matrix: (Units=GPa)
#
#
# Indices 1 2 3 4 5 6 
#
# 1 70.1684 -12.3171 49.1505 0.0000 0.0000 0.0000
# 2 -12.3171 18.5379 -8.8074 0.0000 0.0000 0.0000
# 3 49.1505 -8.8074 75.0101 0.0000 0.0000 0.0000
# 4 0.0000 0.0000 0.0000 5.0730 0.0000 0.0000
# 5 0.0000 0.0000 0.0000 0.0000 -36.5539 0.0000
# 6 0.0000 0.0000 0.0000 0.0000 0.0000 -94.4919
#
#
#
# Elastic Compliance Matrix: (Units=1/GPa)
#
#
# Indices 1 2 3 4 5 6 
#
# 1 0.028158 0.010530 -0.017214 0.000000 0.000000 0.000000
# 2 0.010530 0.061069 0.000270 0.000000 0.000000 0.000000
# 3 -0.017214 0.000270 0.024643 0.000000 0.000000 0.000000
# 4 0.000000 0.000000 0.000000 0.197123 0.000000 0.000000
# 5 0.000000 0.000000 0.000000 0.000000 -0.027357 0.000000
# 6 0.000000 0.000000 0.000000 0.000000 0.000000 -0.010583
#
#
# Mechanical properties :
#
#
# Convention : Reuss Voigt Hill
#
# Bulk Modulus (GPa) = 9.89679 24.41871 17.15775
# Shear Modulus (GPa) = 15.64653 -16.14854 -0.25100
#
# Velocity S-wave (km/s) = 2.82247 -2.86739 -0.35749
# Velocity P-wave (km/s) = 3.95736 1.21246 2.92666
#
# Compressibility (1/GPa) = 0.10104291
#
# Stress axis : x y z
#
# Youngs Moduli (GPa) = 35.51438 16.37498 40.58000
#
# Poissons Ratio (x) = -0.17244 0.69854
# Poissons Ratio (y) = -0.37398 -0.01097
# Poissons Ratio (z) = 0.61134 -0.00443
#
# Static dielectric constant tensor:
#      x y z
#    x 1.658630 0.000000 0.000000 
#    y 0.000000 1.720100 0.000000 
#    z 0.000000 0.000000 1.701460 
# 
# From -- ./inp_files/25702.got.cif
#   From: 2010.05.17/outbox.cif.g08.bks.cpg/sg51_13_cif.got.tgz:25702.got - 2010.06.03 11:52:47.
