data_PCOD9405034
_publ_section_title
;
Structure prediction by ZEFSAII (Michael W. Deem and Ramdas Pophale) SiO2 
 PCOD9405034
Probable space group: P M M A
;
_chemical_formula_sum "Si O2"
_cell_formula_units_Z 64
_cell_length_a 19.048180
_cell_length_b 7.631011
_cell_length_c 20.324987
_cell_angle_alpha 90.000000
_cell_angle_beta 90.000000
_cell_angle_gamma 90.000000
_cell_volume 2954.376516
_symmetry_space_group_name_H-M "P M M A"
_symmetry_group_IT_number 51
_symmetry_cell_setting 'orthorhombic'
loop_
_space_group_symop_operation_xyz
x,y,z
1/2-x,-y,z
1/2+x,-y,-z
-x,y,-z
-x,-y,-z
1/2+x,y,-z
1/2-x,y,z
x,-y,z
loop_
_atom_site_type_symbol
_atom_site_label
_atom_site_fract_x
_atom_site_fract_y
_atom_site_fract_z
Si Si1 0.567180 0.706665 0.215988
Si Si2 0.064026 0.213994 0.409567
Si Si3 0.408438 0.788840 0.557160
Si Si4 0.415185 0.291295 0.175969
Si Si5 0.828470 0.792696 0.700375
Si Si6 0.173433 0.292765 0.679357
Si Si7 0.670056 0.212603 0.096252
Si Si8 0.923365 0.210162 0.976610
O O1 0.556440 0.500000 0.228239
O O2 0.490525 0.781718 0.200805
O O3 0.610507 0.783741 0.276979
O O4 0.617706 0.727271 0.153319
O O5 0.094401 0.265252 0.481046
O O6 0.112184 0.277780 0.349736
O O7 0.982766 0.271932 0.411505
O O8 0.062262 0.000000 0.407353
O O9 0.346010 0.728635 0.603443
O O10 0.409321 0.000000 0.557275
O O11 0.416421 0.500000 0.181444
O O12 0.355244 0.227665 0.225167
O O13 0.408153 0.249994 0.099101
O O14 0.750000 0.719669 0.691403
O O15 0.824479 0.000000 0.686691
O O16 0.250000 0.218072 0.695046
O O17 0.176230 0.500000 0.693995
O O18 0.750000 0.273137 0.105574
O O19 0.670824 0.000000 0.097451
O O20 0.636313 0.271152 0.027145
O O21 0.926018 0.000000 0.982565
O O22 0.000000 0.277346 0.000000
#
# Coordination Sequence:
#
# PCOD9405034 Si02
#       8
#     8   8   8   8   8   8   8   8
#     4  10  21  37  56  77 106 146 184 218 265 327
#     4   8  16  33  56  82 109 138 177 228 278 324
#     4   9  17  32  56  82 107 137 179 228 274 322
#     4  11  23  37  58  85 111 140 182 233 276 321
#     4  10  21  37  57  80 109 149 191 228 276 338
#     4  10  21  35  49  71 108 147 179 214 262 320
#     4  10  21  36  56  83 110 137 177 227 271 317
#     4  10  20  37  59  82 110 145 181 219 271 332
#
# _framework density 21.662776999999998
#
# number of rings (size 3 to 8) (size 9 to 14) (size 15 to 20)
#    0.000    2.250    1.250    2.250    0.000    4.000 
#    0.000    4.375    0.000    0.000    0.000    0.000 
#    0.000    0.000    0.000    0.000    0.000    0.000 
#
# Total GULP energy -357436.734617 kJ/mol
# GULP energy per Si atom -5584.948978 kJ/mol
# Density = 2.161347 g / cm^3
# Si number density = 21.662777 Si / 1000 Ang^3
#
#
#
# Elastic Constant Matrix: (Units=GPa)
#
#
# Indices 1 2 3 4 5 6 
#
# 1 53.6948 -6.7018 16.0714 0.0000 0.0000 0.0000
# 2 -6.7018 37.9178 -14.2698 0.0000 0.0000 0.0000
# 3 16.0714 -14.2698 91.7007 0.0000 0.0000 0.0000
# 4 0.0000 0.0000 0.0000 -153.5243 0.0000 0.0000
# 5 0.0000 0.0000 0.0000 0.0000 -30.7139 0.0000
# 6 0.0000 0.0000 0.0000 0.0000 0.0000 15.0698
#
#
#
# Elastic Compliance Matrix: (Units=1/GPa)
#
#
# Indices 1 2 3 4 5 6 
#
# 1 0.019848 0.002336 -0.003115 0.000000 0.000000 0.000000
# 2 0.002336 0.028288 0.003993 0.000000 0.000000 0.000000
# 3 -0.003115 0.003993 0.012072 0.000000 0.000000 0.000000
# 4 0.000000 0.000000 0.000000 -0.006514 0.000000 0.000000
# 5 0.000000 0.000000 0.000000 0.000000 -0.032559 0.000000
# 6 0.000000 0.000000 0.000000 0.000000 0.000000 0.066358
#
#
# Mechanical properties :
#
#
# Convention : Reuss Voigt Hill
#
# Bulk Modulus (GPa) = 15.00715 19.27920 17.14317
# Shear Modulus (GPa) = 48.41254 -21.28612 13.56321
#
# Velocity S-wave (km/s) = 4.73252 -3.13807 2.50493
# Velocity P-wave (km/s) = 6.06671 2.05206 4.03696
#
# Compressibility (1/GPa) = 0.06663491
#
# Stress axis : x y z
#
# Youngs Moduli (GPa) = 50.38376 35.35037 82.83434
#
# Poissons Ratio (x) = -0.08257 0.25803
# Poissons Ratio (y) = -0.11768 -0.33073
# Poissons Ratio (z) = 0.15695 -0.14114
#
# Static dielectric constant tensor:
#      x y z
#    x 1.593570 0.000000 0.000000 
#    y 0.000000 1.810650 0.000000 
#    z 0.000000 0.000000 1.774590 
# 
# From -- ./inp_files/33970.got.cif
#   From: 2010.05.17/outbox.cif.g08.bks.cpg/sg51_17_cif.got.tgz:33970.got - 2010.06.03 11:52:47.
