data_PCOD9405699
_publ_section_title
;
Structure prediction by ZEFSAII (Michael W. Deem and Ramdas Pophale) SiO2 
 PCOD9405699
Probable space group: P M M A
;
_chemical_formula_sum "Si O2"
_cell_formula_units_Z 48
_cell_length_a 9.323284
_cell_length_b 8.930444
_cell_length_c 31.863693
_cell_angle_alpha 90.000000
_cell_angle_beta 90.000000
_cell_angle_gamma 90.000000
_cell_volume 2653.005035
_symmetry_space_group_name_H-M "P M M A"
_symmetry_group_IT_number 51
_symmetry_cell_setting 'orthorhombic'
loop_
_space_group_symop_operation_xyz
x,y,z
1/2-x,-y,z
1/2+x,-y,-z
-x,y,-z
-x,-y,-z
1/2+x,y,-z
1/2-x,y,z
x,-y,z
loop_
_atom_site_type_symbol
_atom_site_label
_atom_site_fract_x
_atom_site_fract_y
_atom_site_fract_z
Si Si1 0.915804 0.317393 0.540928
Si Si2 0.077199 0.323240 0.366189
Si Si3 0.419321 0.678751 0.800174
Si Si4 0.582127 0.179429 0.878343
Si Si5 0.418090 0.680392 0.957089
Si Si6 0.919834 0.176636 0.288450
O O1 0.750000 0.273286 0.537385
O O2 0.919731 0.500000 0.541110
O O3 0.970122 0.272157 0.587108
O O4 0.000000 0.265075 0.500000
O O5 0.250000 0.309194 0.364845
O O6 0.043476 0.500000 0.361835
O O7 0.005288 0.234833 0.328556
O O8 0.250000 0.715256 0.806358
O O9 0.434315 0.500000 0.802154
O O10 0.512327 0.754722 0.836247
O O11 0.461258 0.737724 0.754159
O O12 0.750000 0.220932 0.881355
O O13 0.495497 0.244031 0.917825
O O14 0.571666 0.000000 0.877824
O O15 0.250000 0.720878 0.959217
O O16 0.426672 0.500000 0.952325
O O17 0.500000 0.720669 0.000000
O O18 0.750000 0.203005 0.295109
O O19 0.942153 0.000000 0.282443
#
# Coordination Sequence:
#
# PCOD9405699 Si02
#       6
#     8   8   8   8   8   8
#     4   8  14  25  42  67  98 129 163 206 255 305
#     4   9  18  32  50  74 104 136 171 212 259 312
#     4  10  21  38  60  83 106 136 176 220 267 318
#     4  11  24  39  56  82 115 149 184 221 265 318
#     4  10  21  38  61  87 114 147 187 229 273 319
#     4  10  21  36  54  77 105 137 174 216 262 313
#
# _framework density 18.092690999999999
#
# number of rings (size 3 to 8) (size 9 to 14) (size 15 to 20)
#    0.000    2.333    0.000    3.500    0.000    8.333 
#    0.000    1.667    0.000    0.500    0.000    0.000 
#    0.000    0.000    0.000    0.000    0.000    0.000 
#
# Total GULP energy -267925.512253 kJ/mol
# GULP energy per Si atom -5581.781505 kJ/mol
# Density = 1.805151 g / cm^3
# Si number density = 18.092691 Si / 1000 Ang^3
#
#
#
# Elastic Constant Matrix: (Units=GPa)
#
#
# Indices 1 2 3 4 5 6 
#
# 1 95.8760 42.8982 92.3437 0.0000 0.0000 0.0000
# 2 42.8982 31.3344 49.5552 0.0000 0.0000 0.0000
# 3 92.3437 49.5552 181.4489 0.0000 0.0000 0.0000
# 4 0.0000 0.0000 0.0000 -53.3175 0.0000 0.0000
# 5 0.0000 0.0000 0.0000 0.0000 40.7835 0.0000
# 6 0.0000 0.0000 0.0000 0.0000 0.0000 24.6081
#
#
#
# Elastic Compliance Matrix: (Units=1/GPa)
#
#
# Indices 1 2 3 4 5 6 
#
# 1 0.031925 -0.031706 -0.007588 0.000000 0.000000 0.000000
# 2 -0.031706 0.087667 -0.007807 0.000000 0.000000 0.000000
# 3 -0.007588 -0.007807 0.011505 0.000000 0.000000 0.000000
# 4 0.000000 0.000000 0.000000 -0.018756 0.000000 0.000000
# 5 0.000000 0.000000 0.000000 0.000000 0.024520 0.000000
# 6 0.000000 0.000000 0.000000 0.000000 0.000000 0.040637
#
#
# Mechanical properties :
#
#
# Convention : Reuss Voigt Hill
#
# Bulk Modulus (GPa) = 27.10376 75.36149 51.23262
# Shear Modulus (GPa) = 17.60567 10.67231 14.13899
#
# Velocity S-wave (km/s) = 3.12281 2.43136 2.79852
# Velocity P-wave (km/s) = 5.29298 7.04453 6.23061
#
# Compressibility (1/GPa) = 0.03689525
#
# Stress axis : x y z
#
# Youngs Moduli (GPa) = 31.32306 11.40679 86.91803
#
# Poissons Ratio (x) = 0.36167 0.65956
# Poissons Ratio (y) = 0.99314 0.67853
# Poissons Ratio (z) = 0.23769 0.08905
#
# Static dielectric constant tensor:
#      x y z
#    x 1.606150 0.000000 0.000000 
#    y 0.000000 1.603790 0.000000 
#    z 0.000000 0.000000 1.600940 
# 
# From -- ./inp_files/37054.got.cif
#   From: 2010.05.17/outbox.cif.g08.bks.cpg/sg51_19_cif.got.tgz:37054.got - 2010.06.03 11:52:47.
