data_PCOD9405777
_publ_section_title
;
Structure prediction by ZEFSAII (Michael W. Deem and Ramdas Pophale) SiO2 
 PCOD9405777
Probable space group: P M M A
;
_chemical_formula_sum "Si O2"
_cell_formula_units_Z 64
_cell_length_a 14.536913
_cell_length_b 9.362275
_cell_length_c 24.971031
_cell_angle_alpha 90.000000
_cell_angle_beta 90.000000
_cell_angle_gamma 90.000000
_cell_volume 3398.521789
_symmetry_space_group_name_H-M "P M M A"
_symmetry_group_IT_number 51
_symmetry_cell_setting 'orthorhombic'
loop_
_space_group_symop_operation_xyz
x,y,z
1/2-x,-y,z
1/2+x,-y,-z
-x,y,-z
-x,-y,-z
1/2+x,y,-z
1/2-x,y,z
x,-y,z
loop_
_atom_site_type_symbol
_atom_site_label
_atom_site_fract_x
_atom_site_fract_y
_atom_site_fract_z
Si Si1 0.859041 0.829420 0.633765
Si Si2 0.360677 0.665316 0.140362
Si Si3 0.860608 0.833485 0.361461
Si Si4 0.505590 0.669461 0.436464
Si Si5 0.641887 0.831650 0.148319
Si Si6 0.488621 0.829465 0.061528
Si Si7 0.138046 0.162203 0.244837
Si Si8 0.137966 0.336775 0.745250
O O1 0.750000 0.803454 0.628307
O O2 0.917506 0.738175 0.592561
O O3 0.887418 0.794142 0.694994
O O4 0.873675 0.000000 0.626671
O O5 0.250000 0.675263 0.137116
O O6 0.387092 0.500000 0.139035
O O7 0.407172 0.749722 0.092061
O O8 0.389841 0.736176 0.196646
O O9 0.750000 0.826342 0.365589
O O10 0.888730 0.756742 0.306109
O O11 0.908392 0.750306 0.409822
O O12 0.887582 0.000000 0.360832
O O13 0.500000 0.691897 0.500000
O O14 0.511188 0.500000 0.426196
O O15 0.750000 0.804850 0.137905
O O16 0.579901 0.801791 0.096702
O O17 0.612096 0.738731 0.199280
O O18 0.632395 0.000000 0.161647
O O19 0.471784 0.000000 0.062441
O O20 0.500000 0.785283 0.000000
O O21 0.250000 0.158120 0.244984
O O22 0.105726 0.000000 0.234881
O O23 0.250000 0.339706 0.744976
O O24 0.105264 0.500000 0.741556
#
# Coordination Sequence:
#
# PCOD9405777 Si02
#       8
#     8   8   8   8   8   8   8   8
#     4   9  19  37  61  87 114 145 183 229 278 326
#     4  10  21  36  55  81 112 145 179 218 268 323
#     4  10  21  38  61  86 111 143 183 228 278 328
#     4  11  25  41  56  79 112 150 191 231 273 326
#     4   9  18  34  55  79 109 142 177 222 273 324
#     4  10  22  38  56  79 105 140 188 232 270 317
#     4   8  15  31  56  84 111 139 174 218 269 324
#     4   9  17  31  54  84 114 142 175 217 269 331
#
# _framework density 18.831717000000001
#
# number of rings (size 3 to 8) (size 9 to 14) (size 15 to 20)
#    0.000    2.500    0.000    2.250    0.000    7.500 
#    0.000    6.250    0.000    1.500    0.000    0.000 
#    0.000    0.000    0.000    0.000    0.000    0.000 
#
# Total GULP energy -357433.317324 kJ/mol
# GULP energy per Si atom -5584.895583 kJ/mol
# Density = 1.878885 g / cm^3
# Si number density = 18.831717 Si / 1000 Ang^3
#
#
#
# Elastic Constant Matrix: (Units=GPa)
#
#
# Indices 1 2 3 4 5 6 
#
# 1 67.1149 49.2326 46.8882 0.0000 0.0000 0.0000
# 2 49.2326 110.7789 106.5161 0.0000 0.0000 0.0000
# 3 46.8882 106.5161 169.1657 0.0000 0.0000 0.0000
# 4 0.0000 0.0000 0.0000 88.8955 0.0000 0.0000
# 5 0.0000 0.0000 0.0000 0.0000 31.6052 0.0000
# 6 0.0000 0.0000 0.0000 0.0000 0.0000 22.6252
#
#
#
# Elastic Compliance Matrix: (Units=1/GPa)
#
#
# Indices 1 2 3 4 5 6 
#
# 1 0.022108 -0.009969 0.000149 0.000000 0.000000 0.000000
# 2 -0.009969 0.027373 -0.014472 0.000000 0.000000 0.000000
# 3 0.000149 -0.014472 0.014983 0.000000 0.000000 0.000000
# 4 0.000000 0.000000 0.000000 0.011249 0.000000 0.000000
# 5 0.000000 0.000000 0.000000 0.000000 0.031640 0.000000
# 6 0.000000 0.000000 0.000000 0.000000 0.000000 0.044199
#
#
# Mechanical properties :
#
#
# Convention : Reuss Voigt Hill
#
# Bulk Modulus (GPa) = 62.97364 83.59257 73.28310
# Shear Modulus (GPa) = 24.33930 38.25334 31.29632
#
# Velocity S-wave (km/s) = 3.59898 4.51191 4.08106
# Velocity P-wave (km/s) = 7.12622 8.46338 7.82342
#
# Compressibility (1/GPa) = 0.01587966
#
# Stress axis : x y z
#
# Youngs Moduli (GPa) = 45.23180 36.53269 66.74386
#
# Poissons Ratio (x) = 0.36418 -0.00995
# Poissons Ratio (y) = 0.45090 0.96594
# Poissons Ratio (z) = -0.00674 0.52871
#
# Static dielectric constant tensor:
#      x y z
#    x 1.681940 0.000000 0.000000 
#    y 0.000000 1.629760 0.000000 
#    z 0.000000 0.000000 1.613730 
# 
# From -- ./inp_files/35755.got.cif
#   From: 2010.05.17/outbox.cif.g08.bks.cpg/sg51_18_cif.got.tgz:35755.got - 2010.06.03 11:52:47.
