data_PCOD9405890
_publ_section_title
;
Structure prediction by ZEFSAII (Michael W. Deem and Ramdas Pophale) SiO2 
 PCOD9405890
Probable space group: P M M A
;
_chemical_formula_sum "Si O2"
_cell_formula_units_Z 48
_cell_length_a 18.672095
_cell_length_b 8.242373
_cell_length_c 16.171066
_cell_angle_alpha 90.000000
_cell_angle_beta 90.000000
_cell_angle_gamma 90.000000
_cell_volume 2488.765410
_symmetry_space_group_name_H-M "P M M A"
_symmetry_group_IT_number 51
_symmetry_cell_setting 'orthorhombic'
loop_
_space_group_symop_operation_xyz
x,y,z
1/2-x,-y,z
1/2+x,-y,-z
-x,y,-z
-x,-y,-z
1/2+x,y,-z
1/2-x,y,z
x,-y,z
loop_
_atom_site_type_symbol
_atom_site_label
_atom_site_fract_x
_atom_site_fract_y
_atom_site_fract_z
Si Si1 0.168213 0.695838 0.998313
Si Si2 0.422891 0.303369 0.156741
Si Si3 0.333274 0.198548 0.671159
Si Si4 0.586126 0.194109 0.164766
Si Si5 0.663018 0.811478 0.509341
Si Si6 0.331832 0.306151 0.312754
O O1 0.250000 0.754326 0.004364
O O2 0.169674 0.500000 0.001789
O O3 0.132574 0.745630 0.912365
O O4 0.120516 0.752111 0.075755
O O5 0.422235 0.500000 0.156752
O O6 0.504522 0.248315 0.155094
O O7 0.382348 0.245123 0.239496
O O8 0.250000 0.245894 0.682560
O O9 0.380189 0.253088 0.748506
O O10 0.359743 0.254143 0.580461
O O11 0.334004 0.000000 0.668535
O O12 0.589048 0.000000 0.165685
O O13 0.750000 0.803211 0.506821
O O14 0.640849 0.729919 0.594854
O O15 0.642606 0.000000 0.514524
O O16 0.250000 0.242417 0.305038
O O17 0.327752 0.500000 0.303918
#
# Coordination Sequence:
#
# PCOD9405890 Si02
#       6
#     8   8   8   8   8   8
#     4  10  21  38  59  79  99 130 172 211 250 303
#     4  10  21  37  54  73 103 140 171 203 250 308
#     4   8  15  30  51  73  99 133 170 206 248 299
#     4  11  22  35  53  78 107 137 169 209 256 301
#     4   8  14  27  49  74  98 127 165 208 252 298
#     4   9  17  31  52  76 100 129 169 215 258 298
#
# _framework density 19.286671999999999
#
# number of rings (size 3 to 8) (size 9 to 14) (size 15 to 20)
#    0.000    2.667    0.000    3.000    0.000    6.333 
#    0.000    2.500    0.000   12.000    0.000    0.000 
#    0.000    0.000    0.000    0.000    0.000    0.000 
#
# Total GULP energy -267715.931546 kJ/mol
# GULP energy per Si atom -5577.415241 kJ/mol
# Density = 1.924277 g / cm^3
# Si number density = 19.286672 Si / 1000 Ang^3
#
#
#
# Elastic Constant Matrix: (Units=GPa)
#
#
# Indices 1 2 3 4 5 6 
#
# 1 64.5701 0.5817 18.1382 0.0000 0.0000 0.0000
# 2 0.5817 3.7079 2.3431 0.0000 0.0000 0.0000
# 3 18.1382 2.3431 95.0351 0.0000 0.0000 0.0000
# 4 0.0000 0.0000 0.0000 28.8577 0.0000 0.0000
# 5 0.0000 0.0000 0.0000 0.0000 -9.3776 0.0000
# 6 0.0000 0.0000 0.0000 0.0000 0.0000 14.2164
#
#
#
# Elastic Compliance Matrix: (Units=1/GPa)
#
#
# Indices 1 2 3 4 5 6 
#
# 1 0.016366 -0.000603 -0.003109 0.000000 0.000000 0.000000
# 2 -0.000603 0.273982 -0.006640 0.000000 0.000000 0.000000
# 3 -0.003109 -0.006640 0.011279 0.000000 0.000000 0.000000
# 4 0.000000 0.000000 0.000000 0.034653 0.000000 0.000000
# 5 0.000000 0.000000 0.000000 0.000000 -0.106637 0.000000
# 6 0.000000 0.000000 0.000000 0.000000 0.000000 0.070341
#
#
# Mechanical properties :
#
#
# Convention : Reuss Voigt Hill
#
# Bulk Modulus (GPa) = 3.55969 22.82657 13.19313
# Shear Modulus (GPa) = 12.06771 16.22263 14.14517
#
# Velocity S-wave (km/s) = 2.50412 2.90337 2.71110
# Velocity P-wave (km/s) = 3.19538 4.80630 4.08112
#
# Compressibility (1/GPa) = 0.28092343
#
# Stress axis : x y z
#
# Youngs Moduli (GPa) = 61.10328 3.64988 88.65681
#
# Poissons Ratio (x) = 0.00220 0.27560
# Poissons Ratio (y) = 0.03686 0.58868
# Poissons Ratio (z) = 0.18995 0.02424
#
# Static dielectric constant tensor:
#      x y z
#    x 1.643730 0.000000 0.000000 
#    y 0.000000 1.684390 0.000000 
#    z 0.000000 0.000000 1.685060 
# 
# From -- ./inp_files/24795.got.cif
#   From: 2010.05.17/outbox.cif.g08.bks.cpg/sg51_13_cif.got.tgz:24795.got - 2010.06.03 11:52:47.
