data_PCOD9405139
_publ_section_title
;
Structure prediction by ZEFSAII (Michael W. Deem and Ramdas Pophale) SiO2 
 PCOD9405139
Probable space group: P M M A
;
_chemical_formula_sum "Si O2"
_cell_formula_units_Z 64
_cell_length_a 23.613773
_cell_length_b 9.051955
_cell_length_c 15.309753
_cell_angle_alpha 90.000000
_cell_angle_beta 90.000000
_cell_angle_gamma 90.000000
_cell_volume 3272.472113
_symmetry_space_group_name_H-M "P M M A"
_symmetry_group_IT_number 51
_symmetry_cell_setting 'orthorhombic'
loop_
_space_group_symop_operation_xyz
x,y,z
1/2-x,-y,z
1/2+x,-y,-z
-x,y,-z
-x,-y,-z
1/2+x,y,-z
1/2-x,y,z
x,-y,z
loop_
_atom_site_type_symbol
_atom_site_label
_atom_site_fract_x
_atom_site_fract_y
_atom_site_fract_z
Si Si1 0.892740 0.321789 0.103066
Si Si2 0.626422 0.824826 0.790497
Si Si3 0.611741 0.675299 0.604982
Si Si4 0.185550 0.822234 0.751442
Si Si5 0.869942 0.174875 0.429854
Si Si6 0.988474 0.670622 0.836024
Si Si7 0.686073 0.324399 0.942434
Si Si8 0.518888 0.668396 0.368497
O O1 0.891565 0.500000 0.111278
O O2 0.858932 0.253049 0.184080
O O3 0.958837 0.279312 0.105242
O O4 0.859219 0.280405 0.015814
O O5 0.629722 0.753193 0.694586
O O6 0.567307 0.768655 0.833090
O O7 0.674450 0.763194 0.854119
O O8 0.627150 0.000000 0.784085
O O9 0.619337 0.500000 0.613191
O O10 0.641349 0.739968 0.519597
O O11 0.543773 0.701623 0.595664
O O12 0.250000 0.778460 0.772176
O O13 0.170469 0.785606 0.651195
O O14 0.180927 0.000000 0.759987
O O15 0.932834 0.221253 0.398597
O O16 0.866890 0.000000 0.444708
O O17 0.973164 0.500000 0.857718
O O18 0.012070 0.670733 0.736437
O O19 0.750000 0.299173 0.974627
O O20 0.679599 0.500000 0.926165
O O21 0.534517 0.500000 0.394287
#
# Coordination Sequence:
#
# PCOD9405139 Si02
#       8
#     8   8   8   8   8   8   8   8
#     4  10  20  37  63  91 116 148 194 241 285 340
#     4  11  23  39  60  86 118 153 193 240 291 350
#     4  10  21  37  57  80 111 149 189 237 291 341
#     4  10  22  38  54  78 118 161 194 234 290 345
#     4  11  21  32  51  80 112 150 194 236 281 338
#     4   9  18  34  57  86 122 157 188 231 290 347
#     4  10  22  41  64  88 114 148 194 244 291 342
#     4   9  17  31  51  78 112 150 186 226 281 340
#
# _framework density 19.557081
#
# number of rings (size 3 to 8) (size 9 to 14) (size 15 to 20)
#    0.000    2.000    1.250    3.375    0.000    7.000 
#    0.000    3.125    0.000    2.250    0.000    0.000 
#    0.000    0.000    0.000    0.000    0.000    0.000 
#
# Total GULP energy -357558.262723 kJ/mol
# GULP energy per Si atom -5586.847855 kJ/mol
# Density = 1.951257 g / cm^3
# Si number density = 19.557081 Si / 1000 Ang^3
#
#
#
# Elastic Constant Matrix: (Units=GPa)
#
#
# Indices 1 2 3 4 5 6 
#
# 1 21.2150 10.1341 22.4148 0.0000 0.0000 0.0000
# 2 10.1341 39.2671 24.9502 0.0000 0.0000 0.0000
# 3 22.4148 24.9502 63.3690 0.0000 0.0000 0.0000
# 4 0.0000 0.0000 0.0000 15.8805 0.0000 0.0000
# 5 0.0000 0.0000 0.0000 0.0000 20.5872 0.0000
# 6 0.0000 0.0000 0.0000 0.0000 0.0000 77.7536
#
#
#
# Elastic Compliance Matrix: (Units=1/GPa)
#
#
# Indices 1 2 3 4 5 6 
#
# 1 0.075596 -0.003360 -0.025417 0.000000 0.000000 0.000000
# 2 -0.003360 0.034113 -0.012243 0.000000 0.000000 0.000000
# 3 -0.025417 -0.012243 0.029591 0.000000 0.000000 0.000000
# 4 0.000000 0.000000 0.000000 0.062970 0.000000 0.000000
# 5 0.000000 0.000000 0.000000 0.000000 0.048574 0.000000
# 6 0.000000 0.000000 0.000000 0.000000 0.000000 0.012861
#
#
# Mechanical properties :
#
#
# Convention : Reuss Voigt Hill
#
# Bulk Modulus (GPa) = 17.46395 26.53881 22.00138
# Shear Modulus (GPa) = 13.70498 27.26771 20.48635
#
# Velocity S-wave (km/s) = 2.65007 3.73803 3.24005
# Velocity P-wave (km/s) = 4.27937 5.67714 5.02707
#
# Compressibility (1/GPa) = 0.05726081
#
# Stress axis : x y z
#
# Youngs Moduli (GPa) = 13.22828 29.31454 33.79374
#
# Poissons Ratio (x) = 0.09850 0.85892
# Poissons Ratio (y) = 0.04445 0.41373
# Poissons Ratio (z) = 0.33622 0.35889
#
# Static dielectric constant tensor:
#      x y z
#    x 1.678060 0.000000 0.000000 
#    y 0.000000 1.649810 0.000000 
#    z 0.000000 0.000000 1.701450 
# 
# From -- ./inp_files/26330.got.cif
#   From: 2010.05.17/outbox.cif.g08.bks.cpg/sg51_14_cif.got.tgz:26330.got - 2010.06.03 11:52:47.
