data_PCOD9405148
_publ_section_title
;
Structure prediction by ZEFSAII (Michael W. Deem and Ramdas Pophale) SiO2 
 PCOD9405148
Probable space group: P M M A
;
_chemical_formula_sum "Si O2"
_cell_formula_units_Z 38
_cell_length_a 10.552728
_cell_length_b 11.187252
_cell_length_c 17.341470
_cell_angle_alpha 90.000000
_cell_angle_beta 90.000000
_cell_angle_gamma 90.000000
_cell_volume 2047.265058
_symmetry_space_group_name_H-M "P M M A"
_symmetry_group_IT_number 51
_symmetry_cell_setting 'orthorhombic'
loop_
_space_group_symop_operation_xyz
x,y,z
1/2-x,-y,z
1/2+x,-y,-z
-x,y,-z
-x,-y,-z
1/2+x,y,-z
1/2-x,y,z
x,-y,z
loop_
_atom_site_type_symbol
_atom_site_label
_atom_site_fract_x
_atom_site_fract_y
_atom_site_fract_z
Si Si1 0.750000 0.645387 0.164686
Si Si2 0.750000 0.639312 0.657587
Si Si3 0.494556 0.000000 0.404312
Si Si4 0.517993 0.356994 0.908271
Si Si5 0.750000 0.635454 0.332439
Si Si6 0.250000 0.000000 0.288537
Si Si7 0.750000 0.245216 0.817320
Si Si8 0.511931 0.738011 0.408668
O O1 0.750000 0.500000 0.157806
O O2 0.617269 0.679203 0.126890
O O3 0.750000 0.699502 0.250493
O O4 0.750000 0.500000 0.636155
O O5 0.750000 0.657222 0.748913
O O6 0.623408 0.701988 0.625822
O O7 0.500000 0.000000 0.500000
O O8 0.552393 0.872166 0.385455
O O9 0.366897 0.000000 0.350734
O O10 0.543323 0.500000 0.892668
O O11 0.627503 0.275512 0.870110
O O12 0.500000 0.344943 0.000000
O O13 0.750000 0.500000 0.308489
O O14 0.624193 0.656618 0.379942
O O15 0.250000 0.117884 0.231206
O O16 0.500000 0.731592 0.500000
#
# Coordination Sequence:
#
# PCOD9405148 Si02
#       8
#     4   4   4   8   4   2   4   8
#     4   9  19  34  53  83 125 157 187 240 301 361
#     4  12  23  37  60  89 123 162 207 257 322 390
#     4  10  22  42  66  84 118 163 223 273 310 361
#     4  10  20  37  64  97 129 164 205 251 309 385
#     4  11  23  37  54  85 126 157 189 246 321 371
#     4  12  24  44  66  96 126 166 216 288 324 364
#     4  12  23  39  65  93 125 165 219 268 315 376
#     4  11  23  39  60  84 116 160 208 259 308 374
#
# _framework density 18.561349
#
# number of rings (size 3 to 8) (size 9 to 14) (size 15 to 20)
#    0.000    1.263    2.105    4.105    0.000    8.842 
#    0.000    0.526    0.000    0.632    0.000    0.000 
#    0.000    0.000    0.000    0.000    0.000    0.000 
#
# Total GULP energy -211622.723650 kJ/mol
# GULP energy per Si atom -5569.019043 kJ/mol
# Density = 1.851910 g / cm^3
# Si number density = 18.561349 Si / 1000 Ang^3
#
#
#
# Elastic Constant Matrix: (Units=GPa)
#
#
# Indices 1 2 3 4 5 6 
#
# 1 143.2334 18.9315 62.5123 0.0000 0.0000 0.0000
# 2 18.9315 66.7400 17.9752 0.0000 0.0000 0.0000
# 3 62.5123 17.9752 113.2317 0.0000 0.0000 0.0000
# 4 0.0000 0.0000 0.0000 28.7654 0.0000 0.0000
# 5 0.0000 0.0000 0.0000 0.0000 43.1716 0.0000
# 6 0.0000 0.0000 0.0000 0.0000 0.0000 35.8760
#
#
#
# Elastic Compliance Matrix: (Units=1/GPa)
#
#
# Indices 1 2 3 4 5 6 
#
# 1 0.009306 -0.001312 -0.004930 0.000000 0.000000 0.000000
# 2 -0.001312 0.015838 -0.001790 0.000000 0.000000 0.000000
# 3 -0.004930 -0.001790 0.011837 0.000000 0.000000 0.000000
# 4 0.000000 0.000000 0.000000 0.034764 0.000000 0.000000
# 5 0.000000 0.000000 0.000000 0.000000 0.023163 0.000000
# 6 0.000000 0.000000 0.000000 0.000000 0.000000 0.027874
#
#
# Mechanical properties :
#
#
# Convention : Reuss Voigt Hill
#
# Bulk Modulus (GPa) = 47.80512 58.00479 52.90495
# Shear Modulus (GPa) = 34.28926 36.48168 35.38547
#
# Velocity S-wave (km/s) = 4.30274 4.43817 4.37098
# Velocity P-wave (km/s) = 7.10605 7.58823 7.35109
#
# Compressibility (1/GPa) = 0.02091826
#
# Stress axis : x y z
#
# Youngs Moduli (GPa) = 107.45189 63.14014 84.48047
#
# Poissons Ratio (x) = 0.08285 0.41645
# Poissons Ratio (y) = 0.14100 0.15120
# Poissons Ratio (z) = 0.52969 0.11301
#
# Static dielectric constant tensor:
#      x y z
#    x 2.264580 0.000000 0.000000 
#    y 0.000000 1.659090 0.000000 
#    z 0.000000 0.000000 1.628350 
# 
# From -- ./inp_files/27147.got.cif
#   From: 2010.05.17/outbox.cif.g08.bks.cpg/sg51_14_cif.got.tgz:27147.got - 2010.06.03 11:52:47.
