data_PCOD9405420
_publ_section_title
;
Structure prediction by ZEFSAII (Michael W. Deem and Ramdas Pophale) SiO2 
 PCOD9405420
Probable space group: P M M A
;
_chemical_formula_sum "Si O2"
_cell_formula_units_Z 40
_cell_length_a 26.621966
_cell_length_b 7.491416
_cell_length_c 9.745256
_cell_angle_alpha 90.000000
_cell_angle_beta 90.000000
_cell_angle_gamma 90.000000
_cell_volume 1943.557039
_symmetry_space_group_name_H-M "P M M A"
_symmetry_group_IT_number 51
_symmetry_cell_setting 'orthorhombic'
loop_
_space_group_symop_operation_xyz
x,y,z
1/2-x,-y,z
1/2+x,-y,-z
-x,y,-z
-x,-y,-z
1/2+x,y,-z
1/2-x,y,z
x,-y,z
loop_
_atom_site_type_symbol
_atom_site_label
_atom_site_fract_x
_atom_site_fract_y
_atom_site_fract_z
Si Si1 0.953075 0.205772 0.420413
Si Si2 0.750000 0.781302 0.904671
Si Si3 0.750000 0.218110 0.589598
Si Si4 0.156414 0.784780 0.912568
Si Si5 0.958113 0.289920 0.105182
Si Si6 0.342103 0.781302 0.598242
O O1 0.961387 0.207816 0.256789
O O2 0.897605 0.282762 0.442961
O O3 0.000000 0.288226 0.500000
O O4 0.949761 0.000000 0.467231
O O5 0.750000 0.724073 0.746936
O O6 0.750000 0.000000 0.905877
O O7 0.800133 0.723220 0.985075
O O8 0.799006 0.275107 0.505293
O O9 0.750000 0.000000 0.589976
O O10 0.099086 0.733742 0.946532
O O11 0.167131 0.726327 0.755889
O O12 0.157730 0.000000 0.912460
O O13 0.967199 0.500000 0.123562
O O14 0.000000 0.220407 0.000000
O O15 0.342758 0.000000 0.599442
#
# Coordination Sequence:
#
# PCOD9405420 Si02
#       6
#     8   4   4   8   8   8
#     4   9  18  32  51  75  99 125 162 207 253 298
#     4   9  17  27  44  73 100 122 154 199 248 293
#     4   9  15  23  39  67  98 120 144 187 242 291
#     4   9  17  31  50  71  96 127 163 201 244 295
#     4  10  21  35  50  71 100 135 173 209 249 297
#     4   8  14  25  41  62  91 123 149 181 230 286
#
# _framework density 20.580822000000001
#
# number of rings (size 3 to 8) (size 9 to 14) (size 15 to 20)
#    0.000    3.000    0.000    2.400    0.000    6.000 
#    0.000    4.500    0.000    0.000    0.000    5.600 
#    0.000    0.000    0.000    0.000    0.000    0.000 
#
# Total GULP energy -223175.000969 kJ/mol
# GULP energy per Si atom -5579.375024 kJ/mol
# Density = 2.053398 g / cm^3
# Si number density = 20.580822 Si / 1000 Ang^3
#
#
#
# Elastic Constant Matrix: (Units=GPa)
#
#
# Indices 1 2 3 4 5 6 
#
# 1 218.1537 -2.9193 140.5660 0.0000 0.0000 0.0000
# 2 -2.9193 57.1183 -2.8201 0.0000 0.0000 0.0000
# 3 140.5660 -2.8201 125.4666 0.0000 0.0000 0.0000
# 4 0.0000 0.0000 0.0000 659.5153 0.0000 0.0000
# 5 0.0000 0.0000 0.0000 0.0000 45.2636 0.0000
# 6 0.0000 0.0000 0.0000 0.0000 0.0000 -8.0866
#
#
#
# Elastic Compliance Matrix: (Units=1/GPa)
#
#
# Indices 1 2 3 4 5 6 
#
# 1 0.016483 -0.000069 -0.018468 0.000000 0.000000 0.000000
# 2 -0.000069 0.017527 0.000472 0.000000 0.000000 0.000000
# 3 -0.018468 0.000472 0.028671 0.000000 0.000000 0.000000
# 4 0.000000 0.000000 0.000000 0.001516 0.000000 0.000000
# 5 0.000000 0.000000 0.000000 0.000000 0.022093 0.000000
# 6 0.000000 0.000000 0.000000 0.000000 0.000000 -0.123661
#
#
# Mechanical properties :
#
#
# Convention : Reuss Voigt Hill
#
# Bulk Modulus (GPa) = 37.66464 74.48799 56.07631
# Shear Modulus (GPa) = 657.01880 157.06591 407.04235
#
# Velocity S-wave (km/s) = 17.88663 8.74542 14.07860
# Velocity P-wave (km/s) = 21.09303 11.75789 17.07577
#
# Compressibility (1/GPa) = 0.02655010
#
# Stress axis : x y z
#
# Youngs Moduli (GPa) = 60.67006 57.05394 34.87825
#
# Poissons Ratio (x) = 0.00396 0.64412
# Poissons Ratio (y) = 0.00421 -0.01645
# Poissons Ratio (z) = 1.12044 -0.02691
#
# Static dielectric constant tensor:
#      x y z
#    x 1.712050 0.000000 0.000000 
#    y 0.000000 1.756050 0.000000 
#    z 0.000000 0.000000 1.687880 
# 
# From -- ./inp_files/12176.got.cif
#   From: 2010.05.17/outbox.cif.g08.bks.cpg/sg51_7_cif.got.tgz:12176.got - 2010.06.03 11:52:47.
