data_PCOD9405329
_publ_section_title
;
Structure prediction by ZEFSAII (Michael W. Deem and Ramdas Pophale) SiO2 
 PCOD9405329
Probable space group: P M M A
;
_chemical_formula_sum "Si O2"
_cell_formula_units_Z 40
_cell_length_a 30.980095
_cell_length_b 7.391522
_cell_length_c 7.896696
_cell_angle_alpha 90.000000
_cell_angle_beta 90.000000
_cell_angle_gamma 90.000000
_cell_volume 1808.264842
_symmetry_space_group_name_H-M "P M M A"
_symmetry_group_IT_number 51
_symmetry_cell_setting 'orthorhombic'
loop_
_space_group_symop_operation_xyz
x,y,z
1/2-x,-y,z
1/2+x,-y,-z
-x,y,-z
-x,-y,-z
1/2+x,y,-z
1/2-x,y,z
x,-y,z
loop_
_atom_site_type_symbol
_atom_site_label
_atom_site_fract_x
_atom_site_fract_y
_atom_site_fract_z
Si Si1 0.857378 0.289669 0.445687
Si Si2 0.546560 0.796589 0.466011
Si Si3 0.860736 0.279528 0.057193
Si Si4 0.954761 0.719552 0.076468
Si Si5 0.299781 0.721610 0.245532
O O1 0.846271 0.500000 0.428001
O O2 0.906830 0.281280 0.513649
O O3 0.855100 0.216448 0.252673
O O4 0.825405 0.214749 0.587473
O O5 0.500000 0.707117 0.500000
O O6 0.548231 0.795053 0.264077
O O7 0.544740 0.000000 0.536330
O O8 0.859841 0.500000 0.062398
O O9 0.909048 0.230710 0.993292
O O10 0.824926 0.220560 0.923972
O O11 0.955950 0.500000 0.086175
O O12 0.000000 0.779536 0.000000
O O13 0.250000 0.776089 0.246432
O O14 0.300909 0.500000 0.246148
#
# Coordination Sequence:
#
# PCOD9405329 Si02
#       5
#     8   8   8   8   8
#     4   9  18  32  51  73 100 133 171 210 253 305
#     4  10  21  34  48  71 103 137 173 210 257 308
#     4   8  15  28  43  67 100 127 158 202 247 298
#     4   9  18  31  50  75 100 132 173 211 253 304
#     4   9  17  28  47  76 103 128 161 207 263 309
#
# _framework density 22.120653000000001
#
# number of rings (size 3 to 8) (size 9 to 14) (size 15 to 20)
#    0.000    3.000    0.000    1.800    2.800    2.800 
#    0.000    4.000    0.000    0.600    0.000    0.000 
#    0.000    0.000    0.000    0.000    0.000    0.000 
#
# Total GULP energy -222967.564212 kJ/mol
# GULP energy per Si atom -5574.189105 kJ/mol
# Density = 2.207031 g / cm^3
# Si number density = 22.120653 Si / 1000 Ang^3
#
#
#
# Elastic Constant Matrix: (Units=GPa)
#
#
# Indices 1 2 3 4 5 6 
#
# 1 234.0155 5.5060 112.7221 0.0000 0.0000 0.0000
# 2 5.5060 69.1791 3.3177 0.0000 0.0000 0.0000
# 3 112.7221 3.3177 110.7713 0.0000 0.0000 0.0000
# 4 0.0000 0.0000 0.0000 -4.1901 0.0000 0.0000
# 5 0.0000 0.0000 0.0000 0.0000 44.6936 0.0000
# 6 0.0000 0.0000 0.0000 0.0000 0.0000 -45.8541
#
#
#
# Elastic Compliance Matrix: (Units=1/GPa)
#
#
# Indices 1 2 3 4 5 6 
#
# 1 0.008386 -0.000259 -0.008526 0.000000 0.000000 0.000000
# 2 -0.000259 0.014484 -0.000171 0.000000 0.000000 0.000000
# 3 -0.008526 -0.000171 0.017709 0.000000 0.000000 0.000000
# 4 0.000000 0.000000 0.000000 -0.238656 0.000000 0.000000
# 5 0.000000 0.000000 0.000000 0.000000 0.022375 0.000000
# 6 0.000000 0.000000 0.000000 0.000000 0.000000 -0.021808
#
#
# Mechanical properties :
#
#
# Convention : Reuss Voigt Hill
#
# Bulk Modulus (GPa) = 44.11424 73.00637 58.56031
# Shear Modulus (GPa) = -29.06248 18.42455 -5.31896
#
# Velocity S-wave (km/s) = -3.62859 2.88915 -1.55233
# Velocity P-wave (km/s) = 1.55893 6.64868 4.82883
#
# Compressibility (1/GPa) = 0.02266842
#
# Stress axis : x y z
#
# Youngs Moduli (GPa) = 119.24271 69.04170 56.46826
#
# Poissons Ratio (x) = 0.01785 0.48146
# Poissons Ratio (y) = 0.03083 0.00964
# Poissons Ratio (z) = 1.01669 0.01178
#
# Static dielectric constant tensor:
#      x y z
#    x 1.825560 0.000000 0.000000 
#    y 0.000000 1.848230 0.000000 
#    z 0.000000 0.000000 1.773380 
# 
# From -- ./inp_files/12121.got.cif
#   From: 2010.05.17/outbox.cif.g08.bks.cpg/sg51_7_cif.got.tgz:12121.got - 2010.06.03 11:52:47.
