data_PCOD9405918
_publ_section_title
;
Structure prediction by ZEFSAII (Michael W. Deem and Ramdas Pophale) SiO2 
 PCOD9405918
Probable space group: P M M A
;
_chemical_formula_sum "Si O2"
_cell_formula_units_Z 52
_cell_length_a 7.690497
_cell_length_b 13.593951
_cell_length_c 22.440730
_cell_angle_alpha 90.000000
_cell_angle_beta 90.000000
_cell_angle_gamma 90.000000
_cell_volume 2346.049049
_symmetry_space_group_name_H-M "P M M A"
_symmetry_group_IT_number 51
_symmetry_cell_setting 'orthorhombic'
loop_
_space_group_symop_operation_xyz
x,y,z
1/2-x,-y,z
1/2+x,-y,-z
-x,y,-z
-x,-y,-z
1/2+x,y,-z
1/2-x,y,z
x,-y,z
loop_
_atom_site_type_symbol
_atom_site_label
_atom_site_fract_x
_atom_site_fract_y
_atom_site_fract_z
Si Si1 0.952735 0.325216 0.775609
Si Si2 0.039174 0.891991 0.807713
Si Si3 0.458428 0.820060 0.935961
Si Si4 0.952225 0.391995 0.094775
Si Si5 0.456544 0.392854 0.645147
Si Si6 0.458817 0.000000 0.570620
Si Si7 0.540178 0.788391 0.430027
O O1 0.750000 0.346841 0.781530
O O2 0.979318 0.207085 0.775201
O O3 0.041388 0.370107 0.834341
O O4 0.019950 0.370642 0.714688
O O5 0.250000 0.890898 0.805561
O O6 0.983386 0.876877 0.876839
O O7 0.981953 0.000000 0.786421
O O8 0.250000 0.814202 0.930903
O O9 0.530414 0.707790 0.932818
O O10 0.500000 0.864224 0.000000
O O11 0.750000 0.395816 0.076782
O O12 0.029075 0.500000 0.081967
O O13 0.250000 0.396008 0.633356
O O14 0.530206 0.500000 0.630545
O O15 0.530011 0.303185 0.606835
O O16 0.500000 0.000000 0.500000
O O17 0.524952 0.105184 0.592879
O O18 0.250000 0.000000 0.577993
O O19 0.500000 0.779044 0.500000
O O20 0.750000 0.790064 0.424209
#
# Coordination Sequence:
#
# PCOD9405918 Si02
#       7
#     8   8   8   8   8   4   8
#     4  11  22  35  53  79 108 133 168 222 276 321
#     4   9  19  38  60  77  99 137 179 215 257 318
#     4   9  18  31  48  74 105 135 170 210 257 312
#     4   9  18  34  54  72  96 136 180 218 259 313
#     4  10  21  37  55  76 107 147 187 223 263 322
#     4   8  14  28  50  74 100 130 168 212 253 304
#     4   9  18  33  54  79 107 140 180 222 269 318
#
# _framework density 22.164925
#
# number of rings (size 3 to 8) (size 9 to 14) (size 15 to 20)
#    0.000    2.615    0.000    2.769    0.000    6.769 
#    1.385    0.000    0.000    0.000    0.000    0.000 
#    0.000    0.000    0.000    0.000    0.000    0.000 
#
# Total GULP energy -290193.571560 kJ/mol
# GULP energy per Si atom -5580.645607 kJ/mol
# Density = 2.211448 g / cm^3
# Si number density = 22.164925 Si / 1000 Ang^3
#
#
#
# Elastic Constant Matrix: (Units=GPa)
#
#
# Indices 1 2 3 4 5 6 
#
# 1 41.0476 7.7989 -11.7680 0.0000 0.0000 0.0000
# 2 7.7989 152.3197 30.7006 0.0000 0.0000 0.0000
# 3 -11.7680 30.7006 45.9231 0.0000 0.0000 0.0000
# 4 0.0000 0.0000 0.0000 41.7703 0.0000 0.0000
# 5 0.0000 0.0000 0.0000 0.0000 14.1529 0.0000
# 6 0.0000 0.0000 0.0000 0.0000 0.0000 -2.4306
#
#
#
# Elastic Compliance Matrix: (Units=1/GPa)
#
#
# Indices 1 2 3 4 5 6 
#
# 1 0.027647 -0.003286 0.009282 0.000000 0.000000 0.000000
# 2 -0.003286 0.007978 -0.006176 0.000000 0.000000 0.000000
# 3 0.009282 -0.006176 0.028283 0.000000 0.000000 0.000000
# 4 0.000000 0.000000 0.000000 0.023940 0.000000 0.000000
# 5 0.000000 0.000000 0.000000 0.000000 0.070657 0.000000
# 6 0.000000 0.000000 0.000000 0.000000 0.000000 -0.411420
#
#
# Mechanical properties :
#
#
# Convention : Reuss Voigt Hill
#
# Bulk Modulus (GPa) = 15.73629 32.52817 24.13223
# Shear Modulus (GPa) = -21.61023 24.86911 1.62944
#
# Velocity S-wave (km/s) = -3.12585 3.35327 0.85834
# Velocity P-wave (km/s) = 2.43163 5.44976 3.44870
#
# Compressibility (1/GPa) = 0.06354737
#
# Stress axis : x y z
#
# Youngs Moduli (GPa) = 36.16988 125.34267 35.35750
#
# Poissons Ratio (x) = 0.41192 -0.32818
# Poissons Ratio (y) = 0.11887 0.21836
# Poissons Ratio (z) = -0.33572 0.77408
#
# Static dielectric constant tensor:
#      x y z
#    x 1.803750 0.000000 0.000000 
#    y 0.000000 1.872150 0.000000 
#    z 0.000000 0.000000 1.771110 
# 
# From -- ./inp_files/31682.got.cif
#   From: 2010.05.17/outbox.cif.g08.bks.cpg/sg51_16_cif.got.tgz:31682.got - 2010.06.03 11:52:47.
