data_PCOD9405764
_publ_section_title
;
Structure prediction by ZEFSAII (Michael W. Deem and Ramdas Pophale) SiO2 
 PCOD9405764
Probable space group: P M M A
;
_chemical_formula_sum "Si O2"
_cell_formula_units_Z 64
_cell_length_a 14.640381
_cell_length_b 9.639019
_cell_length_c 22.743615
_cell_angle_alpha 90.000000
_cell_angle_beta 90.000000
_cell_angle_gamma 90.000000
_cell_volume 3209.554173
_symmetry_space_group_name_H-M "P M M A"
_symmetry_group_IT_number 51
_symmetry_cell_setting 'orthorhombic'
loop_
_space_group_symop_operation_xyz
x,y,z
1/2-x,-y,z
1/2+x,-y,-z
-x,y,-z
-x,-y,-z
1/2+x,y,-z
1/2-x,y,z
x,-y,z
loop_
_atom_site_type_symbol
_atom_site_label
_atom_site_fract_x
_atom_site_fract_y
_atom_site_fract_z
Si Si1 0.523884 0.834099 0.244176
Si Si2 0.141947 0.843496 0.955779
Si Si3 0.857500 0.343692 0.471710
Si Si4 0.647971 0.767197 0.603703
Si Si5 0.472310 0.666284 0.867475
Si Si6 0.051530 0.152076 0.624164
Si Si7 0.143035 0.839909 0.097009
Si Si8 0.854311 0.653799 0.729306
O O1 0.564230 0.743686 0.191185
O O2 0.567602 0.804676 0.308236
O O3 0.420491 0.775977 0.250507
O O4 0.526739 0.000000 0.234444
O O5 0.250000 0.832406 0.942976
O O6 0.085785 0.727749 0.921622
O O7 0.111236 0.000000 0.938543
O O8 0.132016 0.833434 0.026147
O O9 0.750000 0.339021 0.457252
O O10 0.891055 0.500000 0.466943
O O11 0.864528 0.296436 0.539248
O O12 0.910475 0.251123 0.425472
O O13 0.750000 0.831783 0.605438
O O14 0.557942 0.855153 0.616027
O O15 0.646752 0.660069 0.658102
O O16 0.469859 0.500000 0.864456
O O17 0.574435 0.727709 0.876509
O O18 0.091830 0.000000 0.615597
O O19 0.250000 0.815598 0.110166
O O20 0.121113 0.000000 0.114709
O O21 0.750000 0.672987 0.748934
O O22 0.886457 0.500000 0.747800
#
# Coordination Sequence:
#
# PCOD9405764 Si02
#       8
#     8   8   8   8   8   8   8   8
#     4  10  22  39  55  72 101 143 189 231 271 325
#     4   9  19  38  63  88 115 150 190 228 269 322
#     4  10  21  36  55  80 108 140 178 218 267 330
#     4   9  18  32  53  82 113 142 173 211 261 329
#     4  12  24  36  56  86 117 149 186 232 282 326
#     4  10  22  38  56  79 105 138 181 227 276 322
#     4   9  19  37  61  88 119 156 192 222 260 319
#     4   9  17  31  52  77 106 139 176 222 273 324
#
# _framework density 19.940463999999999
#
# number of rings (size 3 to 8) (size 9 to 14) (size 15 to 20)
#    0.000    2.250    0.000    3.375    0.000    9.750 
#    0.000    5.625    0.000    0.750    0.000    0.000 
#    0.000    0.000    0.000    0.000    0.000    0.000 
#
# Total GULP energy -357046.322741 kJ/mol
# GULP energy per Si atom -5578.848793 kJ/mol
# Density = 1.989508 g / cm^3
# Si number density = 19.940464 Si / 1000 Ang^3
#
#
#
# Elastic Constant Matrix: (Units=GPa)
#
#
# Indices 1 2 3 4 5 6 
#
# 1 30.3852 22.3408 23.1144 0.0000 0.0000 0.0000
# 2 22.3408 112.2366 42.6439 0.0000 0.0000 0.0000
# 3 23.1144 42.6439 86.8119 0.0000 0.0000 0.0000
# 4 0.0000 0.0000 0.0000 43.1586 0.0000 0.0000
# 5 0.0000 0.0000 0.0000 0.0000 11.6778 0.0000
# 6 0.0000 0.0000 0.0000 0.0000 0.0000 14.2424
#
#
#
# Elastic Compliance Matrix: (Units=1/GPa)
#
#
# Indices 1 2 3 4 5 6 
#
# 1 0.043652 -0.005253 -0.009042 0.000000 0.000000 0.000000
# 2 -0.005253 0.011586 -0.004293 0.000000 0.000000 0.000000
# 3 -0.009042 -0.004293 0.016035 0.000000 0.000000 0.000000
# 4 0.000000 0.000000 0.000000 0.023170 0.000000 0.000000
# 5 0.000000 0.000000 0.000000 0.000000 0.085632 0.000000
# 6 0.000000 0.000000 0.000000 0.000000 0.000000 0.070213
#
#
# Mechanical properties :
#
#
# Convention : Reuss Voigt Hill
#
# Bulk Modulus (GPa) = 29.32801 45.07023 37.19912
# Shear Modulus (GPa) = 16.73186 23.23808 19.98497
#
# Velocity S-wave (km/s) = 2.89985 3.41746 3.16924
# Velocity P-wave (km/s) = 5.09430 6.18252 5.66460
#
# Compressibility (1/GPa) = 0.03409709
#
# Stress axis : x y z
#
# Youngs Moduli (GPa) = 22.90859 86.30757 62.36210
#
# Poissons Ratio (x) = 0.45341 0.56388
# Poissons Ratio (y) = 0.12035 0.26770
# Poissons Ratio (z) = 0.20714 0.37050
#
# Static dielectric constant tensor:
#      x y z
#    x 1.714470 0.000000 0.000000 
#    y 0.000000 1.682380 0.000000 
#    z 0.000000 0.000000 1.737700 
# 
# From -- ./inp_files/35652.got.cif
#   From: 2010.05.17/outbox.cif.g08.bks.cpg/sg51_18_cif.got.tgz:35652.got - 2010.06.03 11:52:47.
