data_PCOD9405160
_publ_section_title
;
Structure prediction by ZEFSAII (Michael W. Deem and Ramdas Pophale) SiO2 
 PCOD9405160
Probable space group: P M M A
;
_chemical_formula_sum "Si O2"
_cell_formula_units_Z 56
_cell_length_a 22.676595
_cell_length_b 8.019541
_cell_length_c 15.157949
_cell_angle_alpha 90.000000
_cell_angle_beta 90.000000
_cell_angle_gamma 90.000000
_cell_volume 2756.562205
_symmetry_space_group_name_H-M "P M M A"
_symmetry_group_IT_number 51
_symmetry_cell_setting 'orthorhombic'
loop_
_space_group_symop_operation_xyz
x,y,z
1/2-x,-y,z
1/2+x,-y,-z
-x,y,-z
-x,-y,-z
1/2+x,y,-z
1/2-x,y,z
x,-y,z
loop_
_atom_site_type_symbol
_atom_site_label
_atom_site_fract_x
_atom_site_fract_y
_atom_site_fract_z
Si Si1 0.683016 0.296366 0.233570
Si Si2 0.421344 0.697741 0.641569
Si Si3 0.136685 0.197666 0.147761
Si Si4 0.750000 0.191307 0.551801
Si Si5 0.378786 0.801928 0.459035
Si Si6 0.182340 0.298856 0.967306
Si Si7 0.250000 0.689180 0.255061
Si Si8 0.952715 0.798224 0.708910
O O1 0.750000 0.243835 0.254491
O O2 0.682705 0.500000 0.234359
O O3 0.634070 0.237360 0.301784
O O4 0.668856 0.245949 0.132772
O O5 0.414978 0.500000 0.631595
O O6 0.418818 0.773451 0.544112
O O7 0.482083 0.734143 0.691031
O O8 0.140472 0.235773 0.044463
O O9 0.192607 0.280467 0.195716
O O10 0.077889 0.251260 0.199349
O O11 0.143072 0.000000 0.160635
O O12 0.812883 0.268889 0.525070
O O13 0.750000 0.195720 0.658623
O O14 0.750000 0.000000 0.519425
O O15 0.410099 0.738087 0.370644
O O16 0.371303 0.000000 0.445520
O O17 0.250000 0.245408 0.986556
O O18 0.181727 0.500000 0.969142
O O19 0.250000 0.500000 0.287783
O O20 0.955140 0.000000 0.705336
#
# Coordination Sequence:
#
# PCOD9405160 Si02
#       8
#     8   8   8   4   8   8   4   8
#     4   8  17  36  58  80 112 147 180 225 284 337
#     4  11  23  37  58  84 110 145 190 237 279 327
#     4  11  21  35  56  82 114 151 186 225 275 333
#     4  10  20  38  58  81 112 149 188 227 272 332
#     4  10  21  38  59  80 110 151 189 226 279 334
#     4   9  17  32  56  84 110 142 183 228 278 332
#     4  12  22  32  52  83 118 149 180 229 280 326
#     4  10  22  40  58  76 109 156 191 224 276 334
#
# _framework density 20.315159999999999
#
# number of rings (size 3 to 8) (size 9 to 14) (size 15 to 20)
#    0.000    2.000    2.143    2.786    1.000    4.000 
#    0.000    2.143    0.000    6.000    0.000    0.000 
#    0.000    0.000    0.000    0.000    0.000    0.000 
#
# Total GULP energy -312705.661544 kJ/mol
# GULP energy per Si atom -5584.029670 kJ/mol
# Density = 2.026892 g / cm^3
# Si number density = 20.315160 Si / 1000 Ang^3
#
#
#
# Elastic Constant Matrix: (Units=GPa)
#
#
# Indices 1 2 3 4 5 6 
#
# 1 86.8075 5.4154 21.7075 0.0000 0.0000 0.0000
# 2 5.4154 19.8149 2.3298 0.0000 0.0000 0.0000
# 3 21.7075 2.3298 67.6525 0.0000 0.0000 0.0000
# 4 0.0000 0.0000 0.0000 19.5994 0.0000 0.0000
# 5 0.0000 0.0000 0.0000 0.0000 17.8356 0.0000
# 6 0.0000 0.0000 0.0000 0.0000 0.0000 18.2891
#
#
#
# Elastic Compliance Matrix: (Units=1/GPa)
#
#
# Indices 1 2 3 4 5 6 
#
# 1 0.012700 -0.003004 -0.003972 0.000000 0.000000 0.000000
# 2 -0.003004 0.051383 -0.000806 0.000000 0.000000 0.000000
# 3 -0.003972 -0.000806 0.016084 0.000000 0.000000 0.000000
# 4 0.000000 0.000000 0.000000 0.051022 0.000000 0.000000
# 5 0.000000 0.000000 0.000000 0.000000 0.056068 0.000000
# 6 0.000000 0.000000 0.000000 0.000000 0.000000 0.054677
#
#
# Mechanical properties :
#
#
# Convention : Reuss Voigt Hill
#
# Bulk Modulus (GPa) = 15.47890 25.90894 20.69392
# Shear Modulus (GPa) = 17.91917 20.79964 19.35940
#
# Velocity S-wave (km/s) = 2.97317 3.20323 3.09034
# Velocity P-wave (km/s) = 4.40707 5.14414 4.78980
#
# Compressibility (1/GPa) = 0.06460407
#
# Stress axis : x y z
#
# Youngs Moduli (GPa) = 78.73818 19.46176 62.17535
#
# Poissons Ratio (x) = 0.05846 0.24694
# Poissons Ratio (y) = 0.23653 0.05009
# Poissons Ratio (z) = 0.31272 0.01568
#
# Static dielectric constant tensor:
#      x y z
#    x 1.719570 0.000000 0.000000 
#    y 0.000000 1.744360 0.000000 
#    z 0.000000 0.000000 1.703330 
# 
# From -- ./inp_files/25928.got.cif
#   From: 2010.05.17/outbox.cif.g08.bks.cpg/sg51_13_cif.got.tgz:25928.got - 2010.06.03 11:52:47.
