data_PCOD9405397
_publ_section_title
;
Structure prediction by ZEFSAII (Michael W. Deem and Ramdas Pophale) SiO2 
 PCOD9405397
Probable space group: P M M A
;
_chemical_formula_sum "Si O2"
_cell_formula_units_Z 44
_cell_length_a 7.441659
_cell_length_b 30.703048
_cell_length_c 8.968441
_cell_angle_alpha 90.000000
_cell_angle_beta 90.000000
_cell_angle_gamma 90.000000
_cell_volume 2049.123870
_symmetry_space_group_name_H-M "P M M A"
_symmetry_group_IT_number 51
_symmetry_cell_setting 'orthorhombic'
loop_
_space_group_symop_operation_xyz
x,y,z
1/2-x,-y,z
1/2+x,-y,-z
-x,y,-z
-x,-y,-z
1/2+x,y,-z
1/2-x,y,z
x,-y,z
loop_
_atom_site_type_symbol
_atom_site_label
_atom_site_fract_x
_atom_site_fract_y
_atom_site_fract_z
Si Si1 0.465341 0.953153 0.678617
Si Si2 0.534919 0.859519 0.321700
Si Si3 0.465046 0.323132 0.825184
Si Si4 0.534973 0.500000 0.175140
Si Si5 0.965360 0.765099 0.323194
Si Si6 0.965005 0.588475 0.324929
O O1 0.500000 0.953112 0.500000
O O2 0.250000 0.953197 0.698825
O O3 0.534378 0.906315 0.735948
O O4 0.534265 0.000000 0.735875
O O5 0.500000 0.859387 0.500000
O O6 0.750000 0.859781 0.300337
O O7 0.465747 0.812455 0.268638
O O8 0.250000 0.322492 0.801252
O O9 0.536111 0.277808 0.758152
O O10 0.535536 0.366671 0.745610
O O11 0.500000 0.325569 0.000000
O O12 0.750000 0.500000 0.198581
O O13 0.464369 0.455562 0.248672
O O14 0.500000 0.500000 0.000000
O O15 0.750000 0.766113 0.303309
O O16 0.000000 0.761369 0.500000
O O17 0.750000 0.588703 0.301391
O O18 0.000000 0.587448 0.500000
#
# Coordination Sequence:
#
# PCOD9405397 Si02
#       6
#     8   8   8   4   8   8
#     4   8  12  17  26  42  66  97 130 162 200 248
#     4   8  13  21  33  50  74 103 134 170 210 253
#     4  10  21  35  50  70  95 122 154 191 231 275
#     4  10  21  36  54  78 106 134 165 198 232 272
#     4   9  17  29  45  65  88 115 148 184 223 269
#     4  10  21  36  54  77 102 128 161 197 232 274
#
# _framework density 21.472591999999999
#
# number of rings (size 3 to 8) (size 9 to 14) (size 15 to 20)
#    0.000    2.909    0.000    1.364    0.000    2.182 
#    0.000    0.000    0.000    0.000    0.000    0.000 
#    0.000    0.727    0.000    0.545    0.000   10.909 
#
# Total GULP energy -245273.301182 kJ/mol
# GULP energy per Si atom -5574.393209 kJ/mol
# Density = 2.142372 g / cm^3
# Si number density = 21.472592 Si / 1000 Ang^3
#
#
#
# Elastic Constant Matrix: (Units=GPa)
#
#
# Indices 1 2 3 4 5 6 
#
# 1 73.0662 16.4662 -12.0269 0.0000 0.0000 0.0000
# 2 16.4662 320.0059 95.6616 0.0000 0.0000 0.0000
# 3 -12.0269 95.6616 79.5327 0.0000 0.0000 0.0000
# 4 0.0000 0.0000 0.0000 -11.4125 0.0000 0.0000
# 5 0.0000 0.0000 0.0000 0.0000 17.1744 0.0000
# 6 0.0000 0.0000 0.0000 0.0000 0.0000 -9.1748
#
#
#
# Elastic Compliance Matrix: (Units=1/GPa)
#
#
# Indices 1 2 3 4 5 6 
#
# 1 0.015020 -0.002267 0.004998 0.000000 0.000000 0.000000
# 2 -0.002267 0.005222 -0.006623 0.000000 0.000000 0.000000
# 3 0.004998 -0.006623 0.021296 0.000000 0.000000 0.000000
# 4 0.000000 0.000000 0.000000 -0.087623 0.000000 0.000000
# 5 0.000000 0.000000 0.000000 0.000000 0.058226 0.000000
# 6 0.000000 0.000000 0.000000 0.000000 0.000000 -0.108994
#
#
# Mechanical properties :
#
#
# Convention : Reuss Voigt Hill
#
# Bulk Modulus (GPa) = 29.62743 74.75628 52.19185
# Shear Modulus (GPa) = -64.25172 24.15101 -20.05035
#
# Velocity S-wave (km/s) = -5.47610 3.35735 -3.05907
# Velocity P-wave (km/s) = 5.11427 7.06536 3.44700
#
# Compressibility (1/GPa) = 0.03375251
#
# Stress axis : x y z
#
# Youngs Moduli (GPa) = 66.57888 191.51523 46.95799
#
# Poissons Ratio (x) = 0.43415 -0.23469
# Poissons Ratio (y) = 0.15093 0.31101
# Poissons Ratio (z) = -0.33276 1.26845
#
# Static dielectric constant tensor:
#      x y z
#    x 1.774910 0.000000 0.000000 
#    y 0.000000 1.869860 0.000000 
#    z 0.000000 0.000000 1.684220 
# 
# From -- ./inp_files/5770.got.cif
#   From: 2010.05.17/outbox.cif.g08.bks.cpg/sg51_3_cif.got.tgz:5770.got - 2010.06.03 11:52:47.
