data_PCOD9405245
_publ_section_title
;
Structure prediction by ZEFSAII (Michael W. Deem and Ramdas Pophale) SiO2 
 PCOD9405245
Probable space group: P M M A
;
_chemical_formula_sum "Si O2"
_cell_formula_units_Z 64
_cell_length_a 17.853013
_cell_length_b 14.443105
_cell_length_c 12.125578
_cell_angle_alpha 90.000000
_cell_angle_beta 90.000000
_cell_angle_gamma 90.000000
_cell_volume 3126.615953
_symmetry_space_group_name_H-M "P M M A"
_symmetry_group_IT_number 51
_symmetry_cell_setting 'orthorhombic'
loop_
_space_group_symop_operation_xyz
x,y,z
1/2-x,-y,z
1/2+x,-y,-z
-x,y,-z
-x,-y,-z
1/2+x,y,-z
1/2-x,y,z
x,-y,z
loop_
_atom_site_type_symbol
_atom_site_label
_atom_site_fract_x
_atom_site_fract_y
_atom_site_fract_z
Si Si1 0.394660 0.892787 0.191893
Si Si2 0.578795 0.110024 0.440435
Si Si3 0.088439 0.606753 0.975630
Si Si4 0.835265 0.786949 0.003724
Si Si5 0.163822 0.611101 0.738776
Si Si6 0.411059 0.609821 0.507452
Si Si7 0.662231 0.227555 0.608179
Si Si8 0.567697 0.892026 0.180127
O O1 0.378622 0.826097 0.293580
O O2 0.480157 0.881497 0.152085
O O3 0.384906 0.000000 0.224537
O O4 0.342247 0.862208 0.092502
O O5 0.500000 0.134614 0.500000
O O6 0.643166 0.167231 0.499872
O O7 0.574989 0.127585 0.310237
O O8 0.589338 0.000000 0.456435
O O9 0.110413 0.500000 0.001241
O O10 0.130080 0.689777 0.037988
O O11 0.114224 0.625180 0.848721
O O12 0.000000 0.614122 0.000000
O O13 0.750000 0.771920 0.035045
O O14 0.882390 0.826859 0.105336
O O15 0.250000 0.646670 0.745821
O O16 0.169955 0.500000 0.730556
O O17 0.121697 0.639818 0.626851
O O18 0.500000 0.625376 0.500000
O O19 0.397615 0.500000 0.493767
O O20 0.370621 0.671327 0.415810
O O21 0.750000 0.231164 0.629713
O O22 0.588005 0.000000 0.161872
#
# Coordination Sequence:
#
# PCOD9405245 Si02
#       8
#     8   8   8   8   8   8   8   8
#     4  11  24  45  68  91 127 178 227 267 321 400
#     4  10  20  39  64  94 129 165 207 266 330 388
#     4  10  22  41  65  93 125 165 217 273 324 388
#     4  12  26  41  63  96 133 172 216 272 337 392
#     4   9  18  36  62  90 124 164 205 262 335 397
#     4  10  23  41  63  94 131 174 224 275 327 391
#     4  12  25  39  63  95 128 171 217 265 327 394
#     4  10  22  41  68  94 123 166 216 269 323 381
#
# _framework density 20.469414
#
# number of rings (size 3 to 8) (size 9 to 14) (size 15 to 20)
#    0.000    1.500    1.250    3.375    1.750    6.500 
#    0.000    3.125    0.000    1.500    0.000    0.000 
#    0.000    0.000    0.000    0.000    0.000    0.000 
#
# Total GULP energy -357670.691751 kJ/mol
# GULP energy per Si atom -5588.604559 kJ/mol
# Density = 2.042283 g / cm^3
# Si number density = 20.469414 Si / 1000 Ang^3
#
#
#
# Elastic Constant Matrix: (Units=GPa)
#
#
# Indices 1 2 3 4 5 6 
#
# 1 110.8982 48.2171 30.8161 0.0000 0.0000 0.0000
# 2 48.2171 83.9002 25.4351 0.0000 0.0000 0.0000
# 3 30.8161 25.4351 56.1042 0.0000 0.0000 0.0000
# 4 0.0000 0.0000 0.0000 24.0413 0.0000 0.0000
# 5 0.0000 0.0000 0.0000 0.0000 21.1047 0.0000
# 6 0.0000 0.0000 0.0000 0.0000 0.0000 -1.7918
#
#
#
# Elastic Compliance Matrix: (Units=1/GPa)
#
#
# Indices 1 2 3 4 5 6 
#
# 1 0.012859 -0.006085 -0.004304 0.000000 0.000000 0.000000
# 2 -0.006085 0.016698 -0.004228 0.000000 0.000000 0.000000
# 3 -0.004304 -0.004228 0.022105 0.000000 0.000000 0.000000
# 4 0.000000 0.000000 0.000000 0.041595 0.000000 0.000000
# 5 0.000000 0.000000 0.000000 0.000000 0.047383 0.000000
# 6 0.000000 0.000000 0.000000 0.000000 0.000000 -0.558093
#
#
# Mechanical properties :
#
#
# Convention : Reuss Voigt Hill
#
# Bulk Modulus (GPa) = 44.58831 51.09324 47.84077
# Shear Modulus (GPa) = -13.13220 18.43312 2.65046
#
# Velocity S-wave (km/s) = -2.53564 3.00412 1.13914
# Velocity P-wave (km/s) = 3.64110 6.08670 5.01525
#
# Compressibility (1/GPa) = 0.02242740
#
# Stress axis : x y z
#
# Youngs Moduli (GPa) = 77.76581 59.88854 45.23903
#
# Poissons Ratio (x) = 0.36443 0.19472
# Poissons Ratio (y) = 0.47322 0.19125
# Poissons Ratio (z) = 0.33473 0.25318
#
# Static dielectric constant tensor:
#      x y z
#    x 1.610380 0.000000 0.000000 
#    y 0.000000 1.743260 0.000000 
#    z 0.000000 0.000000 1.735340 
# 
# From -- ./inp_files/17513.got.cif
#   From: 2010.05.17/outbox.cif.g08.bks.cpg/sg51_9_cif.got.tgz:17513.got - 2010.06.03 11:52:47.
