data_PCOD9405292
_publ_section_title
;
Structure prediction by ZEFSAII (Michael W. Deem and Ramdas Pophale) SiO2 
 PCOD9405292
Probable space group: P M M A
;
_chemical_formula_sum "Si O2"
_cell_formula_units_Z 56
_cell_length_a 14.311262
_cell_length_b 21.301008
_cell_length_c 7.832625
_cell_angle_alpha 90.000000
_cell_angle_beta 90.000000
_cell_angle_gamma 90.000000
_cell_volume 2387.731135
_symmetry_space_group_name_H-M "P M M A"
_symmetry_group_IT_number 51
_symmetry_cell_setting 'orthorhombic'
loop_
_space_group_symop_operation_xyz
x,y,z
1/2-x,-y,z
1/2+x,-y,-z
-x,y,-z
-x,-y,-z
1/2+x,y,-z
1/2-x,y,z
x,-y,z
loop_
_atom_site_type_symbol
_atom_site_label
_atom_site_fract_x
_atom_site_fract_y
_atom_site_fract_z
Si Si1 0.635274 0.663136 0.401121
Si Si2 0.635046 0.336980 0.795820
Si Si3 0.105165 0.066301 0.061775
Si Si4 0.645296 0.931933 0.323277
Si Si5 0.635726 0.428114 0.098001
Si Si6 0.854473 0.798551 0.804704
Si Si7 0.856542 0.798843 0.397435
O O1 0.750000 0.666344 0.401197
O O2 0.607186 0.652023 0.598193
O O3 0.607342 0.610580 0.266301
O O4 0.601898 0.732481 0.340986
O O5 0.750000 0.334597 0.794694
O O6 0.602325 0.267928 0.859289
O O7 0.607160 0.390664 0.927827
O O8 0.156112 0.068827 0.880499
O O9 0.130928 0.000000 0.151181
O O10 0.111230 0.131860 0.156895
O O11 0.000000 0.061605 0.000000
O O12 0.750000 0.930248 0.402326
O O13 0.596356 0.865816 0.362766
O O14 0.602487 0.000000 0.368382
O O15 0.750000 0.428530 0.098114
O O16 0.604442 0.500000 0.100418
O O17 0.750000 0.798735 0.878122
O O18 0.850515 0.792609 0.600703
O O19 0.750000 0.802873 0.327693
#
# Coordination Sequence:
#
# PCOD9405292 Si02
#       7
#     8   8   8   8   8   8   8
#     4   8  14  24  36  54  84 117 148 187 231 271
#     4   8  15  26  39  60  87 115 153 196 231 270
#     4  10  21  34  45  63  94 126 154 189 235 284
#     4   9  17  29  46  68  90 115 151 191 230 274
#     4   9  16  23  34  56  86 124 159 180 219 282
#     4   9  17  30  49  69  87 117 159 197 237 279
#     4   8  15  27  44  67  89 111 148 197 239 273
#
# _framework density 23.453227999999999
#
# number of rings (size 3 to 8) (size 9 to 14) (size 15 to 20)
#    0.000    3.286    0.000    2.143    2.000    2.000 
#    0.000    5.000    0.000    2.571    0.000    0.000 
#    0.000    0.571    0.000    3.714    0.000    4.286 
#
# Total GULP energy -312208.168963 kJ/mol
# GULP energy per Si atom -5575.145874 kJ/mol
# Density = 2.339985 g / cm^3
# Si number density = 23.453228 Si / 1000 Ang^3
#
#
#
# Elastic Constant Matrix: (Units=GPa)
#
#
# Indices 1 2 3 4 5 6 
#
# 1 49.8019 14.6364 9.7517 0.0000 0.0000 0.0000
# 2 14.6364 300.2918 99.4896 0.0000 0.0000 0.0000
# 3 9.7517 99.4896 85.5797 0.0000 0.0000 0.0000
# 4 0.0000 0.0000 0.0000 88.2255 0.0000 0.0000
# 5 0.0000 0.0000 0.0000 0.0000 14.0563 0.0000
# 6 0.0000 0.0000 0.0000 0.0000 0.0000 18.0131
#
#
#
# Elastic Compliance Matrix: (Units=1/GPa)
#
#
# Indices 1 2 3 4 5 6 
#
# 1 0.020563 -0.000367 -0.001916 0.000000 0.000000 0.000000
# 2 -0.000367 0.005423 -0.006262 0.000000 0.000000 0.000000
# 3 -0.001916 -0.006262 0.019183 0.000000 0.000000 0.000000
# 4 0.000000 0.000000 0.000000 0.011335 0.000000 0.000000
# 5 0.000000 0.000000 0.000000 0.000000 0.071143 0.000000
# 6 0.000000 0.000000 0.000000 0.000000 0.000000 0.055515
#
#
# Mechanical properties :
#
#
# Convention : Reuss Voigt Hill
#
# Bulk Modulus (GPa) = 35.61553 75.93652 55.77602
# Shear Modulus (GPa) = 23.85362 44.84536 34.34949
#
# Velocity S-wave (km/s) = 3.19262 4.37752 3.83116
# Velocity P-wave (km/s) = 5.36741 7.61567 6.58815
#
# Compressibility (1/GPa) = 0.02807764
#
# Stress axis : x y z
#
# Youngs Moduli (GPa) = 48.63169 184.40783 52.12819
#
# Poissons Ratio (x) = 0.06777 0.09987
# Poissons Ratio (y) = 0.01787 0.32644
# Poissons Ratio (z) = 0.09317 1.15482
#
# Static dielectric constant tensor:
#      x y z
#    x 1.909110 0.000000 0.000000 
#    y 0.000000 1.947860 0.000000 
#    z 0.000000 0.000000 1.841760 
# 
# From -- ./inp_files/8503.got.cif
#   From: 2010.05.17/outbox.cif.g08.bks.cpg/sg51_5_cif.got.tgz:8503.got - 2010.06.03 11:52:47.
