data_PCOD9405029
_publ_section_title
;
Structure prediction by ZEFSAII (Michael W. Deem and Ramdas Pophale) SiO2 
 PCOD9405029
Probable space group: P M M A
;
_chemical_formula_sum "Si O2"
_cell_formula_units_Z 64
_cell_length_a 19.512864
_cell_length_b 13.710990
_cell_length_c 12.841946
_cell_angle_alpha 90.000000
_cell_angle_beta 90.000000
_cell_angle_gamma 90.000000
_cell_volume 3435.743006
_symmetry_space_group_name_H-M "P M M A"
_symmetry_group_IT_number 51
_symmetry_cell_setting 'orthorhombic'
loop_
_space_group_symop_operation_xyz
x,y,z
1/2-x,-y,z
1/2+x,-y,-z
-x,y,-z
-x,-y,-z
1/2+x,y,-z
1/2-x,y,z
x,-y,z
loop_
_atom_site_type_symbol
_atom_site_label
_atom_site_fract_x
_atom_site_fract_y
_atom_site_fract_z
Si Si1 0.923912 0.774741 0.544536
Si Si2 0.077024 0.391015 0.955453
Si Si3 0.042057 0.799804 0.893815
Si Si4 0.421064 0.116418 0.235260
Si Si5 0.331110 0.284998 0.132629
Si Si6 0.177290 0.884116 0.856877
Si Si7 0.829070 0.615369 0.644212
Si Si8 0.829176 0.115547 0.383614
O O1 0.921876 0.845695 0.645795
O O2 0.884308 0.677289 0.580290
O O3 0.879949 0.825823 0.455002
O O4 0.000000 0.758777 0.500000
O O5 0.101457 0.500000 0.928364
O O6 0.065002 0.310360 0.865390
O O7 0.126770 0.338945 0.040263
O O8 0.000000 0.402182 0.000000
O O9 0.111569 0.854837 0.919227
O O10 0.995496 0.855313 0.811381
O O11 0.000000 0.795531 0.000000
O O12 0.366950 0.183603 0.170415
O O13 0.408999 0.000000 0.227987
O O14 0.250000 0.273119 0.110109
O O15 0.336612 0.353921 0.234829
O O16 0.250000 0.844346 0.894482
O O17 0.166425 0.853733 0.737110
O O18 0.181371 0.000000 0.855674
O O19 0.750000 0.640354 0.614527
O O20 0.838190 0.500000 0.632605
O O21 0.750000 0.128475 0.416450
O O22 0.844304 0.000000 0.388460
#
# Coordination Sequence:
#
# PCOD9405029 Si02
#       8
#     8   8   8   8   8   8   8   8
#     4  11  22  34  54  86 117 147 186 235 289 334
#     4  10  20  37  59  81 106 140 185 234 281 329
#     4  11  21  38  55  79 108 151 186 225 277 334
#     4  11  23  38  55  81 119 157 189 227 278 338
#     4  10  20  38  59  84 112 144 189 236 285 338
#     4   9  19  35  56  80 106 142 191 238 275 327
#     4   9  19  36  58  81 109 147 186 229 285 346
#     4   9  18  35  58  80 104 143 190 231 275 328
#
# _framework density 18.627703
#
# number of rings (size 3 to 8) (size 9 to 14) (size 15 to 20)
#    0.000    2.000    2.500    3.000    0.000    5.250 
#    0.000    0.000    0.000    2.250    0.000    1.750 
#    0.000    0.000    0.000    0.000    0.000    0.000 
#
# Total GULP energy -356768.155061 kJ/mol
# GULP energy per Si atom -5574.502423 kJ/mol
# Density = 1.858531 g / cm^3
# Si number density = 18.627703 Si / 1000 Ang^3
#
#
#
# Elastic Constant Matrix: (Units=GPa)
#
#
# Indices 1 2 3 4 5 6 
#
# 1 137.9892 58.4610 45.2562 0.0000 0.0000 0.0000
# 2 58.4610 121.8709 35.5504 0.0000 0.0000 0.0000
# 3 45.2562 35.5504 44.8165 0.0000 0.0000 0.0000
# 4 0.0000 0.0000 0.0000 13.2595 0.0000 0.0000
# 5 0.0000 0.0000 0.0000 0.0000 10.8115 0.0000
# 6 0.0000 0.0000 0.0000 0.0000 0.0000 22.1451
#
#
#
# Elastic Compliance Matrix: (Units=1/GPa)
#
#
# Indices 1 2 3 4 5 6 
#
# 1 0.011513 -0.002773 -0.009427 0.000000 0.000000 0.000000
# 2 -0.002773 0.011344 -0.006198 0.000000 0.000000 0.000000
# 3 -0.009427 -0.006198 0.036749 0.000000 0.000000 0.000000
# 4 0.000000 0.000000 0.000000 0.075418 0.000000 0.000000
# 5 0.000000 0.000000 0.000000 0.000000 0.092494 0.000000
# 6 0.000000 0.000000 0.000000 0.000000 0.000000 0.045157
#
#
# Mechanical properties :
#
#
# Convention : Reuss Voigt Hill
#
# Bulk Modulus (GPa) = 43.83943 64.80129 54.32036
# Shear Modulus (GPa) = 15.76923 20.27048 18.01986
#
# Velocity S-wave (km/s) = 2.91270 3.30235 3.11363
# Velocity P-wave (km/s) = 5.90740 7.02878 6.49235
#
# Compressibility (1/GPa) = 0.02281051
#
# Stress axis : x y z
#
# Youngs Moduli (GPa) = 86.85462 88.15514 27.21175
#
# Poissons Ratio (x) = 0.24447 0.25652
# Poissons Ratio (y) = 0.24086 0.16866
# Poissons Ratio (z) = 0.81875 0.54638
#
# Static dielectric constant tensor:
#      x y z
#    x 1.663710 0.000000 0.000000 
#    y 0.000000 1.666950 0.000000 
#    z 0.000000 0.000000 1.647930 
# 
# From -- ./inp_files/25247.got.cif
#   From: 2010.05.17/outbox.cif.g08.bks.cpg/sg51_13_cif.got.tgz:25247.got - 2010.06.03 11:52:47.
