data_PCOD9405119
_publ_section_title
;
Structure prediction by ZEFSAII (Michael W. Deem and Ramdas Pophale) SiO2 
 PCOD9405119
Probable space group: P M M A
;
_chemical_formula_sum "Si O2"
_cell_formula_units_Z 48
_cell_length_a 15.549687
_cell_length_b 8.548616
_cell_length_c 19.530046
_cell_angle_alpha 90.000000
_cell_angle_beta 90.000000
_cell_angle_gamma 90.000000
_cell_volume 2596.095874
_symmetry_space_group_name_H-M "P M M A"
_symmetry_group_IT_number 51
_symmetry_cell_setting 'orthorhombic'
loop_
_space_group_symop_operation_xyz
x,y,z
1/2-x,-y,z
1/2+x,-y,-z
-x,y,-z
-x,-y,-z
1/2+x,y,-z
1/2-x,y,z
x,-y,z
loop_
_atom_site_type_symbol
_atom_site_label
_atom_site_fract_x
_atom_site_fract_y
_atom_site_fract_z
Si Si1 0.848969 0.812429 0.176055
Si Si2 0.250000 0.187688 0.581512
Si Si3 0.250000 0.812876 0.423984
Si Si4 0.503413 0.310534 0.078948
Si Si5 0.597195 0.312190 0.325116
Si Si6 0.099266 0.688978 0.329059
Si Si7 0.652793 0.309375 0.824684
O O1 0.750000 0.765301 0.163824
O O2 0.878698 0.746327 0.249349
O O3 0.913004 0.750767 0.118188
O O4 0.852734 0.000000 0.178733
O O5 0.250000 0.241044 0.502738
O O6 0.333712 0.247626 0.621609
O O7 0.250000 0.000000 0.583286
O O8 0.166352 0.753750 0.383542
O O9 0.250000 0.000000 0.423657
O O10 0.505356 0.500000 0.080689
O O11 0.419072 0.258401 0.121253
O O12 0.500000 0.260956 0.000000
O O13 0.600626 0.500000 0.325088
O O14 0.499336 0.263788 0.341465
O O15 0.103492 0.500000 0.330760
O O16 0.126635 0.738156 0.252254
O O17 0.750000 0.257693 0.840012
O O18 0.652777 0.500000 0.825239
#
# Coordination Sequence:
#
# PCOD9405119 Si02
#       7
#     8   4   4   8   8   8   8
#     4  11  23  38  59  87 121 161 201 246 303 363
#     4  11  25  43  59  85 126 161 190 239 305 362
#     4  11  25  41  59  87 124 159 194 239 297 366
#     4  10  21  37  59  89 122 155 199 251 299 351
#     4  11  22  38  64  92 116 152 204 253 296 353
#     4  10  20  37  62  88 115 151 198 250 297 348
#     4   9  16  31  56  83 112 148 190 239 294 345
#
# _framework density 18.489301000000001
#
# number of rings (size 3 to 8) (size 9 to 14) (size 15 to 20)
#    0.000    1.667    3.333    1.500    0.000    5.333 
#    0.000    5.000    0.000    0.000    0.000    0.000 
#    0.000    0.000    0.000    0.000    0.000    0.000 
#
# Total GULP energy -268157.059029 kJ/mol
# GULP energy per Si atom -5586.605396 kJ/mol
# Density = 1.844722 g / cm^3
# Si number density = 18.489301 Si / 1000 Ang^3
#
#
#
# Elastic Constant Matrix: (Units=GPa)
#
#
# Indices 1 2 3 4 5 6 
#
# 1 222.4191 39.5232 121.8702 0.0000 0.0000 0.0000
# 2 39.5232 22.4074 35.4077 0.0000 0.0000 0.0000
# 3 121.8702 35.4077 192.8526 0.0000 0.0000 0.0000
# 4 0.0000 0.0000 0.0000 115.9156 0.0000 0.0000
# 5 0.0000 0.0000 0.0000 0.0000 34.2306 0.0000
# 6 0.0000 0.0000 0.0000 0.0000 0.0000 5.0757
#
#
#
# Elastic Compliance Matrix: (Units=1/GPa)
#
#
# Indices 1 2 3 4 5 6 
#
# 1 0.007879 -0.008494 -0.003420 0.000000 0.000000 0.000000
# 2 -0.008494 0.072024 -0.007856 0.000000 0.000000 0.000000
# 3 -0.003420 -0.007856 0.008789 0.000000 0.000000 0.000000
# 4 0.000000 0.000000 0.000000 0.008627 0.000000 0.000000
# 5 0.000000 0.000000 0.000000 0.000000 0.029214 0.000000
# 6 0.000000 0.000000 0.000000 0.000000 0.000000 0.197016
#
#
# Mechanical properties :
#
#
# Convention : Reuss Voigt Hill
#
# Bulk Modulus (GPa) = 20.34477 92.36457 56.35467
# Shear Modulus (GPa) = 13.17624 47.10292 30.13958
#
# Velocity S-wave (km/s) = 2.67243 5.05283 4.04184
# Velocity P-wave (km/s) = 4.53320 9.17091 7.23379
#
# Compressibility (1/GPa) = 0.04915269
#
# Stress axis : x y z
#
# Youngs Moduli (GPa) = 126.91902 13.88428 113.78380
#
# Poissons Ratio (x) = 0.11793 0.38909
# Poissons Ratio (y) = 1.07804 0.89388
# Poissons Ratio (z) = 0.43401 0.10907
#
# Static dielectric constant tensor:
#      x y z
#    x 1.626660 0.000000 0.000000 
#    y 0.000000 1.632210 0.000000 
#    z 0.000000 0.000000 1.603800 
# 
# From -- ./inp_files/29608.got.cif
#   From: 2010.05.17/outbox.cif.g08.bks.cpg/sg51_15_cif.got.tgz:29608.got - 2010.06.03 11:52:47.
