data_PCOD9405088
_publ_section_title
;
Structure prediction by ZEFSAII (Michael W. Deem and Ramdas Pophale) SiO2 
 PCOD9405088
Probable space group: P M M A
;
_chemical_formula_sum "Si O2"
_cell_formula_units_Z 48
_cell_length_a 14.736717
_cell_length_b 9.245254
_cell_length_c 20.047811
_cell_angle_alpha 90.000000
_cell_angle_beta 90.000000
_cell_angle_gamma 90.000000
_cell_volume 2731.407831
_symmetry_space_group_name_H-M "P M M A"
_symmetry_group_IT_number 51
_symmetry_cell_setting 'orthorhombic'
loop_
_space_group_symop_operation_xyz
x,y,z
1/2-x,-y,z
1/2+x,-y,-z
-x,y,-z
-x,-y,-z
1/2+x,y,-z
1/2-x,y,z
x,-y,z
loop_
_atom_site_type_symbol
_atom_site_label
_atom_site_fract_x
_atom_site_fract_y
_atom_site_fract_z
Si Si1 0.493212 0.173154 0.831817
Si Si2 0.142799 0.671291 0.088355
Si Si3 0.750000 0.327901 0.528538
Si Si4 0.070541 0.173106 0.683262
Si Si5 0.356872 0.828965 0.951153
Si Si6 0.564833 0.827282 0.562704
Si Si7 0.250000 0.672124 0.630652
O O1 0.583219 0.254494 0.854926
O O2 0.460526 0.210961 0.757826
O O3 0.416558 0.208092 0.886961
O O4 0.507984 0.000000 0.833781
O O5 0.250000 0.698701 0.097871
O O6 0.127856 0.500000 0.086920
O O7 0.117163 0.740631 0.016979
O O8 0.750000 0.500000 0.539035
O O9 0.840977 0.256946 0.557760
O O10 0.750000 0.299950 0.448842
O O11 0.160698 0.256667 0.662030
O O12 0.991447 0.203444 0.629750
O O13 0.088325 0.000000 0.680979
O O14 0.250000 0.804448 0.937884
O O15 0.369154 0.000000 0.965165
O O16 0.500000 0.789619 0.500000
O O17 0.582211 0.000000 0.559212
O O18 0.250000 0.500000 0.640915
#
# Coordination Sequence:
#
# PCOD9405088 Si02
#       7
#     8   8   4   8   8   8   4
#     4  10  21  36  57  83 110 144 184 229 279 328
#     4  10  21  37  56  78 108 147 187 228 276 329
#     4  11  23  37  59  87 115 150 187 234 287 335
#     4  10  22  39  60  85 115 150 188 232 280 332
#     4   9  18  33  55  83 111 140 179 226 274 327
#     4  10  20  37  61  87 113 147 192 237 279 328
#     4  11  23  37  57  87 119 150 183 224 281 341
#
# _framework density 17.573353999999998
#
# number of rings (size 3 to 8) (size 9 to 14) (size 15 to 20)
#    0.000    2.000    1.667    1.500    1.167    6.000 
#    1.500    0.000    0.000    0.000    0.000    0.000 
#    0.000    0.000    0.000    0.000    0.000    0.000 
#
# Total GULP energy -268092.292556 kJ/mol
# GULP energy per Si atom -5585.256095 kJ/mol
# Density = 1.753336 g / cm^3
# Si number density = 17.573354 Si / 1000 Ang^3
#
#
#
# Elastic Constant Matrix: (Units=GPa)
#
#
# Indices 1 2 3 4 5 6 
#
# 1 142.7144 78.6129 93.2908 0.0000 0.0000 0.0000
# 2 78.6129 54.1511 70.3435 0.0000 0.0000 0.0000
# 3 93.2908 70.3435 138.9116 0.0000 0.0000 0.0000
# 4 0.0000 0.0000 0.0000 13.8017 0.0000 0.0000
# 5 0.0000 0.0000 0.0000 0.0000 13.1199 0.0000
# 6 0.0000 0.0000 0.0000 0.0000 0.0000 22.0603
#
#
#
# Elastic Compliance Matrix: (Units=1/GPa)
#
#
# Indices 1 2 3 4 5 6 
#
# 1 0.037106 -0.062822 0.006892 0.000000 0.000000 0.000000
# 2 -0.062822 0.160325 -0.038997 0.000000 0.000000 0.000000
# 3 0.006892 -0.038997 0.022318 0.000000 0.000000 0.000000
# 4 0.000000 0.000000 0.000000 0.072455 0.000000 0.000000
# 5 0.000000 0.000000 0.000000 0.000000 0.076220 0.000000
# 6 0.000000 0.000000 0.000000 0.000000 0.000000 0.045330
#
#
# Mechanical properties :
#
#
# Convention : Reuss Voigt Hill
#
# Bulk Modulus (GPa) = 33.44889 91.14127 62.29508
# Shear Modulus (GPa) = 8.14899 16.03173 12.09036
#
# Velocity S-wave (km/s) = 2.15574 3.02367 2.62581
# Velocity P-wave (km/s) = 5.02707 8.01037 6.68721
#
# Compressibility (1/GPa) = 0.02989636
#
# Stress axis : x y z
#
# Youngs Moduli (GPa) = 26.94958 6.23732 44.80723
#
# Poissons Ratio (x) = 0.39184 -0.30882
# Poissons Ratio (y) = 1.69302 1.74735
# Poissons Ratio (z) = -0.18574 0.24324
#
# Static dielectric constant tensor:
#      x y z
#    x 1.579790 0.000000 0.000000 
#    y 0.000000 1.582880 0.000000 
#    z 0.000000 0.000000 1.575230 
# 
# From -- ./inp_files/29544.got.cif
#   From: 2010.05.17/outbox.cif.g08.bks.cpg/sg51_15_cif.got.tgz:29544.got - 2010.06.03 11:52:47.
