data_PCOD9405240
_publ_section_title
;
Structure prediction by ZEFSAII (Michael W. Deem and Ramdas Pophale) SiO2 
 PCOD9405240
Probable space group: P M M A
;
_chemical_formula_sum "Si O2"
_cell_formula_units_Z 56
_cell_length_a 21.829571
_cell_length_b 8.925740
_cell_length_c 14.719185
_cell_angle_alpha 90.000000
_cell_angle_beta 90.000000
_cell_angle_gamma 90.000000
_cell_volume 2867.960706
_symmetry_space_group_name_H-M "P M M A"
_symmetry_group_IT_number 51
_symmetry_cell_setting 'orthorhombic'
loop_
_space_group_symop_operation_xyz
x,y,z
1/2-x,-y,z
1/2+x,-y,-z
-x,y,-z
-x,-y,-z
1/2+x,y,-z
1/2-x,y,z
x,-y,z
loop_
_atom_site_type_symbol
_atom_site_label
_atom_site_fract_x
_atom_site_fract_y
_atom_site_fract_z
Si Si1 0.569795 0.175988 0.252607
Si Si2 0.178829 0.833824 0.237677
Si Si3 0.938964 0.320273 0.058120
Si Si4 0.680635 0.179697 0.382348
Si Si5 0.653042 0.328089 0.576407
Si Si6 0.177684 0.182603 0.041161
Si Si7 0.033756 0.166409 0.404496
O O1 0.555452 0.267220 0.162300
O O2 0.629475 0.228870 0.309804
O O3 0.513453 0.182617 0.322763
O O4 0.579404 0.000000 0.229002
O O5 0.250000 0.852078 0.216788
O O6 0.176910 0.745567 0.331116
O O7 0.156338 0.765845 0.142847
O O8 0.151586 0.000000 0.248705
O O9 0.934473 0.500000 0.052494
O O10 0.874912 0.248122 0.023329
O O11 0.000000 0.274856 0.000000
O O12 0.750000 0.212847 0.352149
O O13 0.671201 0.248008 0.482566
O O14 0.673999 0.000000 0.391424
O O15 0.670466 0.500000 0.570924
O O16 0.581162 0.300204 0.589985
O O17 0.250000 0.224097 0.022949
O O18 0.175743 0.000000 0.039587
O O19 0.000000 0.165526 0.500000
O O20 0.063466 0.000000 0.398043
#
# Coordination Sequence:
#
# PCOD9405240 Si02
#       7
#     8   8   8   8   8   8   8
#     4  10  22  41  65  91 116 153 205 255 301 353
#     4   9  19  37  60  86 117 155 200 247 293 346
#     4  11  26  44  62  91 132 167 200 248 313 384
#     4  10  21  40  64  88 118 157 203 252 297 347
#     4  12  24  34  53  87 127 162 196 238 292 357
#     4   9  20  41  68  94 118 153 210 268 313 367
#     4  10  20  39  63  85 114 151 198 245 289 346
#
# _framework density 19.526069
#
# number of rings (size 3 to 8) (size 9 to 14) (size 15 to 20)
#    0.000    1.857    1.429    3.000    2.000    6.286 
#    0.000    2.857    0.000    0.000    0.000    0.000 
#    0.000    0.000    0.000    0.000    0.000    0.000 
#
# Total GULP energy -312164.893240 kJ/mol
# GULP energy per Si atom -5574.373094 kJ/mol
# Density = 1.948163 g / cm^3
# Si number density = 19.526069 Si / 1000 Ang^3
#
#
#
# Elastic Constant Matrix: (Units=GPa)
#
#
# Indices 1 2 3 4 5 6 
#
# 1 72.6230 20.6616 33.0410 0.0000 0.0000 0.0000
# 2 20.6616 38.8818 26.7509 0.0000 0.0000 0.0000
# 3 33.0410 26.7509 122.6264 0.0000 0.0000 0.0000
# 4 0.0000 0.0000 0.0000 -39.3087 0.0000 0.0000
# 5 0.0000 0.0000 0.0000 0.0000 29.2661 0.0000
# 6 0.0000 0.0000 0.0000 0.0000 0.0000 46.6052
#
#
#
# Elastic Compliance Matrix: (Units=1/GPa)
#
#
# Indices 1 2 3 4 5 6 
#
# 1 0.017169 -0.006990 -0.003101 0.000000 0.000000 0.000000
# 2 -0.006990 0.033107 -0.005339 0.000000 0.000000 0.000000
# 3 -0.003101 -0.005339 0.010155 0.000000 0.000000 0.000000
# 4 0.000000 0.000000 0.000000 -0.025440 0.000000 0.000000
# 5 0.000000 0.000000 0.000000 0.000000 0.034169 0.000000
# 6 0.000000 0.000000 0.000000 0.000000 0.000000 0.021457
#
#
# Mechanical properties :
#
#
# Convention : Reuss Voigt Hill
#
# Bulk Modulus (GPa) = 33.81705 43.89314 38.85509
# Shear Modulus (GPa) = 38.07067 17.55772 27.81419
#
# Velocity S-wave (km/s) = 4.42037 3.00191 3.77830
# Velocity P-wave (km/s) = 6.58858 5.87736 6.24311
#
# Compressibility (1/GPa) = 0.02957089
#
# Stress axis : x y z
#
# Youngs Moduli (GPa) = 58.24301 30.20548 98.47229
#
# Poissons Ratio (x) = 0.21114 0.30540
# Poissons Ratio (y) = 0.40712 0.52572
# Poissons Ratio (z) = 0.18063 0.16126
#
# Static dielectric constant tensor:
#      x y z
#    x 1.740250 0.000000 0.000000 
#    y 0.000000 1.700210 0.000000 
#    z 0.000000 0.000000 1.785860 
# 
# From -- ./inp_files/25705.got.cif
#   From: 2010.05.17/outbox.cif.g08.bks.cpg/sg51_13_cif.got.tgz:25705.got - 2010.06.03 11:52:47.
