data_PCOD9405641
_publ_section_title
;
Structure prediction by ZEFSAII (Michael W. Deem and Ramdas Pophale) SiO2 
 PCOD9405641
Probable space group: P M M A
;
_chemical_formula_sum "Si O2"
_cell_formula_units_Z 56
_cell_length_a 14.602861
_cell_length_b 9.008857
_cell_length_c 24.306796
_cell_angle_alpha 90.000000
_cell_angle_beta 90.000000
_cell_angle_gamma 90.000000
_cell_volume 3197.682651
_symmetry_space_group_name_H-M "P M M A"
_symmetry_group_IT_number 51
_symmetry_cell_setting 'orthorhombic'
loop_
_space_group_symop_operation_xyz
x,y,z
1/2-x,-y,z
1/2+x,-y,-z
-x,y,-z
-x,-y,-z
1/2+x,y,-z
1/2-x,y,z
x,-y,z
loop_
_atom_site_type_symbol
_atom_site_label
_atom_site_fract_x
_atom_site_fract_y
_atom_site_fract_z
Si Si1 0.859757 0.327346 0.062606
Si Si2 0.356283 0.821554 0.347803
Si Si3 0.992533 0.322219 0.736785
Si Si4 0.355643 0.321319 0.647495
Si Si5 0.857544 0.823913 0.947875
Si Si6 0.491905 0.178503 0.563168
Si Si7 0.995743 0.822823 0.144016
O O1 0.750000 0.315090 0.067217
O O2 0.885318 0.500000 0.066930
O O3 0.908711 0.234771 0.109976
O O4 0.885156 0.263790 0.002658
O O5 0.250000 0.779918 0.353076
O O6 0.406770 0.742617 0.297136
O O7 0.416716 0.785556 0.401782
O O8 0.360986 0.000000 0.340065
O O9 0.986724 0.500000 0.739584
O O10 0.997577 0.253828 0.797104
O O11 0.082794 0.282455 0.700755
O O12 0.250000 0.274362 0.652161
O O13 0.357738 0.500000 0.642401
O O14 0.407326 0.250762 0.595486
O O15 0.750000 0.796764 0.937635
O O16 0.918153 0.784784 0.895282
O O17 0.869542 0.000000 0.958631
O O18 0.500000 0.226575 0.500000
O O19 0.480973 0.000000 0.563996
O O20 0.992845 0.000000 0.150597
#
# Coordination Sequence:
#
# PCOD9405641 Si02
#       7
#     8   8   8   8   8   8   8
#     4  10  21  36  54  77 105 136 170 211 259 308
#     4   9  18  34  54  74 102 141 178 213 258 309
#     4  10  21  36  53  75 103 134 173 221 265 307
#     4   9  19  36  55  74 101 139 177 213 258 308
#     4   9  19  36  55  75 102 135 169 207 255 312
#     4   9  18  32  52  81 112 138 170 213 256 302
#     4  11  22  35  54  79 105 136 173 212 259 313
#
# _framework density 17.512682999999999
#
# number of rings (size 3 to 8) (size 9 to 14) (size 15 to 20)
#    0.000    2.429    0.000    1.714    0.000    6.857 
#    0.000    4.286    0.000    0.000    0.000    0.000 
#    0.000    0.000    0.000    0.000    0.000    0.000 
#
# Total GULP energy -312520.630637 kJ/mol
# GULP energy per Si atom -5580.725547 kJ/mol
# Density = 1.747282 g / cm^3
# Si number density = 17.512683 Si / 1000 Ang^3
#
#
#
# Elastic Constant Matrix: (Units=GPa)
#
#
# Indices 1 2 3 4 5 6 
#
# 1 122.6507 43.6662 70.8984 0.0000 0.0000 0.0000
# 2 43.6662 36.3189 56.0538 0.0000 0.0000 0.0000
# 3 70.8984 56.0538 168.9240 0.0000 0.0000 0.0000
# 4 0.0000 0.0000 0.0000 23.1093 0.0000 0.0000
# 5 0.0000 0.0000 0.0000 0.0000 15.4042 0.0000
# 6 0.0000 0.0000 0.0000 0.0000 0.0000 26.9283
#
#
#
# Elastic Compliance Matrix: (Units=1/GPa)
#
#
# Indices 1 2 3 4 5 6 
#
# 1 0.014285 -0.016238 -0.000608 0.000000 0.000000 0.000000
# 2 -0.016238 0.074894 -0.018037 0.000000 0.000000 0.000000
# 3 -0.000608 -0.018037 0.012160 0.000000 0.000000 0.000000
# 4 0.000000 0.000000 0.000000 0.043273 0.000000 0.000000
# 5 0.000000 0.000000 0.000000 0.000000 0.064918 0.000000
# 6 0.000000 0.000000 0.000000 0.000000 0.000000 0.037136
#
#
# Mechanical properties :
#
#
# Convention : Reuss Voigt Hill
#
# Bulk Modulus (GPa) = 31.67031 74.34783 53.00907
# Shear Modulus (GPa) = 15.29261 23.57337 19.43299
#
# Velocity S-wave (km/s) = 2.95825 3.67287 3.33476
# Velocity P-wave (km/s) = 5.45819 7.78026 6.72028
#
# Compressibility (1/GPa) = 0.03157532
#
# Stress axis : x y z
#
# Youngs Moduli (GPa) = 70.00177 13.35213 82.23669
#
# Poissons Ratio (x) = 0.21681 0.04996
# Poissons Ratio (y) = 1.13666 1.48331
# Poissons Ratio (z) = 0.04253 0.24083
#
# Static dielectric constant tensor:
#      x y z
#    x 1.594240 0.000000 0.000000 
#    y 0.000000 1.585540 0.000000 
#    z 0.000000 0.000000 1.560820 
# 
# From -- ./inp_files/33344.got.cif
#   From: 2010.05.17/outbox.cif.g08.bks.cpg/sg51_17_cif.got.tgz:33344.got - 2010.06.03 11:52:47.
