data_PCOD9405694
_publ_section_title
;
Structure prediction by ZEFSAII (Michael W. Deem and Ramdas Pophale) SiO2 
 PCOD9405694
Probable space group: P M M A
;
_chemical_formula_sum "Si O2"
_cell_formula_units_Z 48
_cell_length_a 18.323912
_cell_length_b 7.633373
_cell_length_c 15.809799
_cell_angle_alpha 90.000000
_cell_angle_beta 90.000000
_cell_angle_gamma 90.000000
_cell_volume 2211.368049
_symmetry_space_group_name_H-M "P M M A"
_symmetry_group_IT_number 51
_symmetry_cell_setting 'orthorhombic'
loop_
_space_group_symop_operation_xyz
x,y,z
1/2-x,-y,z
1/2+x,-y,-z
-x,y,-z
-x,-y,-z
1/2+x,y,-z
1/2-x,y,z
x,-y,z
loop_
_atom_site_type_symbol
_atom_site_label
_atom_site_fract_x
_atom_site_fract_y
_atom_site_fract_z
Si Si1 0.669118 0.712048 0.524869
Si Si2 0.552352 0.288914 0.843500
Si Si3 0.623068 0.700488 0.343858
Si Si4 0.670009 0.714190 0.978098
Si Si5 0.115479 0.285365 0.841812
Si Si6 0.541926 0.798848 0.655407
O O1 0.750000 0.767356 0.553801
O O2 0.668319 0.500000 0.522397
O O3 0.655015 0.778938 0.429517
O O4 0.602709 0.763062 0.585415
O O5 0.551970 0.500000 0.847984
O O6 0.468770 0.231787 0.854843
O O7 0.573969 0.238818 0.748373
O O8 0.606513 0.224143 0.915769
O O9 0.649643 0.500000 0.341098
O O10 0.639444 0.777350 0.251133
O O11 0.534688 0.697645 0.352749
O O12 0.750000 0.766456 0.947816
O O13 0.667224 0.500000 0.978338
O O14 0.658591 0.769187 0.075104
O O15 0.116924 0.500000 0.838704
O O16 0.519983 0.000000 0.650321
#
# Coordination Sequence:
#
# PCOD9405694 Si02
#       6
#     8   8   8   8   8   8
#     4  10  21  36  54  77 105 136 168 204 251 307
#     4   9  17  31  50  71  97 131 168 205 248 296
#     4   9  18  34  56  79 103 133 168 207 252 302
#     4   9  16  25  43  74 104 127 157 201 250 297
#     4   8  14  26  46  71  98 126 157 197 244 293
#     4  11  22  35  53  76 101 133 174 217 257 296
#
# _framework density 21.706022999999998
#
# number of rings (size 3 to 8) (size 9 to 14) (size 15 to 20)
#    0.000    2.667    0.000    3.500    0.000    6.333 
#    0.000    5.000    0.000    8.000    0.000    0.000 
#    0.000    0.000    0.000    0.000    0.000    0.000 
#
# Total GULP energy -267915.162151 kJ/mol
# GULP energy per Si atom -5581.565878 kJ/mol
# Density = 2.165662 g / cm^3
# Si number density = 21.706023 Si / 1000 Ang^3
#
#
#
# Elastic Constant Matrix: (Units=GPa)
#
#
# Indices 1 2 3 4 5 6 
#
# 1 28.9003 -3.1973 16.1613 0.0000 0.0000 0.0000
# 2 -3.1973 47.8387 -5.7353 0.0000 0.0000 0.0000
# 3 16.1613 -5.7353 77.0067 0.0000 0.0000 0.0000
# 4 0.0000 0.0000 0.0000 -57.2139 0.0000 0.0000
# 5 0.0000 0.0000 0.0000 0.0000 -134.8207 0.0000
# 6 0.0000 0.0000 0.0000 0.0000 0.0000 -17.9746
#
#
#
# Elastic Compliance Matrix: (Units=1/GPa)
#
#
# Indices 1 2 3 4 5 6 
#
# 1 0.039332 0.001654 -0.008131 0.000000 0.000000 0.000000
# 2 0.001654 0.021161 0.001229 0.000000 0.000000 0.000000
# 3 -0.008131 0.001229 0.014784 0.000000 0.000000 0.000000
# 4 0.000000 0.000000 0.000000 -0.017478 0.000000 0.000000
# 5 0.000000 0.000000 0.000000 0.000000 -0.007417 0.000000
# 6 0.000000 0.000000 0.000000 0.000000 0.000000 -0.055634
#
#
# Mechanical properties :
#
#
# Convention : Reuss Voigt Hill
#
# Bulk Modulus (GPa) = 15.43682 18.68924 17.06303
# Shear Modulus (GPa) = 186.30180 -32.23405 77.03387
#
# Velocity S-wave (km/s) = 9.27447 -3.85779 5.96378
# Velocity P-wave (km/s) = 11.03698 3.34881 7.43641
#
# Compressibility (1/GPa) = 0.06478020
#
# Stress axis : x y z
#
# Youngs Moduli (GPa) = 25.42467 47.25574 67.64098
#
# Poissons Ratio (x) = -0.07816 0.55001
# Poissons Ratio (y) = -0.04205 -0.08313
# Poissons Ratio (z) = 0.20674 -0.05808
#
# Static dielectric constant tensor:
#      x y z
#    x 1.757960 0.000000 0.000000 
#    y 0.000000 1.822510 0.000000 
#    z 0.000000 0.000000 1.781830 
# 
# From -- ./inp_files/24742.got.cif
#   From: 2010.05.17/outbox.cif.g08.bks.cpg/sg51_13_cif.got.tgz:24742.got - 2010.06.03 11:52:47.
