data_PCOD9405283
_publ_section_title
;
Structure prediction by ZEFSAII (Michael W. Deem and Ramdas Pophale) SiO2 
 PCOD9405283
Probable space group: P M M A
;
_chemical_formula_sum "Si O2"
_cell_formula_units_Z 48
_cell_length_a 36.257449
_cell_length_b 7.966148
_cell_length_c 7.779398
_cell_angle_alpha 90.000000
_cell_angle_beta 90.000000
_cell_angle_gamma 90.000000
_cell_volume 2246.940677
_symmetry_space_group_name_H-M "P M M A"
_symmetry_group_IT_number 51
_symmetry_cell_setting 'orthorhombic'
loop_
_space_group_symop_operation_xyz
x,y,z
1/2-x,-y,z
1/2+x,-y,-z
-x,y,-z
-x,-y,-z
1/2+x,y,-z
1/2-x,y,z
x,-y,z
loop_
_atom_site_type_symbol
_atom_site_label
_atom_site_fract_x
_atom_site_fract_y
_atom_site_fract_z
Si Si1 0.336474 0.199272 0.843260
Si Si2 0.082803 0.195312 0.835929
Si Si3 0.349435 0.703427 0.239994
Si Si4 0.708689 0.300313 0.476659
Si Si5 0.507769 0.310361 0.300235
Si Si6 0.570192 0.691799 0.792973
O O1 0.377036 0.241646 0.764803
O O2 0.306328 0.274379 0.716076
O O3 0.331755 0.000000 0.839716
O O4 0.337690 0.252438 0.043980
O O5 0.046476 0.219607 0.724796
O O6 0.085228 0.000000 0.888811
O O7 0.077177 0.305925 0.004492
O O8 0.351519 0.500000 0.247298
O O9 0.320307 0.765494 0.381363
O O10 0.391391 0.765917 0.277480
O O11 0.750000 0.230944 0.496367
O O12 0.710496 0.500000 0.505984
O O13 0.500000 0.322515 0.500000
O O14 0.511567 0.500000 0.226863
O O15 0.470230 0.228421 0.228145
O O16 0.566649 0.500000 0.726615
#
# Coordination Sequence:
#
# PCOD9405283 Si02
#       6
#     8   8   8   8   8   8
#     4  10  22  39  59  86 119 156 194 232 283 346
#     4  10  21  36  53  76 107 146 187 227 274 326
#     4   9  19  37  61  86 115 152 193 240 289 336
#     4  10  22  39  62  91 118 147 187 237 290 344
#     4  10  21  33  50  78 109 142 184 231 275 325
#     4   9  18  34  54  77 104 142 187 229 276 326
#
# _framework density 21.362379000000001
#
# number of rings (size 3 to 8) (size 9 to 14) (size 15 to 20)
#    0.000    2.333    0.000    1.500    2.333    6.667 
#    0.000    1.667    0.000    0.000    0.000    0.000 
#    0.000    0.000    0.000    0.000    0.000    0.000 
#
# Total GULP energy -267584.562036 kJ/mol
# GULP energy per Si atom -5574.678376 kJ/mol
# Density = 2.131376 g / cm^3
# Si number density = 21.362379 Si / 1000 Ang^3
#
#
#
# Elastic Constant Matrix: (Units=GPa)
#
#
# Indices 1 2 3 4 5 6 
#
# 1 96.6803 11.2139 7.9593 0.0000 0.0000 0.0000
# 2 11.2139 27.8308 -7.4884 0.0000 0.0000 0.0000
# 3 7.9593 -7.4884 29.3747 0.0000 0.0000 0.0000
# 4 0.0000 0.0000 0.0000 137.1798 0.0000 0.0000
# 5 0.0000 0.0000 0.0000 0.0000 31.9627 0.0000
# 6 0.0000 0.0000 0.0000 0.0000 0.0000 2.0751
#
#
#
# Elastic Compliance Matrix: (Units=1/GPa)
#
#
# Indices 1 2 3 4 5 6 
#
# 1 0.011395 -0.005821 -0.004572 0.000000 0.000000 0.000000
# 2 -0.005821 0.041552 0.012170 0.000000 0.000000 0.000000
# 3 -0.004572 0.012170 0.038384 0.000000 0.000000 0.000000
# 4 0.000000 0.000000 0.000000 0.007290 0.000000 0.000000
# 5 0.000000 0.000000 0.000000 0.000000 0.031286 0.000000
# 6 0.000000 0.000000 0.000000 0.000000 0.000000 0.481896
#
#
# Mechanical properties :
#
#
# Convention : Reuss Voigt Hill
#
# Bulk Modulus (GPa) = 10.53914 19.69505 15.11710
# Shear Modulus (GPa) = 7.81400 43.72360 25.76880
#
# Velocity S-wave (km/s) = 1.91462 4.52902 3.47691
# Velocity P-wave (km/s) = 3.13559 6.04887 4.81772
#
# Compressibility (1/GPa) = 0.09488443
#
# Stress axis : x y z
#
# Youngs Moduli (GPa) = 87.75811 24.06644 26.05251
#
# Poissons Ratio (x) = 0.14010 0.11910
# Poissons Ratio (y) = 0.51088 -0.31706
# Poissons Ratio (z) = 0.40120 -0.29289
#
# Static dielectric constant tensor:
#      x y z
#    x 1.861160 0.000000 0.000000 
#    y 0.000000 1.804910 0.000000 
#    z 0.000000 0.000000 1.745400 
# 
# From -- ./inp_files/12781.got.cif
#   From: 2010.05.17/outbox.cif.g08.bks.cpg/sg51_7_cif.got.tgz:12781.got - 2010.06.03 11:52:47.
