data_PCOD9405772
_publ_section_title
;
Structure prediction by ZEFSAII (Michael W. Deem and Ramdas Pophale) SiO2 
 PCOD9405772
Probable space group: P M M A
;
_chemical_formula_sum "Si O2"
_cell_formula_units_Z 64
_cell_length_a 32.157163
_cell_length_b 8.779357
_cell_length_c 12.409905
_cell_angle_alpha 90.000000
_cell_angle_beta 90.000000
_cell_angle_gamma 90.000000
_cell_volume 3503.554626
_symmetry_space_group_name_H-M "P M M A"
_symmetry_group_IT_number 51
_symmetry_cell_setting 'orthorhombic'
loop_
_space_group_symop_operation_xyz
x,y,z
1/2-x,-y,z
1/2+x,-y,-z
-x,y,-z
-x,-y,-z
1/2+x,y,-z
1/2-x,y,z
x,-y,z
loop_
_atom_site_type_symbol
_atom_site_label
_atom_site_fract_x
_atom_site_fract_y
_atom_site_fract_z
Si Si1 0.442021 0.818542 0.256043
Si Si2 0.202737 0.316976 0.244329
Si Si3 0.394850 0.183172 0.863670
Si Si4 0.867444 0.182762 0.902739
Si Si5 0.985696 0.680044 0.122506
Si Si6 0.375436 0.818192 0.622409
Si Si7 0.201837 0.315902 0.492107
Si Si8 0.548764 0.317438 0.512115
O O1 0.407870 0.771406 0.167109
O O2 0.485962 0.771897 0.205530
O O3 0.436523 0.735468 0.369628
O O4 0.439461 0.000000 0.272075
O O5 0.250000 0.271535 0.221163
O O6 0.200380 0.500000 0.241454
O O7 0.171652 0.248648 0.158942
O O8 0.193424 0.270896 0.367657
O O9 0.438684 0.267701 0.865287
O O10 0.373426 0.215753 0.749879
O O11 0.401906 0.000000 0.869312
O O12 0.371226 0.229433 0.972790
O O13 0.865736 0.000000 0.900306
O O14 0.990434 0.500000 0.142682
O O15 0.000000 0.711840 0.000000
O O16 0.334617 0.752657 0.564236
O O17 0.418257 0.750956 0.572665
O O18 0.376705 0.000000 0.607870
O O19 0.250000 0.272152 0.517883
O O20 0.200111 0.500000 0.497919
O O21 0.500000 0.269562 0.500000
O O22 0.549918 0.500000 0.503446
#
# Coordination Sequence:
#
# PCOD9405772 Si02
#       8
#     8   8   8   8   8   8   8   8
#     4  11  22  36  58  83 110 144 186 233 280 333
#     4   9  19  36  58  84 112 141 174 218 275 334
#     4  10  22  40  57  77 112 154 192 232 277 332
#     4  10  21  36  55  81 109 141 181 222 271 325
#     4  11  22  35  54  82 112 146 191 235 279 331
#     4  11  23  38  59  85 114 152 196 240 290 345
#     4   9  19  38  63  88 115 149 187 232 291 352
#     4  11  24  40  57  80 115 153 191 238 290 344
#
# _framework density 18.267164000000001
#
# number of rings (size 3 to 8) (size 9 to 14) (size 15 to 20)
#    0.000    1.750    1.250    3.750    0.000    9.000 
#    0.000    1.875    0.000    3.750    0.000    0.000 
#    0.000    0.000    0.000    0.000    0.000    0.000 
#
# Total GULP energy -357448.500022 kJ/mol
# GULP energy per Si atom -5585.132813 kJ/mol
# Density = 1.822559 g / cm^3
# Si number density = 18.267164 Si / 1000 Ang^3
#
#
#
# Elastic Constant Matrix: (Units=GPa)
#
#
# Indices 1 2 3 4 5 6 
#
# 1 126.3864 36.8689 87.5105 0.0000 0.0000 0.0000
# 2 36.8689 21.0606 44.5778 0.0000 0.0000 0.0000
# 3 87.5105 44.5778 137.8407 0.0000 0.0000 0.0000
# 4 0.0000 0.0000 0.0000 17.2536 0.0000 0.0000
# 5 0.0000 0.0000 0.0000 0.0000 36.4241 0.0000
# 6 0.0000 0.0000 0.0000 0.0000 0.0000 37.8437
#
#
#
# Elastic Compliance Matrix: (Units=1/GPa)
#
#
# Indices 1 2 3 4 5 6 
#
# 1 0.016728 -0.021572 -0.003644 0.000000 0.000000 0.000000
# 2 -0.021572 0.178327 -0.043976 0.000000 0.000000 0.000000
# 3 -0.003644 -0.043976 0.023790 0.000000 0.000000 0.000000
# 4 0.000000 0.000000 0.000000 0.057959 0.000000 0.000000
# 5 0.000000 0.000000 0.000000 0.000000 0.027454 0.000000
# 6 0.000000 0.000000 0.000000 0.000000 0.000000 0.026424
#
#
# Mechanical properties :
#
#
# Convention : Reuss Voigt Hill
#
# Bulk Modulus (GPa) = 12.42822 69.24468 40.83645
# Shear Modulus (GPa) = 10.08297 26.05964 18.07131
#
# Velocity S-wave (km/s) = 2.35196 3.78111 3.14869
# Velocity P-wave (km/s) = 3.76749 7.55323 5.96847
#
# Compressibility (1/GPa) = 0.08046205
#
# Stress axis : x y z
#
# Youngs Moduli (GPa) = 59.78000 5.60769 42.03475
#
# Poissons Ratio (x) = 0.12097 0.15316
# Poissons Ratio (y) = 1.28956 1.84851
# Poissons Ratio (z) = 0.21782 0.24660
#
# Static dielectric constant tensor:
#      x y z
#    x 1.566410 0.000000 0.000000 
#    y 0.000000 1.614810 0.000000 
#    z 0.000000 0.000000 1.637240 
# 
# From -- ./inp_files/19567.got.cif
#   From: 2010.05.17/outbox.cif.g08.bks.cpg/sg51_10_cif.got.tgz:19567.got - 2010.06.03 11:52:47.
