data_PCOD9405080
_publ_section_title
;
Structure prediction by ZEFSAII (Michael W. Deem and Ramdas Pophale) SiO2 
 PCOD9405080
Probable space group: P M M A
;
_chemical_formula_sum "Si O2"
_cell_formula_units_Z 48
_cell_length_a 10.045891
_cell_length_b 7.526537
_cell_length_c 29.935680
_cell_angle_alpha 90.000000
_cell_angle_beta 90.000000
_cell_angle_gamma 90.000000
_cell_volume 2263.459825
_symmetry_space_group_name_H-M "P M M A"
_symmetry_group_IT_number 51
_symmetry_cell_setting 'orthorhombic'
loop_
_space_group_symop_operation_xyz
x,y,z
1/2-x,-y,z
1/2+x,-y,-z
-x,y,-z
-x,-y,-z
1/2+x,y,-z
1/2-x,y,z
x,-y,z
loop_
_atom_site_type_symbol
_atom_site_label
_atom_site_fract_x
_atom_site_fract_y
_atom_site_fract_z
Si Si1 0.901422 0.717340 0.298060
Si Si2 0.401819 0.211472 0.119064
Si Si3 0.400556 0.285979 0.221472
Si Si4 0.250000 0.796125 0.428868
Si Si5 0.750000 0.716271 0.467427
Si Si6 0.404627 0.782965 0.958773
Si Si7 0.463352 0.295159 0.602984
O O1 0.750000 0.765907 0.288008
O O2 0.909001 0.500000 0.298495
O O3 0.937091 0.781166 0.347977
O O4 0.000918 0.779788 0.259687
O O5 0.250000 0.281486 0.111854
O O6 0.438289 0.241365 0.170696
O O7 0.515333 0.277059 0.085429
O O8 0.393700 0.000000 0.111713
O O9 0.250000 0.220810 0.228647
O O10 0.398017 0.500000 0.224307
O O11 0.250000 0.784316 0.482410
O O12 0.383252 0.711831 0.409679
O O13 0.250000 0.000000 0.415045
O O14 0.750000 0.500000 0.471978
O O15 0.876392 0.776789 0.438052
O O16 0.250000 0.724186 0.961693
O O17 0.399739 0.000000 0.958746
O O18 0.500000 0.731318 0.000000
O O19 0.419745 0.500000 0.606206
#
# Coordination Sequence:
#
# PCOD9405080 Si02
#       7
#     8   8   8   4   4   8   8
#     4   9  17  32  55  81 103 126 164 215 263 303
#     4   9  17  30  47  68  97 131 164 203 250 296
#     4   9  18  31  50  76 103 133 166 202 249 306
#     4  12  26  38  52  80 114 148 176 206 255 318
#     4  10  20  38  62  86 106 132 176 224 265 306
#     4   9  16  26  43  68  96 127 166 211 254 296
#     4  10  20  37  61  84 105 133 175 224 264 303
#
# _framework density 21.206475000000001
#
# number of rings (size 3 to 8) (size 9 to 14) (size 15 to 20)
#    0.000    2.500    0.833    1.750    1.167    5.333 
#    0.000    0.833    0.000    1.500    0.000    0.000 
#    0.000    0.000    0.000    0.000    0.000    0.000 
#
# Total GULP energy -267958.237149 kJ/mol
# GULP energy per Si atom -5582.463274 kJ/mol
# Density = 2.115821 g / cm^3
# Si number density = 21.206475 Si / 1000 Ang^3
#
#
#
# Elastic Constant Matrix: (Units=GPa)
#
#
# Indices 1 2 3 4 5 6 
#
# 1 158.9818 -2.9682 102.9220 0.0000 0.0000 0.0000
# 2 -2.9682 53.3725 -3.9511 0.0000 0.0000 0.0000
# 3 102.9220 -3.9511 152.9266 0.0000 0.0000 0.0000
# 4 0.0000 0.0000 0.0000 17.3612 0.0000 0.0000
# 5 0.0000 0.0000 0.0000 0.0000 36.7092 0.0000
# 6 0.0000 0.0000 0.0000 0.0000 0.0000 -92.8870
#
#
#
# Elastic Compliance Matrix: (Units=1/GPa)
#
#
# Indices 1 2 3 4 5 6 
#
# 1 0.011147 0.000065 -0.007500 0.000000 0.000000 0.000000
# 2 0.000065 0.018773 0.000442 0.000000 0.000000 0.000000
# 3 -0.007500 0.000442 0.011598 0.000000 0.000000 0.000000
# 4 0.000000 0.000000 0.000000 0.057600 0.000000 0.000000
# 5 0.000000 0.000000 0.000000 0.000000 0.027241 0.000000
# 6 0.000000 0.000000 0.000000 0.000000 0.000000 -0.010766
#
#
# Mechanical properties :
#
#
# Convention : Reuss Voigt Hill
#
# Bulk Modulus (GPa) = 36.32487 61.92070 49.12278
# Shear Modulus (GPa) = 36.03412 10.18855 23.11133
#
# Velocity S-wave (km/s) = 4.12661 2.19428 3.30483
# Velocity P-wave (km/s) = 6.31439 5.97346 6.14629
#
# Compressibility (1/GPa) = 0.02752935
#
# Stress axis : x y z
#
# Youngs Moduli (GPa) = 89.71190 53.26936 86.21944
#
# Poissons Ratio (x) = -0.00344 0.64667
# Poissons Ratio (y) = -0.00580 -0.03807
# Poissons Ratio (z) = 0.67287 -0.02352
#
# Static dielectric constant tensor:
#      x y z
#    x -0.861600 0.000000 0.000000 
#    y 0.000000 1.816930 0.000000 
#    z 0.000000 0.000000 1.730970 
# 
# From -- ./inp_files/37137.got.cif
#   From: 2010.05.17/outbox.cif.g08.bks.cpg/sg51_19_cif.got.tgz:37137.got - 2010.06.03 11:52:47.
