data_PCOD9405507
_publ_section_title
;
Structure prediction by ZEFSAII (Michael W. Deem and Ramdas Pophale) SiO2 
 PCOD9405507
Probable space group: P M M A
;
_chemical_formula_sum "Si O2"
_cell_formula_units_Z 48
_cell_length_a 23.794039
_cell_length_b 13.813496
_cell_length_c 7.484954
_cell_angle_alpha 90.000000
_cell_angle_beta 90.000000
_cell_angle_gamma 90.000000
_cell_volume 2460.146167
_symmetry_space_group_name_H-M "P M M A"
_symmetry_group_IT_number 51
_symmetry_cell_setting 'orthorhombic'
loop_
_space_group_symop_operation_xyz
x,y,z
1/2-x,-y,z
1/2+x,-y,-z
-x,y,-z
-x,-y,-z
1/2+x,y,-z
1/2-x,y,z
x,-y,z
loop_
_atom_site_type_symbol
_atom_site_label
_atom_site_fract_x
_atom_site_fract_y
_atom_site_fract_z
Si Si1 0.421391 0.615378 0.644307
Si Si2 0.364700 0.750261 0.096901
Si Si3 0.043427 0.383846 0.235649
Si Si4 0.316707 0.887413 0.391370
Si Si5 0.184714 0.114016 0.814086
Si Si6 0.811362 0.615112 0.148328
O O1 0.421392 0.500000 0.667983
O O2 0.429954 0.629592 0.433553
O O3 0.478413 0.646019 0.744208
O O4 0.362419 0.648549 0.725076
O O5 0.421436 0.688322 0.112992
O O6 0.349911 0.810151 0.273782
O O7 0.357671 0.827740 0.938138
O O8 0.319502 0.668647 0.039664
O O9 0.047324 0.500000 0.189573
O O10 0.250000 0.878219 0.353218
O O11 0.324454 0.871839 0.603058
O O12 0.332003 0.000000 0.351830
O O13 0.250000 0.140891 0.855089
O O14 0.179923 0.000000 0.849896
O O15 0.750000 0.636875 0.225580
O O16 0.815260 0.500000 0.123843
#
# Coordination Sequence:
#
# PCOD9405507 Si02
#       6
#     8   8   8   8   8   8
#     4   8  17  38  61  78 109 156 206 246 280 327
#     4  12  21  30  54  88 119 148 188 237 284 343
#     4   9  19  36  58  84 114 154 201 247 280 324
#     4   9  19  36  56  79 112 155 198 241 291 344
#     4   9  19  36  55  78 113 154 196 242 289 342
#     4  10  21  35  52  81 122 157 184 227 287 347
#
# _framework density 19.511036000000001
#
# number of rings (size 3 to 8) (size 9 to 14) (size 15 to 20)
#    0.000    2.500    0.000    4.500    2.333    2.000 
#    0.000    4.167    0.000    4.000    0.000   18.667 
#    0.000    0.000    0.000    0.000    0.000    0.000 
#
# Total GULP energy -267734.743462 kJ/mol
# GULP energy per Si atom -5577.807155 kJ/mol
# Density = 1.946663 g / cm^3
# Si number density = 19.511036 Si / 1000 Ang^3
#
#
#
# Elastic Constant Matrix: (Units=GPa)
#
#
# Indices 1 2 3 4 5 6 
#
# 1 103.4231 46.3266 60.1899 0.0000 0.0000 0.0000
# 2 46.3266 103.9610 46.3947 0.0000 0.0000 0.0000
# 3 60.1899 46.3947 79.0426 0.0000 0.0000 0.0000
# 4 0.0000 0.0000 0.0000 35.5708 0.0000 0.0000
# 5 0.0000 0.0000 0.0000 0.0000 31.0308 0.0000
# 6 0.0000 0.0000 0.0000 0.0000 0.0000 3.0370
#
#
#
# Elastic Compliance Matrix: (Units=1/GPa)
#
#
# Indices 1 2 3 4 5 6 
#
# 1 0.017853 -0.002559 -0.012093 0.000000 0.000000 0.000000
# 2 -0.002559 0.013400 -0.005916 0.000000 0.000000 0.000000
# 3 -0.012093 -0.005916 0.025333 0.000000 0.000000 0.000000
# 4 0.000000 0.000000 0.000000 0.028113 0.000000 0.000000
# 5 0.000000 0.000000 0.000000 0.000000 0.032226 0.000000
# 6 0.000000 0.000000 0.000000 0.000000 0.000000 0.329268
#
#
# Mechanical properties :
#
#
# Convention : Reuss Voigt Hill
#
# Bulk Modulus (GPa) = 64.72962 65.80546 65.26754
# Shear Modulus (GPa) = 10.15272 22.82876 16.49074
#
# Velocity S-wave (km/s) = 2.28361 3.42430 2.91039
# Velocity P-wave (km/s) = 6.34043 7.03100 6.69463
#
# Compressibility (1/GPa) = 0.01544888
#
# Stress axis : x y z
#
# Youngs Moduli (GPa) = 56.01291 74.62913 39.47464
#
# Poissons Ratio (x) = 0.19097 0.47736
# Poissons Ratio (y) = 0.14333 0.23355
# Poissons Ratio (z) = 0.67736 0.44154
#
# Static dielectric constant tensor:
#      x y z
#    x 1.707270 0.000000 0.000000 
#    y 0.000000 1.690800 0.000000 
#    z 0.000000 0.000000 1.738780 
# 
# From -- ./inp_files/10808.got.cif
#   From: 2010.05.17/outbox.cif.g08.bks.cpg/sg51_6_cif.got.tgz:10808.got - 2010.06.03 11:52:47.
