data_PCOD9405849
_publ_section_title
;
Structure prediction by ZEFSAII (Michael W. Deem and Ramdas Pophale) SiO2 
 PCOD9405849
Probable space group: P M M A
;
_chemical_formula_sum "Si O2"
_cell_formula_units_Z 48
_cell_length_a 8.916001
_cell_length_b 16.816088
_cell_length_c 18.703068
_cell_angle_alpha 90.000000
_cell_angle_beta 90.000000
_cell_angle_gamma 90.000000
_cell_volume 2804.193206
_symmetry_space_group_name_H-M "P M M A"
_symmetry_group_IT_number 51
_symmetry_cell_setting 'orthorhombic'
loop_
_space_group_symop_operation_xyz
x,y,z
1/2-x,-y,z
1/2+x,-y,-z
-x,y,-z
-x,-y,-z
1/2+x,y,-z
1/2-x,y,z
x,-y,z
loop_
_atom_site_type_symbol
_atom_site_label
_atom_site_fract_x
_atom_site_fract_y
_atom_site_fract_z
Si Si1 0.929232 0.267057 0.706884
Si Si2 0.570007 0.845210 0.577897
Si Si3 0.430662 0.000000 0.652946
Si Si4 0.929654 0.674549 0.923953
Si Si5 0.071518 0.000000 0.821567
Si Si6 0.929155 0.164846 0.845938
Si Si7 0.570993 0.591714 0.213122
O O1 0.750000 0.279621 0.713182
O O2 0.962328 0.228598 0.630570
O O3 0.969935 0.202966 0.768691
O O4 0.012166 0.348107 0.726481
O O5 0.500000 0.834694 0.500000
O O6 0.750000 0.854763 0.573538
O O7 0.498958 0.922894 0.614699
O O8 0.470890 0.000000 0.737095
O O9 0.250000 0.000000 0.646749
O O10 0.750000 0.667359 0.925370
O O11 0.967048 0.765936 0.902379
O O12 0.994892 0.620505 0.860565
O O13 0.000000 0.654384 0.000000
O O14 0.007802 0.919280 0.855235
O O15 0.250000 0.000000 0.826076
O O16 0.750000 0.153284 0.846670
O O17 0.750000 0.599115 0.206251
O O18 0.533691 0.500000 0.227658
#
# Coordination Sequence:
#
# PCOD9405849 Si02
#       7
#     8   8   4   8   4   8   8
#     4   9  19  35  55  77 103 139 178 217 264 315
#     4  11  22  36  53  76 108 145 182 222 269 317
#     4  11  22  34  49  76 109 143 182 224 269 312
#     4  10  21  37  57  81 108 142 176 213 263 315
#     4  11  21  30  49  78 103 133 179 226 264 303
#     4   9  18  34  53  73 100 136 178 218 263 312
#     4  10  21  36  57  85 112 138 170 212 261 313
#
# _framework density 17.117222000000002
#
# number of rings (size 3 to 8) (size 9 to 14) (size 15 to 20)
#    0.000    2.000    1.667    3.250    0.000    7.000 
#    0.000    0.417    0.000    0.500    0.000    0.000 
#    0.000    0.000    0.000    0.000    0.000    0.000 
#
# Total GULP energy -267981.259779 kJ/mol
# GULP energy per Si atom -5582.942912 kJ/mol
# Density = 1.707826 g / cm^3
# Si number density = 17.117222 Si / 1000 Ang^3
#
#
#
# Elastic Constant Matrix: (Units=GPa)
#
#
# Indices 1 2 3 4 5 6 
#
# 1 52.6789 55.0074 32.2180 0.0000 0.0000 0.0000
# 2 55.0074 133.9958 31.4217 0.0000 0.0000 0.0000
# 3 32.2180 31.4217 62.4128 0.0000 0.0000 0.0000
# 4 0.0000 0.0000 0.0000 12.6888 0.0000 0.0000
# 5 0.0000 0.0000 0.0000 0.0000 26.5626 0.0000
# 6 0.0000 0.0000 0.0000 0.0000 0.0000 28.1802
#
#
#
# Elastic Compliance Matrix: (Units=1/GPa)
#
#
# Indices 1 2 3 4 5 6 
#
# 1 0.042887 -0.014076 -0.015052 0.000000 0.000000 0.000000
# 2 -0.014076 0.013082 0.000680 0.000000 0.000000 0.000000
# 3 -0.015052 0.000680 0.023450 0.000000 0.000000 0.000000
# 4 0.000000 0.000000 0.000000 0.078810 0.000000 0.000000
# 5 0.000000 0.000000 0.000000 0.000000 0.037647 0.000000
# 6 0.000000 0.000000 0.000000 0.000000 0.000000 0.035486
#
#
# Mechanical properties :
#
#
# Convention : Reuss Voigt Hill
#
# Bulk Modulus (GPa) = 44.39943 54.04240 49.22092
# Shear Modulus (GPa) = 16.90534 22.18235 19.54385
#
# Velocity S-wave (km/s) = 3.14605 3.60378 3.38267
# Velocity P-wave (km/s) = 6.26032 6.99691 6.63884
#
# Compressibility (1/GPa) = 0.02252281
#
# Stress axis : x y z
#
# Youngs Moduli (GPa) = 23.31714 76.44150 42.64413
#
# Poissons Ratio (x) = 1.07600 0.64188
# Poissons Ratio (y) = 0.32821 -0.02900
# Poissons Ratio (z) = 0.35097 -0.05199
#
# Static dielectric constant tensor:
#      x y z
#    x 1.568440 0.000000 0.000000 
#    y 0.000000 1.564570 0.000000 
#    z 0.000000 0.000000 1.564680 
# 
# From -- ./inp_files/27643.got.cif
#   From: 2010.05.17/outbox.cif.g08.bks.cpg/sg51_14_cif.got.tgz:27643.got - 2010.06.03 11:52:47.
