data_PCOD9405714
_publ_section_title
;
Structure prediction by ZEFSAII (Michael W. Deem and Ramdas Pophale) SiO2 
 PCOD9405714
Probable space group: P M M A
;
_chemical_formula_sum "Si O2"
_cell_formula_units_Z 56
_cell_length_a 13.637710
_cell_length_b 9.097156
_cell_length_c 21.901310
_cell_angle_alpha 90.000000
_cell_angle_beta 90.000000
_cell_angle_gamma 90.000000
_cell_volume 2717.172345
_symmetry_space_group_name_H-M "P M M A"
_symmetry_group_IT_number 51
_symmetry_cell_setting 'orthorhombic'
loop_
_space_group_symop_operation_xyz
x,y,z
1/2-x,-y,z
1/2+x,-y,-z
-x,y,-z
-x,-y,-z
1/2+x,y,-z
1/2-x,y,z
x,-y,z
loop_
_atom_site_type_symbol
_atom_site_label
_atom_site_fract_x
_atom_site_fract_y
_atom_site_fract_z
Si Si1 0.369512 0.168286 0.913231
Si Si2 0.130126 0.331841 0.036542
Si Si3 0.367611 0.165651 0.158706
Si Si4 0.138039 0.674751 0.787398
Si Si5 0.552981 0.678159 0.585752
Si Si6 0.445354 0.674386 0.277194
Si Si7 0.137304 0.176253 0.533003
O O1 0.250000 0.168314 0.913982
O O2 0.394415 0.240233 0.848295
O O3 0.401602 0.000000 0.918460
O O4 0.399753 0.260225 0.972480
O O5 0.250000 0.330835 0.036645
O O6 0.098644 0.500000 0.041100
O O7 0.098263 0.243854 0.096608
O O8 0.250000 0.160773 0.154336
O O9 0.393206 0.248419 0.220834
O O10 0.405274 0.000000 0.161637
O O11 0.250000 0.715063 0.772510
O O12 0.135850 0.500000 0.800797
O O13 0.061044 0.702993 0.733882
O O14 0.553930 0.500000 0.578933
O O15 0.584168 0.716936 0.654563
O O16 0.443500 0.740508 0.573754
O O17 0.618726 0.755895 0.534366
O O18 0.429399 0.500000 0.271522
O O19 0.250000 0.201134 0.551367
O O20 0.119244 0.000000 0.532537
#
# Coordination Sequence:
#
# PCOD9405714 Si02
#       7
#     8   8   8   8   8   8   8
#     4   9  16  27  46  73 103 134 173 223 276 328
#     4   9  16  28  49  74 100 134 176 224 279 333
#     4  10  21  36  54  77 106 142 183 227 276 328
#     4   9  18  34  54  75 103 140 180 221 269 326
#     4  10  21  37  59  87 117 149 186 229 273 318
#     4  10  22  38  56  81 112 146 183 223 268 318
#     4  10  21  38  61  88 118 151 185 223 269 321
#
# _framework density 20.609660000000002
#
# number of rings (size 3 to 8) (size 9 to 14) (size 15 to 20)
#    0.000    2.429    0.000    3.000    0.000    8.286 
#    0.000    5.000    0.000    6.000    0.000    0.000 
#    0.000    0.000    0.000    0.000    0.000    0.000 
#
# Total GULP energy -312888.105009 kJ/mol
# GULP energy per Si atom -5587.287589 kJ/mol
# Density = 2.056275 g / cm^3
# Si number density = 20.609660 Si / 1000 Ang^3
#
#
#
# Elastic Constant Matrix: (Units=GPa)
#
#
# Indices 1 2 3 4 5 6 
#
# 1 41.5534 -4.9660 -17.8752 0.0000 0.0000 0.0000
# 2 -4.9660 44.4204 21.8479 0.0000 0.0000 0.0000
# 3 -17.8752 21.8479 94.3299 0.0000 0.0000 0.0000
# 4 0.0000 0.0000 0.0000 -64.5957 0.0000 0.0000
# 5 0.0000 0.0000 0.0000 0.0000 10.2923 0.0000
# 6 0.0000 0.0000 0.0000 0.0000 0.0000 23.5515
#
#
#
# Elastic Compliance Matrix: (Units=1/GPa)
#
#
# Indices 1 2 3 4 5 6 
#
# 1 0.026213 0.000550 0.004840 0.000000 0.000000 0.000000
# 2 0.000550 0.025418 -0.005783 0.000000 0.000000 0.000000
# 3 0.004840 -0.005783 0.012858 0.000000 0.000000 0.000000
# 4 0.000000 0.000000 0.000000 -0.015481 0.000000 0.000000
# 5 0.000000 0.000000 0.000000 0.000000 0.097160 0.000000
# 6 0.000000 0.000000 0.000000 0.000000 0.000000 0.042460
#
#
# Mechanical properties :
#
#
# Convention : Reuss Voigt Hill
#
# Bulk Modulus (GPa) = 15.69788 19.81300 17.75544
# Shear Modulus (GPa) = 23.73629 5.93609 14.83619
#
# Velocity S-wave (km/s) = 3.39736 1.69897 2.68594
# Velocity P-wave (km/s) = 4.79820 3.67192 4.27234
#
# Compressibility (1/GPa) = 0.06370289
#
# Stress axis : x y z
#
# Youngs Moduli (GPa) = 38.14877 39.34227 77.77488
#
# Poissons Ratio (x) = -0.02164 -0.37642
# Poissons Ratio (y) = -0.02098 0.44976
# Poissons Ratio (z) = -0.18464 0.22751
#
# Static dielectric constant tensor:
#      x y z
#    x 1.799320 0.000000 0.000000 
#    y 0.000000 1.697140 0.000000 
#    z 0.000000 0.000000 1.691470 
# 
# From -- ./inp_files/33387.got.cif
#   From: 2010.05.17/outbox.cif.g08.bks.cpg/sg51_17_cif.got.tgz:33387.got - 2010.06.03 11:52:47.
