data_PCOD9405957
_publ_section_title
;
Structure prediction by ZEFSAII (Michael W. Deem and Ramdas Pophale) SiO2 
 PCOD9405957
Probable space group: P M M A
;
_chemical_formula_sum "Si O2"
_cell_formula_units_Z 48
_cell_length_a 10.010549
_cell_length_b 8.901141
_cell_length_c 29.727944
_cell_angle_alpha 90.000000
_cell_angle_beta 90.000000
_cell_angle_gamma 90.000000
_cell_volume 2648.917610
_symmetry_space_group_name_H-M "P M M A"
_symmetry_group_IT_number 51
_symmetry_cell_setting 'orthorhombic'
loop_
_space_group_symop_operation_xyz
x,y,z
1/2-x,-y,z
1/2+x,-y,-z
-x,y,-z
-x,-y,-z
1/2+x,y,-z
1/2-x,y,z
x,-y,z
loop_
_atom_site_type_symbol
_atom_site_label
_atom_site_fract_x
_atom_site_fract_y
_atom_site_fract_z
Si Si1 0.095407 0.180355 0.779590
Si Si2 0.468020 0.321806 0.397476
Si Si3 0.594313 0.683237 0.958270
Si Si4 0.904142 0.681210 0.123216
Si Si5 0.250000 0.821682 0.461421
Si Si6 0.250000 0.323014 0.558758
Si Si7 0.095632 0.180018 0.301254
O O1 0.250000 0.214382 0.768646
O O2 0.065308 0.254562 0.827551
O O3 0.999875 0.230091 0.739232
O O4 0.082731 0.000000 0.784163
O O5 0.442671 0.500000 0.397940
O O6 0.376067 0.244077 0.434718
O O7 0.619688 0.293360 0.411803
O O8 0.437312 0.257370 0.348415
O O9 0.750000 0.732534 0.960567
O O10 0.597761 0.500000 0.958856
O O11 0.513885 0.729278 0.913379
O O12 0.500000 0.729505 0.000000
O O13 0.750000 0.725027 0.111362
O O14 0.906084 0.500000 0.124795
O O15 0.250000 0.769066 0.512794
O O16 0.250000 0.000000 0.458639
O O17 0.250000 0.500000 0.546364
O O18 0.250000 0.209056 0.289870
O O19 0.079278 0.000000 0.306832
#
# Coordination Sequence:
#
# PCOD9405957 Si02
#       7
#     8   8   8   8   4   4   8
#     4   9  19  35  54  76 104 141 179 218 268 322
#     4  11  23  40  61  85 115 149 183 225 278 329
#     4   9  16  26  43  69 101 136 173 216 266 317
#     4   9  17  30  48  72 101 132 169 216 266 316
#     4  12  24  40  62  88 116 148 188 228 269 324
#     4  10  24  42  60  86 116 148 184 226 275 330
#     4  10  21  37  56  79 108 140 178 222 268 323
#
# _framework density 18.120609000000002
#
# number of rings (size 3 to 8) (size 9 to 14) (size 15 to 20)
#    0.000    2.167    0.833    2.250    1.167    6.667 
#    0.000    0.000    0.000    0.500    0.000    0.000 
#    0.000    0.000    0.000    0.000    0.000    0.000 
#
# Total GULP energy -267903.394567 kJ/mol
# GULP energy per Si atom -5581.320720 kJ/mol
# Density = 1.807937 g / cm^3
# Si number density = 18.120609 Si / 1000 Ang^3
#
#
#
# Elastic Constant Matrix: (Units=GPa)
#
#
# Indices 1 2 3 4 5 6 
#
# 1 127.4519 45.3029 73.5800 0.0000 0.0000 0.0000
# 2 45.3029 18.3767 32.5242 0.0000 0.0000 0.0000
# 3 73.5800 32.5242 120.0016 0.0000 0.0000 0.0000
# 4 0.0000 0.0000 0.0000 42.7835 0.0000 0.0000
# 5 0.0000 0.0000 0.0000 0.0000 94.4661 0.0000
# 6 0.0000 0.0000 0.0000 0.0000 0.0000 18.9629
#
#
#
# Elastic Compliance Matrix: (Units=1/GPa)
#
#
# Indices 1 2 3 4 5 6 
#
# 1 0.066348 -0.175977 0.007013 0.000000 0.000000 0.000000
# 2 -0.175977 0.571330 -0.046947 0.000000 0.000000 0.000000
# 3 0.007013 -0.046947 0.016757 0.000000 0.000000 0.000000
# 4 0.000000 0.000000 0.000000 0.023374 0.000000 0.000000
# 5 0.000000 0.000000 0.000000 0.000000 0.010586 0.000000
# 6 0.000000 0.000000 0.000000 0.000000 0.000000 0.052734
#
#
# Mechanical properties :
#
#
# Convention : Reuss Voigt Hill
#
# Bulk Modulus (GPa) = 4.49206 63.18270 33.83738
# Shear Modulus (GPa) = 4.00913 38.87070 21.43991
#
# Velocity S-wave (km/s) = 1.48905 4.63656 3.44347
# Velocity P-wave (km/s) = 2.33254 7.97541 5.87571
#
# Compressibility (1/GPa) = 0.22261495
#
# Stress axis : x y z
#
# Youngs Moduli (GPa) = 15.07196 1.75030 59.67614
#
# Poissons Ratio (x) = 0.30801 -0.41851
# Poissons Ratio (y) = 2.65231 2.80160
# Poissons Ratio (z) = -0.10570 0.08217
#
# Static dielectric constant tensor:
#      x y z
#    x 1.598530 0.000000 0.000000 
#    y 0.000000 1.609890 0.000000 
#    z 0.000000 0.000000 1.584640 
# 
# From -- ./inp_files/37235.got.cif
#   From: 2010.05.17/outbox.cif.g08.bks.cpg/sg51_19_cif.got.tgz:37235.got - 2010.06.03 11:52:47.
