data_PCOD9405856
_publ_section_title
;
Structure prediction by ZEFSAII (Michael W. Deem and Ramdas Pophale) SiO2 
 PCOD9405856
Probable space group: P M M A
;
_chemical_formula_sum "Si O2"
_cell_formula_units_Z 40
_cell_length_a 14.271729
_cell_length_b 13.942745
_cell_length_c 9.631669
_cell_angle_alpha 90.000000
_cell_angle_beta 90.000000
_cell_angle_gamma 90.000000
_cell_volume 1916.577672
_symmetry_space_group_name_H-M "P M M A"
_symmetry_group_IT_number 51
_symmetry_cell_setting 'orthorhombic'
loop_
_space_group_symop_operation_xyz
x,y,z
1/2-x,-y,z
1/2+x,-y,-z
-x,y,-z
-x,-y,-z
1/2+x,y,-z
1/2-x,y,z
x,-y,z
loop_
_atom_site_type_symbol
_atom_site_label
_atom_site_fract_x
_atom_site_fract_y
_atom_site_fract_z
Si Si1 0.890911 0.887306 0.480668
Si Si2 0.250000 0.384559 0.556489
Si Si3 0.545901 0.613797 0.349548
Si Si4 0.250000 0.886514 0.768587
Si Si5 0.250000 0.739594 0.024361
Si Si6 0.250000 0.228119 0.340152
Si Si7 0.417281 0.392974 0.108266
O O1 0.840707 0.870607 0.331628
O O2 0.837613 0.823784 0.591224
O O3 0.000000 0.867476 0.500000
O O4 0.875578 0.000000 0.509192
O O5 0.250000 0.500000 0.543032
O O6 0.154517 0.354814 0.636895
O O7 0.250000 0.335788 0.404020
O O8 0.500000 0.623429 0.500000
O O9 0.551395 0.500000 0.314789
O O10 0.470249 0.653565 0.240561
O O11 0.250000 0.000000 0.808607
O O12 0.250000 0.814766 0.898813
O O13 0.250000 0.785869 0.177287
O O14 0.160066 0.670782 0.033485
O O15 0.380063 0.500000 0.144384
O O16 0.500000 0.404139 0.000000
#
# Coordination Sequence:
#
# PCOD9405856 Si02
#       7
#     8   4   8   4   4   4   8
#     4   9  20  43  71  93 117 152 196 250 308 366
#     4  10  21  36  57  87 124 169 218 268 319 363
#     4   9  18  34  56  80 109 150 204 261 309 357
#     4   9  21  42  67  96 126 157 196 245 305 373
#     4  12  25  38  60  91 128 167 197 246 314 373
#     4  11  23  34  58  94 124 159 203 251 300 365
#     4  10  23  41  58  81 118 164 211 254 297 355
#
# _framework density 20.870533999999999
#
# number of rings (size 3 to 8) (size 9 to 14) (size 15 to 20)
#    0.000    2.200    0.000    2.400    0.000   11.200 
#    0.000    3.000    0.000    4.200    0.000    0.000 
#    0.000    0.000    0.000    0.000    0.000    0.000 
#
# Total GULP energy -223346.853158 kJ/mol
# GULP energy per Si atom -5583.671329 kJ/mol
# Density = 2.082303 g / cm^3
# Si number density = 20.870534 Si / 1000 Ang^3
#
#
#
# Elastic Constant Matrix: (Units=GPa)
#
#
# Indices 1 2 3 4 5 6 
#
# 1 155.6524 80.6512 52.7020 0.0000 0.0000 0.0000
# 2 80.6512 94.7513 58.5261 0.0000 0.0000 0.0000
# 3 52.7020 58.5261 119.2569 0.0000 0.0000 0.0000
# 4 0.0000 0.0000 0.0000 35.2867 0.0000 0.0000
# 5 0.0000 0.0000 0.0000 0.0000 2.9928 0.0000
# 6 0.0000 0.0000 0.0000 0.0000 0.0000 143.3205
#
#
#
# Elastic Compliance Matrix: (Units=1/GPa)
#
#
# Indices 1 2 3 4 5 6 
#
# 1 0.011507 -0.009548 -0.000400 0.000000 0.000000 0.000000
# 2 -0.009548 0.023067 -0.007101 0.000000 0.000000 0.000000
# 3 -0.000400 -0.007101 0.012047 0.000000 0.000000 0.000000
# 4 0.000000 0.000000 0.000000 0.028339 0.000000 0.000000
# 5 0.000000 0.000000 0.000000 0.000000 0.334138 0.000000
# 6 0.000000 0.000000 0.000000 0.000000 0.000000 0.006977
#
#
# Mechanical properties :
#
#
# Convention : Reuss Voigt Hill
#
# Bulk Modulus (GPa) = 79.84581 83.71325 81.77953
# Shear Modulus (GPa) = 11.00480 48.17207 29.58843
#
# Velocity S-wave (km/s) = 2.29877 4.80952 3.76934
# Velocity P-wave (km/s) = 6.73695 8.42851 7.62975
#
# Compressibility (1/GPa) = 0.01252414
#
# Stress axis : x y z
#
# Youngs Moduli (GPa) = 86.90292 43.35168 83.01073
#
# Poissons Ratio (x) = 0.41392 0.03316
# Poissons Ratio (y) = 0.82974 0.58945
# Poissons Ratio (z) = 0.03472 0.30784
#
# Static dielectric constant tensor:
#      x y z
#    x 1.856730 0.000000 0.000000 
#    y 0.000000 1.787220 0.000000 
#    z 0.000000 0.000000 1.751570 
# 
# From -- ./inp_files/8044.got.cif
#   From: 2010.05.17/outbox.cif.g08.bks.cpg/sg51_5_cif.got.tgz:8044.got - 2010.06.03 11:52:47.
