data_PCOD9405336
_publ_section_title
;
Structure prediction by ZEFSAII (Michael W. Deem and Ramdas Pophale) SiO2 
 PCOD9405336
Probable space group: P M M A
;
_chemical_formula_sum "Si O2"
_cell_formula_units_Z 64
_cell_length_a 14.906643
_cell_length_b 7.808564
_cell_length_c 25.765280
_cell_angle_alpha 90.000000
_cell_angle_beta 90.000000
_cell_angle_gamma 90.000000
_cell_volume 2999.065088
_symmetry_space_group_name_H-M "P M M A"
_symmetry_group_IT_number 51
_symmetry_cell_setting 'orthorhombic'
loop_
_space_group_symop_operation_xyz
x,y,z
1/2-x,-y,z
1/2+x,-y,-z
-x,y,-z
-x,-y,-z
1/2+x,y,-z
1/2-x,y,z
x,-y,z
loop_
_atom_site_type_symbol
_atom_site_label
_atom_site_fract_x
_atom_site_fract_y
_atom_site_fract_z
Si Si1 0.990949 0.202066 0.057781
Si Si2 0.353834 0.291759 0.133511
Si Si3 0.640315 0.698045 0.753804
Si Si4 0.990382 0.803386 0.557150
Si Si5 0.649117 0.296167 0.642973
Si Si6 0.352819 0.300154 0.628977
Si Si7 0.854272 0.210017 0.144129
Si Si8 0.359044 0.800608 0.742618
O O1 0.083261 0.224200 0.088608
O O2 0.914583 0.271909 0.096520
O O3 0.970612 0.000000 0.052070
O O4 0.000000 0.275819 0.000000
O O5 0.250000 0.243903 0.126183
O O6 0.357590 0.500000 0.134195
O O7 0.384678 0.226135 0.190469
O O8 0.750000 0.696835 0.753204
O O9 0.610052 0.500000 0.755035
O O10 0.613897 0.775928 0.698326
O O11 0.915685 0.727859 0.594937
O O12 0.000000 0.723834 0.500000
O O13 0.082798 0.792081 0.588851
O O14 0.963989 0.000000 0.549727
O O15 0.750000 0.230368 0.633265
O O16 0.656125 0.500000 0.651365
O O17 0.250000 0.236622 0.627320
O O18 0.353227 0.500000 0.615401
O O19 0.385834 0.284646 0.688581
O O20 0.750000 0.258169 0.137848
O O21 0.888317 0.268266 0.201158
O O22 0.856869 0.000000 0.145837
O O23 0.250000 0.791036 0.744759
O O24 0.383874 0.000000 0.738802
#
# Coordination Sequence:
#
# PCOD9405336 Si02
#       8
#     8   8   8   8   8   8   8   8
#     4  10  21  34  49  73 103 136 177 221 260 300
#     4   9  18  34  55  76 102 137 171 206 253 309
#     4   7  12  27  52  80 106 132 164 202 253 316
#     4  11  25  41  55  75 106 145 186 222 256 302
#     4   9  18  35  60  86 111 139 171 213 265 316
#     4  10  21  37  58  83 109 136 169 215 268 318
#     4   8  15  30  51  73 100 136 174 211 256 312
#     4   8  14  28  52  78 103 133 168 207 257 318
#
# _framework density 21.339984000000001
#
# number of rings (size 3 to 8) (size 9 to 14) (size 15 to 20)
#    0.000    3.000    0.000    3.000    0.000    4.500 
#    0.000    7.500    0.000    3.375    0.000    0.000 
#    0.000    0.000    0.000    0.000    0.000    0.000 
#
# Total GULP energy -356945.059622 kJ/mol
# GULP energy per Si atom -5577.266557 kJ/mol
# Density = 2.129141 g / cm^3
# Si number density = 21.339984 Si / 1000 Ang^3
#
#
#
# Elastic Constant Matrix: (Units=GPa)
#
#
# Indices 1 2 3 4 5 6 
#
# 1 71.6858 -10.1793 59.2865 0.0000 0.0000 0.0000
# 2 -10.1793 22.4555 -0.5852 0.0000 0.0000 0.0000
# 3 59.2865 -0.5852 202.7235 0.0000 0.0000 0.0000
# 4 0.0000 0.0000 0.0000 -25.8029 0.0000 0.0000
# 5 0.0000 0.0000 0.0000 0.0000 31.3531 0.0000
# 6 0.0000 0.0000 0.0000 0.0000 0.0000 13.6017
#
#
#
# Elastic Compliance Matrix: (Units=1/GPa)
#
#
# Indices 1 2 3 4 5 6 
#
# 1 0.020045 0.008935 -0.005837 0.000000 0.000000 0.000000
# 2 0.008935 0.048518 -0.002473 0.000000 0.000000 0.000000
# 3 -0.005837 -0.002473 0.006633 0.000000 0.000000 0.000000
# 4 0.000000 0.000000 0.000000 -0.038755 0.000000 0.000000
# 5 0.000000 0.000000 0.000000 0.000000 0.031895 0.000000
# 6 0.000000 0.000000 0.000000 0.000000 0.000000 0.073520
#
#
# Mechanical properties :
#
#
# Convention : Reuss Voigt Hill
#
# Bulk Modulus (GPa) = 13.08095 43.76762 28.42429
# Shear Modulus (GPa) = 30.10452 20.38655 25.24553
#
# Velocity S-wave (km/s) = 3.76002 3.09418 3.44323
# Velocity P-wave (km/s) = 4.99934 5.77230 5.39967
#
# Compressibility (1/GPa) = 0.07644707
#
# Stress axis : x y z
#
# Youngs Moduli (GPa) = 49.88653 20.61076 150.77093
#
# Poissons Ratio (x) = -0.18415 0.87998
# Poissons Ratio (y) = -0.44572 0.37284
# Poissons Ratio (z) = 0.29116 0.05097
#
# Static dielectric constant tensor:
#      x y z
#    x 1.771390 0.000000 0.000000 
#    y 0.000000 1.783980 0.000000 
#    z 0.000000 0.000000 1.797840 
# 
# From -- ./inp_files/35724.got.cif
#   From: 2010.05.17/outbox.cif.g08.bks.cpg/sg51_18_cif.got.tgz:35724.got - 2010.06.03 11:52:47.
