data_PCOD9405066
_publ_section_title
;
Structure prediction by ZEFSAII (Michael W. Deem and Ramdas Pophale) SiO2 
 PCOD9405066
Probable space group: P M M A
;
_chemical_formula_sum "Si O2"
_cell_formula_units_Z 48
_cell_length_a 30.451157
_cell_length_b 8.730543
_cell_length_c 9.813438
_cell_angle_alpha 90.000000
_cell_angle_beta 90.000000
_cell_angle_gamma 90.000000
_cell_volume 2608.952890
_symmetry_space_group_name_H-M "P M M A"
_symmetry_group_IT_number 51
_symmetry_cell_setting 'orthorhombic'
loop_
_space_group_symop_operation_xyz
x,y,z
1/2-x,-y,z
1/2+x,-y,-z
-x,y,-z
-x,-y,-z
1/2+x,y,-z
1/2-x,y,z
x,-y,z
loop_
_atom_site_type_symbol
_atom_site_label
_atom_site_fract_x
_atom_site_fract_y
_atom_site_fract_z
Si Si1 0.177970 0.816364 0.351780
Si Si2 0.424965 0.182186 0.347245
Si Si3 0.177336 0.316091 0.649462
Si Si4 0.750000 0.683117 0.848269
Si Si5 0.998490 0.315001 0.844225
Si Si6 0.424928 0.684119 0.641840
Si Si7 0.250000 0.183099 0.847881
O O1 0.126562 0.781213 0.327061
O O2 0.189526 0.748563 0.500296
O O3 0.208159 0.743345 0.236456
O O4 0.183650 0.000000 0.354190
O O5 0.455885 0.256358 0.234754
O O6 0.437258 0.243594 0.496951
O O7 0.429851 0.000000 0.344426
O O8 0.182227 0.500000 0.649731
O O9 0.125894 0.277689 0.671873
O O10 0.207983 0.243261 0.763761
O O11 0.750000 0.500000 0.852989
O O12 0.750000 0.750091 0.000143
O O13 0.997678 0.500000 0.844638
O O14 0.041462 0.266745 0.758829
O O15 0.000000 0.261702 0.000000
O O16 0.427489 0.500000 0.628407
O O17 0.250000 0.000000 0.852220
#
# Coordination Sequence:
#
# PCOD9405066 Si02
#       7
#     8   8   8   4   8   8   4
#     4  10  21  39  60  84 114 147 184 229 285 338
#     4  10  21  36  57  84 111 143 184 228 274 328
#     4  10  20  37  60  85 111 145 193 238 275 325
#     4  12  25  40  59  84 112 146 188 230 275 332
#     4  10  21  36  54  79 112 149 186 227 278 330
#     4   9  19  36  58  82 109 144 186 231 276 324
#     4  12  25  40  57  82 118 154 184 224 283 338
#
# _framework density 18.398185000000002
#
# number of rings (size 3 to 8) (size 9 to 14) (size 15 to 20)
#    0.000    1.833    0.000    4.000    0.000    7.000 
#    0.000    1.667    0.000    0.000    0.000    0.000 
#    0.000    0.000    0.000    0.000    0.000    0.000 
#
# Total GULP energy -268253.570927 kJ/mol
# GULP energy per Si atom -5588.616061 kJ/mol
# Density = 1.835631 g / cm^3
# Si number density = 18.398185 Si / 1000 Ang^3
#
#
#
# Elastic Constant Matrix: (Units=GPa)
#
#
# Indices 1 2 3 4 5 6 
#
# 1 108.6403 54.2603 115.4787 0.0000 0.0000 0.0000
# 2 54.2603 69.7513 68.5846 0.0000 0.0000 0.0000
# 3 115.4787 68.5846 208.1848 0.0000 0.0000 0.0000
# 4 0.0000 0.0000 0.0000 -3.4245 0.0000 0.0000
# 5 0.0000 0.0000 0.0000 0.0000 -27.3340 0.0000
# 6 0.0000 0.0000 0.0000 0.0000 0.0000 29.1585
#
#
#
# Elastic Compliance Matrix: (Units=1/GPa)
#
#
# Indices 1 2 3 4 5 6 
#
# 1 0.025636 -0.008816 -0.011316 0.000000 0.000000 0.000000
# 2 -0.008816 0.024238 -0.003095 0.000000 0.000000 0.000000
# 3 -0.011316 -0.003095 0.012100 0.000000 0.000000 0.000000
# 4 0.000000 0.000000 0.000000 -0.292015 0.000000 0.000000
# 5 0.000000 0.000000 0.000000 0.000000 -0.036584 0.000000
# 6 0.000000 0.000000 0.000000 0.000000 0.000000 0.034295
#
#
# Mechanical properties :
#
#
# Convention : Reuss Voigt Hill
#
# Bulk Modulus (GPa) = 64.43129 95.91375 80.17252
# Shear Modulus (GPa) = -27.66933 9.56352 -9.05291
#
# Velocity S-wave (km/s) = -3.88224 2.28240 -2.22064
# Velocity P-wave (km/s) = 3.87308 7.69358 6.09064
#
# Compressibility (1/GPa) = 0.01552041
#
# Stress axis : x y z
#
# Youngs Moduli (GPa) = 39.00818 41.25816 82.64709
#
# Poissons Ratio (x) = 0.36373 0.93520
# Poissons Ratio (y) = 0.34389 0.25577
# Poissons Ratio (z) = 0.44140 0.12768
#
# Static dielectric constant tensor:
#      x y z
#    x 1.636210 0.000000 0.000000 
#    y 0.000000 1.614560 0.000000 
#    z 0.000000 0.000000 1.591380 
# 
# From -- ./inp_files/12888.got.cif
#   From: 2010.05.17/outbox.cif.g08.bks.cpg/sg51_7_cif.got.tgz:12888.got - 2010.06.03 11:52:47.
