data_PCOD9405683
_publ_section_title
;
Structure prediction by ZEFSAII (Michael W. Deem and Ramdas Pophale) SiO2 
 PCOD9405683
Probable space group: P M M A
;
_chemical_formula_sum "Si O2"
_cell_formula_units_Z 64
_cell_length_a 14.131259
_cell_length_b 9.434747
_cell_length_c 24.932418
_cell_angle_alpha 90.000000
_cell_angle_beta 90.000000
_cell_angle_gamma 90.000000
_cell_volume 3324.110976
_symmetry_space_group_name_H-M "P M M A"
_symmetry_group_IT_number 51
_symmetry_cell_setting 'orthorhombic'
loop_
_space_group_symop_operation_xyz
x,y,z
1/2-x,-y,z
1/2+x,-y,-z
-x,y,-z
-x,-y,-z
1/2+x,y,-z
1/2-x,y,z
x,-y,z
loop_
_atom_site_type_symbol
_atom_site_label
_atom_site_fract_x
_atom_site_fract_y
_atom_site_fract_z
Si Si1 0.361285 0.827611 0.966829
Si Si2 0.954644 0.668367 0.368208
Si Si3 0.365565 0.163294 0.083555
Si Si4 0.642199 0.668940 0.809847
Si Si5 0.140915 0.666492 0.427746
Si Si6 0.544073 0.669711 0.247869
Si Si7 0.364369 0.164765 0.849503
Si Si8 0.863995 0.837305 0.465643
O O1 0.250000 0.788180 0.966614
O O2 0.399495 0.784423 0.908501
O O3 0.365348 0.000000 0.967395
O O4 0.399515 0.783325 0.025142
O O5 0.934439 0.500000 0.373077
O O6 0.066457 0.687043 0.380174
O O7 0.929950 0.714588 0.308007
O O8 0.901893 0.753241 0.414483
O O9 0.250000 0.162077 0.080874
O O10 0.388980 0.254238 0.135484
O O11 0.396168 0.000000 0.090175
O O12 0.750000 0.711880 0.797206
O O13 0.641789 0.500000 0.818874
O O14 0.566434 0.699709 0.763955
O O15 0.250000 0.699231 0.413910
O O16 0.136770 0.500000 0.443038
O O17 0.110634 0.758981 0.478903
O O18 0.557455 0.500000 0.244574
O O19 0.600103 0.744881 0.200283
O O20 0.250000 0.168534 0.851114
O O21 0.392140 0.000000 0.842869
O O22 0.750000 0.836060 0.463655
O O23 0.896269 0.000000 0.465398
#
# Coordination Sequence:
#
# PCOD9405683 Si02
#       8
#     8   8   8   8   8   8   8   8
#     4   7  11  23  45  71  95 120 155 201 252 304
#     4  10  21  36  54  76 103 137 175 212 248 289
#     4   8  13  24  46  73  96 120 156 203 253 305
#     4   9  18  33  51  70  97 133 168 205 252 303
#     4   9  18  34  57  83 108 134 167 207 249 294
#     4  10  22  37  51  72 102 135 173 213 251 293
#     4   9  18  34  55  75  97 129 168 210 256 305
#     4  10  21  36  55  81 111 139 166 200 247 300
#
# _framework density 19.253267000000001
#
# number of rings (size 3 to 8) (size 9 to 14) (size 15 to 20)
#    0.000    3.000    0.000    2.250    0.000    5.000 
#    0.000    6.250    0.000    6.000    0.000    5.250 
#    0.000    0.000    0.000    0.000    0.000    0.000 
#
# Total GULP energy -356889.031929 kJ/mol
# GULP energy per Si atom -5576.391124 kJ/mol
# Density = 1.920945 g / cm^3
# Si number density = 19.253267 Si / 1000 Ang^3
#
#
#
# Elastic Constant Matrix: (Units=GPa)
#
#
# Indices 1 2 3 4 5 6 
#
# 1 30.7082 7.2428 2.3406 0.0000 0.0000 0.0000
# 2 7.2428 20.6554 23.6853 0.0000 0.0000 0.0000
# 3 2.3406 23.6853 93.6019 0.0000 0.0000 0.0000
# 4 0.0000 0.0000 0.0000 36.4217 0.0000 0.0000
# 5 0.0000 0.0000 0.0000 0.0000 22.9426 0.0000
# 6 0.0000 0.0000 0.0000 0.0000 0.0000 16.5204
#
#
#
# Elastic Compliance Matrix: (Units=1/GPa)
#
#
# Indices 1 2 3 4 5 6 
#
# 1 0.036188 -0.016415 0.003249 0.000000 0.000000 0.000000
# 2 -0.016415 0.075649 -0.018732 0.000000 0.000000 0.000000
# 3 0.003249 -0.018732 0.015342 0.000000 0.000000 0.000000
# 4 0.000000 0.000000 0.000000 0.027456 0.000000 0.000000
# 5 0.000000 0.000000 0.000000 0.000000 0.043587 0.000000
# 6 0.000000 0.000000 0.000000 0.000000 0.000000 0.060531
#
#
# Mechanical properties :
#
#
# Convention : Reuss Voigt Hill
#
# Bulk Modulus (GPa) = 15.77689 23.50033 19.63861
# Shear Modulus (GPa) = 14.54853 22.62341 18.58597
#
# Velocity S-wave (km/s) = 2.75187 3.43161 3.11036
# Velocity P-wave (km/s) = 4.27893 5.28523 4.80848
#
# Compressibility (1/GPa) = 0.06338386
#
# Stress axis : x y z
#
# Youngs Moduli (GPa) = 27.63311 13.21899 65.17927
#
# Poissons Ratio (x) = 0.21698 -0.21174
# Poissons Ratio (y) = 0.45358 1.22093
# Poissons Ratio (z) = -0.08977 0.24762
#
# Static dielectric constant tensor:
#      x y z
#    x 1.735170 0.000000 0.000000 
#    y 0.000000 1.637710 0.000000 
#    z 0.000000 0.000000 1.650780 
# 
# From -- ./inp_files/35869.got.cif
#   From: 2010.05.17/outbox.cif.g08.bks.cpg/sg51_18_cif.got.tgz:35869.got - 2010.06.03 11:52:47.
