data_PCOD9405782
_publ_section_title
;
Structure prediction by ZEFSAII (Michael W. Deem and Ramdas Pophale) SiO2 
 PCOD9405782
Probable space group: P M M A
;
_chemical_formula_sum "Si O2"
_cell_formula_units_Z 48
_cell_length_a 9.935388
_cell_length_b 9.283366
_cell_length_c 29.390215
_cell_angle_alpha 90.000000
_cell_angle_beta 90.000000
_cell_angle_gamma 90.000000
_cell_volume 2710.772481
_symmetry_space_group_name_H-M "P M M A"
_symmetry_group_IT_number 51
_symmetry_cell_setting 'orthorhombic'
loop_
_space_group_symop_operation_xyz
x,y,z
1/2-x,-y,z
1/2+x,-y,-z
-x,y,-z
-x,-y,-z
1/2+x,y,-z
1/2-x,y,z
x,-y,z
loop_
_atom_site_type_symbol
_atom_site_label
_atom_site_fract_x
_atom_site_fract_y
_atom_site_fract_z
Si Si1 0.095023 0.827569 0.776558
Si Si2 0.466874 0.330749 0.399251
Si Si3 0.591519 0.673311 0.955893
Si Si4 0.906004 0.826656 0.117054
Si Si5 0.250000 0.828770 0.459432
Si Si6 0.250000 0.335319 0.553264
Si Si7 0.092967 0.327686 0.295332
O O1 0.250000 0.789747 0.766061
O O2 0.071628 0.792075 0.829691
O O3 0.996112 0.749591 0.742263
O O4 0.081492 0.000000 0.772303
O O5 0.426750 0.500000 0.402873
O O6 0.376688 0.236335 0.432561
O O7 0.619133 0.318115 0.415826
O O8 0.447703 0.287419 0.346859
O O9 0.750000 0.714531 0.960523
O O10 0.587999 0.500000 0.950224
O O11 0.515527 0.749105 0.914099
O O12 0.500000 0.708467 0.000000
O O13 0.750000 0.786521 0.105656
O O14 0.915663 0.000000 0.111979
O O15 0.250000 0.770795 0.510764
O O16 0.250000 0.000000 0.458396
O O17 0.250000 0.500000 0.535004
O O18 0.250000 0.293536 0.289145
O O19 0.076082 0.500000 0.291483
#
# Coordination Sequence:
#
# PCOD9405782 Si02
#       7
#     8   8   8   8   4   4   8
#     4   9  20  38  58  82 113 148 184 225 276 333
#     4  10  21  40  61  82 110 145 185 227 272 327
#     4  10  21  36  55  81 113 149 189 235 285 335
#     4   9  19  37  58  80 110 148 189 230 274 330
#     4  12  24  38  58  84 116 148 180 222 275 330
#     4  10  22  38  62  86 106 144 188 226 273 328
#     4  10  21  37  58  83 111 142 182 231 274 321
#
# _framework density 17.707129999999999
#
# number of rings (size 3 to 8) (size 9 to 14) (size 15 to 20)
#    0.000    2.167    0.833    2.750    1.167    7.000 
#    0.000    5.000    0.000    0.000    0.000    0.000 
#    0.000    0.000    0.000    0.000    0.000    0.000 
#
# Total GULP energy -267936.363630 kJ/mol
# GULP energy per Si atom -5582.007576 kJ/mol
# Density = 1.766683 g / cm^3
# Si number density = 17.707130 Si / 1000 Ang^3
#
#
#
# Elastic Constant Matrix: (Units=GPa)
#
#
# Indices 1 2 3 4 5 6 
#
# 1 156.8176 63.9285 101.5073 0.0000 0.0000 0.0000
# 2 63.9285 45.2765 54.7377 0.0000 0.0000 0.0000
# 3 101.5073 54.7377 130.2529 0.0000 0.0000 0.0000
# 4 0.0000 0.0000 0.0000 63.0941 0.0000 0.0000
# 5 0.0000 0.0000 0.0000 0.0000 32.6897 0.0000
# 6 0.0000 0.0000 0.0000 0.0000 0.0000 29.8748
#
#
#
# Elastic Compliance Matrix: (Units=1/GPa)
#
#
# Indices 1 2 3 4 5 6 
#
# 1 0.017422 -0.016638 -0.006585 0.000000 0.000000 0.000000
# 2 -0.016638 0.060785 -0.012579 0.000000 0.000000 0.000000
# 3 -0.006585 -0.012579 0.018095 0.000000 0.000000 0.000000
# 4 0.000000 0.000000 0.000000 0.015849 0.000000 0.000000
# 5 0.000000 0.000000 0.000000 0.000000 0.030591 0.000000
# 6 0.000000 0.000000 0.000000 0.000000 0.000000 0.033473
#
#
# Mechanical properties :
#
#
# Convention : Reuss Voigt Hill
#
# Bulk Modulus (GPa) = 40.48653 85.85488 63.17070
# Shear Modulus (GPa) = 19.52726 32.60997 26.06861
#
# Velocity S-wave (km/s) = 3.32443 4.29608 3.84110
# Velocity P-wave (km/s) = 6.13596 8.55568 7.44478
#
# Compressibility (1/GPa) = 0.02469957
#
# Stress axis : x y z
#
# Youngs Moduli (GPa) = 57.39853 16.45130 55.26290
#
# Poissons Ratio (x) = 0.27371 0.36392
# Poissons Ratio (y) = 0.95499 0.69513
# Poissons Ratio (z) = 0.37798 0.20693
#
# Static dielectric constant tensor:
#      x y z
#    x 1.583440 0.000000 0.000000 
#    y 0.000000 1.590020 0.000000 
#    z 0.000000 0.000000 1.577800 
# 
# From -- ./inp_files/37233.got.cif
#   From: 2010.05.17/outbox.cif.g08.bks.cpg/sg51_19_cif.got.tgz:37233.got - 2010.06.03 11:52:47.
