data_PCOD9405226
_publ_section_title
;
Structure prediction by ZEFSAII (Michael W. Deem and Ramdas Pophale) SiO2 
 PCOD9405226
Probable space group: P M M A
;
_chemical_formula_sum "Si O2"
_cell_formula_units_Z 38
_cell_length_a 9.641725
_cell_length_b 12.044022
_cell_length_c 18.070061
_cell_angle_alpha 90.000000
_cell_angle_beta 90.000000
_cell_angle_gamma 90.000000
_cell_volume 2098.388508
_symmetry_space_group_name_H-M "P M M A"
_symmetry_group_IT_number 51
_symmetry_cell_setting 'orthorhombic'
loop_
_space_group_symop_operation_xyz
x,y,z
1/2-x,-y,z
1/2+x,-y,-z
-x,y,-z
-x,-y,-z
1/2+x,y,-z
1/2-x,y,z
x,-y,z
loop_
_atom_site_type_symbol
_atom_site_label
_atom_site_fract_x
_atom_site_fract_y
_atom_site_fract_z
Si Si1 0.500000 0.675852 0.000000
Si Si2 0.083722 0.770263 0.151665
Si Si3 0.416008 0.000000 0.229118
Si Si4 0.414584 0.750739 0.572544
Si Si5 0.250000 0.500000 0.997105
Si Si6 0.086010 0.367299 0.297661
Si Si7 0.908704 0.000000 0.376382
O O1 0.508790 0.746012 0.924809
O O2 0.368699 0.596491 0.998370
O O3 0.250000 0.769216 0.139228
O O4 0.055480 0.678639 0.215339
O O5 0.045220 0.889000 0.185540
O O6 0.486790 0.000000 0.308459
O O7 0.250000 0.000000 0.238616
O O8 0.500000 0.715200 0.500000
O O9 0.250000 0.723973 0.568402
O O10 0.488191 0.694076 0.643247
O O11 0.426501 0.884632 0.580185
O O12 0.250000 0.342335 0.312508
O O13 0.068042 0.500000 0.300948
O O14 0.750000 0.000000 0.348233
#
# Coordination Sequence:
#
# PCOD9405226 Si02
#       7
#     4   8   4   8   2   8   4
#     4  11  22  41  60  92 124 165 211 254 302 352
#     4  10  21  39  63  91 122 159 203 252 301 362
#     4  10  20  38  66  89 118 160 203 242 301 370
#     4  11  23  40  62  90 123 157 198 247 301 360
#     4  10  24  38  64  88 124 166 206 262 298 350
#     4  10  22  39  62  88 117 159 203 249 303 359
#     4  10  21  39  60  93 123 153 193 251 304 347
#
# _framework density 18.109134000000001
#
# number of rings (size 3 to 8) (size 9 to 14) (size 15 to 20)
#    0.000    1.684    3.158    0.947    2.947    2.105 
#    3.789    0.000    0.000    0.000    0.000    0.000 
#    0.000    0.000    0.000    0.000    0.000    0.000 
#
# Total GULP energy -211561.017444 kJ/mol
# GULP energy per Si atom -5567.395196 kJ/mol
# Density = 1.806792 g / cm^3
# Si number density = 18.109134 Si / 1000 Ang^3
#
#
#
# Elastic Constant Matrix: (Units=GPa)
#
#
# Indices 1 2 3 4 5 6 
#
# 1 101.8136 35.5384 50.6927 0.0000 0.0000 0.0000
# 2 35.5384 67.4552 20.0603 0.0000 0.0000 0.0000
# 3 50.6927 20.0603 104.8393 0.0000 0.0000 0.0000
# 4 0.0000 0.0000 0.0000 27.6206 0.0000 0.0000
# 5 0.0000 0.0000 0.0000 0.0000 133.5163 0.0000
# 6 0.0000 0.0000 0.0000 0.0000 0.0000 26.2685
#
#
#
# Elastic Compliance Matrix: (Units=1/GPa)
#
#
# Indices 1 2 3 4 5 6 
#
# 1 0.014968 -0.006080 -0.006074 0.000000 0.000000 0.000000
# 2 -0.006080 0.018188 -0.000541 0.000000 0.000000 0.000000
# 3 -0.006074 -0.000541 0.012579 0.000000 0.000000 0.000000
# 4 0.000000 0.000000 0.000000 0.036205 0.000000 0.000000
# 5 0.000000 0.000000 0.000000 0.000000 0.007490 0.000000
# 6 0.000000 0.000000 0.000000 0.000000 0.000000 0.038068
#
#
# Mechanical properties :
#
#
# Convention : Reuss Voigt Hill
#
# Bulk Modulus (GPa) = 49.14795 54.07679 51.61237
# Shear Modulus (GPa) = 31.31461 48.66887 39.99174
#
# Velocity S-wave (km/s) = 4.16290 5.18977 4.70443
# Velocity P-wave (km/s) = 7.09261 8.11406 7.62047
#
# Compressibility (1/GPa) = 0.02034673
#
# Stress axis : x y z
#
# Youngs Moduli (GPa) = 66.80757 54.98007 79.49789
#
# Poissons Ratio (x) = 0.33426 0.48290
# Poissons Ratio (y) = 0.40616 0.04298
# Poissons Ratio (z) = 0.40581 0.02972
#
# Static dielectric constant tensor:
#      x y z
#    x 1.599910 0.000000 0.000000 
#    y 0.000000 1.618290 0.000000 
#    z 0.000000 0.000000 1.613750 
# 
# From -- ./inp_files/27096.got.cif
#   From: 2010.05.17/outbox.cif.g08.bks.cpg/sg51_14_cif.got.tgz:27096.got - 2010.06.03 11:52:47.
