data_PCOD9405878
_publ_section_title
;
Structure prediction by ZEFSAII (Michael W. Deem and Ramdas Pophale) SiO2 
 PCOD9405878
Probable space group: P M M A
;
_chemical_formula_sum "Si O2"
_cell_formula_units_Z 44
_cell_length_a 9.563182
_cell_length_b 13.958388
_cell_length_c 16.457594
_cell_angle_alpha 90.000000
_cell_angle_beta 90.000000
_cell_angle_gamma 90.000000
_cell_volume 2196.868347
_symmetry_space_group_name_H-M "P M M A"
_symmetry_group_IT_number 51
_symmetry_cell_setting 'orthorhombic'
loop_
_space_group_symop_operation_xyz
x,y,z
1/2-x,-y,z
1/2+x,-y,-z
-x,y,-z
-x,-y,-z
1/2+x,y,-z
1/2-x,y,z
x,-y,z
loop_
_atom_site_type_symbol
_atom_site_label
_atom_site_fract_x
_atom_site_fract_y
_atom_site_fract_z
Si Si1 0.033038 0.701958 0.828345
Si Si2 0.583745 0.894255 0.358667
Si Si3 0.580041 0.500000 0.585839
Si Si4 0.250000 0.614422 0.949791
Si Si5 0.907374 0.681876 0.358592
Si Si6 0.584064 0.894556 0.809784
Si Si7 0.750000 0.613373 0.864273
O O1 0.999702 0.810614 0.853089
O O2 0.885918 0.650173 0.820276
O O3 0.119339 0.650436 0.897934
O O4 0.098872 0.697911 0.738977
O O5 0.750000 0.891940 0.336388
O O6 0.558470 0.787830 0.395732
O O7 0.482441 0.896365 0.280522
O O8 0.563549 0.000000 0.399715
O O9 0.750000 0.500000 0.583031
O O10 0.500000 0.500000 0.500000
O O11 0.518473 0.402221 0.625763
O O12 0.250000 0.500000 0.951313
O O13 0.250000 0.649176 0.042324
O O14 0.750000 0.653525 0.386032
O O15 0.750000 0.874169 0.805917
O O16 0.565179 0.000000 0.845536
O O17 0.750000 0.500000 0.866548
#
# Coordination Sequence:
#
# PCOD9405878 Si02
#       7
#     8   8   4   4   8   8   4
#     4  11  21  36  59  85 112 152 199 246 290 347
#     4   8  15  29  52  85 120 152 191 237 286 339
#     4  12  28  46  66  90 125 162 197 237 289 350
#     4  11  24  40  55  77 113 159 192 243 312 356
#     4  10  21  36  61  92 124 159 197 244 293 343
#     4   9  17  30  49  77 111 144 183 242 302 343
#     4  11  24  38  55  79 113 151 200 249 300 360
#
# _framework density 20.028510000000001
#
# number of rings (size 3 to 8) (size 9 to 14) (size 15 to 20)
#    0.000    2.000    1.818    1.909    5.091    2.182 
#    0.000    0.000    0.000    3.818    0.000    0.000 
#    0.000    0.000    0.000    0.000    0.000    0.000 
#
# Total GULP energy -245068.055494 kJ/mol
# GULP energy per Si atom -5569.728534 kJ/mol
# Density = 1.998292 g / cm^3
# Si number density = 20.028510 Si / 1000 Ang^3
#
#
#
# Elastic Constant Matrix: (Units=GPa)
#
#
# Indices 1 2 3 4 5 6 
#
# 1 111.9160 57.1875 10.7511 0.0000 0.0000 0.0000
# 2 57.1875 156.3370 20.9621 0.0000 0.0000 0.0000
# 3 10.7511 20.9621 37.4685 0.0000 0.0000 0.0000
# 4 0.0000 0.0000 0.0000 -58.5634 0.0000 0.0000
# 5 0.0000 0.0000 0.0000 0.0000 5.5578 0.0000
# 6 0.0000 0.0000 0.0000 0.0000 0.0000 28.8832
#
#
#
# Elastic Compliance Matrix: (Units=1/GPa)
#
#
# Indices 1 2 3 4 5 6 
#
# 1 0.011023 -0.003901 -0.000981 0.000000 0.000000 0.000000
# 2 -0.003901 0.008295 -0.003522 0.000000 0.000000 0.000000
# 3 -0.000981 -0.003522 0.028941 0.000000 0.000000 0.000000
# 4 0.000000 0.000000 0.000000 -0.017076 0.000000 0.000000
# 5 0.000000 0.000000 0.000000 0.000000 0.179927 0.000000
# 6 0.000000 0.000000 0.000000 0.000000 0.000000 0.034622
#
#
# Mechanical properties :
#
#
# Convention : Reuss Voigt Hill
#
# Bulk Modulus (GPa) = 31.79348 53.72478 42.75913
# Shear Modulus (GPa) = 18.31349 9.63025 13.97187
#
# Velocity S-wave (km/s) = 3.02714 2.19516 2.64408
# Velocity P-wave (km/s) = 5.30346 5.77125 5.54229
#
# Compressibility (1/GPa) = 0.03145299
#
# Stress axis : x y z
#
# Youngs Moduli (GPa) = 90.72273 120.54800 34.55338
#
# Poissons Ratio (x) = 0.47020 0.03388
# Poissons Ratio (y) = 0.35387 0.12169
# Poissons Ratio (z) = 0.08896 0.42454
#
# Static dielectric constant tensor:
#      x y z
#    x 2.087510 0.000000 0.000000 
#    y 0.000000 1.798000 0.000000 
#    z 0.000000 0.000000 1.675840 
# 
# From -- ./inp_files/27430.got.cif
#   From: 2010.05.17/outbox.cif.g08.bks.cpg/sg51_14_cif.got.tgz:27430.got - 2010.06.03 11:52:47.
