data_PCOD9405297
_publ_section_title
;
Structure prediction by ZEFSAII (Michael W. Deem and Ramdas Pophale) SiO2 
 PCOD9405297
Probable space group: P M M A
;
_chemical_formula_sum "Si O2"
_cell_formula_units_Z 40
_cell_length_a 7.430457
_cell_length_b 28.055279
_cell_length_c 9.120037
_cell_angle_alpha 90.000000
_cell_angle_beta 90.000000
_cell_angle_gamma 90.000000
_cell_volume 1901.195237
_symmetry_space_group_name_H-M "P M M A"
_symmetry_group_IT_number 51
_symmetry_cell_setting 'orthorhombic'
loop_
_space_group_symop_operation_xyz
x,y,z
1/2-x,-y,z
1/2+x,-y,-z
-x,y,-z
-x,-y,-z
1/2+x,y,-z
1/2-x,y,z
x,-y,z
loop_
_atom_site_type_symbol
_atom_site_label
_atom_site_fract_x
_atom_site_fract_y
_atom_site_fract_z
Si Si1 0.034599 0.500000 0.828070
Si Si2 0.534346 0.404705 0.326170
Si Si3 0.965630 0.198202 0.326429
Si Si4 0.534875 0.301341 0.324878
Si Si5 0.465624 0.896845 0.826436
Si Si6 0.965174 0.000000 0.175212
O O1 0.250000 0.500000 0.803947
O O2 0.963752 0.548554 0.754986
O O3 0.000000 0.500000 0.000000
O O4 0.500000 0.408872 0.500000
O O5 0.750000 0.403655 0.306557
O O6 0.465266 0.352838 0.272841
O O7 0.750000 0.198819 0.305057
O O8 0.034443 0.249931 0.271412
O O9 0.037280 0.150677 0.250007
O O10 0.000000 0.195311 0.500000
O O11 0.500000 0.301325 0.500000
O O12 0.750000 0.301297 0.302754
O O13 0.250000 0.897472 0.805043
O O14 0.534423 0.948575 0.771452
O O15 0.500000 0.893941 0.000000
O O16 0.750000 0.000000 0.196934
O O17 0.000000 0.000000 0.000000
#
# Coordination Sequence:
#
# PCOD9405297 Si02
#       6
#     4   8   8   8   8   4
#     4  10  21  34  46  64  92 122 147 174 214 260
#     4   9  17  30  49  70  88 110 145 184 216 250
#     4   9  17  29  45  65  89 116 143 173 213 258
#     4   8  14  26  44  64  86 111 140 175 212 250
#     4   9  17  29  45  64  85 111 144 180 216 254
#     4   8  14  26  43  60  80 108 142 178 213 250
#
# _framework density 21.039397000000001
#
# number of rings (size 3 to 8) (size 9 to 14) (size 15 to 20)
#    0.000    3.200    0.000    0.300    0.000    1.600 
#    0.000    1.500    0.000    0.000    0.000    0.000 
#    0.000    0.000    0.000    0.000    0.000    0.000 
#
# Total GULP energy -222776.177953 kJ/mol
# GULP energy per Si atom -5569.404449 kJ/mol
# Density = 2.099151 g / cm^3
# Si number density = 21.039397 Si / 1000 Ang^3
#
#
#
# Elastic Constant Matrix: (Units=GPa)
#
#
# Indices 1 2 3 4 5 6 
#
# 1 73.8843 16.8780 -7.0469 0.0000 0.0000 0.0000
# 2 16.8780 323.2496 76.1816 0.0000 0.0000 0.0000
# 3 -7.0469 76.1816 36.9666 0.0000 0.0000 0.0000
# 4 0.0000 0.0000 0.0000 -159.8101 0.0000 0.0000
# 5 0.0000 0.0000 0.0000 0.0000 14.6549 0.0000
# 6 0.0000 0.0000 0.0000 0.0000 0.0000 17.6420
#
#
#
# Elastic Compliance Matrix: (Units=1/GPa)
#
#
# Indices 1 2 3 4 5 6 
#
# 1 0.015013 -0.002835 0.008705 0.000000 0.000000 0.000000
# 2 -0.002835 0.006550 -0.014040 0.000000 0.000000 0.000000
# 3 0.008705 -0.014040 0.057645 0.000000 0.000000 0.000000
# 4 0.000000 0.000000 0.000000 -0.006257 0.000000 0.000000
# 5 0.000000 0.000000 0.000000 0.000000 0.068236 0.000000
# 6 0.000000 0.000000 0.000000 0.000000 0.000000 0.056683
#
#
# Mechanical properties :
#
#
# Convention : Reuss Voigt Hill
#
# Bulk Modulus (GPa) = 15.90648 67.34733 41.62690
# Shear Modulus (GPa) = 21.26161 -2.29678 9.48242
#
# Velocity S-wave (km/s) = 3.18238 -1.04596 2.12527
# Velocity P-wave (km/s) = 4.59131 5.53361 5.08434
#
# Compressibility (1/GPa) = 0.06286747
#
# Stress axis : x y z
#
# Youngs Moduli (GPa) = 66.61038 152.66089 17.34769
#
# Poissons Ratio (x) = 0.43286 -0.15102
# Poissons Ratio (y) = 0.18887 0.24356
# Poissons Ratio (z) = -0.57986 2.14334
#
# Static dielectric constant tensor:
#      x y z
#    x 1.757190 0.000000 0.000000 
#    y 0.000000 1.863720 0.000000 
#    z 0.000000 0.000000 1.672130 
# 
# From -- ./inp_files/5548.got.cif
#   From: 2010.05.17/outbox.cif.g08.bks.cpg/sg51_3_cif.got.tgz:5548.got - 2010.06.03 11:52:47.
