data_PCOD9405655
_publ_section_title
;
Structure prediction by ZEFSAII (Michael W. Deem and Ramdas Pophale) SiO2 
 PCOD9405655
Probable space group: P M M A
;
_chemical_formula_sum "Si O2"
_cell_formula_units_Z 48
_cell_length_a 8.399873
_cell_length_b 31.743420
_cell_length_c 9.362714
_cell_angle_alpha 90.000000
_cell_angle_beta 90.000000
_cell_angle_gamma 90.000000
_cell_volume 2496.480583
_symmetry_space_group_name_H-M "P M M A"
_symmetry_group_IT_number 51
_symmetry_cell_setting 'orthorhombic'
loop_
_space_group_symop_operation_xyz
x,y,z
1/2-x,-y,z
1/2+x,-y,-z
-x,y,-z
-x,-y,-z
1/2+x,y,-z
1/2-x,y,z
x,-y,z
loop_
_atom_site_type_symbol
_atom_site_label
_atom_site_fract_x
_atom_site_fract_y
_atom_site_fract_z
Si Si1 0.057665 0.547594 0.839461
Si Si2 0.440879 0.627706 0.661226
Si Si3 0.440953 0.707885 0.162221
Si Si4 0.057653 0.209780 0.337732
Si Si5 0.442370 0.047484 0.339085
Si Si6 0.942498 0.872191 0.838598
O O1 0.250000 0.547759 0.840266
O O2 0.004521 0.500000 0.802573
O O3 0.002835 0.583739 0.731595
O O4 0.000000 0.556877 0.000000
O O5 0.500000 0.632236 0.500000
O O6 0.250000 0.627761 0.661128
O O7 0.499397 0.666278 0.757730
O O8 0.250000 0.707650 0.161726
O O9 0.495759 0.749143 0.249651
O O10 0.500000 0.709210 0.000000
O O11 0.250000 0.209780 0.338645
O O12 0.004127 0.167407 0.257023
O O13 0.000000 0.211025 0.500000
O O14 0.500000 0.056036 0.500000
O O15 0.250000 0.047790 0.339747
O O16 0.497572 0.084116 0.233257
O O17 0.494963 0.000000 0.299944
O O18 0.750000 0.872225 0.838569
O O19 0.000000 0.868065 0.000000
#
# Coordination Sequence:
#
# PCOD9405655 Si02
#       6
#     8   8   8   8   8   8
#     4   9  19  36  57  81 109 142 181 224 270 321
#     4  11  23  38  57  82 113 147 184 226 272 322
#     4  11  23  39  59  83 111 143 181 223 270 322
#     4  10  22  38  57  81 108 140 178 221 267 317
#     4   9  18  33  53  77 105 137 175 219 265 315
#     4  10  21  36  53  77 108 140 177 219 264 315
#
# _framework density 19.227066000000001
#
# number of rings (size 3 to 8) (size 9 to 14) (size 15 to 20)
#    0.000    2.000    0.000    3.000    0.000    7.333 
#    0.000    0.000    0.000    0.000    0.000    0.000 
#    0.000    0.000    0.000    0.000    0.000    0.000 
#
# Total GULP energy -268156.684964 kJ/mol
# GULP energy per Si atom -5586.597603 kJ/mol
# Density = 1.918330 g / cm^3
# Si number density = 19.227066 Si / 1000 Ang^3
#
#
#
# Elastic Constant Matrix: (Units=GPa)
#
#
# Indices 1 2 3 4 5 6 
#
# 1 16.8056 29.0093 22.5368 0.0000 0.0000 0.0000
# 2 29.0093 171.9499 130.0270 0.0000 0.0000 0.0000
# 3 22.5368 130.0270 193.1570 0.0000 0.0000 0.0000
# 4 0.0000 0.0000 0.0000 44.2856 0.0000 0.0000
# 5 0.0000 0.0000 0.0000 0.0000 38.0161 0.0000
# 6 0.0000 0.0000 0.0000 0.0000 0.0000 297.8873
#
#
#
# Elastic Compliance Matrix: (Units=1/GPa)
#
#
# Indices 1 2 3 4 5 6 
#
# 1 0.083979 -0.013766 -0.000531 0.000000 0.000000 0.000000
# 2 -0.013766 0.014102 -0.007887 0.000000 0.000000 0.000000
# 3 -0.000531 -0.007887 0.010548 0.000000 0.000000 0.000000
# 4 0.000000 0.000000 0.000000 0.022581 0.000000 0.000000
# 5 0.000000 0.000000 0.000000 0.000000 0.026305 0.000000
# 6 0.000000 0.000000 0.000000 0.000000 0.000000 0.003357
#
#
# Mechanical properties :
#
#
# Convention : Reuss Voigt Hill
#
# Bulk Modulus (GPa) = 15.56163 82.78431 49.17297
# Shear Modulus (GPa) = 22.05939 89.39378 55.72659
#
# Velocity S-wave (km/s) = 3.39087 6.82603 5.38946
# Velocity P-wave (km/s) = 4.84168 10.26040 8.02240
#
# Compressibility (1/GPa) = 0.06426062
#
# Stress axis : x y z
#
# Youngs Moduli (GPa) = 11.90774 70.91148 94.80154
#
# Poissons Ratio (x) = 0.97617 0.05039
# Poissons Ratio (y) = 0.16392 0.74769
# Poissons Ratio (z) = 0.00633 0.55927
#
# Static dielectric constant tensor:
#      x y z
#    x 1.667740 0.000000 0.000000 
#    y 0.000000 1.682840 0.000000 
#    z 0.000000 0.000000 1.610320 
# 
# From -- ./inp_files/5964.got.cif
#   From: 2010.05.17/outbox.cif.g08.bks.cpg/sg51_3_cif.got.tgz:5964.got - 2010.06.03 11:52:47.
