data_PCOD9405958
_publ_section_title
;
Structure prediction by ZEFSAII (Michael W. Deem and Ramdas Pophale) SiO2 
 PCOD9405958
Probable space group: P M M A
;
_chemical_formula_sum "Si O2"
_cell_formula_units_Z 36
_cell_length_a 9.339459
_cell_length_b 10.714982
_cell_length_c 19.342510
_cell_angle_alpha 90.000000
_cell_angle_beta 90.000000
_cell_angle_gamma 90.000000
_cell_volume 1935.646273
_symmetry_space_group_name_H-M "P M M A"
_symmetry_group_IT_number 51
_symmetry_cell_setting 'orthorhombic'
loop_
_space_group_symop_operation_xyz
x,y,z
1/2-x,-y,z
1/2+x,-y,-z
-x,y,-z
-x,-y,-z
1/2+x,y,-z
1/2-x,y,z
x,-y,z
loop_
_atom_site_type_symbol
_atom_site_label
_atom_site_fract_x
_atom_site_fract_y
_atom_site_fract_z
Si Si1 0.589557 0.647219 0.565695
Si Si2 0.084949 0.000000 0.570261
Si Si3 0.080427 0.773186 0.675740
Si Si4 0.921306 0.358124 0.926981
Si Si5 0.078324 0.145989 0.184967
O O1 0.500000 0.697068 0.500000
O O2 0.750000 0.702219 0.568537
O O3 0.604164 0.500000 0.553774
O O4 0.505240 0.664202 0.637281
O O5 0.059204 0.883109 0.620046
O O6 0.000000 0.000000 0.500000
O O7 0.250000 0.000000 0.550754
O O8 0.250000 0.749417 0.683575
O O9 0.009023 0.815011 0.747064
O O10 0.750000 0.353085 0.937544
O O11 0.954855 0.500000 0.901310
O O12 0.958350 0.246384 0.874588
O O13 0.000000 0.342165 0.000000
O O14 0.250000 0.155521 0.197685
O O15 0.048620 0.000000 0.167630
#
# Coordination Sequence:
#
# PCOD9405958 Si02
#       5
#     8   4   8   8   8
#     4  10  21  37  56  79 108 143 186 236 289 345
#     4  10  22  36  52  76 105 140 183 232 281 330
#     4  11  22  37  55  79 111 146 188 235 285 341
#     4   9  19  37  60  86 116 149 188 234 284 343
#     4  10  21  37  57  82 115 155 194 235 287 346
#
# _framework density 18.598438999999999
#
# number of rings (size 3 to 8) (size 9 to 14) (size 15 to 20)
#    0.000    2.000    1.111    2.000    0.000    7.111 
#    0.000    2.222    0.000    0.000    0.000    0.000 
#    0.000    0.000    0.000    0.000    0.000    0.000 
#
# Total GULP energy -200785.317852 kJ/mol
# GULP energy per Si atom -5577.369940 kJ/mol
# Density = 1.855611 g / cm^3
# Si number density = 18.598439 Si / 1000 Ang^3
#
#
#
# Elastic Constant Matrix: (Units=GPa)
#
#
# Indices 1 2 3 4 5 6 
#
# 1 76.0433 55.0398 72.9253 0.0000 0.0000 0.0000
# 2 55.0398 92.6287 76.1234 0.0000 0.0000 0.0000
# 3 72.9253 76.1234 139.0025 0.0000 0.0000 0.0000
# 4 0.0000 0.0000 0.0000 44.2980 0.0000 0.0000
# 5 0.0000 0.0000 0.0000 0.0000 38.7448 0.0000
# 6 0.0000 0.0000 0.0000 0.0000 0.0000 12.9819
#
#
#
# Elastic Compliance Matrix: (Units=1/GPa)
#
#
# Indices 1 2 3 4 5 6 
#
# 1 0.030024 -0.008902 -0.010877 0.000000 0.000000 0.000000
# 2 -0.008902 0.022270 -0.007526 0.000000 0.000000 0.000000
# 3 -0.010877 -0.007526 0.017022 0.000000 0.000000 0.000000
# 4 0.000000 0.000000 0.000000 0.022574 0.000000 0.000000
# 5 0.000000 0.000000 0.000000 0.000000 0.025810 0.000000
# 6 0.000000 0.000000 0.000000 0.000000 0.000000 0.077031
#
#
# Mechanical properties :
#
#
# Convention : Reuss Voigt Hill
#
# Bulk Modulus (GPa) = 67.99244 79.53905 73.76575
# Shear Modulus (GPa) = 19.66631 26.11067 22.88849
#
# Velocity S-wave (km/s) = 3.25532 3.75095 3.51189
# Velocity P-wave (km/s) = 7.12510 7.84977 7.49620
#
# Compressibility (1/GPa) = 0.01470752
#
# Stress axis : x y z
#
# Youngs Moduli (GPa) = 33.30653 44.90353 58.74791
#
# Poissons Ratio (x) = 0.39971 0.63899
# Poissons Ratio (y) = 0.29648 0.44213
# Poissons Ratio (z) = 0.36227 0.33794
#
# Static dielectric constant tensor:
#      x y z
#    x 1.639870 0.000000 0.000000 
#    y 0.000000 1.687760 0.000000 
#    z 0.000000 0.000000 1.589020 
# 
# From -- ./inp_files/27047.got.cif
#   From: 2010.05.17/outbox.cif.g08.bks.cpg/sg51_14_cif.got.tgz:27047.got - 2010.06.03 11:52:47.
