data_PCOD9405023
_publ_section_title
;
Structure prediction by ZEFSAII (Michael W. Deem and Ramdas Pophale) SiO2 
 PCOD9405023
Probable space group: P M M A
;
_chemical_formula_sum "Si O2"
_cell_formula_units_Z 56
_cell_length_a 24.062846
_cell_length_b 7.597004
_cell_length_c 12.304816
_cell_angle_alpha 90.000000
_cell_angle_beta 90.000000
_cell_angle_gamma 90.000000
_cell_volume 2249.388500
_symmetry_space_group_name_H-M "P M M A"
_symmetry_group_IT_number 51
_symmetry_cell_setting 'orthorhombic'
loop_
_space_group_symop_operation_xyz
x,y,z
1/2-x,-y,z
1/2+x,-y,-z
-x,y,-z
-x,-y,-z
1/2+x,y,-z
1/2-x,y,z
x,-y,z
loop_
_atom_site_type_symbol
_atom_site_label
_atom_site_fract_x
_atom_site_fract_y
_atom_site_fract_z
Si Si1 0.167130 0.798123 0.639681
Si Si2 0.423774 0.715554 0.310491
Si Si3 0.809239 0.701211 0.595477
Si Si4 0.955038 0.794274 0.087507
Si Si5 0.250000 0.212515 0.824599
Si Si6 0.956938 0.698017 0.331729
Si Si7 0.372114 0.712980 0.087570
Si Si8 0.750000 0.702580 0.924437
O O1 0.188432 0.698049 0.534574
O O2 0.196535 0.737491 0.750863
O O3 0.100631 0.789401 0.640960
O O4 0.184236 0.000000 0.625451
O O5 0.426343 0.500000 0.315877
O O6 0.367878 0.779458 0.368408
O O7 0.482534 0.776177 0.358619
O O8 0.413447 0.764765 0.184887
O O9 0.750000 0.780931 0.629402
O O10 0.809616 0.500000 0.636905
O O11 0.957501 0.694496 0.200287
O O12 0.965776 0.000000 0.110100
O O13 0.896311 0.778317 0.026138
O O14 0.000000 0.728561 0.000000
O O15 0.250000 0.292447 0.943995
O O16 0.250000 0.000000 0.839176
O O17 0.953182 0.500000 0.376787
O O18 0.370716 0.500000 0.083678
O O19 0.309591 0.777908 0.110200
O O20 0.750000 0.500000 0.887608
#
# Coordination Sequence:
#
# PCOD9405023 Si02
#       8
#     8   8   8   8   4   8   8   4
#     4  11  23  41  63  87 117 153 192 244 306 358
#     4   9  20  37  59  87 120 154 193 242 294 343
#     4  10  21  39  65  92 115 150 198 245 290 348
#     4  11  22  36  56  84 120 159 199 241 286 343
#     4  10  22  40  59  78 112 154 191 234 293 356
#     4  11  22  38  61  89 119 156 199 242 294 355
#     4  10  20  37  58  85 119 158 198 239 290 345
#     4  10  22  34  55  88 118 146 189 244 285 338
#
# _framework density 24.895655000000001
#
# number of rings (size 3 to 8) (size 9 to 14) (size 15 to 20)
#    0.000    1.714    2.143    2.143    1.000    5.143 
#    0.000    5.000    0.000    0.000    0.000    0.000 
#    0.000    0.000    0.000    0.000    0.000    0.000 
#
# Total GULP energy -313216.373610 kJ/mol
# GULP energy per Si atom -5593.149529 kJ/mol
# Density = 2.483899 g / cm^3
# Si number density = 24.895655 Si / 1000 Ang^3
#
#
#
# Elastic Constant Matrix: (Units=GPa)
#
#
# Indices 1 2 3 4 5 6 
#
# 1 219.3359 5.9638 15.2484 0.0000 0.0000 0.0000
# 2 5.9638 67.1869 -3.0758 0.0000 0.0000 0.0000
# 3 15.2484 -3.0758 54.3059 0.0000 0.0000 0.0000
# 4 0.0000 0.0000 0.0000 52.8604 0.0000 0.0000
# 5 0.0000 0.0000 0.0000 0.0000 40.2287 0.0000
# 6 0.0000 0.0000 0.0000 0.0000 0.0000 14.8848
#
#
#
# Elastic Compliance Matrix: (Units=1/GPa)
#
#
# Indices 1 2 3 4 5 6 
#
# 1 0.004665 -0.000475 -0.001337 0.000000 0.000000 0.000000
# 2 -0.000475 0.014971 0.000981 0.000000 0.000000 0.000000
# 3 -0.001337 0.000981 0.018845 0.000000 0.000000 0.000000
# 4 0.000000 0.000000 0.000000 0.018918 0.000000 0.000000
# 5 0.000000 0.000000 0.000000 0.000000 0.024858 0.000000
# 6 0.000000 0.000000 0.000000 0.000000 0.000000 0.067183
#
#
# Mechanical properties :
#
#
# Convention : Reuss Voigt Hill
#
# Bulk Modulus (GPa) = 27.15933 41.90018 34.52975
# Shear Modulus (GPa) = 30.60457 43.10758 36.85608
#
# Velocity S-wave (km/s) = 3.50996 4.16568 3.85180
# Velocity P-wave (km/s) = 5.23062 6.32488 5.80359
#
# Compressibility (1/GPa) = 0.03681976
#
# Stress axis : x y z
#
# Youngs Moduli (GPa) = 214.35876 66.79595 53.06403
#
# Poissons Ratio (x) = 0.03175 0.07094
# Poissons Ratio (y) = 0.10188 -0.05208
# Poissons Ratio (z) = 0.28656 -0.06555
#
# Static dielectric constant tensor:
#      x y z
#    x 2.024910 0.000000 0.000000 
#    y 0.000000 1.916900 0.000000 
#    z 0.000000 0.000000 1.937180 
# 
# From -- ./inp_files/25821.got.cif
#   From: 2010.05.17/outbox.cif.g08.bks.cpg/sg51_13_cif.got.tgz:25821.got - 2010.06.03 11:52:47.
