data_PCOD9405932
_publ_section_title
;
Structure prediction by ZEFSAII (Michael W. Deem and Ramdas Pophale) SiO2 
 PCOD9405932
Probable space group: P M M A
;
_chemical_formula_sum "Si O2"
_cell_formula_units_Z 48
_cell_length_a 9.212399
_cell_length_b 7.472938
_cell_length_c 35.738015
_cell_angle_alpha 90.000000
_cell_angle_beta 90.000000
_cell_angle_gamma 90.000000
_cell_volume 2460.336703
_symmetry_space_group_name_H-M "P M M A"
_symmetry_group_IT_number 51
_symmetry_cell_setting 'orthorhombic'
loop_
_space_group_symop_operation_xyz
x,y,z
1/2-x,-y,z
1/2+x,-y,-z
-x,y,-z
-x,-y,-z
1/2+x,y,-z
1/2-x,y,z
x,-y,z
loop_
_atom_site_type_symbol
_atom_site_label
_atom_site_fract_x
_atom_site_fract_y
_atom_site_fract_z
Si Si1 0.075550 0.000000 0.099734
Si Si2 0.923255 0.292126 0.961799
Si Si3 0.415972 0.286261 0.693591
Si Si4 0.921729 0.715186 0.768566
Si Si5 0.083907 0.218981 0.462717
Si Si6 0.575728 0.000000 0.179600
Si Si7 0.414890 0.213640 0.610268
O O1 0.041077 0.170623 0.073688
O O2 0.985816 0.000000 0.137639
O O3 0.250000 0.000000 0.107488
O O4 0.750000 0.280113 0.967291
O O5 0.961730 0.500000 0.955459
O O6 0.000000 0.232205 0.000000
O O7 0.250000 0.215459 0.696635
O O8 0.407100 0.500000 0.696263
O O9 0.515938 0.228801 0.727918
O O10 0.472845 0.245930 0.652022
O O11 0.750000 0.752411 0.771268
O O12 0.941367 0.500000 0.772857
O O13 0.010477 0.827454 0.798956
O O14 0.250000 0.275655 0.464130
O O15 0.000000 0.275364 0.500000
O O16 0.007710 0.280649 0.424543
O O17 0.082368 0.000000 0.462542
O O18 0.750000 0.000000 0.180815
O O19 0.250000 0.284784 0.609084
O O20 0.406468 0.000000 0.605867
#
# Coordination Sequence:
#
# PCOD9405932 Si02
#       7
#     4   8   8   8   8   4   8
#     4  10  21  37  55  80 116 154 196 243 295 350
#     4   9  18  33  55  83 115 153 195 241 293 347
#     4   9  18  33  53  77 105 137 172 214 267 325
#     4  10  22  41  63  86 114 150 192 239 293 353
#     4   9  16  26  41  62  90 123 158 198 246 300
#     4  12  26  41  61  88 119 156 201 249 300 356
#     4   9  17  28  44  69  98 127 161 202 251 307
#
# _framework density 19.509523999999999
#
# number of rings (size 3 to 8) (size 9 to 14) (size 15 to 20)
#    0.000    2.500    0.000    2.000    1.167    5.000 
#    0.000    1.667    0.000    0.500    0.000    0.000 
#    0.000    0.000    0.000    0.000    0.000    0.000 
#
# Total GULP energy -267959.174621 kJ/mol
# GULP energy per Si atom -5582.482805 kJ/mol
# Density = 1.946512 g / cm^3
# Si number density = 19.509524 Si / 1000 Ang^3
#
#
#
# Elastic Constant Matrix: (Units=GPa)
#
#
# Indices 1 2 3 4 5 6 
#
# 1 118.6143 42.8691 111.7372 0.0000 0.0000 0.0000
# 2 42.8691 74.4287 53.8703 0.0000 0.0000 0.0000
# 3 111.7372 53.8703 211.1001 0.0000 0.0000 0.0000
# 4 0.0000 0.0000 0.0000 187.5480 0.0000 0.0000
# 5 0.0000 0.0000 0.0000 0.0000 39.5830 0.0000
# 6 0.0000 0.0000 0.0000 0.0000 0.0000 13.1331
#
#
#
# Elastic Compliance Matrix: (Units=1/GPa)
#
#
# Indices 1 2 3 4 5 6 
#
# 1 0.017833 -0.004219 -0.008363 0.000000 0.000000 0.000000
# 2 -0.004219 0.017477 -0.002227 0.000000 0.000000 0.000000
# 3 -0.008363 -0.002227 0.009732 0.000000 0.000000 0.000000
# 4 0.000000 0.000000 0.000000 0.005332 0.000000 0.000000
# 5 0.000000 0.000000 0.000000 0.000000 0.025263 0.000000
# 6 0.000000 0.000000 0.000000 0.000000 0.000000 0.076144
#
#
# Mechanical properties :
#
#
# Convention : Reuss Voigt Hill
#
# Bulk Modulus (GPa) = 64.82729 91.23293 78.03011
# Shear Modulus (GPa) = 26.80381 61.09724 43.95053
#
# Velocity S-wave (km/s) = 3.71061 5.60220 4.75149
# Velocity P-wave (km/s) = 7.18741 9.41865 8.37764
#
# Compressibility (1/GPa) = 0.01542560
#
# Stress axis : x y z
#
# Youngs Moduli (GPa) = 56.07484 57.21662 102.75501
#
# Poissons Ratio (x) = 0.24138 0.85932
# Poissons Ratio (y) = 0.23656 0.22884
# Poissons Ratio (z) = 0.46894 0.12742
#
# Static dielectric constant tensor:
#      x y z
#    x 1.661180 0.000000 0.000000 
#    y 0.000000 1.732210 0.000000 
#    z 0.000000 0.000000 1.652610 
# 
# From -- ./inp_files/37215.got.cif
#   From: 2010.05.17/outbox.cif.g08.bks.cpg/sg51_19_cif.got.tgz:37215.got - 2010.06.03 11:52:47.
