data_PCOD9405342
_publ_section_title
;
Structure prediction by ZEFSAII (Michael W. Deem and Ramdas Pophale) SiO2 
 PCOD9405342
Probable space group: P M M A
;
_chemical_formula_sum "Si O2"
_cell_formula_units_Z 40
_cell_length_a 27.340704
_cell_length_b 13.754127
_cell_length_c 5.165394
_cell_angle_alpha 90.000000
_cell_angle_beta 90.000000
_cell_angle_gamma 90.000000
_cell_volume 1942.433578
_symmetry_space_group_name_H-M "P M M A"
_symmetry_group_IT_number 51
_symmetry_cell_setting 'orthorhombic'
loop_
_space_group_symop_operation_xyz
x,y,z
1/2-x,-y,z
1/2+x,-y,-z
-x,y,-z
-x,-y,-z
1/2+x,y,-z
1/2-x,y,z
x,-y,z
loop_
_atom_site_type_symbol
_atom_site_label
_atom_site_fract_x
_atom_site_fract_y
_atom_site_fract_z
Si Si1 0.802414 0.614422 0.012365
Si Si2 0.367272 0.184972 0.317452
Si Si3 0.860211 0.387131 0.507748
Si Si4 0.191337 0.884519 0.827139
Si Si5 0.973885 0.114883 0.750428
O O1 0.750000 0.660396 0.068795
O O2 0.798491 0.500000 0.070498
O O3 0.844020 0.640756 0.218432
O O4 0.814578 0.617998 0.708818
O O5 0.387869 0.293864 0.377601
O O6 0.337477 0.147557 0.568060
O O7 0.415855 0.125198 0.256941
O O8 0.330675 0.173679 0.073340
O O9 0.878186 0.500000 0.518470
O O10 0.250000 0.872911 0.799150
O O11 0.182464 0.000000 0.871220
O O12 0.000000 0.157747 0.500000
O O13 0.984733 0.000000 0.751289
O O14 0.000000 0.158548 0.000000
#
# Coordination Sequence:
#
# PCOD9405342 Si02
#       5
#     8   8   8   8   8
#     4   9  17  30  47  68 100 143 189 235 275 309
#     4  12  23  38  62  86 116 157 194 233 288 344
#     4  10  21  34  50  76 109 146 187 231 276 325
#     4  11  24  40  58  85 121 158 196 234 278 345
#     4  10  21  38  61  87 111 137 180 241 300 347
#
# _framework density 20.592722999999999
#
# number of rings (size 3 to 8) (size 9 to 14) (size 15 to 20)
#    0.000    1.600    0.000    5.400    0.000   10.400 
#    0.000    0.000    0.000    1.200    0.000    0.000 
#    0.000    0.000    0.000    0.000    0.000    0.000 
#
# Total GULP energy -222854.678525 kJ/mol
# GULP energy per Si atom -5571.366963 kJ/mol
# Density = 2.054585 g / cm^3
# Si number density = 20.592723 Si / 1000 Ang^3
#
#
#
# Elastic Constant Matrix: (Units=GPa)
#
#
# Indices 1 2 3 4 5 6 
#
# 1 69.0703 -17.6897 41.6105 0.0000 0.0000 0.0000
# 2 -17.6897 84.2414 9.6449 0.0000 0.0000 0.0000
# 3 41.6105 9.6449 105.5864 0.0000 0.0000 0.0000
# 4 0.0000 0.0000 0.0000 9.7306 0.0000 0.0000
# 5 0.0000 0.0000 0.0000 0.0000 23.1614 0.0000
# 6 0.0000 0.0000 0.0000 0.0000 0.0000 0.7156
#
#
#
# Elastic Compliance Matrix: (Units=1/GPa)
#
#
# Indices 1 2 3 4 5 6 
#
# 1 0.021217 0.005470 -0.008861 0.000000 0.000000 0.000000
# 2 0.005470 0.013406 -0.003380 0.000000 0.000000 0.000000
# 3 -0.008861 -0.003380 0.013272 0.000000 0.000000 0.000000
# 4 0.000000 0.000000 0.000000 0.102768 0.000000 0.000000
# 5 0.000000 0.000000 0.000000 0.000000 0.043175 0.000000
# 6 0.000000 0.000000 0.000000 0.000000 0.000000 1.397405
#
#
# Mechanical properties :
#
#
# Convention : Reuss Voigt Hill
#
# Bulk Modulus (GPa) = 29.11018 36.22551 32.66785
# Shear Modulus (GPa) = 3.09360 21.74368 12.41864
#
# Velocity S-wave (km/s) = 1.22701 3.25297 2.45839
# Velocity P-wave (km/s) = 4.02172 5.63371 4.89454
#
# Compressibility (1/GPa) = 0.03435224
#
# Stress axis : x y z
#
# Youngs Moduli (GPa) = 47.13162 74.59200 75.34789
#
# Poissons Ratio (x) = -0.40801 0.66767
# Poissons Ratio (y) = -0.25780 0.25469
# Poissons Ratio (z) = 0.41764 0.25214
#
# Static dielectric constant tensor:
#      x y z
#    x 1.697150 0.000000 0.000000 
#    y 0.000000 1.853620 0.000000 
#    z 0.000000 0.000000 1.720090 
# 
# From -- ./inp_files/3005.got.cif
#   From: 2010.05.17/outbox.cif.g08.bks.cpg/sg51_2_cif.got.tgz:3005.got - 2010.06.03 11:52:47.
