data_PCOD9405575
_publ_section_title
;
Structure prediction by ZEFSAII (Michael W. Deem and Ramdas Pophale) SiO2 
 PCOD9405575
Probable space group: P M M A
;
_chemical_formula_sum "Si O2"
_cell_formula_units_Z 48
_cell_length_a 9.058880
_cell_length_b 14.213768
_cell_length_c 21.616975
_cell_angle_alpha 90.000000
_cell_angle_beta 90.000000
_cell_angle_gamma 90.000000
_cell_volume 2783.419398
_symmetry_space_group_name_H-M "P M M A"
_symmetry_group_IT_number 51
_symmetry_cell_setting 'orthorhombic'
loop_
_space_group_symop_operation_xyz
x,y,z
1/2-x,-y,z
1/2+x,-y,-z
-x,y,-z
-x,-y,-z
1/2+x,y,-z
1/2-x,y,z
x,-y,z
loop_
_atom_site_type_symbol
_atom_site_label
_atom_site_fract_x
_atom_site_fract_y
_atom_site_fract_z
Si Si1 0.925329 0.612537 0.067155
Si Si2 0.927108 0.296934 0.811468
Si Si3 0.419122 0.614766 0.562572
Si Si4 0.074616 0.893419 0.813524
Si Si5 0.081691 0.612429 0.314299
Si Si6 0.584501 0.110724 0.942723
O O1 0.750000 0.633166 0.064212
O O2 0.943112 0.500000 0.079789
O O3 0.998965 0.670069 0.123944
O O4 0.000000 0.629201 0.000000
O O5 0.750000 0.300160 0.818719
O O6 0.972877 0.362855 0.754181
O O7 0.981301 0.194019 0.788921
O O8 0.500000 0.645476 0.500000
O O9 0.250000 0.643162 0.560105
O O10 0.424483 0.500000 0.562847
O O11 0.491263 0.647648 0.626681
O O12 0.250000 0.879338 0.807316
O O13 0.024183 0.888447 0.884947
O O14 0.039108 0.000000 0.791813
O O15 0.250000 0.647288 0.319132
O O16 0.084569 0.500000 0.319007
O O17 0.750000 0.148742 0.930814
O O18 0.605011 0.000000 0.956597
O O19 0.500000 0.155849 0.000000
#
# Coordination Sequence:
#
# PCOD9405575 Si02
#       6
#     8   8   8   8   8   8
#     4  10  21  37  56  76  99 128 164 207 252 299
#     4  11  22  35  53  75  99 128 164 207 253 301
#     4   9  16  26  43  68  99 135 170 200 231 272
#     4  10  21  36  51  67  90 120 155 198 247 298
#     4   9  18  32  49  71 101 134 165 198 237 282
#     4   9  16  27  44  64  84 106 135 174 224 283
#
# _framework density 17.244976000000001
#
# number of rings (size 3 to 8) (size 9 to 14) (size 15 to 20)
#    0.000    2.333    0.000    3.000    0.000    8.667 
#    0.000    5.000    0.000    0.000    0.000    0.000 
#    0.000    0.667    0.000    2.167    0.000    3.167 
#
# Total GULP energy -267414.292652 kJ/mol
# GULP energy per Si atom -5571.131097 kJ/mol
# Density = 1.720573 g / cm^3
# Si number density = 17.244976 Si / 1000 Ang^3
#
#
#
# Elastic Constant Matrix: (Units=GPa)
#
#
# Indices 1 2 3 4 5 6 
#
# 1 84.9396 28.3912 56.2354 0.0000 0.0000 0.0000
# 2 28.3912 51.2264 17.4874 0.0000 0.0000 0.0000
# 3 56.2354 17.4874 107.6417 0.0000 0.0000 0.0000
# 4 0.0000 0.0000 0.0000 -2.7710 0.0000 0.0000
# 5 0.0000 0.0000 0.0000 0.0000 25.1529 0.0000
# 6 0.0000 0.0000 0.0000 0.0000 0.0000 17.0496
#
#
#
# Elastic Compliance Matrix: (Units=1/GPa)
#
#
# Indices 1 2 3 4 5 6 
#
# 1 0.020878 -0.008308 -0.009557 0.000000 0.000000 0.000000
# 2 -0.008308 0.023974 0.000446 0.000000 0.000000 0.000000
# 3 -0.009557 0.000446 0.014211 0.000000 0.000000 0.000000
# 4 0.000000 0.000000 0.000000 -0.360879 0.000000 0.000000
# 5 0.000000 0.000000 0.000000 0.000000 0.039757 0.000000
# 6 0.000000 0.000000 0.000000 0.000000 0.000000 0.058652
#
#
# Mechanical properties :
#
#
# Convention : Reuss Voigt Hill
#
# Bulk Modulus (GPa) = 41.28439 49.78176 45.53307
# Shear Modulus (GPa) = -31.15389 17.33254 -6.91068
#
# Velocity S-wave (km/s) = -4.25496 3.17374 -2.00401
# Velocity P-wave (km/s) = 0.38430 6.50847 4.59415
#
# Compressibility (1/GPa) = 0.02422223
#
# Stress axis : x y z
#
# Youngs Moduli (GPa) = 47.89767 41.71220 70.36919
#
# Poissons Ratio (x) = 0.34656 0.67255
# Poissons Ratio (y) = 0.39796 -0.03137
# Poissons Ratio (z) = 0.45778 -0.01860
#
# Static dielectric constant tensor:
#      x y z
#    x 1.612320 0.000000 0.000000 
#    y 0.000000 1.646160 0.000000 
#    z 0.000000 0.000000 1.609050 
# 
# From -- ./inp_files/27587.got.cif
#   From: 2010.05.17/outbox.cif.g08.bks.cpg/sg51_14_cif.got.tgz:27587.got - 2010.06.03 11:52:47.
