data_PCOD9405966
_publ_section_title
;
Structure prediction by ZEFSAII (Michael W. Deem and Ramdas Pophale) SiO2 
 PCOD9405966
Probable space group: P M M A
;
_chemical_formula_sum "Si O2"
_cell_formula_units_Z 32
_cell_length_a 8.551750
_cell_length_b 14.125548
_cell_length_c 11.497657
_cell_angle_alpha 90.000000
_cell_angle_beta 90.000000
_cell_angle_gamma 90.000000
_cell_volume 1388.895754
_symmetry_space_group_name_H-M "P M M A"
_symmetry_group_IT_number 51
_symmetry_cell_setting 'orthorhombic'
loop_
_space_group_symop_operation_xyz
x,y,z
1/2-x,-y,z
1/2+x,-y,-z
-x,y,-z
-x,-y,-z
1/2+x,y,-z
1/2-x,y,z
x,-y,z
loop_
_atom_site_type_symbol
_atom_site_label
_atom_site_fract_x
_atom_site_fract_y
_atom_site_fract_z
Si Si1 0.075588 0.388048 0.613565
Si Si2 0.568158 0.806927 0.121640
Si Si3 0.569882 0.391887 0.852006
Si Si4 0.562190 0.888718 0.371159
O O1 0.250000 0.350426 0.642772
O O2 0.096932 0.500000 0.593768
O O3 0.000000 0.344599 0.500000
O O4 0.948504 0.383386 0.713853
O O5 0.750000 0.829521 0.121773
O O6 0.540666 0.693781 0.111604
O O7 0.506249 0.838576 0.250072
O O8 0.500000 0.847457 0.000000
O O9 0.750000 0.379149 0.887413
O O10 0.519883 0.500000 0.879433
O O11 0.500000 0.861571 0.500000
O O12 0.750000 0.878208 0.375276
O O13 0.524478 0.000000 0.357010
#
# Coordination Sequence:
#
# PCOD9405966 Si02
#       4
#     8   8   8   8
#     4   9  16  27  45  70 101 139 187 244 303 361
#     4  11  24  41  62  91 128 168 211 260 313 373
#     4  10  21  37  56  79 112 158 211 264 316 370
#     4   9  20  41  69 100 131 163 202 250 308 376
#
# _framework density 23.039887
#
# number of rings (size 3 to 8) (size 9 to 14) (size 15 to 20)
#    0.000    2.250    0.000    2.250    0.000    8.500 
#    0.000    2.500    0.000    0.000    0.000    0.000 
#    0.000    0.000    0.000    0.000    0.000    0.000 
#
# Total GULP energy -178305.917875 kJ/mol
# GULP energy per Si atom -5572.059934 kJ/mol
# Density = 2.298745 g / cm^3
# Si number density = 23.039887 Si / 1000 Ang^3
#
#
#
# Elastic Constant Matrix: (Units=GPa)
#
#
# Indices 1 2 3 4 5 6 
#
# 1 56.0056 10.7322 42.9054 0.0000 0.0000 0.0000
# 2 10.7322 108.1868 41.0254 0.0000 0.0000 0.0000
# 3 42.9054 41.0254 222.2419 0.0000 0.0000 0.0000
# 4 0.0000 0.0000 0.0000 -10.9619 0.0000 0.0000
# 5 0.0000 0.0000 0.0000 0.0000 35.6302 0.0000
# 6 0.0000 0.0000 0.0000 0.0000 0.0000 -3.6074
#
#
#
# Elastic Compliance Matrix: (Units=1/GPa)
#
#
# Indices 1 2 3 4 5 6 
#
# 1 0.020989 -0.000587 -0.003944 0.000000 0.000000 0.000000
# 2 -0.000587 0.009955 -0.001724 0.000000 0.000000 0.000000
# 3 -0.003944 -0.001724 0.005579 0.000000 0.000000 0.000000
# 4 0.000000 0.000000 0.000000 -0.091225 0.000000 0.000000
# 5 0.000000 0.000000 0.000000 0.000000 0.028066 0.000000
# 6 0.000000 0.000000 0.000000 0.000000 0.000000 -0.277211
#
#
# Mechanical properties :
#
#
# Convention : Reuss Voigt Hill
#
# Bulk Modulus (GPa) = 41.64240 63.97336 52.80788
# Shear Modulus (GPa) = -17.64712 23.66363 3.00826
#
# Velocity S-wave (km/s) = -2.77056 3.20827 1.14390
# Velocity P-wave (km/s) = 2.80689 6.44598 4.97138
#
# Compressibility (1/GPa) = 0.02401399
#
# Stress axis : x y z
#
# Youngs Moduli (GPa) = 47.64386 100.44796 179.23338
#
# Poissons Ratio (x) = 0.05892 0.70686
# Poissons Ratio (y) = 0.02795 0.30909
# Poissons Ratio (z) = 0.18790 0.17322
#
# Static dielectric constant tensor:
#      x y z
#    x 1.818070 0.000000 0.000000 
#    y 0.000000 1.895400 0.000000 
#    z 0.000000 0.000000 2.049500 
# 
# From -- ./inp_files/13685.got.cif
#   From: 2010.05.17/outbox.cif.g08.bks.cpg/sg51_7_cif.got.tgz:13685.got - 2010.06.03 11:52:47.
