data_PCOD9405421
_publ_section_title
;
Structure prediction by ZEFSAII (Michael W. Deem and Ramdas Pophale) SiO2 
 PCOD9405421
Probable space group: P M M A
;
_chemical_formula_sum "Si O2"
_cell_formula_units_Z 48
_cell_length_a 18.511229
_cell_length_b 7.478230
_cell_length_c 17.250525
_cell_angle_alpha 90.000000
_cell_angle_beta 90.000000
_cell_angle_gamma 90.000000
_cell_volume 2388.011360
_symmetry_space_group_name_H-M "P M M A"
_symmetry_group_IT_number 51
_symmetry_cell_setting 'orthorhombic'
loop_
_space_group_symop_operation_xyz
x,y,z
1/2-x,-y,z
1/2+x,-y,-z
-x,y,-z
-x,-y,-z
1/2+x,y,-z
1/2-x,y,z
x,-y,z
loop_
_atom_site_type_symbol
_atom_site_label
_atom_site_fract_x
_atom_site_fract_y
_atom_site_fract_z
Si Si1 0.454163 0.718199 0.257610
Si Si2 0.170355 0.208489 0.655991
Si Si3 0.983041 0.708644 0.415659
Si Si4 0.332158 0.718711 0.143678
Si Si5 0.916351 0.281523 0.009983
Si Si6 0.104838 0.284355 0.818877
O O1 0.453726 0.500000 0.259508
O O2 0.470912 0.784590 0.343932
O O3 0.381744 0.776435 0.215420
O O4 0.523434 0.767216 0.205607
O O5 0.250000 0.284165 0.638590
O O6 0.100743 0.284234 0.611104
O O7 0.155213 0.224065 0.748296
O O8 0.171251 0.000000 0.636405
O O9 0.003238 0.500000 0.419883
O O10 0.000000 0.786846 0.500000
O O11 0.250000 0.777877 0.148886
O O12 0.332395 0.500000 0.143413
O O13 0.369800 0.775122 0.063632
O O14 0.916755 0.500000 0.010508
O O15 0.884321 0.223980 0.092978
O O16 0.000000 0.227060 0.000000
O O17 0.108675 0.500000 0.818373
#
# Coordination Sequence:
#
# PCOD9405421 Si02
#       6
#     8   8   8   8   8   8
#     4   8  13  24  40  60  88 120 148 181 231 286
#     4  10  21  35  50  71 101 133 164 201 245 290
#     4   9  18  33  54  78  98 120 157 202 248 300
#     4   9  15  21  32  56  90 122 152 189 233 282
#     4   9  14  22  38  62  92 125 158 197 244 287
#     4   9  16  27  47  69  91 124 162 199 242 288
#
# _framework density 20.100408999999999
#
# number of rings (size 3 to 8) (size 9 to 14) (size 15 to 20)
#    0.000    3.000    1.667    1.500    0.000    2.333 
#    0.000    2.500    0.000    3.500    0.000    0.000 
#    0.000    6.000    0.000    0.000    0.000    0.000 
#
# Total GULP energy -267669.198472 kJ/mol
# GULP energy per Si atom -5576.441635 kJ/mol
# Density = 2.005466 g / cm^3
# Si number density = 20.100409 Si / 1000 Ang^3
#
#
#
# Elastic Constant Matrix: (Units=GPa)
#
#
# Indices 1 2 3 4 5 6 
#
# 1 132.3924 -5.3989 82.0509 0.0000 0.0000 0.0000
# 2 -5.3989 53.0432 2.0163 0.0000 0.0000 0.0000
# 3 82.0509 2.0163 181.1057 0.0000 0.0000 0.0000
# 4 0.0000 0.0000 0.0000 261.0486 0.0000 0.0000
# 5 0.0000 0.0000 0.0000 0.0000 18.4653 0.0000
# 6 0.0000 0.0000 0.0000 0.0000 0.0000 28.8921
#
#
#
# Elastic Compliance Matrix: (Units=1/GPa)
#
#
# Indices 1 2 3 4 5 6 
#
# 1 0.010586 0.001260 -0.004810 0.000000 0.000000 0.000000
# 2 0.001260 0.019011 -0.000783 0.000000 0.000000 0.000000
# 3 -0.004810 -0.000783 0.007710 0.000000 0.000000 0.000000
# 4 0.000000 0.000000 0.000000 0.003831 0.000000 0.000000
# 5 0.000000 0.000000 0.000000 0.000000 0.054156 0.000000
# 6 0.000000 0.000000 0.000000 0.000000 0.000000 0.034612
#
#
# Mechanical properties :
#
#
# Convention : Reuss Voigt Hill
#
# Bulk Modulus (GPa) = 34.91472 58.20867 46.56170
# Shear Modulus (GPa) = 33.75746 80.87272 57.31509
#
# Velocity S-wave (km/s) = 4.10254 6.34994 5.34568
# Velocity P-wave (km/s) = 6.31261 9.09858 7.83049
#
# Compressibility (1/GPa) = 0.02864121
#
# Stress axis : x y z
#
# Youngs Moduli (GPa) = 94.46730 52.60230 129.70989
#
# Poissons Ratio (x) = -0.06629 0.62390
# Poissons Ratio (y) = -0.11906 0.10152
# Poissons Ratio (z) = 0.45438 0.04117
#
# Static dielectric constant tensor:
#      x y z
#    x 1.683750 0.000000 0.000000 
#    y 0.000000 1.754130 0.000000 
#    z 0.000000 0.000000 1.715710 
# 
# From -- ./inp_files/30047.got.cif
#   From: 2010.05.17/outbox.cif.g08.bks.cpg/sg51_16_cif.got.tgz:30047.got - 2010.06.03 11:52:47.
