data_PCOD9405602
_publ_section_title
;
Structure prediction by ZEFSAII (Michael W. Deem and Ramdas Pophale) SiO2 
 PCOD9405602
Probable space group: P M M A
;
_chemical_formula_sum "Si O2"
_cell_formula_units_Z 48
_cell_length_a 8.551972
_cell_length_b 32.178511
_cell_length_c 9.232443
_cell_angle_alpha 90.000000
_cell_angle_beta 90.000000
_cell_angle_gamma 90.000000
_cell_volume 2540.673451
_symmetry_space_group_name_H-M "P M M A"
_symmetry_group_IT_number 51
_symmetry_cell_setting 'orthorhombic'
loop_
_space_group_symop_operation_xyz
x,y,z
1/2-x,-y,z
1/2+x,-y,-z
-x,y,-z
-x,-y,-z
1/2+x,y,-z
1/2-x,y,z
x,-y,z
loop_
_atom_site_type_symbol
_atom_site_label
_atom_site_fract_x
_atom_site_fract_y
_atom_site_fract_z
Si Si1 0.063418 0.158801 0.665176
Si Si2 0.438655 0.337069 0.336024
Si Si3 0.563064 0.920405 0.836682
Si Si4 0.937818 0.245779 0.665039
Si Si5 0.062975 0.000000 0.663490
Si Si6 0.560852 0.418160 0.837587
Si Si7 0.561149 0.500000 0.662634
O O1 0.250000 0.156367 0.661278
O O2 0.000000 0.155605 0.500000
O O3 0.994077 0.121579 0.759055
O O4 0.011241 0.203752 0.727015
O O5 0.500000 0.341090 0.500000
O O6 0.250000 0.338036 0.342664
O O7 0.481929 0.291307 0.275187
O O8 0.492656 0.375754 0.240255
O O9 0.750000 0.921894 0.837582
O O10 0.497833 0.959396 0.746867
O O11 0.500000 0.922145 0.000000
O O12 0.750000 0.241807 0.665002
O O13 0.000000 0.247069 0.500000
O O14 0.000000 0.000000 0.500000
O O15 0.250000 0.000000 0.661767
O O16 0.750000 0.417935 0.839661
O O17 0.509857 0.458536 0.746904
O O18 0.500000 0.420560 0.000000
O O19 0.750000 0.500000 0.659611
O O20 0.500000 0.500000 0.500000
#
# Coordination Sequence:
#
# PCOD9405602 Si02
#       7
#     8   8   8   8   4   8   4
#     4  11  21  36  58  86 116 151 192 237 283 334
#     4   9  18  32  52  77 106 138 180 227 274 324
#     4  12  25  43  63  88 120 156 193 235 285 340
#     4   9  16  29  50  77 107 141 180 230 279 325
#     4  12  25  44  67  94 122 154 194 238 283 332
#     4  10  21  36  52  76 107 141 177 219 267 324
#     4  10  21  36  56  80 106 134 175 222 268 320
#
# _framework density 18.892628999999999
#
# number of rings (size 3 to 8) (size 9 to 14) (size 15 to 20)
#    0.000    1.667    0.000    6.750    0.000    2.000 
#    0.000    0.833    0.000    2.000    0.000    0.000 
#    0.000    0.000    0.000    0.000    0.000    0.000 
#
# Total GULP energy -268114.011809 kJ/mol
# GULP energy per Si atom -5585.708579 kJ/mol
# Density = 1.884963 g / cm^3
# Si number density = 18.892629 Si / 1000 Ang^3
#
#
#
# Elastic Constant Matrix: (Units=GPa)
#
#
# Indices 1 2 3 4 5 6 
#
# 1 114.1381 65.3457 43.6061 0.0000 0.0000 0.0000
# 2 65.3457 229.7302 106.4482 0.0000 0.0000 0.0000
# 3 43.6061 106.4482 132.6101 0.0000 0.0000 0.0000
# 4 0.0000 0.0000 0.0000 -12.8151 0.0000 0.0000
# 5 0.0000 0.0000 0.0000 0.0000 32.3896 0.0000
# 6 0.0000 0.0000 0.0000 0.0000 0.0000 12.6928
#
#
#
# Elastic Compliance Matrix: (Units=1/GPa)
#
#
# Indices 1 2 3 4 5 6 
#
# 1 0.010705 -0.002251 -0.001713 0.000000 0.000000 0.000000
# 2 -0.002251 0.007404 -0.005203 0.000000 0.000000 0.000000
# 3 -0.001713 -0.005203 0.012281 0.000000 0.000000 0.000000
# 4 0.000000 0.000000 0.000000 -0.078033 0.000000 0.000000
# 5 0.000000 0.000000 0.000000 0.000000 0.030874 0.000000
# 6 0.000000 0.000000 0.000000 0.000000 0.000000 0.078785
#
#
# Mechanical properties :
#
#
# Convention : Reuss Voigt Hill
#
# Bulk Modulus (GPa) = 82.95308 100.80872 91.88090
# Shear Modulus (GPa) = 59.26378 23.85869 41.56123
#
# Velocity S-wave (km/s) = 5.60686 3.55753 4.69536
# Velocity P-wave (km/s) = 9.26924 8.38745 8.83934
#
# Compressibility (1/GPa) = 0.01205501
#
# Stress axis : x y z
#
# Youngs Moduli (GPa) = 93.41813 135.05741 81.42715
#
# Poissons Ratio (x) = 0.30403 0.13948
# Poissons Ratio (y) = 0.21030 0.42369
# Poissons Ratio (z) = 0.16002 0.70274
#
# Static dielectric constant tensor:
#      x y z
#    x 1.649090 0.000000 0.000000 
#    y 0.000000 1.685310 0.000000 
#    z 0.000000 0.000000 1.585830 
# 
# From -- ./inp_files/6107.got.cif
#   From: 2010.05.17/outbox.cif.g08.bks.cpg/sg51_4_cif.got.tgz:6107.got - 2010.06.03 11:52:47.
