data_PCOD9405380
_publ_section_title
;
Structure prediction by ZEFSAII (Michael W. Deem and Ramdas Pophale) SiO2 
 PCOD9405380
Probable space group: P M M A
;
_chemical_formula_sum "Si O2"
_cell_formula_units_Z 40
_cell_length_a 9.978505
_cell_length_b 7.744701
_cell_length_c 27.110031
_cell_angle_alpha 90.000000
_cell_angle_beta 90.000000
_cell_angle_gamma 90.000000
_cell_volume 2095.077771
_symmetry_space_group_name_H-M "P M M A"
_symmetry_group_IT_number 51
_symmetry_cell_setting 'orthorhombic'
loop_
_space_group_symop_operation_xyz
x,y,z
1/2-x,-y,z
1/2+x,-y,-z
-x,y,-z
-x,-y,-z
1/2+x,y,-z
1/2-x,y,z
x,-y,z
loop_
_atom_site_type_symbol
_atom_site_label
_atom_site_fract_x
_atom_site_fract_y
_atom_site_fract_z
Si Si1 0.598001 0.205574 0.151995
Si Si2 0.905066 0.711811 0.544458
Si Si3 0.097553 0.707647 0.240995
Si Si4 0.086900 0.300197 0.347809
Si Si5 0.901974 0.706439 0.042159
O O1 0.750000 0.274850 0.158741
O O2 0.500626 0.255152 0.196216
O O3 0.549492 0.262606 0.097906
O O4 0.605468 0.000000 0.151139
O O5 0.750000 0.761911 0.536794
O O6 0.906769 0.500000 0.545884
O O7 0.950750 0.773984 0.598851
O O8 0.000000 0.767129 0.500000
O O9 0.250000 0.769750 0.231808
O O10 0.105091 0.500000 0.246047
O O11 0.048998 0.775884 0.294603
O O12 0.250000 0.301447 0.347585
O O13 0.041342 0.500000 0.348212
O O14 0.750000 0.775983 0.038514
O O15 0.894097 0.500000 0.035524
O O16 0.000000 0.775712 0.000000
#
# Coordination Sequence:
#
# PCOD9405380 Si02
#       5
#     8   8   8   8   8
#     4  10  21  35  49  68  97 129 156 185 227 276
#     4   8  12  18  29  46  72 106 139 171 211 260
#     4   9  17  30  49  70  90 117 157 199 233 270
#     4   7  11  21  36  54  78 109 143 179 221 266
#     4   9  18  33  52  72  94 121 153 187 222 263
#
# _framework density 19.092369999999999
#
# number of rings (size 3 to 8) (size 9 to 14) (size 15 to 20)
#    0.000    3.400    0.000    3.000    0.000    2.800 
#    0.000    3.000    0.000    3.600    0.000    0.000 
#    0.000    0.800    0.000    1.800    0.000    5.200 
#
# Total GULP energy -222710.123777 kJ/mol
# GULP energy per Si atom -5567.753094 kJ/mol
# Density = 1.904892 g / cm^3
# Si number density = 19.092370 Si / 1000 Ang^3
#
#
#
# Elastic Constant Matrix: (Units=GPa)
#
#
# Indices 1 2 3 4 5 6 
#
# 1 69.1586 3.9765 102.8967 0.0000 0.0000 0.0000
# 2 3.9765 28.3315 3.1332 0.0000 0.0000 0.0000
# 3 102.8967 3.1332 236.2024 0.0000 0.0000 0.0000
# 4 0.0000 0.0000 0.0000 -43.6775 0.0000 0.0000
# 5 0.0000 0.0000 0.0000 0.0000 113.1709 0.0000
# 6 0.0000 0.0000 0.0000 0.0000 0.0000 3.9130
#
#
#
# Elastic Compliance Matrix: (Units=1/GPa)
#
#
# Indices 1 2 3 4 5 6 
#
# 1 0.041506 -0.003832 -0.018031 0.000000 0.000000 0.000000
# 2 -0.003832 0.035702 0.001196 0.000000 0.000000 0.000000
# 3 -0.018031 0.001196 0.012072 0.000000 0.000000 0.000000
# 4 0.000000 0.000000 0.000000 -0.022895 0.000000 0.000000
# 5 0.000000 0.000000 0.000000 0.000000 0.008836 0.000000
# 6 0.000000 0.000000 0.000000 0.000000 0.000000 0.255558
#
#
# Mechanical properties :
#
#
# Convention : Reuss Voigt Hill
#
# Bulk Modulus (GPa) = 20.85610 61.52280 41.18945
# Shear Modulus (GPa) = 12.88342 29.59368 21.23855
#
# Velocity S-wave (km/s) = 2.60050 3.94131 3.33890
# Velocity P-wave (km/s) = 4.46814 7.28049 6.04028
#
# Compressibility (1/GPa) = 0.04794761
#
# Stress axis : x y z
#
# Youngs Moduli (GPa) = 24.09273 28.00965 82.83344
#
# Poissons Ratio (x) = 0.10732 1.49353
# Poissons Ratio (y) = 0.09231 -0.09903
# Poissons Ratio (z) = 0.43440 -0.03349
#
# Static dielectric constant tensor:
#      x y z
#    x 1.658000 0.000000 0.000000 
#    y 0.000000 1.696320 0.000000 
#    z 0.000000 0.000000 1.695600 
# 
# From -- ./inp_files/32790.got.cif
#   From: 2010.05.17/outbox.cif.g08.bks.cpg/sg51_17_cif.got.tgz:32790.got - 2010.06.03 11:52:47.
