data_PCOD9405375
_publ_section_title
;
Structure prediction by ZEFSAII (Michael W. Deem and Ramdas Pophale) SiO2 
 PCOD9405375
Probable space group: P M M A
;
_chemical_formula_sum "Si O2"
_cell_formula_units_Z 48
_cell_length_a 10.368632
_cell_length_b 7.602790
_cell_length_c 31.255184
_cell_angle_alpha 90.000000
_cell_angle_beta 90.000000
_cell_angle_gamma 90.000000
_cell_volume 2463.862773
_symmetry_space_group_name_H-M "P M M A"
_symmetry_group_IT_number 51
_symmetry_cell_setting 'orthorhombic'
loop_
_space_group_symop_operation_xyz
x,y,z
1/2-x,-y,z
1/2+x,-y,-z
-x,y,-z
-x,-y,-z
1/2+x,y,-z
1/2-x,y,z
x,-y,z
loop_
_atom_site_type_symbol
_atom_site_label
_atom_site_fract_x
_atom_site_fract_y
_atom_site_fract_z
Si Si1 0.602816 0.285370 0.465171
Si Si2 0.397577 0.285201 0.965042
Si Si3 0.104813 0.208580 0.203359
Si Si4 0.603033 0.284948 0.367594
Si Si5 0.395402 0.291915 0.299876
Si Si6 0.895031 0.710997 0.131789
O O1 0.500000 0.224090 0.500000
O O2 0.750000 0.231469 0.474705
O O3 0.601562 0.500000 0.465777
O O4 0.571877 0.232872 0.416398
O O5 0.250000 0.233890 0.974810
O O6 0.400478 0.500000 0.965365
O O7 0.427381 0.227932 0.916419
O O8 0.500000 0.223777 0.000000
O O9 0.250000 0.278390 0.194354
O O10 0.064635 0.272678 0.250422
O O11 0.002191 0.247817 0.166705
O O12 0.113842 0.000000 0.206424
O O13 0.750000 0.230206 0.358032
O O14 0.603142 0.500000 0.366820
O O15 0.499646 0.220609 0.333164
O O16 0.250000 0.218306 0.304093
O O17 0.386770 0.500000 0.308443
O O18 0.750000 0.774846 0.142658
O O19 0.887991 0.500000 0.129554
#
# Coordination Sequence:
#
# PCOD9405375 Si02
#       6
#     8   8   8   8   8   8
#     4   8  13  20  30  47  74 107 139 169 204 250
#     4   8  14  25  42  67  97 123 148 182 223 265
#     4  10  21  35  49  67  93 123 155 193 235 278
#     4   8  14  24  37  55  80 109 141 177 216 258
#     4   9  17  29  45  64  85 111 146 186 225 267
#     4   9  18  32  50  73  99 125 155 191 229 271
#
# _framework density 19.481604999999998
#
# number of rings (size 3 to 8) (size 9 to 14) (size 15 to 20)
#    0.000    3.333    0.000    2.500    0.000    3.333 
#    0.000    6.667    0.000    0.500    0.000    0.000 
#    0.000    0.667    0.000    1.500    0.000    3.000 
#
# Total GULP energy -267553.242214 kJ/mol
# GULP energy per Si atom -5574.025879 kJ/mol
# Density = 1.943726 g / cm^3
# Si number density = 19.481605 Si / 1000 Ang^3
#
#
#
# Elastic Constant Matrix: (Units=GPa)
#
#
# Indices 1 2 3 4 5 6 
#
# 1 159.5429 4.0208 154.0328 0.0000 0.0000 0.0000
# 2 4.0208 39.3445 1.0381 0.0000 0.0000 0.0000
# 3 154.0328 1.0381 178.7378 0.0000 0.0000 0.0000
# 4 0.0000 0.0000 0.0000 -36.5558 0.0000 0.0000
# 5 0.0000 0.0000 0.0000 0.0000 60.4492 0.0000
# 6 0.0000 0.0000 0.0000 0.0000 0.0000 0.2716
#
#
#
# Elastic Compliance Matrix: (Units=1/GPa)
#
#
# Indices 1 2 3 4 5 6 
#
# 1 0.037662 -0.002993 -0.032439 0.000000 0.000000 0.000000
# 2 -0.002993 0.025658 0.002430 0.000000 0.000000 0.000000
# 3 -0.032439 0.002430 0.033536 0.000000 0.000000 0.000000
# 4 0.000000 0.000000 0.000000 -0.027355 0.000000 0.000000
# 5 0.000000 0.000000 0.000000 0.000000 0.016543 0.000000
# 6 0.000000 0.000000 0.000000 0.000000 0.000000 3.681271
#
#
# Mechanical properties :
#
#
# Convention : Reuss Voigt Hill
#
# Bulk Modulus (GPa) = 32.41195 77.31205 54.86200
# Shear Modulus (GPa) = 1.30086 19.40191 10.35139
#
# Velocity S-wave (km/s) = 0.81804 3.15923 2.30759
# Velocity P-wave (km/s) = 4.19113 7.28549 5.94323
#
# Compressibility (1/GPa) = 0.03085281
#
# Stress axis : x y z
#
# Youngs Moduli (GPa) = 26.55199 38.97383 29.81875
#
# Poissons Ratio (x) = 0.11664 0.96729
# Poissons Ratio (y) = 0.07947 -0.07247
# Poissons Ratio (z) = 0.86132 -0.09471
#
# Static dielectric constant tensor:
#      x y z
#    x 1.764070 0.000000 0.000000 
#    y 0.000000 1.719270 0.000000 
#    z 0.000000 0.000000 1.657870 
# 
# From -- ./inp_files/36510.got.cif
#   From: 2010.05.17/outbox.cif.g08.bks.cpg/sg51_19_cif.got.tgz:36510.got - 2010.06.03 11:52:47.
