data_PCOD9405062
_publ_section_title
;
Structure prediction by ZEFSAII (Michael W. Deem and Ramdas Pophale) SiO2 
 PCOD9405062
Probable space group: P M M A
;
_chemical_formula_sum "Si O2"
_cell_formula_units_Z 40
_cell_length_a 26.371546
_cell_length_b 8.543182
_cell_length_c 9.683504
_cell_angle_alpha 90.000000
_cell_angle_beta 90.000000
_cell_angle_gamma 90.000000
_cell_volume 2181.663598
_symmetry_space_group_name_H-M "P M M A"
_symmetry_group_IT_number 51
_symmetry_cell_setting 'orthorhombic'
loop_
_space_group_symop_operation_xyz
x,y,z
1/2-x,-y,z
1/2+x,-y,-z
-x,y,-z
-x,-y,-z
1/2+x,y,-z
1/2-x,y,z
x,-y,z
loop_
_atom_site_type_symbol
_atom_site_label
_atom_site_fract_x
_atom_site_fract_y
_atom_site_fract_z
Si Si1 0.951300 0.810850 0.411671
Si Si2 0.750000 0.686226 0.904049
Si Si3 0.750000 0.186739 0.592693
Si Si4 0.160226 0.811516 0.905757
Si Si5 0.953888 0.190013 0.092105
Si Si6 0.340863 0.686412 0.593940
O O1 0.960801 0.768791 0.252111
O O2 0.897434 0.737209 0.451295
O O3 0.000000 0.763423 0.500000
O O4 0.946194 0.000000 0.420650
O O5 0.750000 0.500000 0.893337
O O6 0.750000 0.757728 0.750988
O O7 0.798559 0.742104 0.991619
O O8 0.799102 0.249904 0.511384
O O9 0.750000 0.000000 0.588085
O O10 0.103074 0.762287 0.947970
O O11 0.168059 0.756507 0.747566
O O12 0.163198 0.000000 0.907861
O O13 0.954535 0.000000 0.084384
O O14 0.000000 0.250064 0.000000
O O15 0.337451 0.500000 0.602384
#
# Coordination Sequence:
#
# PCOD9405062 Si02
#       6
#     8   4   4   8   8   8
#     4   9  18  33  54  80 110 147 191 233 275 331
#     4  12  25  40  57  84 118 146 180 232 291 338
#     4  12  25  42  61  82 110 146 190 236 285 344
#     4  10  20  37  60  84 111 150 195 230 271 336
#     4   8  15  29  51  79 107 137 179 228 269 311
#     4  11  22  38  59  84 115 150 189 237 291 339
#
# _framework density 18.334633
#
# number of rings (size 3 to 8) (size 9 to 14) (size 15 to 20)
#    0.000    2.000    0.000    6.000    0.000    2.000 
#    0.000    4.000    0.000   15.000    0.000    0.000 
#    0.000    0.000    0.000    0.000    0.000    0.000 
#
# Total GULP energy -223362.562532 kJ/mol
# GULP energy per Si atom -5584.064063 kJ/mol
# Density = 1.829290 g / cm^3
# Si number density = 18.334633 Si / 1000 Ang^3
#
#
#
# Elastic Constant Matrix: (Units=GPa)
#
#
# Indices 1 2 3 4 5 6 
#
# 1 195.0805 47.5112 112.8794 0.0000 0.0000 0.0000
# 2 47.5112 85.3011 28.9398 0.0000 0.0000 0.0000
# 3 112.8794 28.9398 95.0585 0.0000 0.0000 0.0000
# 4 0.0000 0.0000 0.0000 19.4872 0.0000 0.0000
# 5 0.0000 0.0000 0.0000 0.0000 40.1519 0.0000
# 6 0.0000 0.0000 0.0000 0.0000 0.0000 -27.1186
#
#
#
# Elastic Compliance Matrix: (Units=1/GPa)
#
#
# Indices 1 2 3 4 5 6 
#
# 1 0.017013 -0.002924 -0.019312 0.000000 0.000000 0.000000
# 2 -0.002924 0.013576 -0.000661 0.000000 0.000000 0.000000
# 3 -0.019312 -0.000661 0.033653 0.000000 0.000000 0.000000
# 4 0.000000 0.000000 0.000000 0.051316 0.000000 0.000000
# 5 0.000000 0.000000 0.000000 0.000000 0.024905 0.000000
# 6 0.000000 0.000000 0.000000 0.000000 0.000000 -0.036875
#
#
# Mechanical properties :
#
#
# Convention : Reuss Voigt Hill
#
# Bulk Modulus (GPa) = 54.20533 83.78900 68.99717
# Shear Modulus (GPa) = 32.14789 18.91142 25.52965
#
# Velocity S-wave (km/s) = 4.19190 3.21512 3.73557
# Velocity P-wave (km/s) = 7.28409 7.71892 7.50466
#
# Compressibility (1/GPa) = 0.01844837
#
# Stress axis : x y z
#
# Youngs Moduli (GPa) = 58.77992 73.65934 29.71465
#
# Poissons Ratio (x) = 0.21537 0.57385
# Poissons Ratio (y) = 0.17186 0.01965
# Poissons Ratio (z) = 1.13515 0.04870
#
# Static dielectric constant tensor:
#      x y z
#    x 1.629490 0.000000 0.000000 
#    y 0.000000 1.613570 0.000000 
#    z 0.000000 0.000000 1.599540 
# 
# From -- ./inp_files/12179.got.cif
#   From: 2010.05.17/outbox.cif.g08.bks.cpg/sg51_7_cif.got.tgz:12179.got - 2010.06.03 11:52:47.
