data_PCOD9405011
_publ_section_title
;
Structure prediction by ZEFSAII (Michael W. Deem and Ramdas Pophale) SiO2 
 PCOD9405011
Probable space group: P M M A
;
_chemical_formula_sum "Si O2"
_cell_formula_units_Z 44
_cell_length_a 8.721131
_cell_length_b 28.131583
_cell_length_c 10.059372
_cell_angle_alpha 90.000000
_cell_angle_beta 90.000000
_cell_angle_gamma 90.000000
_cell_volume 2467.958486
_symmetry_space_group_name_H-M "P M M A"
_symmetry_group_IT_number 51
_symmetry_cell_setting 'orthorhombic'
loop_
_space_group_symop_operation_xyz
x,y,z
1/2-x,-y,z
1/2+x,-y,-z
-x,y,-z
-x,-y,-z
1/2+x,y,-z
1/2-x,y,z
x,-y,z
loop_
_atom_site_type_symbol
_atom_site_label
_atom_site_fract_x
_atom_site_fract_y
_atom_site_fract_z
Si Si1 0.933098 0.370769 0.853341
Si Si2 0.566526 0.813074 0.355922
Si Si3 0.566487 0.445455 0.353632
Si Si4 0.565113 0.918042 0.644759
Si Si5 0.565434 0.000000 0.851187
Si Si6 0.066066 0.738837 0.147287
O O1 0.750000 0.375260 0.857696
O O2 0.969860 0.316020 0.816178
O O3 0.001366 0.408001 0.750308
O O4 0.000000 0.379152 0.000000
O O5 0.500000 0.799417 0.500000
O O6 0.750000 0.815068 0.360953
O O7 0.500355 0.865631 0.327288
O O8 0.509242 0.775587 0.248109
O O9 0.500000 0.436150 0.500000
O O10 0.750000 0.442299 0.357921
O O11 0.524632 0.500000 0.317747
O O12 0.500000 0.932877 0.500000
O O13 0.750000 0.916272 0.635995
O O14 0.521242 0.954363 0.761706
O O15 0.750000 0.000000 0.861101
O O16 0.500000 0.000000 0.000000
O O17 0.250000 0.744411 0.146546
O O18 0.000000 0.746735 0.000000
#
# Coordination Sequence:
#
# PCOD9405011 Si02
#       6
#     8   8   8   8   4   8
#     4  10  21  37  58  82 110 144 183 226 272 324
#     4  11  22  37  58  84 112 146 185 228 274 323
#     4  10  21  37  57  81 110 144 182 225 274 326
#     4  10  20  37  58  82 110 143 183 226 271 324
#     4  10  23  38  56  82 112 144 181 224 270 322
#     4  10  21  38  58  82 111 145 183 225 274 327
#
# _framework density 17.828500999999999
#
# number of rings (size 3 to 8) (size 9 to 14) (size 15 to 20)
#    0.000    1.818    0.000    5.182    0.000    6.545 
#    0.000    1.818    0.000    0.000    0.000    0.000 
#    0.000    0.000    0.000    0.000    0.000    0.000 
#
# Total GULP energy -245800.891883 kJ/mol
# GULP energy per Si atom -5586.383906 kJ/mol
# Density = 1.778792 g / cm^3
# Si number density = 17.828501 Si / 1000 Ang^3
#
#
#
# Elastic Constant Matrix: (Units=GPa)
#
#
# Indices 1 2 3 4 5 6 
#
# 1 96.8323 69.9163 70.6604 0.0000 0.0000 0.0000
# 2 69.9163 139.3258 133.3442 0.0000 0.0000 0.0000
# 3 70.6604 133.3442 158.8728 0.0000 0.0000 0.0000
# 4 0.0000 0.0000 0.0000 47.2367 0.0000 0.0000
# 5 0.0000 0.0000 0.0000 0.0000 39.4351 0.0000
# 6 0.0000 0.0000 0.0000 0.0000 0.0000 41.2195
#
#
#
# Elastic Compliance Matrix: (Units=1/GPa)
#
#
# Indices 1 2 3 4 5 6 
#
# 1 0.016314 -0.006315 -0.001955 0.000000 0.000000 0.000000
# 2 -0.006315 0.038930 -0.029866 0.000000 0.000000 0.000000
# 3 -0.001955 -0.029866 0.032231 0.000000 0.000000 0.000000
# 4 0.000000 0.000000 0.000000 0.021170 0.000000 0.000000
# 5 0.000000 0.000000 0.000000 0.000000 0.025358 0.000000
# 6 0.000000 0.000000 0.000000 0.000000 0.000000 0.024260
#
#
# Mechanical properties :
#
#
# Convention : Reuss Voigt Hill
#
# Bulk Modulus (GPa) = 89.26972 104.76362 97.01667
# Shear Modulus (GPa) = 20.98457 33.65226 27.31842
#
# Velocity S-wave (km/s) = 3.43450 4.34931 3.91869
# Velocity P-wave (km/s) = 8.11836 9.17123 8.66081
#
# Compressibility (1/GPa) = 0.01120201
#
# Stress axis : x y z
#
# Youngs Moduli (GPa) = 61.29808 25.68693 31.02616
#
# Poissons Ratio (x) = 0.16222 0.06066
# Poissons Ratio (y) = 0.38711 0.92663
# Poissons Ratio (z) = 0.11985 0.76717
#
# Static dielectric constant tensor:
#      x y z
#    x 1.595250 0.000000 0.000000 
#    y 0.000000 1.601150 0.000000 
#    z 0.000000 0.000000 1.571610 
# 
# From -- ./inp_files/5868.got.cif
#   From: 2010.05.17/outbox.cif.g08.bks.cpg/sg51_3_cif.got.tgz:5868.got - 2010.06.03 11:52:47.
