data_PCOD9405418
_publ_section_title
;
Structure prediction by ZEFSAII (Michael W. Deem and Ramdas Pophale) SiO2 
 PCOD9405418
Probable space group: P M M A
;
_chemical_formula_sum "Si O2"
_cell_formula_units_Z 64
_cell_length_a 7.525827
_cell_length_b 9.900415
_cell_length_c 41.933027
_cell_angle_alpha 90.000000
_cell_angle_beta 90.000000
_cell_angle_gamma 90.000000
_cell_volume 3124.379963
_symmetry_space_group_name_H-M "P M M A"
_symmetry_group_IT_number 51
_symmetry_cell_setting 'orthorhombic'
loop_
_space_group_symop_operation_xyz
x,y,z
1/2-x,-y,z
1/2+x,-y,-z
-x,y,-z
-x,-y,-z
1/2+x,y,-z
1/2-x,y,z
x,-y,z
loop_
_atom_site_type_symbol
_atom_site_label
_atom_site_fract_x
_atom_site_fract_y
_atom_site_fract_z
Si Si1 0.963607 0.346456 0.908438
Si Si2 0.536931 0.153699 0.964295
Si Si3 0.033444 0.653436 0.349534
Si Si4 0.960918 0.847708 0.219046
Si Si5 0.532292 0.155178 0.593340
Si Si6 0.464092 0.652026 0.276819
Si Si7 0.462562 0.346314 0.836226
Si Si8 0.462824 0.653174 0.463464
O O1 0.750000 0.351446 0.911245
O O2 0.030978 0.500000 0.911806
O O3 0.031365 0.248722 0.936130
O O4 0.003882 0.300929 0.872461
O O5 0.750000 0.147178 0.961025
O O6 0.467897 0.000000 0.962128
O O7 0.500000 0.204974 0.000000
O O8 0.250000 0.654658 0.349599
O O9 0.980574 0.500000 0.358233
O O10 0.975321 0.762960 0.375221
O O11 0.976537 0.679503 0.313118
O O12 0.750000 0.859197 0.213601
O O13 0.034003 0.756480 0.190145
O O14 0.983466 0.764309 0.251556
O O15 0.033218 0.000000 0.220602
O O16 0.750000 0.154202 0.593283
O O17 0.472754 0.239826 0.562450
O O18 0.474485 0.000000 0.593039
O O19 0.250000 0.648654 0.277401
O O20 0.524886 0.500000 0.267737
O O21 0.250000 0.354015 0.832102
O O22 0.532363 0.500000 0.832618
O O23 0.500000 0.691506 0.500000
O O24 0.250000 0.646871 0.459841
O O25 0.531255 0.500000 0.458364
#
# Coordination Sequence:
#
# PCOD9405418 Si02
#       8
#     8   8   8   8   8   8   8   8
#     4   9  18  32  49  70  95 121 151 191 237 279
#     4   9  18  32  48  67  93 124 155 186 224 272
#     4   8  14  26  44  66  92 119 148 186 229 271
#     4  10  21  35  50  71 100 132 164 198 238 286
#     4   9  16  25  40  64  91 118 148 182 223 271
#     4   9  18  32  51  75  99 124 158 199 241 284
#     4   9  18  33  51  69  91 122 159 196 234 278
#     4   9  17  29  45  64  86 114 148 185 224 266
#
# _framework density 20.484064
#
# number of rings (size 3 to 8) (size 9 to 14) (size 15 to 20)
#    0.000    3.000    0.000    1.500    0.000    5.000 
#    0.000    2.500    0.000    0.750    0.000    1.750 
#    0.000    0.000    0.000    0.000    0.000    0.000 
#
# Total GULP energy -357114.528019 kJ/mol
# GULP energy per Si atom -5579.914500 kJ/mol
# Density = 2.043744 g / cm^3
# Si number density = 20.484064 Si / 1000 Ang^3
#
#
#
# Elastic Constant Matrix: (Units=GPa)
#
#
# Indices 1 2 3 4 5 6 
#
# 1 51.5408 5.7103 -1.7845 0.0000 0.0000 0.0000
# 2 5.7103 167.5804 146.8613 0.0000 0.0000 0.0000
# 3 -1.7845 146.8613 181.7049 0.0000 0.0000 0.0000
# 4 0.0000 0.0000 0.0000 127.4277 0.0000 0.0000
# 5 0.0000 0.0000 0.0000 0.0000 16.6808 0.0000
# 6 0.0000 0.0000 0.0000 0.0000 0.0000 -7.5371
#
#
#
# Elastic Compliance Matrix: (Units=1/GPa)
#
#
# Indices 1 2 3 4 5 6 
#
# 1 0.019811 -0.002899 0.002538 0.000000 0.000000 0.000000
# 2 -0.002899 0.020882 -0.016906 0.000000 0.000000 0.000000
# 3 0.002538 -0.016906 0.019193 0.000000 0.000000 0.000000
# 4 0.000000 0.000000 0.000000 0.007848 0.000000 0.000000
# 5 0.000000 0.000000 0.000000 0.000000 0.059949 0.000000
# 6 0.000000 0.000000 0.000000 0.000000 0.000000 -0.132677
#
#
# Mechanical properties :
#
#
# Convention : Reuss Voigt Hill
#
# Bulk Modulus (GPa) = 39.44652 78.04448 58.74550
# Shear Modulus (GPa) = 131.61275 43.98355 87.79815
#
# Velocity S-wave (km/s) = 8.02439 4.63882 6.55399
# Velocity P-wave (km/s) = 10.25443 8.17768 9.27437
#
# Compressibility (1/GPa) = 0.02535078
#
# Stress axis : x y z
#
# Youngs Moduli (GPa) = 50.47662 47.88821 52.10350
#
# Poissons Ratio (x) = 0.13882 -0.13222
# Poissons Ratio (y) = 0.14633 0.88087
# Poissons Ratio (z) = -0.12809 0.80960
#
# Static dielectric constant tensor:
#      x y z
#    x 1.814350 0.000000 0.000000 
#    y 0.000000 1.718460 0.000000 
#    z 0.000000 0.000000 1.698790 
# 
# From -- ./inp_files/37777.got.cif
#   From: 2010.05.17/outbox.cif.g08.bks.cpg/sg51_19_cif.got.tgz:37777.got - 2010.06.03 11:52:47.
