data_PCOD9405490
_publ_section_title
;
Structure prediction by ZEFSAII (Michael W. Deem and Ramdas Pophale) SiO2 
 PCOD9405490
Probable space group: P M M A
;
_chemical_formula_sum "Si O2"
_cell_formula_units_Z 36
_cell_length_a 9.606320
_cell_length_b 7.787235
_cell_length_c 25.569445
_cell_angle_alpha 90.000000
_cell_angle_beta 90.000000
_cell_angle_gamma 90.000000
_cell_volume 1912.765068
_symmetry_space_group_name_H-M "P M M A"
_symmetry_group_IT_number 51
_symmetry_cell_setting 'orthorhombic'
loop_
_space_group_symop_operation_xyz
x,y,z
1/2-x,-y,z
1/2+x,-y,-z
-x,y,-z
-x,-y,-z
1/2+x,y,-z
1/2-x,y,z
x,-y,z
loop_
_atom_site_type_symbol
_atom_site_label
_atom_site_fract_x
_atom_site_fract_y
_atom_site_fract_z
Si Si1 0.084414 0.500000 0.053443
Si Si2 0.908608 0.295688 0.663737
Si Si3 0.407445 0.205254 0.763255
Si Si4 0.415104 0.203431 0.136087
Si Si5 0.091898 0.206331 0.452096
O O1 0.250000 0.500000 0.042924
O O2 0.053670 0.669627 0.088127
O O3 0.000000 0.500000 0.000000
O O4 0.750000 0.225757 0.669863
O O5 0.899914 0.500000 0.665161
O O6 0.961306 0.244959 0.606134
O O7 0.008270 0.241070 0.710446
O O8 0.250000 0.274961 0.762143
O O9 0.495665 0.261166 0.813766
O O10 0.398255 0.000000 0.767891
O O11 0.250000 0.219667 0.147969
O O12 0.441433 0.000000 0.125263
O O13 0.250000 0.273270 0.455040
O O14 0.000000 0.272542 0.500000
O O15 0.097626 0.000000 0.456824
#
# Coordination Sequence:
#
# PCOD9405490 Si02
#       5
#     4   8   8   8   8
#     4  10  22  38  58  86 116 150 191 230 275 328
#     4  10  21  35  52  76 106 141 179 218 266 327
#     4  10  21  36  55  81 110 140 178 226 278 327
#     4   9  19  37  59  82 112 151 191 231 276 330
#     4   9  18  33  52  72  96 131 175 220 266 318
#
# _framework density 18.820920000000001
#
# number of rings (size 3 to 8) (size 9 to 14) (size 15 to 20)
#    0.000    2.444    0.000    1.333    1.556    5.333 
#    0.000    2.222    0.000    0.000    0.000    0.000 
#    0.000    0.000    0.000    0.000    0.000    0.000 
#
# Total GULP energy -200839.785033 kJ/mol
# GULP energy per Si atom -5578.882918 kJ/mol
# Density = 1.877808 g / cm^3
# Si number density = 18.820920 Si / 1000 Ang^3
#
#
#
# Elastic Constant Matrix: (Units=GPa)
#
#
# Indices 1 2 3 4 5 6 
#
# 1 93.7903 33.8867 113.1711 0.0000 0.0000 0.0000
# 2 33.8867 49.2914 42.3995 0.0000 0.0000 0.0000
# 3 113.1711 42.3995 209.2814 0.0000 0.0000 0.0000
# 4 0.0000 0.0000 0.0000 35.7781 0.0000 0.0000
# 5 0.0000 0.0000 0.0000 0.0000 41.5595 0.0000
# 6 0.0000 0.0000 0.0000 0.0000 0.0000 13.7078
#
#
#
# Elastic Compliance Matrix: (Units=1/GPa)
#
#
# Indices 1 2 3 4 5 6 
#
# 1 0.033737 -0.009084 -0.016403 0.000000 0.000000 0.000000
# 2 -0.009084 0.027015 -0.000561 0.000000 0.000000 0.000000
# 3 -0.016403 -0.000561 0.013762 0.000000 0.000000 0.000000
# 4 0.000000 0.000000 0.000000 0.027950 0.000000 0.000000
# 5 0.000000 0.000000 0.000000 0.000000 0.024062 0.000000
# 6 0.000000 0.000000 0.000000 0.000000 0.000000 0.072951
#
#
# Mechanical properties :
#
#
# Convention : Reuss Voigt Hill
#
# Bulk Modulus (GPa) = 44.60681 81.25306 62.92994
# Shear Modulus (GPa) = 19.30163 29.06945 24.18554
#
# Velocity S-wave (km/s) = 3.20588 3.93431 3.58863
# Velocity P-wave (km/s) = 6.12010 7.99399 7.11897
#
# Compressibility (1/GPa) = 0.02241810
#
# Stress axis : x y z
#
# Youngs Moduli (GPa) = 29.64122 37.01663 72.66313
#
# Poissons Ratio (x) = 0.33624 1.19191
# Poissons Ratio (y) = 0.26925 0.04077
# Poissons Ratio (z) = 0.48621 0.02077
#
# Static dielectric constant tensor:
#      x y z
#    x 1.673660 0.000000 0.000000 
#    y 0.000000 1.668670 0.000000 
#    z 0.000000 0.000000 1.619860 
# 
# From -- ./inp_files/34326.got.cif
#   From: 2010.05.17/outbox.cif.g08.bks.cpg/sg51_18_cif.got.tgz:34326.got - 2010.06.03 11:52:47.
