data_PCOD9405499
_publ_section_title
;
Structure prediction by ZEFSAII (Michael W. Deem and Ramdas Pophale) SiO2 
 PCOD9405499
Probable space group: P M M A
;
_chemical_formula_sum "Si O2"
_cell_formula_units_Z 48
_cell_length_a 10.160595
_cell_length_b 29.304030
_cell_length_c 9.162834
_cell_angle_alpha 90.000000
_cell_angle_beta 90.000000
_cell_angle_gamma 90.000000
_cell_volume 2728.200660
_symmetry_space_group_name_H-M "P M M A"
_symmetry_group_IT_number 51
_symmetry_cell_setting 'orthorhombic'
loop_
_space_group_symop_operation_xyz
x,y,z
1/2-x,-y,z
1/2+x,-y,-z
-x,y,-z
-x,-y,-z
1/2+x,y,-z
1/2-x,y,z
x,-y,z
loop_
_atom_site_type_symbol
_atom_site_label
_atom_site_fract_x
_atom_site_fract_y
_atom_site_fract_z
Si Si1 0.592443 0.817740 0.140851
Si Si2 0.401979 0.289652 0.868552
Si Si3 0.597117 0.553058 0.133253
Si Si4 0.750000 0.055537 0.822867
Si Si5 0.504986 0.899925 0.325272
Si Si6 0.903432 0.632095 0.365069
Si Si7 0.750000 0.945922 0.167557
O O1 0.750000 0.827432 0.118648
O O2 0.581326 0.763692 0.170322
O O3 0.534339 0.848572 0.270184
O O4 0.500000 0.827711 0.000000
O O5 0.250000 0.295987 0.915489
O O6 0.425397 0.323331 0.734580
O O7 0.500000 0.300474 0.000000
O O8 0.750000 0.558571 0.087792
O O9 0.578528 0.500000 0.175799
O O10 0.573579 0.587854 0.264220
O O11 0.500000 0.563029 0.000000
O O12 0.624702 0.078254 0.745674
O O13 0.750000 0.000000 0.807922
O O14 0.750000 0.066826 0.995931
O O15 0.500000 0.902829 0.500000
O O16 0.624315 0.927654 0.253117
O O17 0.750000 0.631834 0.409996
O O18 0.000000 0.632037 0.500000
O O19 0.750000 0.000000 0.170920
#
# Coordination Sequence:
#
# PCOD9405499 Si02
#       7
#     8   8   8   4   8   8   4
#     4  10  21  39  62  86 113 148 188 231 278 339
#     4   9  19  36  58  83 109 141 185 232 276 327
#     4   9  18  33  53  78 107 142 187 238 288 339
#     4  11  25  43  65  89 115 153 197 233 274 335
#     4  12  25  39  60  90 121 151 184 233 289 337
#     4  10  21  35  52  77 112 151 186 231 284 337
#     4  11  23  43  65  85 113 153 195 233 276 333
#
# _framework density 17.594014000000001
#
# number of rings (size 3 to 8) (size 9 to 14) (size 15 to 20)
#    0.000    1.833    0.833    3.000    1.167    5.667 
#    0.000    0.000    0.000    0.000    0.000    0.000 
#    0.000    0.000    0.000    0.000    0.000    0.000 
#
# Total GULP energy -267938.923589 kJ/mol
# GULP energy per Si atom -5582.060908 kJ/mol
# Density = 1.755397 g / cm^3
# Si number density = 17.594014 Si / 1000 Ang^3
#
#
#
# Elastic Constant Matrix: (Units=GPa)
#
#
# Indices 1 2 3 4 5 6 
#
# 1 158.5601 78.6990 115.8152 0.0000 0.0000 0.0000
# 2 78.6990 91.8118 86.2320 0.0000 0.0000 0.0000
# 3 115.8152 86.2320 173.4357 0.0000 0.0000 0.0000
# 4 0.0000 0.0000 0.0000 -4.0275 0.0000 0.0000
# 5 0.0000 0.0000 0.0000 0.0000 39.0647 0.0000
# 6 0.0000 0.0000 0.0000 0.0000 0.0000 27.4577
#
#
#
# Elastic Compliance Matrix: (Units=1/GPa)
#
#
# Indices 1 2 3 4 5 6 
#
# 1 0.013868 -0.005984 -0.006285 0.000000 0.000000 0.000000
# 2 -0.005984 0.023016 -0.007448 0.000000 0.000000 0.000000
# 3 -0.006285 -0.007448 0.013666 0.000000 0.000000 0.000000
# 4 0.000000 0.000000 0.000000 -0.248291 0.000000 0.000000
# 5 0.000000 0.000000 0.000000 0.000000 0.025599 0.000000
# 6 0.000000 0.000000 0.000000 0.000000 0.000000 0.036420
#
#
# Mechanical properties :
#
#
# Convention : Reuss Voigt Hill
#
# Bulk Modulus (GPa) = 89.95975 109.47778 99.71876
# Shear Modulus (GPa) = -54.00466 22.03639 -15.98413
#
# Velocity S-wave (km/s) = -5.54631 3.54290 -3.01740
# Velocity P-wave (km/s) = 3.19789 8.89358 6.68290
#
# Compressibility (1/GPa) = 0.01111608
#
# Stress axis : x y z
#
# Youngs Moduli (GPa) = 72.11101 43.44778 73.17419
#
# Poissons Ratio (x) = 0.25998 0.45992
# Poissons Ratio (y) = 0.43149 0.54499
# Poissons Ratio (z) = 0.45324 0.32359
#
# Static dielectric constant tensor:
#      x y z
#    x 1.691730 0.000000 0.000000 
#    y 0.000000 1.616080 0.000000 
#    z 0.000000 0.000000 1.549060 
# 
# From -- ./inp_files/6197.got.cif
#   From: 2010.05.17/outbox.cif.g08.bks.cpg/sg51_4_cif.got.tgz:6197.got - 2010.06.03 11:52:47.
