data_PCOD9405369
_publ_section_title
;
Structure prediction by ZEFSAII (Michael W. Deem and Ramdas Pophale) SiO2 
 PCOD9405369
Probable space group: P M M A
;
_chemical_formula_sum "Si O2"
_cell_formula_units_Z 40
_cell_length_a 19.970676
_cell_length_b 7.734890
_cell_length_c 13.552246
_cell_angle_alpha 90.000000
_cell_angle_beta 90.000000
_cell_angle_gamma 90.000000
_cell_volume 2093.428749
_symmetry_space_group_name_H-M "P M M A"
_symmetry_group_IT_number 51
_symmetry_cell_setting 'orthorhombic'
loop_
_space_group_symop_operation_xyz
x,y,z
1/2-x,-y,z
1/2+x,-y,-z
-x,y,-z
-x,-y,-z
1/2+x,y,-z
1/2-x,y,z
x,-y,z
loop_
_atom_site_type_symbol
_atom_site_label
_atom_site_fract_x
_atom_site_fract_y
_atom_site_fract_z
Si Si1 0.581496 0.699800 0.001499
Si Si2 0.076213 0.706998 0.211453
Si Si3 0.826128 0.706920 0.390681
Si Si4 0.174092 0.205865 0.388920
Si Si5 0.423070 0.287061 0.782383
O O1 0.604510 0.500000 0.002797
O O2 0.600653 0.777025 0.895334
O O3 0.500000 0.698608 0.000000
O O4 0.599972 0.773041 0.108531
O O5 0.071208 0.500000 0.198836
O O6 0.125582 0.740316 0.301142
O O7 0.000324 0.767669 0.231859
O O8 0.750000 0.775270 0.382187
O O9 0.822873 0.500000 0.379265
O O10 0.849971 0.741675 0.502032
O O11 0.875444 0.771837 0.305781
O O12 0.250000 0.275784 0.376584
O O13 0.177701 0.000000 0.387470
O O14 0.422751 0.500000 0.783760
#
# Coordination Sequence:
#
# PCOD9405369 Si02
#       5
#     8   8   8   8   8
#     4   7  11  22  42  68  95 119 141 171 216 263
#     4   9  16  28  49  72  92 117 150 185 218 261
#     4   9  17  30  48  67  88 117 152 186 220 264
#     4  10  21  35  47  60  86 122 153 186 230 272
#     4   8  14  26  46  72  97 118 144 182 225 262
#
# _framework density 19.107410999999999
#
# number of rings (size 3 to 8) (size 9 to 14) (size 15 to 20)
#    0.000    3.400    0.000    3.000    0.000    2.000 
#    0.000    6.000    0.000   10.200    0.000    2.800 
#    0.000    0.000    0.000    0.000    0.000    0.000 
#
# Total GULP energy -222709.518164 kJ/mol
# GULP energy per Si atom -5567.737954 kJ/mol
# Density = 1.906392 g / cm^3
# Si number density = 19.107411 Si / 1000 Ang^3
#
#
#
# Elastic Constant Matrix: (Units=GPa)
#
#
# Indices 1 2 3 4 5 6 
#
# 1 68.6103 4.0688 103.8848 0.0000 0.0000 0.0000
# 2 4.0688 27.1587 2.7624 0.0000 0.0000 0.0000
# 3 103.8848 2.7624 239.2666 0.0000 0.0000 0.0000
# 4 0.0000 0.0000 0.0000 -43.4230 0.0000 0.0000
# 5 0.0000 0.0000 0.0000 0.0000 -77.4014 0.0000
# 6 0.0000 0.0000 0.0000 0.0000 0.0000 -2.7285
#
#
#
# Elastic Compliance Matrix: (Units=1/GPa)
#
#
# Indices 1 2 3 4 5 6 
#
# 1 0.043100 -0.004559 -0.018660 0.000000 0.000000 0.000000
# 2 -0.004559 0.037346 0.001548 0.000000 0.000000 0.000000
# 3 -0.018660 0.001548 0.012264 0.000000 0.000000 0.000000
# 4 0.000000 0.000000 0.000000 -0.023029 0.000000 0.000000
# 5 0.000000 0.000000 0.000000 0.000000 -0.012920 0.000000
# 6 0.000000 0.000000 0.000000 0.000000 0.000000 -0.366503
#
#
# Mechanical properties :
#
#
# Convention : Reuss Voigt Hill
#
# Bulk Modulus (GPa) = 20.25643 61.82972 41.04308
# Shear Modulus (GPa) = -20.00446 -9.75594 -14.88020
#
# Velocity S-wave (km/s) = -3.23917 -2.26206 -2.79367
# Velocity P-wave (km/s) = 1.83446 5.06031 3.33478
#
# Compressibility (1/GPa) = 0.04936704
#
# Stress axis : x y z
#
# Youngs Moduli (GPa) = 23.20205 26.77652 81.54262
#
# Poissons Ratio (x) = 0.12208 1.52162
# Poissons Ratio (y) = 0.10578 -0.12625
# Poissons Ratio (z) = 0.43296 -0.04146
#
# Static dielectric constant tensor:
#      x y z
#    x 1.710590 0.000000 0.000000 
#    y 0.000000 1.699030 0.000000 
#    z 0.000000 0.000000 1.698670 
# 
# From -- ./inp_files/17882.got.cif
#   From: 2010.05.17/outbox.cif.g08.bks.cpg/sg51_9_cif.got.tgz:17882.got - 2010.06.03 11:52:47.
