data_PCOD9405664
_publ_section_title
;
Structure prediction by ZEFSAII (Michael W. Deem and Ramdas Pophale) SiO2 
 PCOD9405664
Probable space group: P M M A
;
_chemical_formula_sum "Si O2"
_cell_formula_units_Z 48
_cell_length_a 10.261895
_cell_length_b 9.104924
_cell_length_c 29.589557
_cell_angle_alpha 90.000000
_cell_angle_beta 90.000000
_cell_angle_gamma 90.000000
_cell_volume 2764.663984
_symmetry_space_group_name_H-M "P M M A"
_symmetry_group_IT_number 51
_symmetry_cell_setting 'orthorhombic'
loop_
_space_group_symop_operation_xyz
x,y,z
1/2-x,-y,z
1/2+x,-y,-z
-x,y,-z
-x,-y,-z
1/2+x,y,-z
1/2-x,y,z
x,-y,z
loop_
_atom_site_type_symbol
_atom_site_label
_atom_site_fract_x
_atom_site_fract_y
_atom_site_fract_z
Si Si1 0.902029 0.823341 0.294214
Si Si2 0.514738 0.326678 0.101730
Si Si3 0.250000 0.328360 0.046892
Si Si4 0.405039 0.174096 0.810415
Si Si5 0.098353 0.675564 0.363953
Si Si6 0.250000 0.825185 0.951126
Si Si7 0.098747 0.175660 0.460255
O O1 0.750000 0.784782 0.302641
O O2 0.932105 0.787906 0.241760
O O3 0.000027 0.744652 0.327963
O O4 0.912579 0.000000 0.299000
O O5 0.544395 0.500000 0.101536
O O6 0.377440 0.304202 0.077107
O O7 0.517855 0.265956 0.152610
O O8 0.624370 0.240603 0.073873
O O9 0.250000 0.500000 0.032108
O O10 0.250000 0.228135 0.002774
O O11 0.250000 0.197817 0.817861
O O12 0.428929 0.000000 0.816401
O O13 0.250000 0.711641 0.353239
O O14 0.085648 0.500000 0.364830
O O15 0.071202 0.741624 0.413539
O O16 0.250000 0.000000 0.947852
O O17 0.250000 0.204074 0.472751
O O18 0.000000 0.218286 0.500000
O O19 0.085431 0.000000 0.452911
#
# Coordination Sequence:
#
# PCOD9405664 Si02
#       7
#     8   8   4   8   8   4   8
#     4   9  19  36  58  82 108 140 181 229 276 324
#     4  11  22  38  60  83 111 147 181 220 273 328
#     4  10  24  42  56  80 116 146 180 224 269 326
#     4   9  18  35  58  83 110 139 178 226 272 323
#     4  10  21  36  53  78 113 150 186 226 273 326
#     4  12  24  38  60  86 110 142 186 228 267 320
#     4   9  18  33  53  76 104 141 184 228 273 325
#
# _framework density 17.361967
#
# number of rings (size 3 to 8) (size 9 to 14) (size 15 to 20)
#    0.000    2.167    0.833    3.250    0.000    6.333 
#    1.500    3.333    0.000    0.000    0.000    0.000 
#    0.000    0.000    0.000    0.000    0.000    0.000 
#
# Total GULP energy -267977.397290 kJ/mol
# GULP energy per Si atom -5582.862444 kJ/mol
# Density = 1.732245 g / cm^3
# Si number density = 17.361967 Si / 1000 Ang^3
#
#
#
# Elastic Constant Matrix: (Units=GPa)
#
#
# Indices 1 2 3 4 5 6 
#
# 1 112.6275 78.4100 96.1076 0.0000 0.0000 0.0000
# 2 78.4100 80.0894 84.4287 0.0000 0.0000 0.0000
# 3 96.1076 84.4287 151.8335 0.0000 0.0000 0.0000
# 4 0.0000 0.0000 0.0000 123.8844 0.0000 0.0000
# 5 0.0000 0.0000 0.0000 0.0000 22.1792 0.0000
# 6 0.0000 0.0000 0.0000 0.0000 0.0000 5.7376
#
#
#
# Elastic Compliance Matrix: (Units=1/GPa)
#
#
# Indices 1 2 3 4 5 6 
#
# 1 0.030319 -0.022842 -0.006490 0.000000 0.000000 0.000000
# 2 -0.022842 0.047382 -0.011889 0.000000 0.000000 0.000000
# 3 -0.006490 -0.011889 0.017305 0.000000 0.000000 0.000000
# 4 0.000000 0.000000 0.000000 0.008072 0.000000 0.000000
# 5 0.000000 0.000000 0.000000 0.000000 0.045087 0.000000
# 6 0.000000 0.000000 0.000000 0.000000 0.000000 0.174288
#
#
# Mechanical properties :
#
#
# Convention : Reuss Voigt Hill
#
# Bulk Modulus (GPa) = 79.58658 95.82699 87.70678
# Shear Modulus (GPa) = 12.22249 36.06717 24.14483
#
# Velocity S-wave (km/s) = 2.65614 4.56276 3.73322
# Velocity P-wave (km/s) = 7.43948 9.11437 8.31919
#
# Compressibility (1/GPa) = 0.01256493
#
# Stress axis : x y z
#
# Youngs Moduli (GPa) = 32.98273 21.10523 57.78647
#
# Poissons Ratio (x) = 0.48208 0.37503
# Poissons Ratio (y) = 0.75338 0.68701
# Poissons Ratio (z) = 0.21406 0.25092
#
# Static dielectric constant tensor:
#      x y z
#    x 1.572200 0.000000 0.000000 
#    y 0.000000 1.576070 0.000000 
#    z 0.000000 0.000000 1.568850 
# 
# From -- ./inp_files/37143.got.cif
#   From: 2010.05.17/outbox.cif.g08.bks.cpg/sg51_19_cif.got.tgz:37143.got - 2010.06.03 11:52:47.
