data_PCOD9405650
_publ_section_title
;
Structure prediction by ZEFSAII (Michael W. Deem and Ramdas Pophale) SiO2 
 PCOD9405650
Probable space group: P M M A
;
_chemical_formula_sum "Si O2"
_cell_formula_units_Z 64
_cell_length_a 7.883099
_cell_length_b 24.687225
_cell_length_c 15.628935
_cell_angle_alpha 90.000000
_cell_angle_beta 90.000000
_cell_angle_gamma 90.000000
_cell_volume 3041.575777
_symmetry_space_group_name_H-M "P M M A"
_symmetry_group_IT_number 51
_symmetry_cell_setting 'orthorhombic'
loop_
_space_group_symop_operation_xyz
x,y,z
1/2-x,-y,z
1/2+x,-y,-z
-x,y,-z
-x,-y,-z
1/2+x,y,-z
1/2-x,y,z
x,-y,z
loop_
_atom_site_type_symbol
_atom_site_label
_atom_site_fract_x
_atom_site_fract_y
_atom_site_fract_z
Si Si1 0.954401 0.058869 0.399858
Si Si2 0.944278 0.352509 0.766128
Si Si3 0.952134 0.831648 0.822519
Si Si4 0.049665 0.705159 0.592414
Si Si5 0.954269 0.059011 0.900841
Si Si6 0.954886 0.437644 0.903236
Si Si7 0.444943 0.178880 0.639123
Si Si8 0.950274 0.270753 0.092836
O O1 0.750000 0.059029 0.388498
O O2 0.020796 0.118124 0.370479
O O3 0.000000 0.057625 0.500000
O O4 0.016122 0.000000 0.363878
O O5 0.750000 0.367338 0.750596
O O6 0.021810 0.400677 0.825001
O O7 0.010122 0.332041 0.674509
O O8 0.957070 0.302368 0.831534
O O9 0.750000 0.832229 0.806736
O O10 0.015543 0.891474 0.844570
O O11 0.047868 0.810103 0.739864
O O12 0.991651 0.791257 0.899349
O O13 0.250000 0.712589 0.593893
O O14 0.974041 0.766695 0.599688
O O15 0.000000 0.682090 0.500000
O O16 0.750000 0.058860 0.895405
O O17 0.019142 0.000000 0.874493
O O18 0.000000 0.067157 0.000000
O O19 0.750000 0.436434 0.899106
O O20 0.012042 0.500000 0.894704
O O21 0.000000 0.419606 0.000000
O O22 0.250000 0.174463 0.608499
O O23 0.750000 0.275426 0.105114
O O24 0.000000 0.292042 0.000000
#
# Coordination Sequence:
#
# PCOD9405650 Si02
#       8
#     8   8   8   8   8   8   8   8
#     4   9  18  33  52  74 100 131 172 222 282 351
#     4  11  22  38  61  90 123 159 202 247 292 345
#     4  11  22  35  53  76 104 139 180 229 283 344
#     4  11  23  39  60  85 116 156 201 253 305 359
#     4   9  19  35  52  71  95 127 172 224 277 337
#     4   9  19  36  60  93 132 171 207 244 288 340
#     4  10  21  36  53  76 107 142 181 233 292 352
#     4  12  24  38  56  81 116 154 192 237 289 345
#
# _framework density 21.041723999999999
#
# number of rings (size 3 to 8) (size 9 to 14) (size 15 to 20)
#    0.000    1.750    1.250    3.375    0.000    5.500 
#    0.000    0.000    0.000    0.375    0.000    0.000 
#    0.000    0.000    0.000    0.000    0.000    0.000 
#
# Total GULP energy -357033.030244 kJ/mol
# GULP energy per Si atom -5578.641098 kJ/mol
# Density = 2.099383 g / cm^3
# Si number density = 21.041724 Si / 1000 Ang^3
#
#
#
# Elastic Constant Matrix: (Units=GPa)
#
#
# Indices 1 2 3 4 5 6 
#
# 1 36.6978 6.4790 0.0121 0.0000 0.0000 0.0000
# 2 6.4790 117.7860 56.2057 0.0000 0.0000 0.0000
# 3 0.0121 56.2057 132.6316 0.0000 0.0000 0.0000
# 4 0.0000 0.0000 0.0000 16.9534 0.0000 0.0000
# 5 0.0000 0.0000 0.0000 0.0000 26.2309 0.0000
# 6 0.0000 0.0000 0.0000 0.0000 0.0000 -15.8492
#
#
#
# Elastic Compliance Matrix: (Units=1/GPa)
#
#
# Indices 1 2 3 4 5 6 
#
# 1 0.027585 -0.001900 0.000803 0.000000 0.000000 0.000000
# 2 -0.001900 0.010773 -0.004565 0.000000 0.000000 0.000000
# 3 0.000803 -0.004565 0.009474 0.000000 0.000000 0.000000
# 4 0.000000 0.000000 0.000000 0.058985 0.000000 0.000000
# 5 0.000000 0.000000 0.000000 0.000000 0.038123 0.000000
# 6 0.000000 0.000000 0.000000 0.000000 0.000000 -0.063095
#
#
# Mechanical properties :
#
#
# Convention : Reuss Voigt Hill
#
# Bulk Modulus (GPa) = 27.39237 45.83434 36.61336
# Shear Modulus (GPa) = 47.46549 20.42826 33.94687
#
# Velocity S-wave (km/s) = 4.75466 3.11922 4.02096
# Velocity P-wave (km/s) = 6.57181 5.89937 6.24465
#
# Compressibility (1/GPa) = 0.03650652
#
# Stress axis : x y z
#
# Youngs Moduli (GPa) = 36.25178 92.82546 105.55012
#
# Poissons Ratio (x) = 0.17641 -0.08474
# Poissons Ratio (y) = 0.06889 0.48185
# Poissons Ratio (z) = -0.02910 0.42376
#
# Static dielectric constant tensor:
#      x y z
#    x 1.786630 0.000000 0.000000 
#    y 0.000000 1.832360 0.000000 
#    z 0.000000 0.000000 1.770050 
# 
# From -- ./inp_files/22228.got.cif
#   From: 2010.05.17/outbox.cif.g08.bks.cpg/sg51_12_cif.got.tgz:22228.got - 2010.06.03 11:52:47.
