data_PCOD9405995
_publ_section_title
;
Structure prediction by ZEFSAII (Michael W. Deem and Ramdas Pophale) SiO2 
 PCOD9405995
Probable space group: P M M A
;
_chemical_formula_sum "Si O2"
_cell_formula_units_Z 48
_cell_length_a 8.443625
_cell_length_b 14.904895
_cell_length_c 21.130024
_cell_angle_alpha 90.000000
_cell_angle_beta 90.000000
_cell_angle_gamma 90.000000
_cell_volume 2659.241920
_symmetry_space_group_name_H-M "P M M A"
_symmetry_group_IT_number 51
_symmetry_cell_setting 'orthorhombic'
loop_
_space_group_symop_operation_xyz
x,y,z
1/2-x,-y,z
1/2+x,-y,-z
-x,y,-z
-x,-y,-z
1/2+x,y,-z
1/2-x,y,z
x,-y,z
loop_
_atom_site_type_symbol
_atom_site_label
_atom_site_fract_x
_atom_site_fract_y
_atom_site_fract_z
Si Si1 0.060531 0.396884 0.069548
Si Si2 0.060177 0.287214 0.811533
Si Si3 0.057479 0.901205 0.612992
Si Si4 0.440063 0.604127 0.310117
Si Si5 0.057318 0.901063 0.761410
Si Si6 0.559993 0.290371 0.432603
O O1 0.250000 0.396763 0.069271
O O2 0.006532 0.500000 0.081444
O O3 0.001185 0.332747 0.124827
O O4 0.000000 0.370907 0.000000
O O5 0.250000 0.286193 0.812963
O O6 0.002629 0.185066 0.800347
O O7 0.006353 0.344602 0.750934
O O8 0.250000 0.901971 0.610265
O O9 0.014858 0.890821 0.687221
O O10 0.002461 0.812780 0.576811
O O11 0.002225 0.000000 0.591315
O O12 0.250000 0.607786 0.308089
O O13 0.489259 0.500000 0.309114
O O14 0.499218 0.652146 0.373664
O O15 0.250000 0.901158 0.763117
O O16 0.003797 0.000000 0.782599
O O17 0.500000 0.324558 0.500000
O O18 0.750000 0.290545 0.431509
#
# Coordination Sequence:
#
# PCOD9405995 Si02
#       6
#     8   8   8   8   8   8
#     4  10  21  37  56  81 115 152 186 223 268 317
#     4  11  20  33  58  88 113 143 180 220 267 317
#     4   8  14  28  51  77 105 136 171 213 263 319
#     4  11  24  40  56  76 104 139 180 226 272 319
#     4   8  14  27  50  80 110 139 174 215 261 315
#     4  11  22  37  56  78 104 138 177 221 273 327
#
# _framework density 18.050256000000001
#
# number of rings (size 3 to 8) (size 9 to 14) (size 15 to 20)
#    0.000    2.167    1.667    3.500    0.000    5.000 
#    0.000    0.000    0.000    5.000    0.000    0.000 
#    0.000    0.000    0.000    0.000    0.000    0.000 
#
# Total GULP energy -267893.254985 kJ/mol
# GULP energy per Si atom -5581.109479 kJ/mol
# Density = 1.800917 g / cm^3
# Si number density = 18.050256 Si / 1000 Ang^3
#
#
#
# Elastic Constant Matrix: (Units=GPa)
#
#
# Indices 1 2 3 4 5 6 
#
# 1 30.8676 24.5516 23.0532 0.0000 0.0000 0.0000
# 2 24.5516 136.3281 83.6207 0.0000 0.0000 0.0000
# 3 23.0532 83.6207 134.2663 0.0000 0.0000 0.0000
# 4 0.0000 0.0000 0.0000 -3.5400 0.0000 0.0000
# 5 0.0000 0.0000 0.0000 0.0000 29.4949 0.0000
# 6 0.0000 0.0000 0.0000 0.0000 0.0000 33.7572
#
#
#
# Elastic Compliance Matrix: (Units=1/GPa)
#
#
# Indices 1 2 3 4 5 6 
#
# 1 0.038947 -0.004713 -0.003752 0.000000 0.000000 0.000000
# 2 -0.004713 0.012440 -0.006938 0.000000 0.000000 0.000000
# 3 -0.003752 -0.006938 0.012413 0.000000 0.000000 0.000000
# 4 0.000000 0.000000 0.000000 -0.282484 0.000000 0.000000
# 5 0.000000 0.000000 0.000000 0.000000 0.033904 0.000000
# 6 0.000000 0.000000 0.000000 0.000000 0.000000 0.029623
#
#
# Mechanical properties :
#
#
# Convention : Reuss Voigt Hill
#
# Bulk Modulus (GPa) = 30.30858 62.65700 46.48279
# Shear Modulus (GPa) = -44.11030 23.29151 -10.40940
#
# Velocity S-wave (km/s) = -4.94879 3.59607 -2.40404
# Velocity P-wave (km/s) = 3.97824 7.21319 4.25463
#
# Compressibility (1/GPa) = 0.03299395
#
# Stress axis : x y z
#
# Youngs Moduli (GPa) = 25.67600 80.38743 80.55882
#
# Poissons Ratio (x) = 0.37883 0.30227
# Poissons Ratio (y) = 0.12100 0.55894
# Poissons Ratio (z) = 0.09634 0.55775
#
# Static dielectric constant tensor:
#      x y z
#    x 1.607100 0.000000 0.000000 
#    y 0.000000 1.647820 0.000000 
#    z 0.000000 0.000000 1.562400 
# 
# From -- ./inp_files/27525.got.cif
#   From: 2010.05.17/outbox.cif.g08.bks.cpg/sg51_14_cif.got.tgz:27525.got - 2010.06.03 11:52:47.
