data_PCOD9405647
_publ_section_title
;
Structure prediction by ZEFSAII (Michael W. Deem and Ramdas Pophale) SiO2 
 PCOD9405647
Probable space group: P M M A
;
_chemical_formula_sum "Si O2"
_cell_formula_units_Z 48
_cell_length_a 8.596289
_cell_length_b 19.182150
_cell_length_c 15.843485
_cell_angle_alpha 90.000000
_cell_angle_beta 90.000000
_cell_angle_gamma 90.000000
_cell_volume 2612.516292
_symmetry_space_group_name_H-M "P M M A"
_symmetry_group_IT_number 51
_symmetry_cell_setting 'orthorhombic'
loop_
_space_group_symop_operation_xyz
x,y,z
1/2-x,-y,z
1/2+x,-y,-z
-x,y,-z
-x,-y,-z
1/2+x,y,-z
1/2-x,y,z
x,-y,z
loop_
_atom_site_type_symbol
_atom_site_label
_atom_site_fract_x
_atom_site_fract_y
_atom_site_fract_z
Si Si1 0.563604 0.080985 0.592380
Si Si2 0.938619 0.326412 0.749963
Si Si3 0.936739 0.829922 0.252528
Si Si4 0.937575 0.919417 0.091238
Si Si5 0.062336 0.580395 0.091840
Si Si6 0.437651 0.419591 0.408375
O O1 0.500000 0.100439 0.500000
O O2 0.750000 0.084929 0.591592
O O3 0.497591 0.129506 0.665509
O O4 0.518089 0.000000 0.607840
O O5 0.750000 0.324095 0.749891
O O6 0.988609 0.368922 0.833215
O O7 0.988418 0.369408 0.667029
O O8 0.002694 0.248694 0.749076
O O9 0.750000 0.830222 0.253757
O O10 0.989450 0.871291 0.168471
O O11 0.750000 0.918413 0.088729
O O12 0.986982 0.000000 0.104818
O O13 0.000000 0.896792 0.000000
O O14 0.250000 0.581190 0.089719
O O15 0.013838 0.500000 0.107952
O O16 0.000000 0.600983 0.000000
O O17 0.500000 0.398387 0.500000
O O18 0.250000 0.418833 0.410564
O O19 0.486419 0.500000 0.392921
#
# Coordination Sequence:
#
# PCOD9405647 Si02
#       6
#     8   8   8   8   8   8
#     4  10  21  38  61  86 110 140 180 224 269 318
#     4  10  21  36  53  75 107 144 179 216 264 323
#     4  11  23  37  54  79 113 148 181 220 268 321
#     4   9  19  36  57  79 103 135 176 221 266 312
#     4   9  18  34  56  79 103 136 179 226 275 326
#     4   9  18  34  56  79 102 132 172 217 263 311
#
# _framework density 18.373090999999999
#
# number of rings (size 3 to 8) (size 9 to 14) (size 15 to 20)
#    0.000    2.333    0.000    2.000    0.000    7.667 
#    0.000    6.667    0.000    5.000    0.000    0.000 
#    0.000    0.000    0.000    0.000    0.000    0.000 
#
# Total GULP energy -267987.990391 kJ/mol
# GULP energy per Si atom -5583.083133 kJ/mol
# Density = 1.833127 g / cm^3
# Si number density = 18.373091 Si / 1000 Ang^3
#
#
#
# Elastic Constant Matrix: (Units=GPa)
#
#
# Indices 1 2 3 4 5 6 
#
# 1 18.5004 32.5669 39.3937 0.0000 0.0000 0.0000
# 2 32.5669 134.6925 141.3935 0.0000 0.0000 0.0000
# 3 39.3937 141.3935 215.0881 0.0000 0.0000 0.0000
# 4 0.0000 0.0000 0.0000 -6.4641 0.0000 0.0000
# 5 0.0000 0.0000 0.0000 0.0000 33.8235 0.0000
# 6 0.0000 0.0000 0.0000 0.0000 0.0000 25.1004
#
#
#
# Elastic Compliance Matrix: (Units=1/GPa)
#
#
# Indices 1 2 3 4 5 6 
#
# 1 0.097852 -0.015636 -0.007643 0.000000 0.000000 0.000000
# 2 -0.015636 0.026454 -0.014527 0.000000 0.000000 0.000000
# 3 -0.007643 -0.014527 0.015598 0.000000 0.000000 0.000000
# 4 0.000000 0.000000 0.000000 -0.154702 0.000000 0.000000
# 5 0.000000 0.000000 0.000000 0.000000 0.029565 0.000000
# 6 0.000000 0.000000 0.000000 0.000000 0.000000 0.039840
#
#
# Mechanical properties :
#
#
# Convention : Reuss Voigt Hill
#
# Bulk Modulus (GPa) = 15.55365 88.33212 51.94289
# Shear Modulus (GPa) = 32.97041 20.82043 26.89542
#
# Velocity S-wave (km/s) = 4.24074 3.36996 3.83018
# Velocity P-wave (km/s) = 5.69758 7.95760 6.92047
#
# Compressibility (1/GPa) = 0.06429358
#
# Stress axis : x y z
#
# Youngs Moduli (GPa) = 10.21948 37.80119 64.10900
#
# Poissons Ratio (x) = 0.59107 0.48998
# Poissons Ratio (y) = 0.15979 0.93128
# Poissons Ratio (z) = 0.07811 0.54912
#
# Static dielectric constant tensor:
#      x y z
#    x 1.627440 0.000000 0.000000 
#    y 0.000000 1.610860 0.000000 
#    z 0.000000 0.000000 1.607610 
# 
# From -- ./inp_files/21073.got.cif
#   From: 2010.05.17/outbox.cif.g08.bks.cpg/sg51_11_cif.got.tgz:21073.got - 2010.06.03 11:52:47.
