data_PCOD9405214
_publ_section_title
;
Structure prediction by ZEFSAII (Michael W. Deem and Ramdas Pophale) SiO2 
 PCOD9405214
Probable space group: P M M A
;
_chemical_formula_sum "Si O2"
_cell_formula_units_Z 40
_cell_length_a 14.503272
_cell_length_b 13.500711
_cell_length_c 9.523356
_cell_angle_alpha 90.000000
_cell_angle_beta 90.000000
_cell_angle_gamma 90.000000
_cell_volume 1864.715806
_symmetry_space_group_name_H-M "P M M A"
_symmetry_group_IT_number 51
_symmetry_cell_setting 'orthorhombic'
loop_
_space_group_symop_operation_xyz
x,y,z
1/2-x,-y,z
1/2+x,-y,-z
-x,y,-z
-x,-y,-z
1/2+x,y,-z
1/2-x,y,z
x,-y,z
loop_
_atom_site_type_symbol
_atom_site_label
_atom_site_fract_x
_atom_site_fract_y
_atom_site_fract_z
Si Si1 0.106224 0.642102 0.517812
Si Si2 0.250000 0.841781 0.231010
Si Si3 0.750000 0.178125 0.095008
Si Si4 0.250000 0.389307 0.764957
Si Si5 0.071513 0.848473 0.395254
Si Si6 0.750000 0.394887 0.717213
Si Si7 0.045737 0.116225 0.848037
O O1 0.161258 0.618455 0.660040
O O2 0.108375 0.759742 0.491128
O O3 0.162992 0.601959 0.386462
O O4 0.000000 0.612665 0.500000
O O5 0.161735 0.884382 0.313354
O O6 0.250000 0.719471 0.229153
O O7 0.250000 0.860681 0.065701
O O8 0.750000 0.296744 0.127630
O O9 0.845924 0.137469 0.155741
O O10 0.250000 0.500000 0.827473
O O11 0.000000 0.901433 0.500000
O O12 0.007641 0.817065 0.264143
O O13 0.750000 0.500000 0.800969
O O14 0.029060 0.000000 0.813620
O O15 0.000000 0.134013 0.000000
#
# Coordination Sequence:
#
# PCOD9405214 Si02
#       7
#     8   4   4   4   8   4   8
#     4   9  17  33  57  83 120 160 207 255 318 372
#     4  10  21  37  59  87 119 172 213 259 333 394
#     4  12  22  42  67  85 134 178 214 266 332 397
#     4  11  24  38  60  99 132 173 228 271 318 391
#     4  10  20  38  63  94 128 164 215 270 328 388
#     4   9  18  29  46  75 109 145 200 258 300 360
#     4  11  24  42  67  98 129 171 221 269 329 404
#
# _framework density 21.450990999999998
#
# number of rings (size 3 to 8) (size 9 to 14) (size 15 to 20)
#    0.000    1.800    2.000    4.500    0.000    3.200 
#    0.000    0.500    0.000    0.600    0.000    0.000 
#    0.000    0.000    0.000    0.000    0.000    0.000 
#
# Total GULP energy -222736.321629 kJ/mol
# GULP energy per Si atom -5568.408041 kJ/mol
# Density = 2.140217 g / cm^3
# Si number density = 21.450991 Si / 1000 Ang^3
#
#
#
# Elastic Constant Matrix: (Units=GPa)
#
#
# Indices 1 2 3 4 5 6 
#
# 1 180.6971 -13.9092 33.6799 0.0000 0.0000 0.0000
# 2 -13.9092 96.3099 -1.5349 0.0000 0.0000 0.0000
# 3 33.6799 -1.5349 85.4411 0.0000 0.0000 0.0000
# 4 0.0000 0.0000 0.0000 9.0303 0.0000 0.0000
# 5 0.0000 0.0000 0.0000 0.0000 34.1376 0.0000
# 6 0.0000 0.0000 0.0000 0.0000 0.0000 -125.4706
#
#
#
# Elastic Compliance Matrix: (Units=1/GPa)
#
#
# Indices 1 2 3 4 5 6 
#
# 1 0.006039 0.000834 -0.002366 0.000000 0.000000 0.000000
# 2 0.000834 0.010501 -0.000140 0.000000 0.000000 0.000000
# 3 -0.002366 -0.000140 0.012634 0.000000 0.000000 0.000000
# 4 0.000000 0.000000 0.000000 0.110738 0.000000 0.000000
# 5 0.000000 0.000000 0.000000 0.000000 0.029293 0.000000
# 6 0.000000 0.000000 0.000000 0.000000 0.000000 -0.007970
#
#
# Mechanical properties :
#
#
# Convention : Reuss Voigt Hill
#
# Bulk Modulus (GPa) = 38.71196 44.32442 41.51819
# Shear Modulus (GPa) = 28.87018 6.48695 17.67857
#
# Velocity S-wave (km/s) = 3.67259 1.74088 2.87389
# Velocity P-wave (km/s) = 6.00581 4.97482 5.51446
#
# Compressibility (1/GPa) = 0.02583181
#
# Stress axis : x y z
#
# Youngs Moduli (GPa) = 165.58251 95.22511 79.15178
#
# Poissons Ratio (x) = -0.07947 0.18724
# Poissons Ratio (y) = -0.13818 0.01111
# Poissons Ratio (z) = 0.39171 0.01336
#
# Static dielectric constant tensor:
#      x y z
#    x 1.796180 0.000000 0.000000 
#    y 0.000000 1.854710 0.000000 
#    z 0.000000 0.000000 1.748530 
# 
# From -- ./inp_files/8055.got.cif
#   From: 2010.05.17/outbox.cif.g08.bks.cpg/sg51_5_cif.got.tgz:8055.got - 2010.06.03 11:52:47.
