data_PCOD9405371
_publ_section_title
;
Structure prediction by ZEFSAII (Michael W. Deem and Ramdas Pophale) SiO2 
 PCOD9405371
Probable space group: P M M A
;
_chemical_formula_sum "Si O2"
_cell_formula_units_Z 36
_cell_length_a 17.728722
_cell_length_b 7.557647
_cell_length_c 16.038228
_cell_angle_alpha 90.000000
_cell_angle_beta 90.000000
_cell_angle_gamma 90.000000
_cell_volume 2148.920833
_symmetry_space_group_name_H-M "P M M A"
_symmetry_group_IT_number 51
_symmetry_cell_setting 'orthorhombic'
loop_
_space_group_symop_operation_xyz
x,y,z
1/2-x,-y,z
1/2+x,-y,-z
-x,y,-z
-x,-y,-z
1/2+x,y,-z
1/2-x,y,z
x,-y,z
loop_
_atom_site_type_symbol
_atom_site_label
_atom_site_fract_x
_atom_site_fract_y
_atom_site_fract_z
Si Si1 0.660459 0.000000 0.371420
Si Si2 0.340096 0.294478 0.494672
Si Si3 0.028053 0.000000 0.741273
Si Si4 0.583764 0.291250 0.680225
Si Si5 0.337501 0.709490 0.145596
Si Si6 0.450780 0.000000 0.083108
O O1 0.640175 0.831359 0.428749
O O2 0.613961 0.000000 0.286717
O O3 0.750000 0.000000 0.357793
O O4 0.250000 0.278878 0.481100
O O5 0.357124 0.500000 0.512376
O O6 0.381076 0.243850 0.408947
O O7 0.987013 0.170278 0.701567
O O8 0.007896 0.000000 0.838394
O O9 0.565786 0.500000 0.679212
O O10 0.642406 0.262338 0.756478
O O11 0.250000 0.754819 0.130621
O O12 0.347777 0.500000 0.128777
O O13 0.395569 0.830814 0.094579
O O14 0.500000 0.000000 0.000000
#
# Coordination Sequence:
#
# PCOD9405371 Si02
#       6
#     4   8   4   8   8   4
#     4  10  21  35  47  61  88 130 173 205 230 263
#     4   9  17  29  46  69  98 132 166 195 225 267
#     4  10  21  35  49  68  93 122 160 201 246 294
#     4   9  17  29  48  75 103 127 152 190 241 291
#     4   9  17  31  53  79 105 130 156 192 242 299
#     4  10  21  36  53  75 100 128 160 200 251 303
#
# _framework density 16.752593999999998
#
# number of rings (size 3 to 8) (size 9 to 14) (size 15 to 20)
#    0.000    2.667    0.000    1.667    0.000    5.778 
#    0.000    6.667    0.000    0.000    0.000    3.111 
#    0.000    0.000    0.000    0.000    0.000    0.000 
#
# Total GULP energy -200769.307207 kJ/mol
# GULP energy per Si atom -5576.925200 kJ/mol
# Density = 1.671446 g / cm^3
# Si number density = 16.752594 Si / 1000 Ang^3
#
#
#
# Elastic Constant Matrix: (Units=GPa)
#
#
# Indices 1 2 3 4 5 6 
#
# 1 87.1184 49.8459 74.2859 0.0000 0.0000 0.0000
# 2 49.8459 62.7069 46.5011 0.0000 0.0000 0.0000
# 3 74.2859 46.5011 88.9452 0.0000 0.0000 0.0000
# 4 0.0000 0.0000 0.0000 15.2646 0.0000 0.0000
# 5 0.0000 0.0000 0.0000 0.0000 26.8381 0.0000
# 6 0.0000 0.0000 0.0000 0.0000 0.0000 13.0342
#
#
#
# Elastic Compliance Matrix: (Units=1/GPa)
#
#
# Indices 1 2 3 4 5 6 
#
# 1 0.045622 -0.013081 -0.031264 0.000000 0.000000 0.000000
# 2 -0.013081 0.029795 -0.004652 0.000000 0.000000 0.000000
# 3 -0.031264 -0.004652 0.039787 0.000000 0.000000 0.000000
# 4 0.000000 0.000000 0.000000 0.065511 0.000000 0.000000
# 5 0.000000 0.000000 0.000000 0.000000 0.037260 0.000000
# 6 0.000000 0.000000 0.000000 0.000000 0.000000 0.076721
#
#
# Mechanical properties :
#
#
# Convention : Reuss Voigt Hill
#
# Bulk Modulus (GPa) = 58.10808 64.44850 61.27829
# Shear Modulus (GPa) = 12.54936 15.56988 14.05962
#
# Velocity S-wave (km/s) = 2.73994 3.05192 2.90012
# Velocity P-wave (km/s) = 6.69111 7.13955 6.91897
#
# Compressibility (1/GPa) = 0.01720931
#
# Stress axis : x y z
#
# Youngs Moduli (GPa) = 21.91934 33.56280 25.13409
#
# Poissons Ratio (x) = 0.43902 0.78580
# Poissons Ratio (y) = 0.28672 0.11693
# Poissons Ratio (z) = 0.68529 0.15614
#
# Static dielectric constant tensor:
#      x y z
#    x 1.553290 0.000000 0.000000 
#    y 0.000000 1.587470 0.000000 
#    z 0.000000 0.000000 1.529090 
# 
# From -- ./inp_files/23631.got.cif
#   From: 2010.05.17/outbox.cif.g08.bks.cpg/sg51_12_cif.got.tgz:23631.got - 2010.06.03 11:52:47.
