data_PCOD9405956
_publ_section_title
;
Structure prediction by ZEFSAII (Michael W. Deem and Ramdas Pophale) SiO2 
 PCOD9405956
Probable space group: P M M A
;
_chemical_formula_sum "Si O2"
_cell_formula_units_Z 56
_cell_length_a 8.856784
_cell_length_b 14.616899
_cell_length_c 24.355499
_cell_angle_alpha 90.000000
_cell_angle_beta 90.000000
_cell_angle_gamma 90.000000
_cell_volume 3153.031657
_symmetry_space_group_name_H-M "P M M A"
_symmetry_group_IT_number 51
_symmetry_cell_setting 'orthorhombic'
loop_
_space_group_symop_operation_xyz
x,y,z
1/2-x,-y,z
1/2+x,-y,-z
-x,y,-z
-x,-y,-z
1/2+x,y,-z
1/2-x,y,z
x,-y,z
loop_
_atom_site_type_symbol
_atom_site_label
_atom_site_fract_x
_atom_site_fract_y
_atom_site_fract_z
Si Si1 0.074186 0.109786 0.941813
Si Si2 0.932331 0.393391 0.654917
Si Si3 0.067683 0.893504 0.350594
Si Si4 0.068638 0.394601 0.058050
Si Si5 0.569071 0.241144 0.855492
Si Si6 0.569145 0.254557 0.560036
Si Si7 0.569790 0.754220 0.265127
O O1 0.250000 0.137007 0.941117
O O2 0.986351 0.156371 0.892085
O O3 0.066156 0.000000 0.937403
O O4 0.000000 0.135782 0.000000
O O5 0.750000 0.386695 0.660660
O O6 0.973631 0.500000 0.654527
O O7 0.973542 0.340780 0.598542
O O8 0.007489 0.335685 0.703646
O O9 0.250000 0.887225 0.344801
O O10 0.026119 0.835897 0.405108
O O11 0.992724 0.840252 0.300004
O O12 0.026277 0.000000 0.353545
O O13 0.250000 0.391707 0.053432
O O14 0.022403 0.500000 0.067144
O O15 0.025244 0.329701 0.108186
O O16 0.000000 0.364145 0.000000
O O17 0.750000 0.239676 0.849427
O O18 0.492777 0.242245 0.796353
O O19 0.500000 0.257386 0.500000
O O20 0.750000 0.254838 0.555069
O O21 0.750000 0.754507 0.265537
#
# Coordination Sequence:
#
# PCOD9405956 Si02
#       7
#     8   8   8   8   8   8   8
#     4  10  21  37  56  79 108 140 175 219 271 325
#     4   9  19  38  60  78 104 146 188 223 264 316
#     4   9  19  38  60  78 103 144 187 222 262 317
#     4   9  19  35  54  77 104 134 169 209 255 308
#     4  11  22  36  56  79 105 141 181 219 264 320
#     4   9  18  32  52  82 115 144 177 218 264 314
#     4  11  23  37  54  80 111 138 174 227 278 324
#
# _framework density 17.760684000000001
#
# number of rings (size 3 to 8) (size 9 to 14) (size 15 to 20)
#    0.000    2.286    0.000    3.429    0.000    7.714 
#    0.000    1.429    0.000    0.000    0.000    0.000 
#    0.000    0.000    0.000    0.000    0.000    0.000 
#
# Total GULP energy -312605.322333 kJ/mol
# GULP energy per Si atom -5582.237899 kJ/mol
# Density = 1.772026 g / cm^3
# Si number density = 17.760684 Si / 1000 Ang^3
#
#
#
# Elastic Constant Matrix: (Units=GPa)
#
#
# Indices 1 2 3 4 5 6 
#
# 1 48.6309 48.3558 55.0561 0.0000 0.0000 0.0000
# 2 48.3558 133.1871 80.3795 0.0000 0.0000 0.0000
# 3 55.0561 80.3795 182.5495 0.0000 0.0000 0.0000
# 4 0.0000 0.0000 0.0000 12.8786 0.0000 0.0000
# 5 0.0000 0.0000 0.0000 0.0000 37.8317 0.0000
# 6 0.0000 0.0000 0.0000 0.0000 0.0000 30.2514
#
#
#
# Elastic Compliance Matrix: (Units=1/GPa)
#
#
# Indices 1 2 3 4 5 6 
#
# 1 0.038343 -0.009454 -0.007401 0.000000 0.000000 0.000000
# 2 -0.009454 0.012557 -0.002678 0.000000 0.000000 0.000000
# 3 -0.007401 -0.002678 0.008889 0.000000 0.000000 0.000000
# 4 0.000000 0.000000 0.000000 0.077648 0.000000 0.000000
# 5 0.000000 0.000000 0.000000 0.000000 0.026433 0.000000
# 6 0.000000 0.000000 0.000000 0.000000 0.000000 0.033056
#
#
# Mechanical properties :
#
#
# Convention : Reuss Voigt Hill
#
# Bulk Modulus (GPa) = 48.25646 81.32780 64.79213
# Shear Modulus (GPa) = 20.58465 28.23076 24.40771
#
# Velocity S-wave (km/s) = 3.40810 3.99119 3.71112
# Velocity P-wave (km/s) = 6.53577 8.19328 7.41101
#
# Compressibility (1/GPa) = 0.02072261
#
# Stress axis : x y z
#
# Youngs Moduli (GPa) = 26.08044 79.63862 112.49781
#
# Poissons Ratio (x) = 0.75294 0.83261
# Poissons Ratio (y) = 0.24658 0.30122
# Poissons Ratio (z) = 0.19302 0.21323
#
# Static dielectric constant tensor:
#      x y z
#    x 1.595810 0.000000 0.000000 
#    y 0.000000 1.612850 0.000000 
#    z 0.000000 0.000000 1.567210 
# 
# From -- ./inp_files/31875.got.cif
#   From: 2010.05.17/outbox.cif.g08.bks.cpg/sg51_16_cif.got.tgz:31875.got - 2010.06.03 11:52:47.
