data_PCOD9405302
_publ_section_title
;
Structure prediction by ZEFSAII (Michael W. Deem and Ramdas Pophale) SiO2 
 PCOD9405302
Probable space group: P M M A
;
_chemical_formula_sum "Si O2"
_cell_formula_units_Z 56
_cell_length_a 15.270642
_cell_length_b 20.360195
_cell_length_c 9.368635
_cell_angle_alpha 90.000000
_cell_angle_beta 90.000000
_cell_angle_gamma 90.000000
_cell_volume 2912.832746
_symmetry_space_group_name_H-M "P M M A"
_symmetry_group_IT_number 51
_symmetry_cell_setting 'orthorhombic'
loop_
_space_group_symop_operation_xyz
x,y,z
1/2-x,-y,z
1/2+x,-y,-z
-x,y,-z
-x,-y,-z
1/2+x,y,-z
1/2-x,y,z
x,-y,z
loop_
_atom_site_type_symbol
_atom_site_label
_atom_site_fract_x
_atom_site_fract_y
_atom_site_fract_z
Si Si1 0.352910 0.659219 0.183574
Si Si2 0.087845 0.925759 0.404525
Si Si3 0.651116 0.928994 0.296574
Si Si4 0.003334 0.421753 0.669206
Si Si5 0.145932 0.340453 0.839981
Si Si6 0.144345 0.188943 0.198147
Si Si7 0.856986 0.194047 0.131279
O O1 0.250000 0.647963 0.213182
O O2 0.416969 0.609303 0.260416
O O3 0.373851 0.734309 0.230869
O O4 0.364391 0.652690 0.011782
O O5 0.156349 0.920956 0.534012
O O6 0.101448 0.866858 0.295262
O O7 0.000000 0.920815 0.500000
O O8 0.093583 0.000000 0.343076
O O9 0.750000 0.931671 0.239367
O O10 0.609277 0.865787 0.225498
O O11 0.609079 0.000000 0.266697
O O12 0.005953 0.500000 0.689098
O O13 0.086220 0.388819 0.748594
O O14 0.000000 0.407937 0.500000
O O15 0.250000 0.347549 0.808954
O O16 0.115825 0.265303 0.812765
O O17 0.250000 0.180805 0.207362
O O18 0.118231 0.182296 0.032403
O O19 0.750000 0.197037 0.134102
#
# Coordination Sequence:
#
# PCOD9405302 Si02
#       7
#     8   8   8   8   8   8   8
#     4   9  20  39  61  86 115 147 188 239 290 342
#     4  10  21  34  46  68 106 146 182 222 268 321
#     4   9  17  30  48  70  98 134 175 216 258 308
#     4  11  25  41  58  86 120 151 186 228 278 341
#     4   9  19  38  62  86 115 151 191 236 284 339
#     4   9  18  34  56  80 103 131 175 227 274 322
#     4   8  16  32  54  80 106 132 171 225 277 322
#
# _framework density 19.225272
#
# number of rings (size 3 to 8) (size 9 to 14) (size 15 to 20)
#    0.000    2.714    0.000    2.571    0.000    6.571 
#    0.000    9.286    0.000    2.571    0.000    0.000 
#    0.000    0.000    0.000    0.000    0.000    0.000 
#
# Total GULP energy -312179.323873 kJ/mol
# GULP energy per Si atom -5574.630783 kJ/mol
# Density = 1.918151 g / cm^3
# Si number density = 19.225272 Si / 1000 Ang^3
#
#
#
# Elastic Constant Matrix: (Units=GPa)
#
#
# Indices 1 2 3 4 5 6 
#
# 1 82.7300 71.6099 48.6623 0.0000 0.0000 0.0000
# 2 71.6099 170.5860 98.2265 0.0000 0.0000 0.0000
# 3 48.6623 98.2265 74.4184 0.0000 0.0000 0.0000
# 4 0.0000 0.0000 0.0000 43.9209 0.0000 0.0000
# 5 0.0000 0.0000 0.0000 0.0000 24.0314 0.0000
# 6 0.0000 0.0000 0.0000 0.0000 0.0000 25.5150
#
#
#
# Elastic Compliance Matrix: (Units=1/GPa)
#
#
# Indices 1 2 3 4 5 6 
#
# 1 0.020170 -0.003636 -0.008390 0.000000 0.000000 0.000000
# 2 -0.003636 0.025085 -0.030732 0.000000 0.000000 0.000000
# 3 -0.008390 -0.030732 0.059488 0.000000 0.000000 0.000000
# 4 0.000000 0.000000 0.000000 0.022768 0.000000 0.000000
# 5 0.000000 0.000000 0.000000 0.000000 0.041612 0.000000
# 6 0.000000 0.000000 0.000000 0.000000 0.000000 0.039193
#
#
# Mechanical properties :
#
#
# Convention : Reuss Voigt Hill
#
# Bulk Modulus (GPa) = 52.01247 84.97020 68.49134
# Shear Modulus (GPa) = 16.65336 25.97583 21.31460
#
# Velocity S-wave (km/s) = 2.94636 3.67976 3.33329
# Velocity P-wave (km/s) = 6.21994 7.89603 7.10756
#
# Compressibility (1/GPa) = 0.01922616
#
# Stress axis : x y z
#
# Youngs Moduli (GPa) = 49.57929 39.86502 16.81022
#
# Poissons Ratio (x) = 0.14495 0.14103
# Poissons Ratio (y) = 0.18027 0.51661
# Poissons Ratio (z) = 0.41596 1.22514
#
# Static dielectric constant tensor:
#      x y z
#    x 1.773720 0.000000 0.000000 
#    y 0.000000 1.675040 0.000000 
#    z 0.000000 0.000000 1.644890 
# 
# From -- ./inp_files/8504.got.cif
#   From: 2010.05.17/outbox.cif.g08.bks.cpg/sg51_5_cif.got.tgz:8504.got - 2010.06.03 11:52:47.
