data_PCOD9405668
_publ_section_title
;
Structure prediction by ZEFSAII (Michael W. Deem and Ramdas Pophale) SiO2 
 PCOD9405668
Probable space group: P M M A
;
_chemical_formula_sum "Si O2"
_cell_formula_units_Z 48
_cell_length_a 18.748073
_cell_length_b 7.527751
_cell_length_c 17.080151
_cell_angle_alpha 90.000000
_cell_angle_beta 90.000000
_cell_angle_gamma 90.000000
_cell_volume 2410.535806
_symmetry_space_group_name_H-M "P M M A"
_symmetry_group_IT_number 51
_symmetry_cell_setting 'orthorhombic'
loop_
_space_group_symop_operation_xyz
x,y,z
1/2-x,-y,z
1/2+x,-y,-z
-x,y,-z
-x,-y,-z
1/2+x,y,-z
1/2-x,y,z
x,-y,z
loop_
_atom_site_type_symbol
_atom_site_label
_atom_site_fract_x
_atom_site_fract_y
_atom_site_fract_z
Si Si1 0.668983 0.217476 0.147457
Si Si2 0.979155 0.291003 0.584715
Si Si3 0.896616 0.217309 0.820481
Si Si4 0.955801 0.792082 0.252160
Si Si5 0.671591 0.785581 0.660590
Si Si6 0.417145 0.783371 0.006620
O O1 0.750000 0.279928 0.151922
O O2 0.618500 0.277248 0.219019
O O3 0.671790 0.000000 0.147131
O O4 0.629235 0.272203 0.067627
O O5 0.992425 0.500000 0.582675
O O6 0.896366 0.264305 0.608008
O O7 0.000000 0.215909 0.500000
O O8 0.026865 0.222194 0.656481
O O9 0.844764 0.272644 0.750060
O O10 0.885067 0.272698 0.909666
O O11 0.975287 0.280030 0.793775
O O12 0.895835 0.000000 0.820073
O O13 0.955646 0.000000 0.232467
O O14 0.750000 0.723310 0.635453
O O15 0.672439 0.000000 0.661062
O O16 0.417921 0.000000 0.005945
O O17 0.500000 0.728042 0.000000
#
# Coordination Sequence:
#
# PCOD9405668 Si02
#       6
#     8   8   8   8   8   8
#     4   9  16  24  37  63  97 130 165 205 245 283
#     4  10  21  36  54  75  96 122 161 202 241 294
#     4   8  13  22  39  63  93 129 161 189 228 281
#     4   9  16  29  48  68  94 127 160 198 243 291
#     4   9  18  32  51  77 106 131 157 194 243 293
#     4   9  13  19  34  59  95 134 165 193 234 284
#
# _framework density 19.912586999999998
#
# number of rings (size 3 to 8) (size 9 to 14) (size 15 to 20)
#    0.000    3.000    1.667    1.500    0.000    2.333 
#    0.000    4.167    0.000    3.500    0.000    9.333 
#    0.000    0.000    0.000    0.000    0.000    0.000 
#
# Total GULP energy -267580.312035 kJ/mol
# GULP energy per Si atom -5574.589834 kJ/mol
# Density = 1.986726 g / cm^3
# Si number density = 19.912587 Si / 1000 Ang^3
#
#
#
# Elastic Constant Matrix: (Units=GPa)
#
#
# Indices 1 2 3 4 5 6 
#
# 1 138.3081 -8.2790 70.7190 0.0000 0.0000 0.0000
# 2 -8.2790 40.8118 -17.4557 0.0000 0.0000 0.0000
# 3 70.7190 -17.4557 133.1583 0.0000 0.0000 0.0000
# 4 0.0000 0.0000 0.0000 40.1981 0.0000 0.0000
# 5 0.0000 0.0000 0.0000 0.0000 20.1530 0.0000
# 6 0.0000 0.0000 0.0000 0.0000 0.0000 -15.5819
#
#
#
# Elastic Compliance Matrix: (Units=1/GPa)
#
#
# Indices 1 2 3 4 5 6 
#
# 1 0.009928 -0.000256 -0.005306 0.000000 0.000000 0.000000
# 2 -0.000256 0.025965 0.003539 0.000000 0.000000 0.000000
# 3 -0.005306 0.003539 0.010792 0.000000 0.000000 0.000000
# 4 0.000000 0.000000 0.000000 0.024877 0.000000 0.000000
# 5 0.000000 0.000000 0.000000 0.000000 0.049620 0.000000
# 6 0.000000 0.000000 0.000000 0.000000 0.000000 -0.064177
#
#
# Mechanical properties :
#
#
# Convention : Reuss Voigt Hill
#
# Bulk Modulus (GPa) = 23.45208 44.69408 34.07308
# Shear Modulus (GPa) = 66.43386 26.77344 46.60365
#
# Velocity S-wave (km/s) = 5.78232 3.67079 4.84303
# Velocity P-wave (km/s) = 7.50888 6.36083 6.95857
#
# Compressibility (1/GPa) = 0.04264015
#
# Stress axis : x y z
#
# Youngs Moduli (GPa) = 100.72440 38.51373 92.66200
#
# Poissons Ratio (x) = 0.00984 0.49168
# Poissons Ratio (y) = 0.02574 -0.32797
# Poissons Ratio (z) = 0.53446 -0.13632
#
# Static dielectric constant tensor:
#      x y z
#    x 1.695950 0.000000 0.000000 
#    y 0.000000 1.765090 0.000000 
#    z 0.000000 0.000000 1.706220 
# 
# From -- ./inp_files/30039.got.cif
#   From: 2010.05.17/outbox.cif.g08.bks.cpg/sg51_16_cif.got.tgz:30039.got - 2010.06.03 11:52:47.
