data_PCOD9405513
_publ_section_title
;
Structure prediction by ZEFSAII (Michael W. Deem and Ramdas Pophale) SiO2 
 PCOD9405513
Probable space group: P M M A
;
_chemical_formula_sum "Si O2"
_cell_formula_units_Z 40
_cell_length_a 14.597414
_cell_length_b 7.533766
_cell_length_c 15.750142
_cell_angle_alpha 90.000000
_cell_angle_beta 90.000000
_cell_angle_gamma 90.000000
_cell_volume 1732.098261
_symmetry_space_group_name_H-M "P M M A"
_symmetry_group_IT_number 51
_symmetry_cell_setting 'orthorhombic'
loop_
_space_group_symop_operation_xyz
x,y,z
1/2-x,-y,z
1/2+x,-y,-z
-x,y,-z
-x,-y,-z
1/2+x,y,-z
1/2-x,y,z
x,-y,z
loop_
_atom_site_type_symbol
_atom_site_label
_atom_site_fract_x
_atom_site_fract_y
_atom_site_fract_z
Si Si1 0.859405 0.714838 0.573608
Si Si2 0.017966 0.298691 0.091756
Si Si3 0.638561 0.294094 0.391043
Si Si4 0.857351 0.283085 0.758332
Si Si5 0.854127 0.204472 0.203062
O O1 0.750000 0.749925 0.576430
O O2 0.869481 0.500000 0.570552
O O3 0.893686 0.780121 0.481901
O O4 0.894261 0.775698 0.665531
O O5 0.051754 0.500000 0.075080
O O6 0.923030 0.304223 0.142544
O O7 0.087807 0.216805 0.159973
O O8 0.000000 0.214771 0.000000
O O9 0.750000 0.288539 0.395299
O O10 0.610205 0.500000 0.386046
O O11 0.614599 0.211352 0.301153
O O12 0.750000 0.238666 0.764549
O O13 0.863841 0.500000 0.757551
O O14 0.750000 0.273241 0.200017
O O15 0.853624 0.000000 0.176211
#
# Coordination Sequence:
#
# PCOD9405513 Si02
#       5
#     8   8   8   8   8
#     4   7  10  19  40  70  99 126 157 195 242 295
#     4  10  21  35  53  78 103 129 166 213 261 302
#     4   8  13  24  46  74  99 124 159 203 246 290
#     4   8  14  27  48  74 103 131 161 202 252 305
#     4  10  21  36  53  73 100 137 174 205 245 297
#
# _framework density 23.093375999999999
#
# number of rings (size 3 to 8) (size 9 to 14) (size 15 to 20)
#    0.000    3.400    0.000    3.000    0.000    2.400 
#    0.000    3.000    0.000    7.800    0.000    2.800 
#    0.000    0.000    0.000    0.000    0.000    0.000 
#
# Total GULP energy -223060.336411 kJ/mol
# GULP energy per Si atom -5576.508410 kJ/mol
# Density = 2.304081 g / cm^3
# Si number density = 23.093376 Si / 1000 Ang^3
#
#
#
# Elastic Constant Matrix: (Units=GPa)
#
#
# Indices 1 2 3 4 5 6 
#
# 1 73.8795 -3.1643 42.7231 0.0000 0.0000 0.0000
# 2 -3.1643 56.1881 6.7049 0.0000 0.0000 0.0000
# 3 42.7231 6.7049 209.6807 0.0000 0.0000 0.0000
# 4 0.0000 0.0000 0.0000 26.4136 0.0000 0.0000
# 5 0.0000 0.0000 0.0000 0.0000 38.6099 0.0000
# 6 0.0000 0.0000 0.0000 0.0000 0.0000 -52.2311
#
#
#
# Elastic Compliance Matrix: (Units=1/GPa)
#
#
# Indices 1 2 3 4 5 6 
#
# 1 0.015430 0.001249 -0.003184 0.000000 0.000000 0.000000
# 2 0.001249 0.017967 -0.000829 0.000000 0.000000 0.000000
# 3 -0.003184 -0.000829 0.005444 0.000000 0.000000 0.000000
# 4 0.000000 0.000000 0.000000 0.037859 0.000000 0.000000
# 5 0.000000 0.000000 0.000000 0.000000 0.025900 0.000000
# 6 0.000000 0.000000 0.000000 0.000000 0.000000 -0.019146
#
#
# Mechanical properties :
#
#
# Convention : Reuss Voigt Hill
#
# Bulk Modulus (GPa) = 30.01804 48.03065 39.02434
# Shear Modulus (GPa) = 49.95641 22.12413 36.04027
#
# Velocity S-wave (km/s) = 4.65611 3.09856 3.95477
# Velocity P-wave (km/s) = 6.47553 5.80044 6.14726
#
# Compressibility (1/GPa) = 0.03331330
#
# Stress axis : x y z
#
# Youngs Moduli (GPa) = 64.80786 55.65875 183.67521
#
# Poissons Ratio (x) = -0.06951 0.58480
# Poissons Ratio (y) = -0.08094 0.15226
# Poissons Ratio (z) = 0.20634 0.04614
#
# Static dielectric constant tensor:
#      x y z
#    x 1.885400 0.000000 0.000000 
#    y 0.000000 1.910010 0.000000 
#    z 0.000000 0.000000 1.879240 
# 
# From -- ./inp_files/23681.got.cif
#   From: 2010.05.17/outbox.cif.g08.bks.cpg/sg51_12_cif.got.tgz:23681.got - 2010.06.03 11:52:47.
