data_PCOD9405898
_publ_section_title
;
Structure prediction by ZEFSAII (Michael W. Deem and Ramdas Pophale) SiO2 
 PCOD9405898
Probable space group: P M M A
;
_chemical_formula_sum "Si O2"
_cell_formula_units_Z 64
_cell_length_a 14.229002
_cell_length_b 8.934828
_cell_length_c 24.907235
_cell_angle_alpha 90.000000
_cell_angle_beta 90.000000
_cell_angle_gamma 90.000000
_cell_volume 3166.548581
_symmetry_space_group_name_H-M "P M M A"
_symmetry_group_IT_number 51
_symmetry_cell_setting 'orthorhombic'
loop_
_space_group_symop_operation_xyz
x,y,z
1/2-x,-y,z
1/2+x,-y,-z
-x,y,-z
-x,-y,-z
1/2+x,y,-z
1/2-x,y,z
x,-y,z
loop_
_atom_site_type_symbol
_atom_site_label
_atom_site_fract_x
_atom_site_fract_y
_atom_site_fract_z
Si Si1 0.029455 0.321341 0.748151
Si Si2 0.363218 0.328001 0.536582
Si Si3 0.039820 0.822190 0.637481
Si Si4 0.635438 0.673001 0.912935
Si Si5 0.357840 0.820726 0.423746
Si Si6 0.359599 0.317695 0.853873
Si Si7 0.639282 0.823083 0.800657
Si Si8 0.363375 0.679318 0.970317
O O1 0.032529 0.500000 0.746391
O O2 0.924289 0.263606 0.758401
O O3 0.067586 0.255688 0.692780
O O4 0.086442 0.268578 0.800838
O O5 0.250000 0.324944 0.538899
O O6 0.394735 0.500000 0.540029
O O7 0.402583 0.235523 0.586388
O O8 0.388514 0.257946 0.478983
O O9 0.931404 0.785274 0.622812
O O10 0.048978 0.000000 0.642625
O O11 0.750000 0.669034 0.915626
O O12 0.603730 0.500000 0.905940
O O13 0.612219 0.766508 0.860331
O O14 0.603197 0.733250 0.971199
O O15 0.250000 0.778725 0.411786
O O16 0.360761 0.000000 0.432345
O O17 0.250000 0.275997 0.849850
O O18 0.363132 0.500000 0.855118
O O19 0.398074 0.266299 0.912189
O O20 0.750000 0.792842 0.793614
O O21 0.624002 0.000000 0.795946
O O22 0.250000 0.700765 0.968457
O O23 0.378901 0.500000 0.972425
#
# Coordination Sequence:
#
# PCOD9405898 Si02
#       8
#     8   8   8   8   8   8   8   8
#     4  11  23  37  55  80 108 141 184 231 273 316
#     4  10  21  37  59  88 119 148 180 222 270 316
#     4  11  23  38  57  81 112 151 189 225 268 321
#     4   8  13  24  47  77 102 125 162 214 268 323
#     4   9  19  37  60  85 113 145 180 218 266 326
#     4   8  15  30  52  77 105 136 171 216 271 326
#     4  10  21  37  55  73 100 141 182 222 272 327
#     4   7  10  20  43  74 102 127 160 207 264 324
#
# _framework density 20.211282000000001
#
# number of rings (size 3 to 8) (size 9 to 14) (size 15 to 20)
#    0.000    2.750    0.000    3.375    0.000    5.000 
#    0.000    3.125    0.000    6.375    0.000    3.500 
#    0.000    0.000    0.000    0.000    0.000    0.000 
#
# Total GULP energy -357194.446121 kJ/mol
# GULP energy per Si atom -5581.163221 kJ/mol
# Density = 2.016528 g / cm^3
# Si number density = 20.211282 Si / 1000 Ang^3
#
#
#
# Elastic Constant Matrix: (Units=GPa)
#
#
# Indices 1 2 3 4 5 6 
#
# 1 38.5881 12.9978 14.5083 0.0000 0.0000 0.0000
# 2 12.9978 23.2112 19.3112 0.0000 0.0000 0.0000
# 3 14.5083 19.3112 94.5038 0.0000 0.0000 0.0000
# 4 0.0000 0.0000 0.0000 84.4760 0.0000 0.0000
# 5 0.0000 0.0000 0.0000 0.0000 22.3560 0.0000
# 6 0.0000 0.0000 0.0000 0.0000 0.0000 17.3247
#
#
#
# Elastic Compliance Matrix: (Units=1/GPa)
#
#
# Indices 1 2 3 4 5 6 
#
# 1 0.032118 -0.016727 -0.001513 0.000000 0.000000 0.000000
# 2 -0.016727 0.060619 -0.009819 0.000000 0.000000 0.000000
# 3 -0.001513 -0.009819 0.012820 0.000000 0.000000 0.000000
# 4 0.000000 0.000000 0.000000 0.011838 0.000000 0.000000
# 5 0.000000 0.000000 0.000000 0.000000 0.044731 0.000000
# 6 0.000000 0.000000 0.000000 0.000000 0.000000 0.057721
#
#
# Mechanical properties :
#
#
# Convention : Reuss Voigt Hill
#
# Bulk Modulus (GPa) = 20.22676 27.77085 23.99880
# Shear Modulus (GPa) = 17.09735 32.13039 24.61387
#
# Velocity S-wave (km/s) = 2.91164 3.99146 3.49353
# Velocity P-wave (km/s) = 4.61876 5.91713 5.30780
#
# Compressibility (1/GPa) = 0.04943945
#
# Stress axis : x y z
#
# Youngs Moduli (GPa) = 31.13553 16.49656 78.00136
#
# Poissons Ratio (x) = 0.27593 0.11799
# Poissons Ratio (y) = 0.52080 0.76590
# Poissons Ratio (z) = 0.04710 0.16198
#
# Static dielectric constant tensor:
#      x y z
#    x 1.771170 0.000000 0.000000 
#    y 0.000000 1.673540 0.000000 
#    z 0.000000 0.000000 1.709740 
# 
# From -- ./inp_files/35671.got.cif
#   From: 2010.05.17/outbox.cif.g08.bks.cpg/sg51_18_cif.got.tgz:35671.got - 2010.06.03 11:52:47.
