data_PCOD9405859
_publ_section_title
;
Structure prediction by ZEFSAII (Michael W. Deem and Ramdas Pophale) SiO2 
 PCOD9405859
Probable space group: P M M A
;
_chemical_formula_sum "Si O2"
_cell_formula_units_Z 64
_cell_length_a 19.114501
_cell_length_b 13.283213
_cell_length_c 13.237091
_cell_angle_alpha 90.000000
_cell_angle_beta 90.000000
_cell_angle_gamma 90.000000
_cell_volume 3360.923723
_symmetry_space_group_name_H-M "P M M A"
_symmetry_group_IT_number 51
_symmetry_cell_setting 'orthorhombic'
loop_
_space_group_symop_operation_xyz
x,y,z
1/2-x,-y,z
1/2+x,-y,-z
-x,y,-z
-x,-y,-z
1/2+x,y,-z
1/2-x,y,z
x,-y,z
loop_
_atom_site_type_symbol
_atom_site_label
_atom_site_fract_x
_atom_site_fract_y
_atom_site_fract_z
Si Si1 0.670269 0.746063 0.386876
Si Si2 0.668381 0.121002 0.891760
Si Si3 0.826059 0.379225 0.180597
Si Si4 0.022328 0.615689 0.884484
Si Si5 0.432639 0.120790 0.935557
Si Si6 0.333061 0.618699 0.410710
Si Si7 0.550588 0.119938 0.303389
Si Si8 0.425289 0.250583 0.259609
O O1 0.750000 0.785840 0.395845
O O2 0.668409 0.674861 0.288343
O O3 0.655762 0.676527 0.483562
O O4 0.613079 0.832127 0.368284
O O5 0.750000 0.145120 0.885587
O O6 0.623781 0.179010 0.807938
O O7 0.660078 0.000000 0.878413
O O8 0.635841 0.148495 0.000829
O O9 0.750000 0.351701 0.135459
O O10 0.825962 0.500000 0.194012
O O11 0.896248 0.353617 0.120783
O O12 0.017355 0.500000 0.848987
O O13 0.973231 0.682116 0.814094
O O14 0.000000 0.618528 0.000000
O O15 0.433778 0.140502 0.816285
O O16 0.436835 0.000000 0.940498
O O17 0.500000 0.158204 0.000000
O O18 0.250000 0.625897 0.387106
O O19 0.350388 0.500000 0.417937
O O20 0.378931 0.676389 0.328158
O O21 0.478477 0.179619 0.322277
O O22 0.544155 0.000000 0.316985
#
# Coordination Sequence:
#
# PCOD9405859 Si02
#       8
#     8   8   8   8   8   8   8   8
#     4  10  21  40  63  88 116 153 199 249 310 368
#     4  10  21  36  57  88 123 161 210 257 295 350
#     4   9  17  34  60  87 114 149 196 248 301 362
#     4  10  22  38  56  85 125 162 198 246 301 358
#     4   9  17  33  56  81 115 162 205 245 294 344
#     4  10  23  45  69  91 117 151 198 258 317 373
#     4  11  23  38  59  90 127 166 206 251 300 356
#     4  12  22  37  62  89 121 162 204 247 303 363
#
# _framework density 19.042383000000001
#
# number of rings (size 3 to 8) (size 9 to 14) (size 15 to 20)
#    0.000    1.875    2.500    1.500    1.750    2.750 
#    0.000    6.250    0.000    4.500    0.000    0.000 
#    0.000    0.000    0.000    0.000    0.000    0.000 
#
# Total GULP energy -357280.793350 kJ/mol
# GULP energy per Si atom -5582.512396 kJ/mol
# Density = 1.899904 g / cm^3
# Si number density = 19.042383 Si / 1000 Ang^3
#
#
#
# Elastic Constant Matrix: (Units=GPa)
#
#
# Indices 1 2 3 4 5 6 
#
# 1 147.6649 74.5236 56.3929 0.0000 0.0000 0.0000
# 2 74.5236 123.2433 35.7322 0.0000 0.0000 0.0000
# 3 56.3929 35.7322 59.7012 0.0000 0.0000 0.0000
# 4 0.0000 0.0000 0.0000 32.8860 0.0000 0.0000
# 5 0.0000 0.0000 0.0000 0.0000 30.4495 0.0000
# 6 0.0000 0.0000 0.0000 0.0000 0.0000 33.8201
#
#
#
# Elastic Compliance Matrix: (Units=1/GPa)
#
#
# Indices 1 2 3 4 5 6 
#
# 1 0.012808 -0.005127 -0.009030 0.000000 0.000000 0.000000
# 2 -0.005127 0.011870 -0.002262 0.000000 0.000000 0.000000
# 3 -0.009030 -0.002262 0.026633 0.000000 0.000000 0.000000
# 4 0.000000 0.000000 0.000000 0.030408 0.000000 0.000000
# 5 0.000000 0.000000 0.000000 0.000000 0.032841 0.000000
# 6 0.000000 0.000000 0.000000 0.000000 0.000000 0.029568
#
#
# Mechanical properties :
#
#
# Convention : Reuss Voigt Hill
#
# Bulk Modulus (GPa) = 54.12844 73.76742 63.94793
# Shear Modulus (GPa) = 27.30409 30.36183 28.83296
#
# Velocity S-wave (km/s) = 3.79074 3.99737 3.89542
# Velocity P-wave (km/s) = 6.90265 7.75422 7.34079
#
# Compressibility (1/GPa) = 0.01847458
#
# Stress axis : x y z
#
# Youngs Moduli (GPa) = 78.07686 84.24717 37.54733
#
# Poissons Ratio (x) = 0.43191 0.33904
# Poissons Ratio (y) = 0.40028 0.08492
# Poissons Ratio (z) = 0.70501 0.19054
#
# Static dielectric constant tensor:
#      x y z
#    x 1.673380 0.000000 0.000000 
#    y 0.000000 1.681980 0.000000 
#    z 0.000000 0.000000 1.629450 
# 
# From -- ./inp_files/17601.got.cif
#   From: 2010.05.17/outbox.cif.g08.bks.cpg/sg51_9_cif.got.tgz:17601.got - 2010.06.03 11:52:47.
