data_PCOD9405828
_publ_section_title
;
Structure prediction by ZEFSAII (Michael W. Deem and Ramdas Pophale) SiO2 
 PCOD9405828
Probable space group: P M M A
;
_chemical_formula_sum "Si O2"
_cell_formula_units_Z 64
_cell_length_a 7.842808
_cell_length_b 15.276954
_cell_length_c 25.427675
_cell_angle_alpha 90.000000
_cell_angle_beta 90.000000
_cell_angle_gamma 90.000000
_cell_volume 3046.596971
_symmetry_space_group_name_H-M "P M M A"
_symmetry_group_IT_number 51
_symmetry_cell_setting 'orthorhombic'
loop_
_space_group_symop_operation_xyz
x,y,z
1/2-x,-y,z
1/2+x,-y,-z
-x,y,-z
-x,-y,-z
1/2+x,y,-z
1/2-x,y,z
x,-y,z
loop_
_atom_site_type_symbol
_atom_site_label
_atom_site_fract_x
_atom_site_fract_y
_atom_site_fract_z
Si Si1 0.048847 0.405376 0.424341
Si Si2 0.051007 0.225652 0.746205
Si Si3 0.955739 0.212843 0.556619
Si Si4 0.043015 0.405342 0.697494
Si Si5 0.453655 0.099956 0.939500
Si Si6 0.053599 0.250769 0.136898
Si Si7 0.455668 0.399662 0.059544
Si Si8 0.452317 0.098893 0.344573
O O1 0.250000 0.406682 0.437256
O O2 0.974201 0.500000 0.441024
O O3 0.974764 0.312826 0.442972
O O4 0.028106 0.402040 0.361385
O O5 0.250000 0.223740 0.733398
O O6 0.981701 0.320130 0.727915
O O7 0.030790 0.222961 0.808604
O O8 0.974369 0.148978 0.710641
O O9 0.750000 0.218405 0.561018
O O10 0.019621 0.158273 0.607013
O O11 0.000000 0.172848 0.500000
O O12 0.250000 0.403191 0.694653
O O13 0.995104 0.500000 0.720902
O O14 0.250000 0.107422 0.933254
O O15 0.541841 0.169804 0.902673
O O16 0.504100 0.000000 0.927246
O O17 0.500000 0.116437 0.000000
O O18 0.250000 0.270509 0.149276
O O19 0.980150 0.333810 0.104572
O O20 0.250000 0.399881 0.062589
O O21 0.516424 0.500000 0.065880
O O22 0.500000 0.370808 0.000000
O O23 0.250000 0.092204 0.353583
O O24 0.522567 0.000000 0.343778
#
# Coordination Sequence:
#
# PCOD9405828 Si02
#       8
#     8   8   8   8   8   8   8   8
#     4   9  17  31  53  80 110 145 183 222 266 321
#     4  11  23  38  58  84 114 147 186 233 285 340
#     4  10  21  36  56  84 116 147 184 229 278 336
#     4   9  18  33  54  80 109 142 180 222 270 325
#     4  10  21  38  60  85 114 147 184 230 284 340
#     4  11  23  37  57  84 116 153 193 237 283 336
#     4   9  19  36  57  83 116 155 198 240 283 332
#     4  10  22  42  64  83 108 145 188 235 288 345
#
# _framework density 21.007047
#
# number of rings (size 3 to 8) (size 9 to 14) (size 15 to 20)
#    0.000    2.125    1.250    1.500    0.000    6.000 
#    0.000    0.000    0.000    0.000    0.000    0.000 
#    0.000    0.000    0.000    0.000    0.000    0.000 
#
# Total GULP energy -357209.623746 kJ/mol
# GULP energy per Si atom -5581.400371 kJ/mol
# Density = 2.095923 g / cm^3
# Si number density = 21.007047 Si / 1000 Ang^3
#
#
#
# Elastic Constant Matrix: (Units=GPa)
#
#
# Indices 1 2 3 4 5 6 
#
# 1 26.1691 7.9573 -6.0669 0.0000 0.0000 0.0000
# 2 7.9573 142.7245 75.1919 0.0000 0.0000 0.0000
# 3 -6.0669 75.1919 97.7621 0.0000 0.0000 0.0000
# 4 0.0000 0.0000 0.0000 -8.5194 0.0000 0.0000
# 5 0.0000 0.0000 0.0000 0.0000 26.5718 0.0000
# 6 0.0000 0.0000 0.0000 0.0000 0.0000 11.0896
#
#
#
# Elastic Compliance Matrix: (Units=1/GPa)
#
#
# Indices 1 2 3 4 5 6 
#
# 1 0.041814 -0.006218 0.007377 0.000000 0.000000 0.000000
# 2 -0.006218 0.012704 -0.010157 0.000000 0.000000 0.000000
# 3 0.007377 -0.010157 0.018499 0.000000 0.000000 0.000000
# 4 0.000000 0.000000 0.000000 -0.117380 0.000000 0.000000
# 5 0.000000 0.000000 0.000000 0.000000 0.037634 0.000000
# 6 0.000000 0.000000 0.000000 0.000000 0.000000 0.090175
#
#
# Mechanical properties :
#
#
# Convention : Reuss Voigt Hill
#
# Bulk Modulus (GPa) = 18.17464 46.75781 32.46623
# Shear Modulus (GPa) = 41.74246 18.46663 30.10454
#
# Velocity S-wave (km/s) = 4.46249 2.96813 3.78970
# Velocity P-wave (km/s) = 5.93483 5.83548 5.88537
#
# Compressibility (1/GPa) = 0.05502172
#
# Stress axis : x y z
#
# Youngs Moduli (GPa) = 23.91544 78.71364 54.05726
#
# Poissons Ratio (x) = 0.48943 -0.39879
# Poissons Ratio (y) = 0.14870 0.54907
# Poissons Ratio (z) = -0.17643 0.79950
#
# Static dielectric constant tensor:
#      x y z
#    x 1.788040 0.000000 0.000000 
#    y 0.000000 1.787340 0.000000 
#    z 0.000000 0.000000 1.720100 
# 
# From -- ./inp_files/34999.got.cif
#   From: 2010.05.17/outbox.cif.g08.bks.cpg/sg51_18_cif.got.tgz:34999.got - 2010.06.03 11:52:47.
