data_PCOD9405387
_publ_section_title
;
Structure prediction by ZEFSAII (Michael W. Deem and Ramdas Pophale) SiO2 
 PCOD9405387
Probable space group: P M M A
;
_chemical_formula_sum "Si O2"
_cell_formula_units_Z 48
_cell_length_a 16.041869
_cell_length_b 18.617640
_cell_length_c 9.269234
_cell_angle_alpha 90.000000
_cell_angle_beta 90.000000
_cell_angle_gamma 90.000000
_cell_volume 2768.365573
_symmetry_space_group_name_H-M "P M M A"
_symmetry_group_IT_number 51
_symmetry_cell_setting 'orthorhombic'
loop_
_space_group_symop_operation_xyz
x,y,z
1/2-x,-y,z
1/2+x,-y,-z
-x,y,-z
-x,-y,-z
1/2+x,y,-z
1/2-x,y,z
x,-y,z
loop_
_atom_site_type_symbol
_atom_site_label
_atom_site_fract_x
_atom_site_fract_y
_atom_site_fract_z
Si Si1 0.654328 0.414120 0.327035
Si Si2 0.994380 0.830445 0.830111
Si Si3 0.655069 0.585926 0.670372
Si Si4 0.083388 0.081989 0.600388
Si Si5 0.000756 0.340290 0.170997
Si Si6 0.343403 0.085231 0.310226
O O1 0.750000 0.395127 0.286573
O O2 0.644830 0.500000 0.305005
O O3 0.645262 0.400904 0.498790
O O4 0.582568 0.372841 0.242151
O O5 0.067159 0.867025 0.735022
O O6 0.995839 0.745307 0.806360
O O7 0.909783 0.866529 0.771791
O O8 0.000000 0.844769 0.000000
O O9 0.750000 0.607246 0.710882
O O10 0.648307 0.500000 0.691558
O O11 0.582358 0.624758 0.756943
O O12 0.151883 0.101738 0.481580
O O13 0.000000 0.083682 0.500000
O O14 0.095769 0.000000 0.648978
O O15 0.000000 0.354525 0.000000
O O16 0.250000 0.095977 0.256846
O O17 0.364642 0.000000 0.296682
#
# Coordination Sequence:
#
# PCOD9405387 Si02
#       6
#     8   8   8   8   8   8
#     4   9  19  37  59  80 102 132 174 223 269 312
#     4  10  21  35  49  72 107 143 174 205 250 308
#     4   9  19  36  57  79 101 130 173 222 267 312
#     4   8  15  30  52  74  95 124 164 206 247 295
#     4  11  23  35  49  76 112 144 175 212 259 313
#     4   9  18  34  56  80 103 129 169 220 264 303
#
# _framework density 17.338750000000001
#
# number of rings (size 3 to 8) (size 9 to 14) (size 15 to 20)
#    0.000    2.667    0.000    3.500    0.000    9.333 
#    0.000    7.500    0.000    2.000    0.000    0.000 
#    0.000    0.000    0.000    0.000    0.000    0.000 
#
# Total GULP energy -267560.097343 kJ/mol
# GULP energy per Si atom -5574.168695 kJ/mol
# Density = 1.729929 g / cm^3
# Si number density = 17.338750 Si / 1000 Ang^3
#
#
#
# Elastic Constant Matrix: (Units=GPa)
#
#
# Indices 1 2 3 4 5 6 
#
# 1 141.2293 76.8204 79.4076 0.0000 0.0000 0.0000
# 2 76.8204 82.4748 82.9615 0.0000 0.0000 0.0000
# 3 79.4076 82.9615 104.8193 0.0000 0.0000 0.0000
# 4 0.0000 0.0000 0.0000 33.3932 0.0000 0.0000
# 5 0.0000 0.0000 0.0000 0.0000 9.8109 0.0000
# 6 0.0000 0.0000 0.0000 0.0000 0.0000 7.1443
#
#
#
# Elastic Compliance Matrix: (Units=1/GPa)
#
#
# Indices 1 2 3 4 5 6 
#
# 1 0.014396 -0.011963 -0.001438 0.000000 0.000000 0.000000
# 2 -0.011963 0.069418 -0.045880 0.000000 0.000000 0.000000
# 3 -0.001438 -0.045880 0.046942 0.000000 0.000000 0.000000
# 4 0.000000 0.000000 0.000000 0.029946 0.000000 0.000000
# 5 0.000000 0.000000 0.000000 0.000000 0.101928 0.000000
# 6 0.000000 0.000000 0.000000 0.000000 0.000000 0.139971
#
#
# Mechanical properties :
#
#
# Convention : Reuss Voigt Hill
#
# Bulk Modulus (GPa) = 81.99829 89.65582 85.82706
# Shear Modulus (GPa) = 9.51970 16.02528 12.77249
#
# Velocity S-wave (km/s) = 2.34571 3.04344 2.71706
# Velocity P-wave (km/s) = 7.39804 8.01066 7.71044
#
# Compressibility (1/GPa) = 0.01219538
#
# Stress axis : x y z
#
# Youngs Moduli (GPa) = 69.46260 14.40547 21.30298
#
# Poissons Ratio (x) = 0.17233 0.03063
# Poissons Ratio (y) = 0.83098 0.97737
# Poissons Ratio (z) = 0.09987 0.66092
#
# Static dielectric constant tensor:
#      x y z
#    x 1.609620 0.000000 0.000000 
#    y 0.000000 1.572680 0.000000 
#    z 0.000000 0.000000 1.579020 
# 
# From -- ./inp_files/8224.got.cif
#   From: 2010.05.17/outbox.cif.g08.bks.cpg/sg51_5_cif.got.tgz:8224.got - 2010.06.03 11:52:47.
