data_PCOD9405834
_publ_section_title
;
Structure prediction by ZEFSAII (Michael W. Deem and Ramdas Pophale) SiO2 
 PCOD9405834
Probable space group: P M M A
;
_chemical_formula_sum "Si O2"
_cell_formula_units_Z 64
_cell_length_a 8.600567
_cell_length_b 15.020223
_cell_length_c 25.627658
_cell_angle_alpha 90.000000
_cell_angle_beta 90.000000
_cell_angle_gamma 90.000000
_cell_volume 3310.643245
_symmetry_space_group_name_H-M "P M M A"
_symmetry_group_IT_number 51
_symmetry_cell_setting 'orthorhombic'
loop_
_space_group_symop_operation_xyz
x,y,z
1/2-x,-y,z
1/2+x,-y,-z
-x,y,-z
-x,-y,-z
1/2+x,y,-z
1/2-x,y,z
x,-y,z
loop_
_atom_site_type_symbol
_atom_site_label
_atom_site_fract_x
_atom_site_fract_y
_atom_site_fract_z
Si Si1 0.065205 0.096727 0.922649
Si Si2 0.567395 0.251594 0.367026
Si Si3 0.433730 0.902383 0.191709
Si Si4 0.936145 0.896433 0.556925
Si Si5 0.435495 0.724294 0.252168
Si Si6 0.062154 0.603310 0.840276
Si Si7 0.561615 0.706556 0.054190
Si Si8 0.068133 0.604265 0.442311
O O1 0.250000 0.095639 0.932280
O O2 0.003299 0.190685 0.943368
O O3 0.032625 0.101141 0.860922
O O4 0.000117 0.000000 0.940118
O O5 0.750000 0.237409 0.362815
O O6 0.494276 0.166434 0.396591
O O7 0.499947 0.274734 0.310398
O O8 0.527544 0.334946 0.403570
O O9 0.250000 0.894795 0.177745
O O10 0.474307 0.820895 0.228175
O O11 0.455724 0.000000 0.216123
O O12 0.750000 0.892668 0.555033
O O13 0.000000 0.867280 0.500000
O O14 0.983578 0.000000 0.564354
O O15 0.250000 0.714547 0.253887
O O16 0.501467 0.652107 0.211557
O O17 0.250000 0.606186 0.839269
O O18 0.013868 0.500000 0.842213
O O19 0.012443 0.655488 0.893043
O O20 0.750000 0.706866 0.053476
O O21 0.500000 0.666674 0.000000
O O22 0.250000 0.629991 0.441315
O O23 0.057049 0.500000 0.428625
O O24 0.000000 0.615203 0.500000
#
# Coordination Sequence:
#
# PCOD9405834 Si02
#       8
#     8   8   8   8   8   8   8   8
#     4   9  17  31  53  80 111 147 185 225 271 328
#     4  12  25  39  59  87 122 160 201 247 296 355
#     4   9  18  33  55  82 110 142 180 223 273 330
#     4  10  21  39  63  90 124 166 211 258 305 354
#     4  11  23  39  60  86 116 150 192 240 293 351
#     4  10  22  42  64  84 111 149 192 241 299 359
#     4  10  21  36  56  84 117 150 189 235 287 346
#     4  10  21  39  63  89 118 152 192 240 295 354
#
# _framework density 19.331591
#
# number of rings (size 3 to 8) (size 9 to 14) (size 15 to 20)
#    0.000    1.875    1.250    2.625    0.000    4.750 
#    0.000    1.250    0.000    0.000    0.000    0.000 
#    0.000    0.000    0.000    0.000    0.000    0.000 
#
# Total GULP energy -357291.838706 kJ/mol
# GULP energy per Si atom -5582.684980 kJ/mol
# Density = 1.928759 g / cm^3
# Si number density = 19.331591 Si / 1000 Ang^3
#
#
#
# Elastic Constant Matrix: (Units=GPa)
#
#
# Indices 1 2 3 4 5 6 
#
# 1 24.1663 29.4362 24.1902 0.0000 0.0000 0.0000
# 2 29.4362 120.3036 80.7764 0.0000 0.0000 0.0000
# 3 24.1902 80.7764 132.0981 0.0000 0.0000 0.0000
# 4 0.0000 0.0000 0.0000 -26.7463 0.0000 0.0000
# 5 0.0000 0.0000 0.0000 0.0000 30.8571 0.0000
# 6 0.0000 0.0000 0.0000 0.0000 0.0000 16.1559
#
#
#
# Elastic Compliance Matrix: (Units=1/GPa)
#
#
# Indices 1 2 3 4 5 6 
#
# 1 0.059836 -0.012357 -0.003401 0.000000 0.000000 0.000000
# 2 -0.012357 0.016654 -0.007921 0.000000 0.000000 0.000000
# 3 -0.003401 -0.007921 0.013037 0.000000 0.000000 0.000000
# 4 0.000000 0.000000 0.000000 -0.037388 0.000000 0.000000
# 5 0.000000 0.000000 0.000000 0.000000 0.032407 0.000000
# 6 0.000000 0.000000 0.000000 0.000000 0.000000 0.061897
#
#
# Mechanical properties :
#
#
# Convention : Reuss Voigt Hill
#
# Bulk Modulus (GPa) = 23.71442 60.59706 42.15574
# Shear Modulus (GPa) = 24.05481 13.53100 18.79290
#
# Velocity S-wave (km/s) = 3.53133 2.64851 3.12129
# Velocity P-wave (km/s) = 5.37781 6.38490 5.90287
#
# Compressibility (1/GPa) = 0.04216844
#
# Stress axis : x y z
#
# Youngs Moduli (GPa) = 16.71226 60.04400 76.70717
#
# Poissons Ratio (x) = 0.74198 0.26088
# Poissons Ratio (y) = 0.20652 0.60760
# Poissons Ratio (z) = 0.05684 0.47561
#
# Static dielectric constant tensor:
#      x y z
#    x 1.659190 0.000000 0.000000 
#    y 0.000000 1.697590 0.000000 
#    z 0.000000 0.000000 1.649840 
# 
# From -- ./inp_files/35012.got.cif
#   From: 2010.05.17/outbox.cif.g08.bks.cpg/sg51_18_cif.got.tgz:35012.got - 2010.06.03 11:52:47.
