data_PCOD9405348
_publ_section_title
;
Structure prediction by ZEFSAII (Michael W. Deem and Ramdas Pophale) SiO2 
 PCOD9405348
Probable space group: P M M A
;
_chemical_formula_sum "Si O2"
_cell_formula_units_Z 58
_cell_length_a 29.878739
_cell_length_b 7.513638
_cell_length_c 12.305135
_cell_angle_alpha 90.000000
_cell_angle_beta 90.000000
_cell_angle_gamma 90.000000
_cell_volume 2762.478551
_symmetry_space_group_name_H-M "P M M A"
_symmetry_group_IT_number 51
_symmetry_cell_setting 'orthorhombic'
loop_
_space_group_symop_operation_xyz
x,y,z
1/2-x,-y,z
1/2+x,-y,-z
-x,y,-z
-x,-y,-z
1/2+x,y,-z
1/2-x,y,z
x,-y,z
loop_
_atom_site_type_symbol
_atom_site_label
_atom_site_fract_x
_atom_site_fract_y
_atom_site_fract_z
Si Si1 0.548213 0.708380 0.117303
Si Si2 0.800424 0.705262 0.190629
Si Si3 0.167526 0.778594 0.491481
Si Si4 0.301660 0.214184 0.056168
Si Si5 0.861341 0.792688 0.749254
Si Si6 0.750000 0.500000 0.473594
Si Si7 0.946664 0.715230 0.877312
Si Si8 0.112921 0.196361 0.689290
O O1 0.542035 0.500000 0.097512
O O2 0.497951 0.777156 0.137412
O O3 0.580091 0.723773 0.220797
O O4 0.566562 0.776167 0.000562
O O5 0.750000 0.774502 0.205428
O O6 0.800687 0.500000 0.228040
O O7 0.838674 0.806429 0.252774
O O8 0.810584 0.708786 0.062628
O O9 0.152853 0.729199 0.369038
O O10 0.210534 0.659457 0.521896
O O11 0.126551 0.728983 0.572450
O O12 0.174003 0.000000 0.499100
O O13 0.250000 0.251129 0.083786
O O14 0.333116 0.285773 0.150649
O O15 0.306513 0.000000 0.045176
O O16 0.912631 0.778192 0.785598
O O17 0.849102 0.000000 0.747509
O O18 0.944945 0.500000 0.872059
O O19 0.094942 0.000000 0.670310
#
# Coordination Sequence:
#
# PCOD9405348 Si02
#       8
#     8   8   8   8   8   2   8   8
#     4   9  19  37  61  89 123 156 196 252 306 366
#     4  10  21  34  51  78 112 146 187 239 292 357
#     4  10  26  45  62  93 127 159 213 265 307 363
#     4   9  18  33  53  77 108 150 190 229 295 361
#     4  10  21  38  58  82 119 157 195 253 305 355
#     4  12  26  44  72  90 112 176 218 256 316 360
#     4   9  19  36  60  91 122 157 198 248 309 366
#     4  11  23  38  58  82 116 155 196 251 304 360
#
# _framework density 20.995638
#
# number of rings (size 3 to 8) (size 9 to 14) (size 15 to 20)
#    0.000    2.207    0.000    2.690    4.828    4.690 
#    0.000    2.069    0.000    4.138    0.000    0.000 
#    0.000    0.000    0.000    0.000    0.000    0.000 
#
# Total GULP energy -322951.459561 kJ/mol
# GULP energy per Si atom -5568.128613 kJ/mol
# Density = 2.094785 g / cm^3
# Si number density = 20.995638 Si / 1000 Ang^3
#
#
#
# Elastic Constant Matrix: (Units=GPa)
#
#
# Indices 1 2 3 4 5 6 
#
# 1 41.8774 2.8695 34.1449 0.0000 0.0000 0.0000
# 2 2.8695 68.4767 5.0970 0.0000 0.0000 0.0000
# 3 34.1449 5.0970 80.3885 0.0000 0.0000 0.0000
# 4 0.0000 0.0000 0.0000 31.0815 0.0000 0.0000
# 5 0.0000 0.0000 0.0000 0.0000 -9.8162 0.0000
# 6 0.0000 0.0000 0.0000 0.0000 0.0000 6.9292
#
#
#
# Elastic Compliance Matrix: (Units=1/GPa)
#
#
# Indices 1 2 3 4 5 6 
#
# 1 0.036540 -0.000378 -0.015496 0.000000 0.000000 0.000000
# 2 -0.000378 0.014677 -0.000770 0.000000 0.000000 0.000000
# 3 -0.015496 -0.000770 0.019071 0.000000 0.000000 0.000000
# 4 0.000000 0.000000 0.000000 0.032174 0.000000 0.000000
# 5 0.000000 0.000000 0.000000 0.000000 -0.101873 0.000000
# 6 0.000000 0.000000 0.000000 0.000000 0.000000 0.144317
#
#
# Mechanical properties :
#
#
# Convention : Reuss Voigt Hill
#
# Bulk Modulus (GPa) = 27.02795 30.55171 28.78983
# Shear Modulus (GPa) = 26.24303 15.54764 20.89534
#
# Velocity S-wave (km/s) = 3.53927 2.72420 3.15814
# Velocity P-wave (km/s) = 5.44086 4.94753 5.20005
#
# Compressibility (1/GPa) = 0.03699874
#
# Stress axis : x y z
#
# Youngs Moduli (GPa) = 27.36712 68.13534 52.43695
#
# Poissons Ratio (x) = 0.02574 0.81259
# Poissons Ratio (y) = 0.01034 0.04038
# Poissons Ratio (z) = 0.42409 0.05247
#
# Static dielectric constant tensor:
#      x y z
#    x 1.740300 0.000000 0.000000 
#    y 0.000000 2.017690 0.000000 
#    z 0.000000 0.000000 1.793920 
# 
# From -- ./inp_files/19386.got.cif
#   From: 2010.05.17/outbox.cif.g08.bks.cpg/sg51_10_cif.got.tgz:19386.got - 2010.06.03 11:52:47.
