data_PCOD9405583
_publ_section_title
;
Structure prediction by ZEFSAII (Michael W. Deem and Ramdas Pophale) SiO2 
 PCOD9405583
Probable space group: P M M A
;
_chemical_formula_sum "Si O2"
_cell_formula_units_Z 48
_cell_length_a 19.446978
_cell_length_b 7.550720
_cell_length_c 16.632451
_cell_angle_alpha 90.000000
_cell_angle_beta 90.000000
_cell_angle_gamma 90.000000
_cell_volume 2442.287245
_symmetry_space_group_name_H-M "P M M A"
_symmetry_group_IT_number 51
_symmetry_cell_setting 'orthorhombic'
loop_
_space_group_symop_operation_xyz
x,y,z
1/2-x,-y,z
1/2+x,-y,-z
-x,y,-z
-x,-y,-z
1/2+x,y,-z
1/2-x,y,z
x,-y,z
loop_
_atom_site_type_symbol
_atom_site_label
_atom_site_fract_x
_atom_site_fract_y
_atom_site_fract_z
Si Si1 0.671905 0.716380 0.170293
Si Si2 0.960812 0.714368 0.260033
Si Si3 0.038263 0.794629 0.422833
Si Si4 0.673527 0.290177 0.670990
Si Si5 0.404687 0.283410 0.170092
Si Si6 0.670849 0.284297 0.987991
O O1 0.750000 0.772580 0.187712
O O2 0.671929 0.500000 0.170725
O O3 0.613976 0.775537 0.232349
O O4 0.653937 0.770970 0.078899
O O5 0.960539 0.500000 0.262685
O O6 0.988536 0.775323 0.345950
O O7 0.018254 0.767614 0.194542
O O8 0.113456 0.730586 0.394865
O O9 0.000000 0.712868 0.500000
O O10 0.049071 0.000000 0.440517
O O11 0.750000 0.220371 0.652240
O O12 0.679984 0.500000 0.681986
O O13 0.643900 0.221984 0.756261
O O14 0.402862 0.500000 0.169497
O O15 0.377726 0.222894 0.083890
O O16 0.750000 0.234048 0.971459
O O17 0.668887 0.500000 0.988023
#
# Coordination Sequence:
#
# PCOD9405583 Si02
#       6
#     8   8   8   8   8   8
#     4   8  14  24  38  60  91 123 154 190 230 268
#     4   9  17  29  46  67  90 117 151 192 235 278
#     4  10  21  36  52  69  91 120 153 190 232 279
#     4   9  17  30  50  76 102 124 149 184 226 273
#     4   8  13  21  36  62  94 123 148 178 220 268
#     4   8  12  18  31  55  90 126 152 179 220 265
#
# _framework density 19.653708000000002
#
# number of rings (size 3 to 8) (size 9 to 14) (size 15 to 20)
#    0.000    3.333    0.000    3.000    0.000    4.333 
#    0.000    4.167    0.000    3.500    0.000    9.333 
#    0.000    5.333    0.000    0.000    0.000    0.000 
#
# Total GULP energy -267467.530638 kJ/mol
# GULP energy per Si atom -5572.240222 kJ/mol
# Density = 1.960898 g / cm^3
# Si number density = 19.653708 Si / 1000 Ang^3
#
#
#
# Elastic Constant Matrix: (Units=GPa)
#
#
# Indices 1 2 3 4 5 6 
#
# 1 149.7778 -0.6867 72.4939 0.0000 0.0000 0.0000
# 2 -0.6867 41.3349 -11.1723 0.0000 0.0000 0.0000
# 3 72.4939 -11.1723 68.4757 0.0000 0.0000 0.0000
# 4 0.0000 0.0000 0.0000 27.1618 0.0000 0.0000
# 5 0.0000 0.0000 0.0000 0.0000 22.4867 0.0000
# 6 0.0000 0.0000 0.0000 0.0000 0.0000 -13.7067
#
#
#
# Elastic Compliance Matrix: (Units=1/GPa)
#
#
# Indices 1 2 3 4 5 6 
#
# 1 0.014308 -0.004035 -0.015806 0.000000 0.000000 0.000000
# 2 -0.004035 0.026446 0.008586 0.000000 0.000000 0.000000
# 3 -0.015806 0.008586 0.032738 0.000000 0.000000 0.000000
# 4 0.000000 0.000000 0.000000 0.036816 0.000000 0.000000
# 5 0.000000 0.000000 0.000000 0.000000 0.044471 0.000000
# 6 0.000000 0.000000 0.000000 0.000000 0.000000 -0.072957
#
#
# Mechanical properties :
#
#
# Convention : Reuss Voigt Hill
#
# Bulk Modulus (GPa) = 19.61404 42.31757 30.96580
# Shear Modulus (GPa) = 41.21078 20.45193 30.83135
#
# Velocity S-wave (km/s) = 4.58410 3.22935 3.96502
# Velocity P-wave (km/s) = 6.16605 5.95679 6.06232
#
# Compressibility (1/GPa) = 0.05098388
#
# Stress axis : x y z
#
# Youngs Moduli (GPa) = 69.88856 37.81242 30.54509
#
# Poissons Ratio (x) = 0.15256 0.48281
# Poissons Ratio (y) = 0.28197 -0.26227
# Poissons Ratio (z) = 1.10468 -0.32467
#
# Static dielectric constant tensor:
#      x y z
#    x 1.697770 0.000000 0.000000 
#    y 0.000000 1.744760 0.000000 
#    z 0.000000 0.000000 1.674100 
# 
# From -- ./inp_files/30065.got.cif
#   From: 2010.05.17/outbox.cif.g08.bks.cpg/sg51_16_cif.got.tgz:30065.got - 2010.06.03 11:52:47.
