data_PCOD9405454
_publ_section_title
;
Structure prediction by ZEFSAII (Michael W. Deem and Ramdas Pophale) SiO2 
 PCOD9405454
Probable space group: P M M A
;
_chemical_formula_sum "Si O2"
_cell_formula_units_Z 48
_cell_length_a 7.573405
_cell_length_b 32.395917
_cell_length_c 9.229580
_cell_angle_alpha 90.000000
_cell_angle_beta 90.000000
_cell_angle_gamma 90.000000
_cell_volume 2264.453454
_symmetry_space_group_name_H-M "P M M A"
_symmetry_group_IT_number 51
_symmetry_cell_setting 'orthorhombic'
loop_
_space_group_symop_operation_xyz
x,y,z
1/2-x,-y,z
1/2+x,-y,-z
-x,y,-z
-x,-y,-z
1/2+x,y,-z
1/2-x,y,z
x,-y,z
loop_
_atom_site_type_symbol
_atom_site_label
_atom_site_fract_x
_atom_site_fract_y
_atom_site_fract_z
Si Si1 0.037920 0.335746 0.669490
Si Si2 0.461991 0.162932 0.830392
Si Si3 0.962001 0.000000 0.169866
Si Si4 0.537947 0.918106 0.330601
Si Si5 0.462094 0.500000 0.670376
Si Si6 0.962016 0.254700 0.169665
Si Si7 0.537935 0.582270 0.170198
O O1 0.250000 0.335152 0.687369
O O2 0.969447 0.292759 0.735930
O O3 0.970304 0.375667 0.756365
O O4 0.000000 0.339332 0.500000
O O5 0.250000 0.164119 0.813595
O O6 0.530684 0.124735 0.736822
O O7 0.529925 0.208813 0.792222
O O8 0.500000 0.155841 0.000000
O O9 0.029917 0.041601 0.246148
O O10 0.750000 0.000000 0.187888
O O11 0.000000 0.000000 0.000000
O O12 0.500000 0.921157 0.500000
O O13 0.750000 0.917570 0.312097
O O14 0.250000 0.500000 0.687168
O O15 0.500000 0.500000 0.500000
O O16 0.529661 0.541433 0.748209
O O17 0.750000 0.253515 0.186144
O O18 0.000000 0.261895 0.000000
O O19 0.750000 0.582464 0.187209
O O20 0.500000 0.580915 0.000000
#
# Coordination Sequence:
#
# PCOD9405454 Si02
#       7
#     8   8   4   8   4   8   8
#     4  10  21  35  51  74 103 133 167 207 250 297
#     4   9  18  33  52  74 100 130 166 206 246 292
#     4  10  21  36  54  76 100 128 165 206 246 292
#     4  10  21  35  51  74 103 132 164 203 246 293
#     4  10  21  36  54  78 106 134 167 206 248 296
#     4   9  18  33  52  74 100 130 166 207 248 293
#     4  10  21  36  54  77 103 132 169 209 248 295
#
# _framework density 21.197167
#
# number of rings (size 3 to 8) (size 9 to 14) (size 15 to 20)
#    0.000    2.333    0.000    2.000    0.000    4.000 
#    0.000    0.000    0.000    0.000    0.000    0.000 
#    0.000    0.000    0.000    0.000    0.000    0.000 
#
# Total GULP energy -268148.616008 kJ/mol
# GULP energy per Si atom -5586.429500 kJ/mol
# Density = 2.114892 g / cm^3
# Si number density = 21.197167 Si / 1000 Ang^3
#
#
#
# Elastic Constant Matrix: (Units=GPa)
#
#
# Indices 1 2 3 4 5 6 
#
# 1 49.0799 13.2943 -11.4798 0.0000 0.0000 0.0000
# 2 13.2943 249.9953 153.4494 0.0000 0.0000 0.0000
# 3 -11.4798 153.4494 176.2539 0.0000 0.0000 0.0000
# 4 0.0000 0.0000 0.0000 280.2101 0.0000 0.0000
# 5 0.0000 0.0000 0.0000 0.0000 31.5685 0.0000
# 6 0.0000 0.0000 0.0000 0.0000 0.0000 -10.5245
#
#
#
# Elastic Compliance Matrix: (Units=1/GPa)
#
#
# Indices 1 2 3 4 5 6 
#
# 1 0.022898 -0.004581 0.005480 0.000000 0.000000 0.000000
# 2 -0.004581 0.009508 -0.008576 0.000000 0.000000 0.000000
# 3 0.005480 -0.008576 0.013497 0.000000 0.000000 0.000000
# 4 0.000000 0.000000 0.000000 0.003569 0.000000 0.000000
# 5 0.000000 0.000000 0.000000 0.000000 0.031677 0.000000
# 6 0.000000 0.000000 0.000000 0.000000 0.000000 -0.095016
#
#
# Mechanical properties :
#
#
# Convention : Reuss Voigt Hill
#
# Bulk Modulus (GPa) = 32.73579 87.31741 60.02660
# Shear Modulus (GPa) = 428.48982 81.58850 255.03916
#
# Velocity S-wave (km/s) = 14.23319 6.21078 10.98084
# Velocity P-wave (km/s) = 16.89937 9.62882 13.75323
#
# Compressibility (1/GPa) = 0.03054760
#
# Stress axis : x y z
#
# Youngs Moduli (GPa) = 43.67266 105.17814 74.09117
#
# Poissons Ratio (x) = 0.48185 -0.40601
# Poissons Ratio (y) = 0.20008 0.63540
# Poissons Ratio (z) = -0.23932 0.90200
#
# Static dielectric constant tensor:
#      x y z
#    x 1.773090 0.000000 0.000000 
#    y 0.000000 1.789110 0.000000 
#    z 0.000000 0.000000 1.679460 
# 
# From -- ./inp_files/6184.got.cif
#   From: 2010.05.17/outbox.cif.g08.bks.cpg/sg51_4_cif.got.tgz:6184.got - 2010.06.03 11:52:47.
