data_PCOD9405744
_publ_section_title
;
Structure prediction by ZEFSAII (Michael W. Deem and Ramdas Pophale) SiO2 
 PCOD9405744
Probable space group: P M M A
;
_chemical_formula_sum "Si O2"
_cell_formula_units_Z 36
_cell_length_a 8.986825
_cell_length_b 7.947787
_cell_length_c 25.207114
_cell_angle_alpha 90.000000
_cell_angle_beta 90.000000
_cell_angle_gamma 90.000000
_cell_volume 1800.427467
_symmetry_space_group_name_H-M "P M M A"
_symmetry_group_IT_number 51
_symmetry_cell_setting 'orthorhombic'
loop_
_space_group_symop_operation_xyz
x,y,z
1/2-x,-y,z
1/2+x,-y,-z
-x,y,-z
-x,-y,-z
1/2+x,y,-z
1/2-x,y,z
x,-y,z
loop_
_atom_site_type_symbol
_atom_site_label
_atom_site_fract_x
_atom_site_fract_y
_atom_site_fract_z
Si Si1 0.073145 0.190905 0.620630
Si Si2 0.921059 0.703316 0.053467
Si Si3 0.428387 0.500000 0.441852
Si Si4 0.422366 0.799948 0.830971
Si Si5 0.921220 0.698007 0.724615
O O1 0.250000 0.220448 0.616533
O O2 0.985961 0.333699 0.588507
O O3 0.021992 0.208123 0.681674
O O4 0.041750 0.000000 0.602386
O O5 0.750000 0.760055 0.051852
O O6 0.924063 0.500000 0.053118
O O7 0.982856 0.759997 0.110279
O O8 0.000000 0.762968 0.000000
O O9 0.250000 0.500000 0.444008
O O10 0.500000 0.500000 0.500000
O O11 0.250000 0.738885 0.828539
O O12 0.516410 0.722358 0.783555
O O13 0.421184 0.000000 0.823937
O O14 0.750000 0.755092 0.721139
O O15 0.925607 0.500000 0.711547
#
# Coordination Sequence:
#
# PCOD9405744 Si02
#       5
#     8   8   4   8   8
#     4  11  24  43  69 100 134 175 221 269 323 382
#     4   9  18  33  52  73 100 138 185 237 295 359
#     4  12  26  46  72 102 138 180 223 270 321 374
#     4  10  21  36  54  79 111 149 194 243 299 367
#     4  11  23  38  59  89 123 161 204 255 314 373
#
# _framework density 19.995252000000001
#
# number of rings (size 3 to 8) (size 9 to 14) (size 15 to 20)
#    0.000    1.556    1.111    3.667    0.000    8.889 
#    0.000    2.222    0.000    0.000    0.000    0.000 
#    0.000    0.000    0.000    0.000    0.000    0.000 
#
# Total GULP energy -201202.976390 kJ/mol
# GULP energy per Si atom -5588.971566 kJ/mol
# Density = 1.994974 g / cm^3
# Si number density = 19.995252 Si / 1000 Ang^3
#
#
#
# Elastic Constant Matrix: (Units=GPa)
#
#
# Indices 1 2 3 4 5 6 
#
# 1 104.6404 54.1962 53.8499 0.0000 0.0000 0.0000
# 2 54.1962 83.9004 42.1524 0.0000 0.0000 0.0000
# 3 53.8499 42.1524 131.4046 0.0000 0.0000 0.0000
# 4 0.0000 0.0000 0.0000 1.2911 0.0000 0.0000
# 5 0.0000 0.0000 0.0000 0.0000 38.8085 0.0000
# 6 0.0000 0.0000 0.0000 0.0000 0.0000 6.7649
#
#
#
# Elastic Compliance Matrix: (Units=1/GPa)
#
#
# Indices 1 2 3 4 5 6 
#
# 1 0.015822 -0.008301 -0.003821 0.000000 0.000000 0.000000
# 2 -0.008301 0.018564 -0.002553 0.000000 0.000000 0.000000
# 3 -0.003821 -0.002553 0.009995 0.000000 0.000000 0.000000
# 4 0.000000 0.000000 0.000000 0.774521 0.000000 0.000000
# 5 0.000000 0.000000 0.000000 0.000000 0.025768 0.000000
# 6 0.000000 0.000000 0.000000 0.000000 0.000000 0.147822
#
#
# Mechanical properties :
#
#
# Convention : Reuss Voigt Hill
#
# Bulk Modulus (GPa) = 66.53137 68.92694 67.72915
# Shear Modulus (GPa) = 4.86925 20.68937 12.77931
#
# Velocity S-wave (km/s) = 1.56221 3.22019 2.53082
# Velocity P-wave (km/s) = 6.04978 6.95504 6.51814
#
# Compressibility (1/GPa) = 0.01503050
#
# Stress axis : x y z
#
# Youngs Moduli (GPa) = 63.20260 53.86908 100.04920
#
# Poissons Ratio (x) = 0.44715 0.38231
# Poissons Ratio (y) = 0.52462 0.25545
# Poissons Ratio (z) = 0.24151 0.13754
#
# Static dielectric constant tensor:
#      x y z
#    x 1.686360 0.000000 0.000000 
#    y 0.000000 1.710830 0.000000 
#    z 0.000000 0.000000 1.696310 
# 
# From -- ./inp_files/34304.got.cif
#   From: 2010.05.17/outbox.cif.g08.bks.cpg/sg51_18_cif.got.tgz:34304.got - 2010.06.03 11:52:47.
