data_PCOD9405628
_publ_section_title
;
Structure prediction by ZEFSAII (Michael W. Deem and Ramdas Pophale) SiO2 
 PCOD9405628
Probable space group: P M M A
;
_chemical_formula_sum "Si O2"
_cell_formula_units_Z 48
_cell_length_a 9.972130
_cell_length_b 8.857989
_cell_length_c 31.467682
_cell_angle_alpha 90.000000
_cell_angle_beta 90.000000
_cell_angle_gamma 90.000000
_cell_volume 2779.635316
_symmetry_space_group_name_H-M "P M M A"
_symmetry_group_IT_number 51
_symmetry_cell_setting 'orthorhombic'
loop_
_space_group_symop_operation_xyz
x,y,z
1/2-x,-y,z
1/2+x,-y,-z
-x,y,-z
-x,-y,-z
1/2+x,y,-z
1/2-x,y,z
x,-y,z
loop_
_atom_site_type_symbol
_atom_site_label
_atom_site_fract_x
_atom_site_fract_y
_atom_site_fract_z
Si Si1 0.906360 0.819735 0.293967
Si Si2 0.406799 0.319451 0.797431
Si Si3 0.908152 0.681481 0.633822
Si Si4 0.906868 0.819525 0.869739
Si Si5 0.403936 0.684043 0.462405
Si Si6 0.093509 0.318627 0.039125
O O1 0.750000 0.780853 0.302374
O O2 0.943199 0.746720 0.248702
O O3 0.000389 0.759043 0.331189
O O4 0.916877 0.000000 0.290734
O O5 0.250000 0.280903 0.805176
O O6 0.418756 0.500000 0.796613
O O7 0.500121 0.252039 0.833866
O O8 0.750000 0.714867 0.639926
O O9 0.923417 0.500000 0.636795
O O10 0.944153 0.728057 0.585480
O O11 0.750000 0.779220 0.862672
O O12 0.943743 0.758483 0.916445
O O13 0.918223 0.000000 0.868803
O O14 0.500000 0.737230 0.500000
O O15 0.250000 0.730397 0.469483
O O16 0.405366 0.500000 0.462803
O O17 0.250000 0.284335 0.030335
O O18 0.081478 0.500000 0.044062
O O19 0.000000 0.271866 0.000000
#
# Coordination Sequence:
#
# PCOD9405628 Si02
#       6
#     8   8   8   8   8   8
#     4  10  21  36  53  74 101 132 167 208 253 301
#     4  10  21  37  57  79 102 131 169 211 255 304
#     4   9  18  32  50  74 103 133 167 207 250 299
#     4  10  21  36  54  78 108 140 173 209 252 303
#     4   8  14  25  42  67  98 128 160 201 247 293
#     4   9  18  33  52  74 102 136 174 215 255 296
#
# _framework density 17.268452
#
# number of rings (size 3 to 8) (size 9 to 14) (size 15 to 20)
#    0.000    2.667    0.000    2.500    0.000    5.667 
#    0.000    3.333    0.000    0.500    0.000    0.000 
#    0.000    0.000    0.000    0.000    0.000    0.000 
#
# Total GULP energy -267745.743568 kJ/mol
# GULP energy per Si atom -5578.036324 kJ/mol
# Density = 1.722915 g / cm^3
# Si number density = 17.268452 Si / 1000 Ang^3
#
#
#
# Elastic Constant Matrix: (Units=GPa)
#
#
# Indices 1 2 3 4 5 6 
#
# 1 89.1054 43.3499 121.0535 0.0000 0.0000 0.0000
# 2 43.3499 32.6503 59.7378 0.0000 0.0000 0.0000
# 3 121.0535 59.7378 203.2889 0.0000 0.0000 0.0000
# 4 0.0000 0.0000 0.0000 -30.4176 0.0000 0.0000
# 5 0.0000 0.0000 0.0000 0.0000 43.3864 0.0000
# 6 0.0000 0.0000 0.0000 0.0000 0.0000 23.9775
#
#
#
# Elastic Compliance Matrix: (Units=1/GPa)
#
#
# Indices 1 2 3 4 5 6 
#
# 1 0.076840 -0.039589 -0.034123 0.000000 0.000000 0.000000
# 2 -0.039589 0.086639 -0.001885 0.000000 0.000000 0.000000
# 3 -0.034123 -0.001885 0.025793 0.000000 0.000000 0.000000
# 4 0.000000 0.000000 0.000000 -0.032876 0.000000 0.000000
# 5 0.000000 0.000000 0.000000 0.000000 0.023049 0.000000
# 6 0.000000 0.000000 0.000000 0.000000 0.000000 0.041706
#
#
# Mechanical properties :
#
#
# Convention : Reuss Voigt Hill
#
# Bulk Modulus (GPa) = 26.26206 85.92524 56.09365
# Shear Modulus (GPa) = 12.98574 14.11616 13.55095
#
# Velocity S-wave (km/s) = 2.74522 2.86222 2.80433
# Velocity P-wave (km/s) = 5.02886 7.79677 6.56045
#
# Compressibility (1/GPa) = 0.03807774
#
# Stress axis : x y z
#
# Youngs Moduli (GPa) = 13.01401 11.54211 38.77078
#
# Poissons Ratio (x) = 0.45694 1.32298
# Poissons Ratio (y) = 0.51521 0.07310
# Poissons Ratio (z) = 0.44408 0.02176
#
# Static dielectric constant tensor:
#      x y z
#    x 1.575330 0.000000 0.000000 
#    y 0.000000 1.575130 0.000000 
#    z 0.000000 0.000000 1.557610 
# 
# From -- ./inp_files/36968.got.cif
#   From: 2010.05.17/outbox.cif.g08.bks.cpg/sg51_19_cif.got.tgz:36968.got - 2010.06.03 11:52:47.
