data_PCOD9405323
_publ_section_title
;
Structure prediction by ZEFSAII (Michael W. Deem and Ramdas Pophale) SiO2 
 PCOD9405323
Probable space group: P M M A
;
_chemical_formula_sum "Si O2"
_cell_formula_units_Z 36
_cell_length_a 7.482525
_cell_length_b 24.865579
_cell_length_c 9.478447
_cell_angle_alpha 90.000000
_cell_angle_beta 90.000000
_cell_angle_gamma 90.000000
_cell_volume 1763.534413
_symmetry_space_group_name_H-M "P M M A"
_symmetry_group_IT_number 51
_symmetry_cell_setting 'orthorhombic'
loop_
_space_group_symop_operation_xyz
x,y,z
1/2-x,-y,z
1/2+x,-y,-z
-x,y,-z
-x,-y,-z
1/2+x,y,-z
1/2-x,y,z
x,-y,z
loop_
_atom_site_type_symbol
_atom_site_label
_atom_site_fract_x
_atom_site_fract_y
_atom_site_fract_z
Si Si1 0.964498 0.174546 0.833281
Si Si2 0.464253 0.603219 0.334270
Si Si3 0.964107 0.942207 0.831584
Si Si4 0.035844 0.722626 0.334555
Si Si5 0.464370 0.500000 0.165607
O O1 0.750000 0.173587 0.814954
O O2 0.032339 0.115962 0.781374
O O3 0.034964 0.226840 0.753017
O O4 0.000000 0.179023 0.000000
O O5 0.500000 0.593972 0.500000
O O6 0.250000 0.604826 0.317303
O O7 0.532904 0.662940 0.296286
O O8 0.533591 0.553954 0.241348
O O9 0.750000 0.942438 0.812015
O O10 0.032895 0.000000 0.776754
O O11 0.000000 0.942163 0.000000
O O12 0.250000 0.721370 0.314669
O O13 0.000000 0.730417 0.500000
O O14 0.250000 0.500000 0.185182
O O15 0.500000 0.500000 0.000000
#
# Coordination Sequence:
#
# PCOD9405323 Si02
#       5
#     8   8   8   8   4
#     4   9  17  28  43  65  90 114 143 181 222 262
#     4   9  18  33  51  69  89 116 151 186 217 255
#     4   8  13  22  37  57  81 109 140 174 213 256
#     4   9  18  32  48  66  89 117 149 183 218 258
#     4  10  21  34  48  70  98 122 145 178 220 262
#
# _framework density 20.413550999999998
#
# number of rings (size 3 to 8) (size 9 to 14) (size 15 to 20)
#    0.000    3.111    0.000    0.333    0.000    2.667 
#    0.000    0.000    0.000    0.667    0.000    0.000 
#    0.000    0.000    0.000    0.000    0.000    0.000 
#
# Total GULP energy -200578.372414 kJ/mol
# GULP energy per Si atom -5571.621456 kJ/mol
# Density = 2.036709 g / cm^3
# Si number density = 20.413551 Si / 1000 Ang^3
#
#
#
# Elastic Constant Matrix: (Units=GPa)
#
#
# Indices 1 2 3 4 5 6 
#
# 1 62.2402 13.9510 -4.2854 0.0000 0.0000 0.0000
# 2 13.9510 291.3909 108.6820 0.0000 0.0000 0.0000
# 3 -4.2854 108.6820 57.1168 0.0000 0.0000 0.0000
# 4 0.0000 0.0000 0.0000 -17.2289 0.0000 0.0000
# 5 0.0000 0.0000 0.0000 0.0000 18.0499 0.0000
# 6 0.0000 0.0000 0.0000 0.0000 0.0000 23.8284
#
#
#
# Elastic Compliance Matrix: (Units=1/GPa)
#
#
# Indices 1 2 3 4 5 6 
#
# 1 0.017812 -0.004655 0.010193 0.000000 0.000000 0.000000
# 2 -0.004655 0.013038 -0.025158 0.000000 0.000000 0.000000
# 3 0.010193 -0.025158 0.066143 0.000000 0.000000 0.000000
# 4 0.000000 0.000000 0.000000 -0.058042 0.000000 0.000000
# 5 0.000000 0.000000 0.000000 0.000000 0.055402 0.000000
# 6 0.000000 0.000000 0.000000 0.000000 0.000000 0.041967
#
#
# Mechanical properties :
#
#
# Convention : Reuss Voigt Hill
#
# Bulk Modulus (GPa) = 17.31465 71.93814 44.62640
# Shear Modulus (GPa) = 25.66601 24.42323 25.04462
#
# Velocity S-wave (km/s) = 3.54969 3.46269 3.50646
# Velocity P-wave (km/s) = 5.02999 7.16267 6.18889
#
# Compressibility (1/GPa) = 0.05775455
#
# Stress axis : x y z
#
# Youngs Moduli (GPa) = 56.14218 76.69895 15.11868
#
# Poissons Ratio (x) = 0.35700 -0.15411
# Poissons Ratio (y) = 0.26132 0.38035
# Poissons Ratio (z) = -0.57227 1.92959
#
# Static dielectric constant tensor:
#      x y z
#    x 1.738940 0.000000 0.000000 
#    y 0.000000 1.810970 0.000000 
#    z 0.000000 0.000000 1.713050 
# 
# From -- ./inp_files/5244.got.cif
#   From: 2010.05.17/outbox.cif.g08.bks.cpg/sg51_3_cif.got.tgz:5244.got - 2010.06.03 11:52:47.
