data_PCOD9405483
_publ_section_title
;
Structure prediction by ZEFSAII (Michael W. Deem and Ramdas Pophale) SiO2 
 PCOD9405483
Probable space group: P M M A
;
_chemical_formula_sum "Si O2"
_cell_formula_units_Z 56
_cell_length_a 13.726728
_cell_length_b 8.087279
_cell_length_c 23.720093
_cell_angle_alpha 90.000000
_cell_angle_beta 90.000000
_cell_angle_gamma 90.000000
_cell_volume 2633.212096
_symmetry_space_group_name_H-M "P M M A"
_symmetry_group_IT_number 51
_symmetry_cell_setting 'orthorhombic'
loop_
_space_group_symop_operation_xyz
x,y,z
1/2-x,-y,z
1/2+x,-y,-z
-x,y,-z
-x,-y,-z
1/2+x,y,-z
1/2-x,y,z
x,-y,z
loop_
_atom_site_type_symbol
_atom_site_label
_atom_site_fract_x
_atom_site_fract_y
_atom_site_fract_z
Si Si1 0.064542 0.199536 0.797694
Si Si2 0.433553 0.308895 0.923149
Si Si3 0.395059 0.697209 0.500887
Si Si4 0.250000 0.299290 0.595632
Si Si5 0.250000 0.801599 0.725170
Si Si6 0.136617 0.202853 0.256439
Si Si7 0.637027 0.817063 0.622086
Si Si8 0.359371 0.192917 0.039490
O O1 0.091527 0.252452 0.860662
O O2 0.150170 0.258282 0.755342
O O3 0.953258 0.254256 0.783452
O O4 0.062761 0.000000 0.794911
O O5 0.409120 0.500000 0.931622
O O6 0.380034 0.208857 0.972616
O O7 0.549801 0.284095 0.932044
O O8 0.500000 0.774912 0.500000
O O9 0.398953 0.500000 0.508590
O O10 0.338098 0.758477 0.555354
O O11 0.360922 0.725575 0.437245
O O12 0.250000 0.500000 0.597553
O O13 0.250000 0.238598 0.658968
O O14 0.250000 0.000000 0.730937
O O15 0.250000 0.254472 0.244048
O O16 0.101005 0.259066 0.319334
O O17 0.138435 0.000000 0.257416
O O18 0.750000 0.837543 0.636522
O O19 0.593132 0.000000 0.614036
O O20 0.250000 0.252761 0.052360
O O21 0.365174 0.000000 0.055743
#
# Coordination Sequence:
#
# PCOD9405483 Si02
#       8
#     8   8   8   4   4   8   8   8
#     4  10  21  39  59  82 115 155 202 246 289 351
#     4  11  23  38  59  91 127 160 199 248 299 352
#     4  10  21  35  52  75 103 140 178 218 277 347
#     4  10  22  40  56  76 112 148 183 232 287 352
#     4  10  24  40  58  84 114 154 201 250 293 338
#     4   8  16  32  55  80 106 139 183 239 295 344
#     4   9  17  31  52  78 103 130 171 223 280 338
#     4  10  21  39  65  93 123 162 203 246 295 349
#
# _framework density 21.266801999999998
#
# number of rings (size 3 to 8) (size 9 to 14) (size 15 to 20)
#    0.000    2.286    0.714    3.429    3.000    3.143 
#    0.000    2.143    0.000    0.857    0.000    0.000 
#    0.000    0.000    0.000    0.000    0.000    0.000 
#
# Total GULP energy -311938.391623 kJ/mol
# GULP energy per Si atom -5570.328422 kJ/mol
# Density = 2.121840 g / cm^3
# Si number density = 21.266802 Si / 1000 Ang^3
#
#
#
# Elastic Constant Matrix: (Units=GPa)
#
#
# Indices 1 2 3 4 5 6 
#
# 1 74.8154 9.0608 5.5272 0.0000 0.0000 0.0000
# 2 9.0608 12.3049 -2.9910 0.0000 0.0000 0.0000
# 3 5.5272 -2.9910 85.6004 0.0000 0.0000 0.0000
# 4 0.0000 0.0000 0.0000 38.0801 0.0000 0.0000
# 5 0.0000 0.0000 0.0000 0.0000 17.7363 0.0000
# 6 0.0000 0.0000 0.0000 0.0000 0.0000 11.1898
#
#
#
# Elastic Compliance Matrix: (Units=1/GPa)
#
#
# Indices 1 2 3 4 5 6 
#
# 1 0.014828 -0.011247 -0.001350 0.000000 0.000000 0.000000
# 2 -0.011247 0.090495 0.003888 0.000000 0.000000 0.000000
# 3 -0.001350 0.003888 0.011905 0.000000 0.000000 0.000000
# 4 0.000000 0.000000 0.000000 0.026260 0.000000 0.000000
# 5 0.000000 0.000000 0.000000 0.000000 0.056381 0.000000
# 6 0.000000 0.000000 0.000000 0.000000 0.000000 0.089367
#
#
# Mechanical properties :
#
#
# Convention : Reuss Voigt Hill
#
# Bulk Modulus (GPa) = 10.01901 21.76829 15.89365
# Shear Modulus (GPa) = 14.70908 24.14283 19.42596
#
# Velocity S-wave (km/s) = 2.63277 3.37298 3.02560
# Velocity P-wave (km/s) = 3.73675 5.04256 4.43794
#
# Compressibility (1/GPa) = 0.09981023
#
# Stress axis : x y z
#
# Youngs Moduli (GPa) = 67.43954 11.05030 83.99659
#
# Poissons Ratio (x) = 0.12428 0.11343
# Poissons Ratio (y) = 0.75849 -0.32660
# Poissons Ratio (z) = 0.09107 -0.04297
#
# Static dielectric constant tensor:
#      x y z
#    x 1.822040 0.000000 0.000000 
#    y 0.000000 1.757250 0.000000 
#    z 0.000000 0.000000 1.784420 
# 
# From -- ./inp_files/33576.got.cif
#   From: 2010.05.17/outbox.cif.g08.bks.cpg/sg51_17_cif.got.tgz:33576.got - 2010.06.03 11:52:47.
