data_PCOD9405712
_publ_section_title
;
Structure prediction by ZEFSAII (Michael W. Deem and Ramdas Pophale) SiO2 
 PCOD9405712
Probable space group: P M M A
;
_chemical_formula_sum "Si O2"
_cell_formula_units_Z 48
_cell_length_a 8.961692
_cell_length_b 9.492804
_cell_length_c 31.601214
_cell_angle_alpha 90.000000
_cell_angle_beta 90.000000
_cell_angle_gamma 90.000000
_cell_volume 2688.365384
_symmetry_space_group_name_H-M "P M M A"
_symmetry_group_IT_number 51
_symmetry_cell_setting 'orthorhombic'
loop_
_space_group_symop_operation_xyz
x,y,z
1/2-x,-y,z
1/2+x,-y,-z
-x,y,-z
-x,-y,-z
1/2+x,y,-z
1/2-x,y,z
x,-y,z
loop_
_atom_site_type_symbol
_atom_site_label
_atom_site_fract_x
_atom_site_fract_y
_atom_site_fract_z
Si Si1 0.071773 0.165189 0.795469
Si Si2 0.569956 0.664492 0.872314
Si Si3 0.929393 0.164204 0.955437
Si Si4 0.071905 0.834424 0.545081
Si Si5 0.571258 0.165047 0.705850
Si Si6 0.929679 0.665140 0.622072
O O1 0.250000 0.177500 0.795660
O O2 0.001464 0.257901 0.832392
O O3 0.008257 0.205554 0.749466
O O4 0.032492 0.000000 0.802186
O O5 0.750000 0.675723 0.869292
O O6 0.530532 0.500000 0.873241
O O7 0.523606 0.741876 0.915679
O O8 0.750000 0.171720 0.958866
O O9 0.969978 0.000000 0.948061
O O10 0.000000 0.208498 0.000000
O O11 0.250000 0.819215 0.542804
O O12 0.000000 0.795713 0.500000
O O13 0.005771 0.741923 0.582702
O O14 0.037335 0.000000 0.552748
O O15 0.750000 0.178070 0.711497
O O16 0.526487 0.258638 0.665813
O O17 0.538306 0.000000 0.697330
O O18 0.750000 0.679092 0.618068
O O19 0.966242 0.500000 0.623156
#
# Coordination Sequence:
#
# PCOD9405712 Si02
#       6
#     8   8   8   8   8   8
#     4  10  21  36  55  80 108 138 175 220 267 314
#     4  10  21  36  54  77 106 141 179 217 260 313
#     4   9  18  33  53  76 102 134 173 216 260 308
#     4  10  21  37  58  82 107 139 180 224 268 314
#     4   9  18  34  56  79 105 141 182 221 261 309
#     4  10  21  36  55  81 112 144 177 215 262 316
#
# _framework density 17.854714999999999
#
# number of rings (size 3 to 8) (size 9 to 14) (size 15 to 20)
#    0.000    2.333    0.000    2.000    0.000    6.667 
#    0.000    5.000    0.000    0.000    0.000    0.000 
#    0.000    0.000    0.000    0.000    0.000    0.000 
#
# Total GULP energy -267998.657737 kJ/mol
# GULP energy per Si atom -5583.305370 kJ/mol
# Density = 1.781408 g / cm^3
# Si number density = 17.854715 Si / 1000 Ang^3
#
#
#
# Elastic Constant Matrix: (Units=GPa)
#
#
# Indices 1 2 3 4 5 6 
#
# 1 27.1677 53.1136 64.4886 0.0000 0.0000 0.0000
# 2 53.1136 115.3296 131.3018 0.0000 0.0000 0.0000
# 3 64.4886 131.3018 217.3134 0.0000 0.0000 0.0000
# 4 0.0000 0.0000 0.0000 -10.2289 0.0000 0.0000
# 5 0.0000 0.0000 0.0000 0.0000 36.5777 0.0000
# 6 0.0000 0.0000 0.0000 0.0000 0.0000 23.0192
#
#
#
# Elastic Compliance Matrix: (Units=1/GPa)
#
#
# Indices 1 2 3 4 5 6 
#
# 1 0.405064 -0.159221 -0.024002 0.000000 0.000000 0.000000
# 2 -0.159221 0.090366 -0.007350 0.000000 0.000000 0.000000
# 3 -0.024002 -0.007350 0.016166 0.000000 0.000000 0.000000
# 4 0.000000 0.000000 0.000000 -0.097762 0.000000 0.000000
# 5 0.000000 0.000000 0.000000 0.000000 0.027339 0.000000
# 6 0.000000 0.000000 0.000000 0.000000 0.000000 0.043442
#
#
# Mechanical properties :
#
#
# Convention : Reuss Voigt Hill
#
# Bulk Modulus (GPa) = 7.66583 95.29096 51.47840
# Shear Modulus (GPa) = 5.49906 17.26738 11.38322
#
# Velocity S-wave (km/s) = 1.75687 3.11320 2.52771
# Velocity P-wave (km/s) = 2.90142 8.14916 6.11666
#
# Compressibility (1/GPa) = 0.13044899
#
# Stress axis : x y z
#
# Youngs Moduli (GPa) = 2.46874 11.06606 61.85984
#
# Poissons Ratio (x) = 1.76195 1.48478
# Poissons Ratio (y) = 0.39308 0.45469
# Poissons Ratio (z) = 0.05926 0.08134
#
# Static dielectric constant tensor:
#      x y z
#    x 1.598960 0.000000 0.000000 
#    y 0.000000 1.597400 0.000000 
#    z 0.000000 0.000000 1.572480 
# 
# From -- ./inp_files/36905.got.cif
#   From: 2010.05.17/outbox.cif.g08.bks.cpg/sg51_19_cif.got.tgz:36905.got - 2010.06.03 11:52:47.
