data_PCOD9405951
_publ_section_title
;
Structure prediction by ZEFSAII (Michael W. Deem and Ramdas Pophale) SiO2 
 PCOD9405951
Probable space group: P M M A
;
_chemical_formula_sum "Si O2"
_cell_formula_units_Z 56
_cell_length_a 9.041669
_cell_length_b 14.609895
_cell_length_c 23.637251
_cell_angle_alpha 90.000000
_cell_angle_beta 90.000000
_cell_angle_gamma 90.000000
_cell_volume 3122.429676
_symmetry_space_group_name_H-M "P M M A"
_symmetry_group_IT_number 51
_symmetry_cell_setting 'orthorhombic'
loop_
_space_group_symop_operation_xyz
x,y,z
1/2-x,-y,z
1/2+x,-y,-z
-x,y,-z
-x,-y,-z
1/2+x,y,-z
1/2-x,y,z
x,-y,z
loop_
_atom_site_type_symbol
_atom_site_label
_atom_site_fract_x
_atom_site_fract_y
_atom_site_fract_z
Si Si1 0.925567 0.219211 0.941836
Si Si2 0.925617 0.606947 0.105846
Si Si3 0.573691 0.393368 0.439457
Si Si4 0.078342 0.390787 0.760989
Si Si5 0.078277 0.109808 0.841362
Si Si6 0.425157 0.715120 0.338531
Si Si7 0.573463 0.105346 0.722060
O O1 0.750000 0.214020 0.945542
O O2 0.979195 0.322812 0.929998
O O3 0.986559 0.160048 0.889665
O O4 0.000000 0.187155 0.000000
O O5 0.750000 0.620876 0.095504
O O6 0.958493 0.500000 0.095453
O O7 0.951655 0.625907 0.172692
O O8 0.500000 0.373893 0.500000
O O9 0.750000 0.384277 0.443571
O O10 0.540332 0.500000 0.425243
O O11 0.510320 0.329025 0.390782
O O12 0.250000 0.365672 0.749859
O O13 0.065398 0.500000 0.752050
O O14 0.973447 0.337968 0.718337
O O15 0.250000 0.137894 0.844405
O O16 0.012751 0.129811 0.779440
O O17 0.069700 0.000000 0.848911
O O18 0.250000 0.705817 0.347370
O O19 0.461035 0.821252 0.326222
O O20 0.750000 0.111219 0.733393
O O21 0.539031 0.000000 0.707484
#
# Coordination Sequence:
#
# PCOD9405951 Si02
#       7
#     8   8   8   8   8   8   8
#     4  12  25  39  56  77 103 136 175 219 265 318
#     4   9  19  37  58  78 104 138 175 218 267 317
#     4  10  21  37  56  78 108 146 184 222 264 310
#     4   9  18  32  50  74 105 139 171 207 257 313
#     4  10  21  38  60  84 109 137 171 215 269 326
#     4  11  21  31  50  80 110 142 179 219 261 305
#     4   9  19  36  56  80 111 144 177 215 262 315
#
# _framework density 17.934752
#
# number of rings (size 3 to 8) (size 9 to 14) (size 15 to 20)
#    0.000    2.000    0.000    4.714    0.000    8.571 
#    0.000    1.429    0.000    0.429    0.000    0.000 
#    0.000    0.000    0.000    0.000    0.000    0.000 
#
# Total GULP energy -312895.362200 kJ/mol
# GULP energy per Si atom -5587.417182 kJ/mol
# Density = 1.789393 g / cm^3
# Si number density = 17.934752 Si / 1000 Ang^3
#
#
#
# Elastic Constant Matrix: (Units=GPa)
#
#
# Indices 1 2 3 4 5 6 
#
# 1 88.9385 52.3980 60.6928 0.0000 0.0000 0.0000
# 2 52.3980 68.7564 60.6641 0.0000 0.0000 0.0000
# 3 60.6928 60.6641 83.3653 0.0000 0.0000 0.0000
# 4 0.0000 0.0000 0.0000 18.7402 0.0000 0.0000
# 5 0.0000 0.0000 0.0000 0.0000 32.6378 0.0000
# 6 0.0000 0.0000 0.0000 0.0000 0.0000 26.4450
#
#
#
# Elastic Compliance Matrix: (Units=1/GPa)
#
#
# Indices 1 2 3 4 5 6 
#
# 1 0.023810 -0.007964 -0.011539 0.000000 0.000000 0.000000
# 2 -0.007964 0.043295 -0.025707 0.000000 0.000000 0.000000
# 3 -0.011539 -0.025707 0.039103 0.000000 0.000000 0.000000
# 4 0.000000 0.000000 0.000000 0.053361 0.000000 0.000000
# 5 0.000000 0.000000 0.000000 0.000000 0.030639 0.000000
# 6 0.000000 0.000000 0.000000 0.000000 0.000000 0.037814
#
#
# Mechanical properties :
#
#
# Convention : Reuss Voigt Hill
#
# Bulk Modulus (GPa) = 63.34198 65.39667 64.36933
# Shear Modulus (GPa) = 15.44608 20.05163 17.74885
#
# Velocity S-wave (km/s) = 2.93787 3.34733 3.14926
# Velocity P-wave (km/s) = 6.84856 7.17512 7.01374
#
# Compressibility (1/GPa) = 0.01578732
#
# Stress axis : x y z
#
# Youngs Moduli (GPa) = 41.99828 23.09738 25.57350
#
# Poissons Ratio (x) = 0.18396 0.29510
# Poissons Ratio (y) = 0.33449 0.65742
# Poissons Ratio (z) = 0.48463 0.59376
#
# Static dielectric constant tensor:
#      x y z
#    x 1.599500 0.000000 0.000000 
#    y 0.000000 1.632200 0.000000 
#    z 0.000000 0.000000 1.584930 
# 
# From -- ./inp_files/31918.got.cif
#   From: 2010.05.17/outbox.cif.g08.bks.cpg/sg51_16_cif.got.tgz:31918.got - 2010.06.03 11:52:47.
