data_PCOD9405259
_publ_section_title
;
Structure prediction by ZEFSAII (Michael W. Deem and Ramdas Pophale) SiO2 
 PCOD9405259
Probable space group: P M M A
;
_chemical_formula_sum "Si O2"
_cell_formula_units_Z 64
_cell_length_a 16.529776
_cell_length_b 9.672760
_cell_length_c 20.475626
_cell_angle_alpha 90.000000
_cell_angle_beta 90.000000
_cell_angle_gamma 90.000000
_cell_volume 3273.818276
_symmetry_space_group_name_H-M "P M M A"
_symmetry_group_IT_number 51
_symmetry_cell_setting 'orthorhombic'
loop_
_space_group_symop_operation_xyz
x,y,z
1/2-x,-y,z
1/2+x,-y,-z
-x,y,-z
-x,-y,-z
1/2+x,y,-z
1/2-x,y,z
x,-y,z
loop_
_atom_site_type_symbol
_atom_site_label
_atom_site_fract_x
_atom_site_fract_y
_atom_site_fract_z
Si Si1 0.847479 0.162241 0.176285
Si Si2 0.154870 0.842810 0.592900
Si Si3 0.651484 0.157078 0.026486
Si Si4 0.905337 0.657773 0.519612
Si Si5 0.849195 0.341599 0.905539
Si Si6 0.605989 0.345388 0.674426
Si Si7 0.845108 0.154068 0.786572
Si Si8 0.082531 0.341544 0.708193
O O1 0.750000 0.180164 0.181711
O O2 0.871482 0.189156 0.101037
O O3 0.891054 0.262329 0.226688
O O4 0.864040 0.000000 0.190531
O O5 0.250000 0.848404 0.605874
O O6 0.139528 0.770627 0.523541
O O7 0.115777 0.745990 0.647451
O O8 0.122712 0.000000 0.594655
O O9 0.750000 0.156314 0.025775
O O10 0.625773 0.000000 0.010476
O O11 0.624896 0.264642 0.971745
O O12 0.878557 0.500000 0.504210
O O13 0.894240 0.678985 0.596823
O O14 0.000000 0.665371 0.500000
O O15 0.750000 0.343128 0.905068
O O16 0.875933 0.500000 0.902186
O O17 0.878153 0.253475 0.843307
O O18 0.640122 0.500000 0.686410
O O19 0.647632 0.228601 0.717162
O O20 0.513581 0.345933 0.698786
O O21 0.750000 0.140861 0.801093
O O22 0.881110 0.000000 0.786904
O O23 0.112515 0.500000 0.707291
#
# Coordination Sequence:
#
# PCOD9405259 Si02
#       8
#     8   8   8   8   8   8   8   8
#     4   9  18  32  50  76 111 147 184 228 275 323
#     4  11  24  39  57  85 117 146 181 226 273 323
#     4   8  14  26  45  70 103 142 180 220 269 322
#     4  10  20  40  63  82 108 142 182 225 271 326
#     4   9  16  27  47  75 106 139 177 222 270 321
#     4  10  22  39  59  81 108 142 180 222 269 324
#     4  10  21  36  55  81 111 141 177 222 271 326
#     4  11  22  37  56  79 109 146 187 228 270 322
#
# _framework density 19.549039
#
# number of rings (size 3 to 8) (size 9 to 14) (size 15 to 20)
#    0.000    2.250    1.250    2.625    0.000    7.750 
#    0.000    3.750    0.000    0.750    0.000    5.250 
#    0.000    0.000    0.000    0.000    0.000    0.000 
#
# Total GULP energy -357238.316590 kJ/mol
# GULP energy per Si atom -5581.848697 kJ/mol
# Density = 1.950454 g / cm^3
# Si number density = 19.549039 Si / 1000 Ang^3
#
#
#
# Elastic Constant Matrix: (Units=GPa)
#
#
# Indices 1 2 3 4 5 6 
#
# 1 10.1174 14.3218 -0.2397 0.0000 0.0000 0.0000
# 2 14.3218 168.9755 97.7840 0.0000 0.0000 0.0000
# 3 -0.2397 97.7840 115.9041 0.0000 0.0000 0.0000
# 4 0.0000 0.0000 0.0000 31.4015 0.0000 0.0000
# 5 0.0000 0.0000 0.0000 0.0000 30.8019 0.0000
# 6 0.0000 0.0000 0.0000 0.0000 0.0000 -0.6992
#
#
#
# Elastic Compliance Matrix: (Units=1/GPa)
#
#
# Indices 1 2 3 4 5 6 
#
# 1 0.130249 -0.021875 0.018725 0.000000 0.000000 0.000000
# 2 -0.021875 0.015237 -0.012901 0.000000 0.000000 0.000000
# 3 0.018725 -0.012901 0.019550 0.000000 0.000000 0.000000
# 4 0.000000 0.000000 0.000000 0.031846 0.000000 0.000000
# 5 0.000000 0.000000 0.000000 0.000000 0.032466 0.000000
# 6 0.000000 0.000000 0.000000 0.000000 0.000000 -1.430193
#
#
# Mechanical properties :
#
#
# Convention : Reuss Voigt Hill
#
# Bulk Modulus (GPa) = 7.52249 57.63657 32.57953
# Shear Modulus (GPa) = -4.44669 24.50958 10.03145
#
# Velocity S-wave (km/s) = -1.50982 3.54467 2.26772
# Velocity P-wave (km/s) = 0.90385 6.80441 4.85371
#
# Compressibility (1/GPa) = 0.13293467
#
# Stress axis : x y z
#
# Youngs Moduli (GPa) = 7.67760 65.62772 51.15023
#
# Poissons Ratio (x) = 1.43562 -0.95778
# Poissons Ratio (y) = 0.16795 0.65987
# Poissons Ratio (z) = -0.14376 0.84663
#
# Static dielectric constant tensor:
#      x y z
#    x 1.703300 0.000000 0.000000 
#    y 0.000000 1.683470 0.000000 
#    z 0.000000 0.000000 1.670100 
# 
# From -- ./inp_files/33758.got.cif
#   From: 2010.05.17/outbox.cif.g08.bks.cpg/sg51_17_cif.got.tgz:33758.got - 2010.06.03 11:52:47.
