data_PCOD9405463
_publ_section_title
;
Structure prediction by ZEFSAII (Michael W. Deem and Ramdas Pophale) SiO2 
 PCOD9405463
Probable space group: P M M A
;
_chemical_formula_sum "Si O2"
_cell_formula_units_Z 64
_cell_length_a 19.927831
_cell_length_b 8.860310
_cell_length_c 20.798313
_cell_angle_alpha 90.000000
_cell_angle_beta 90.000000
_cell_angle_gamma 90.000000
_cell_volume 3672.290746
_symmetry_space_group_name_H-M "P M M A"
_symmetry_group_IT_number 51
_symmetry_cell_setting 'orthorhombic'
loop_
_space_group_symop_operation_xyz
x,y,z
1/2-x,-y,z
1/2+x,-y,-z
-x,y,-z
-x,-y,-z
1/2+x,y,-z
1/2-x,y,z
x,-y,z
loop_
_atom_site_type_symbol
_atom_site_label
_atom_site_fract_x
_atom_site_fract_y
_atom_site_fract_z
Si Si1 0.920869 0.679976 0.678032
Si Si2 0.577265 0.318203 0.315615
Si Si3 0.574230 0.819670 0.177370
Si Si4 0.926760 0.681326 0.825913
Si Si5 0.670968 0.180131 0.931510
Si Si6 0.827814 0.180152 0.569950
Si Si7 0.827961 0.318414 0.433476
Si Si8 0.329266 0.320110 0.929217
O O1 0.931463 0.500000 0.830827
O O2 0.905780 0.718209 0.752441
O O3 0.873963 0.761920 0.627355
O O4 0.999612 0.715444 0.668022
O O5 0.582153 0.500000 0.306208
O O6 0.593660 0.237984 0.248567
O O7 0.625736 0.273427 0.373746
O O8 0.500308 0.752000 0.163941
O O9 0.625895 0.756358 0.125151
O O10 0.571928 0.000000 0.175605
O O11 0.912713 0.500000 0.670377
O O12 0.874710 0.746375 0.876922
O O13 0.750000 0.209474 0.919137
O O14 0.661017 0.000000 0.933376
O O15 0.654678 0.251035 0.000946
O O16 0.750000 0.226904 0.580177
O O17 0.849347 0.247543 0.501205
O O18 0.830081 0.000000 0.566755
O O19 0.750000 0.276877 0.422234
O O20 0.831521 0.500000 0.439017
O O21 0.250000 0.292983 0.917363
O O22 0.340347 0.500000 0.929911
#
# Coordination Sequence:
#
# PCOD9405463 Si02
#       8
#     8   8   8   8   8   8   8   8
#     4   9  19  35  54  75 102 137 175 217 259 306
#     4   9  19  36  55  78 107 138 176 218 261 312
#     4  11  22  36  56  82 112 143 177 221 273 322
#     4  10  21  38  58  80 108 143 184 224 264 317
#     4  10  21  37  57  83 114 143 175 221 274 323
#     4  10  21  35  51  74 105 137 171 216 266 315
#     4   9  18  34  56  78 102 136 176 215 256 308
#     4  10  21  38  59  81 108 144 184 223 263 314
#
# _framework density 17.427814000000001
#
# number of rings (size 3 to 8) (size 9 to 14) (size 15 to 20)
#    0.000    2.250    0.000    3.375    0.000    7.250 
#    0.000    8.750    0.000    0.000    0.000    0.000 
#    0.000    0.000    0.000    0.000    0.000    0.000 
#
# Total GULP energy -357297.614464 kJ/mol
# GULP energy per Si atom -5582.775226 kJ/mol
# Density = 1.738815 g / cm^3
# Si number density = 17.427814 Si / 1000 Ang^3
#
#
#
# Elastic Constant Matrix: (Units=GPa)
#
#
# Indices 1 2 3 4 5 6 
#
# 1 91.9065 62.5773 119.5301 0.0000 0.0000 0.0000
# 2 62.5773 76.5905 85.3224 0.0000 0.0000 0.0000
# 3 119.5301 85.3224 186.6032 0.0000 0.0000 0.0000
# 4 0.0000 0.0000 0.0000 0.6193 0.0000 0.0000
# 5 0.0000 0.0000 0.0000 0.0000 41.9307 0.0000
# 6 0.0000 0.0000 0.0000 0.0000 0.0000 25.8723
#
#
#
# Elastic Compliance Matrix: (Units=1/GPa)
#
#
# Indices 1 2 3 4 5 6 
#
# 1 0.073153 -0.015425 -0.039806 0.000000 0.000000 0.000000
# 2 -0.015425 0.029864 -0.003775 0.000000 0.000000 0.000000
# 3 -0.039806 -0.003775 0.032583 0.000000 0.000000 0.000000
# 4 0.000000 0.000000 0.000000 1.614798 0.000000 0.000000
# 5 0.000000 0.000000 0.000000 0.000000 0.023849 0.000000
# 6 0.000000 0.000000 0.000000 0.000000 0.000000 0.038651
#
#
# Mechanical properties :
#
#
# Convention : Reuss Voigt Hill
#
# Bulk Modulus (GPa) = 56.85235 98.88442 77.86839
# Shear Modulus (GPa) = 2.58161 19.52916 11.05539
#
# Velocity S-wave (km/s) = 1.21841 3.35113 2.52137
# Velocity P-wave (km/s) = 5.88828 8.47561 7.29753
#
# Compressibility (1/GPa) = 0.01758942
#
# Stress axis : x y z
#
# Youngs Moduli (GPa) = 13.66994 33.48536 30.69089
#
# Poissons Ratio (x) = 0.51650 1.22169
# Poissons Ratio (y) = 0.21085 0.11585
# Poissons Ratio (z) = 0.54415 0.12639
#
# Static dielectric constant tensor:
#      x y z
#    x 1.576460 0.000000 0.000000 
#    y 0.000000 1.579490 0.000000 
#    z 0.000000 0.000000 1.561540 
# 
# From -- ./inp_files/30553.got.cif
#   From: 2010.05.17/outbox.cif.g08.bks.cpg/sg51_16_cif.got.tgz:30553.got - 2010.06.03 11:52:47.
