data_PCOD9405180
_publ_section_title
;
Structure prediction by ZEFSAII (Michael W. Deem and Ramdas Pophale) SiO2 
 PCOD9405180
Probable space group: P M M A
;
_chemical_formula_sum "Si O2"
_cell_formula_units_Z 48
_cell_length_a 14.717824
_cell_length_b 10.744751
_cell_length_c 16.222548
_cell_angle_alpha 90.000000
_cell_angle_beta 90.000000
_cell_angle_gamma 90.000000
_cell_volume 2565.423263
_symmetry_space_group_name_H-M "P M M A"
_symmetry_group_IT_number 51
_symmetry_cell_setting 'orthorhombic'
loop_
_space_group_symop_operation_xyz
x,y,z
1/2-x,-y,z
1/2+x,-y,-z
-x,y,-z
-x,-y,-z
1/2+x,y,-z
1/2-x,y,z
x,-y,z
loop_
_atom_site_type_symbol
_atom_site_label
_atom_site_fract_x
_atom_site_fract_y
_atom_site_fract_z
Si Si1 0.640597 0.500000 0.231788
Si Si2 0.647519 0.643159 0.656699
Si Si3 0.917612 0.224463 0.254669
Si Si4 0.750000 0.851781 0.139249
Si Si5 0.505349 0.500000 0.095833
Si Si6 0.750000 0.149423 0.947626
Si Si7 0.517058 0.861207 0.597174
Si Si8 0.096956 0.264544 0.168045
O O1 0.750000 0.500000 0.238611
O O2 0.596528 0.626523 0.267789
O O3 0.604948 0.500000 0.137168
O O4 0.750000 0.650699 0.624042
O O5 0.615716 0.500000 0.647912
O O6 0.583754 0.746921 0.616907
O O7 0.648707 0.678907 0.753323
O O8 0.836650 0.188271 0.193497
O O9 0.929181 0.161615 0.343993
O O10 0.011955 0.190857 0.208020
O O11 0.750000 0.000000 0.134145
O O12 0.750000 0.805883 0.043702
O O13 0.452485 0.620879 0.125280
O O14 0.500000 0.500000 0.000000
O O15 0.837442 0.196191 0.895806
O O16 0.750000 0.000000 0.948405
O O17 0.500000 0.859080 0.500000
O O18 0.553334 0.000000 0.617636
#
# Coordination Sequence:
#
# PCOD9405180 Si02
#       8
#     4   8   8   4   4   4   8   8
#     4  10  20  38  60  90 120 161 204 256 309 391
#     4  10  20  39  63  92 126 161 204 256 319 379
#     4  10  22  40  65  90 122 162 208 257 321 373
#     4  11  24  41  59  84 123 171 216 258 314 375
#     4  10  22  33  56  89 115 153 209 255 315 358
#     4  11  26  39  55  90 127 169 220 260 306 371
#     4  10  23  43  66  94 125 162 210 258 312 383
#     4  10  21  38  60  85 124 159 204 258 307 362
#
# _framework density 18.710363000000001
#
# number of rings (size 3 to 8) (size 9 to 14) (size 15 to 20)
#    0.000    1.833    2.500    0.500    8.167    4.333 
#    1.500    1.667    0.000    0.000    0.000    0.000 
#    0.000    0.000    0.000    0.000    0.000    0.000 
#
# Total GULP energy -267446.631610 kJ/mol
# GULP energy per Si atom -5571.804825 kJ/mol
# Density = 1.866778 g / cm^3
# Si number density = 18.710363 Si / 1000 Ang^3
#
#
#
# Elastic Constant Matrix: (Units=GPa)
#
#
# Indices 1 2 3 4 5 6 
#
# 1 104.1288 33.3712 37.5148 0.0000 0.0000 0.0000
# 2 33.3712 116.3419 46.8031 0.0000 0.0000 0.0000
# 3 37.5148 46.8031 119.6112 0.0000 0.0000 0.0000
# 4 0.0000 0.0000 0.0000 28.7583 0.0000 0.0000
# 5 0.0000 0.0000 0.0000 0.0000 15.9801 0.0000
# 6 0.0000 0.0000 0.0000 0.0000 0.0000 31.2171
#
#
#
# Elastic Compliance Matrix: (Units=1/GPa)
#
#
# Indices 1 2 3 4 5 6 
#
# 1 0.011261 -0.002147 -0.002692 0.000000 0.000000 0.000000
# 2 -0.002147 0.010611 -0.003478 0.000000 0.000000 0.000000
# 3 -0.002692 -0.003478 0.010566 0.000000 0.000000 0.000000
# 4 0.000000 0.000000 0.000000 0.034773 0.000000 0.000000
# 5 0.000000 0.000000 0.000000 0.000000 0.062578 0.000000
# 6 0.000000 0.000000 0.000000 0.000000 0.000000 0.032034
#
#
# Mechanical properties :
#
#
# Convention : Reuss Voigt Hill
#
# Bulk Modulus (GPa) = 63.27995 63.94001 63.60998
# Shear Modulus (GPa) = 27.21463 30.01727 28.61595
#
# Velocity S-wave (km/s) = 3.81796 4.00973 3.91502
# Velocity P-wave (km/s) = 7.30274 7.46224 7.38292
#
# Compressibility (1/GPa) = 0.01580279
#
# Stress axis : x y z
#
# Youngs Moduli (GPa) = 88.79852 94.24536 94.64552
#
# Poissons Ratio (x) = 0.20237 0.25477
# Poissons Ratio (y) = 0.19068 0.32921
# Poissons Ratio (z) = 0.23903 0.32782
#
# Static dielectric constant tensor:
#      x y z
#    x 1.680670 0.000000 0.000000 
#    y 0.000000 1.658980 0.000000 
#    z 0.000000 0.000000 1.672550 
# 
# From -- ./inp_files/24132.got.cif
#   From: 2010.05.17/outbox.cif.g08.bks.cpg/sg51_13_cif.got.tgz:24132.got - 2010.06.03 11:52:47.
