data_PCOD9405718
_publ_section_title
;
Structure prediction by ZEFSAII (Michael W. Deem and Ramdas Pophale) SiO2 
 PCOD9405718
Probable space group: P M M A
;
_chemical_formula_sum "Si O2"
_cell_formula_units_Z 40
_cell_length_a 8.588515
_cell_length_b 9.687159
_cell_length_c 26.526880
_cell_angle_alpha 90.000000
_cell_angle_beta 90.000000
_cell_angle_gamma 90.000000
_cell_volume 2206.991596
_symmetry_space_group_name_H-M "P M M A"
_symmetry_group_IT_number 51
_symmetry_cell_setting 'orthorhombic'
loop_
_space_group_symop_operation_xyz
x,y,z
1/2-x,-y,z
1/2+x,-y,-z
-x,y,-z
-x,-y,-z
1/2+x,y,-z
1/2-x,y,z
x,-y,z
loop_
_atom_site_type_symbol
_atom_site_label
_atom_site_fract_x
_atom_site_fract_y
_atom_site_fract_z
Si Si1 0.936257 0.160370 0.554031
Si Si2 0.936225 0.660327 0.354439
Si Si3 0.562069 0.340517 0.945053
Si Si4 0.440321 0.158954 0.149862
Si Si5 0.438028 0.660130 0.245314
O O1 0.750000 0.165481 0.553101
O O2 0.000000 0.209665 0.500000
O O3 0.998199 0.248877 0.600369
O O4 0.985178 0.000000 0.559831
O O5 0.750000 0.666771 0.354609
O O6 0.984049 0.500000 0.361061
O O7 0.997944 0.704628 0.299591
O O8 0.750000 0.337803 0.946265
O O9 0.514736 0.500000 0.935439
O O10 0.509522 0.240789 0.900192
O O11 0.500000 0.300203 0.000000
O O12 0.250000 0.159496 0.149796
O O13 0.489558 0.242674 0.199577
O O14 0.490842 0.000000 0.150245
O O15 0.250000 0.663375 0.247164
O O16 0.484552 0.500000 0.236602
#
# Coordination Sequence:
#
# PCOD9405718 Si02
#       5
#     8   8   8   8   8
#     4  10  21  37  57  80 106 138 175 213 255 304
#     4  10  21  36  54  78 107 138 172 211 256 304
#     4   9  17  30  48  69  93 123 159 197 239 289
#     4   9  17  29  47  71  96 123 159 202 245 291
#     4   9  17  31  51  72  95 126 164 205 248 295
#
# _framework density 18.124219
#
# number of rings (size 3 to 8) (size 9 to 14) (size 15 to 20)
#    0.000    2.600    0.000    1.800    0.000    6.400 
#    0.000    3.000    0.000    6.000    0.000    0.000 
#    0.000    0.000    0.000    0.000    0.000    0.000 
#
# Total GULP energy -223184.212504 kJ/mol
# GULP energy per Si atom -5579.605313 kJ/mol
# Density = 1.808297 g / cm^3
# Si number density = 18.124219 Si / 1000 Ang^3
#
#
#
# Elastic Constant Matrix: (Units=GPa)
#
#
# Indices 1 2 3 4 5 6 
#
# 1 10.5206 22.4492 32.0660 0.0000 0.0000 0.0000
# 2 22.4492 105.3834 124.8109 0.0000 0.0000 0.0000
# 3 32.0660 124.8109 219.9783 0.0000 0.0000 0.0000
# 4 0.0000 0.0000 0.0000 -31.5945 0.0000 0.0000
# 5 0.0000 0.0000 0.0000 0.0000 31.8134 0.0000
# 6 0.0000 0.0000 0.0000 0.0000 0.0000 18.4585
#
#
#
# Elastic Compliance Matrix: (Units=1/GPa)
#
#
# Indices 1 2 3 4 5 6 
#
# 1 0.187881 -0.023129 -0.014264 0.000000 0.000000 0.000000
# 2 -0.023129 0.031776 -0.014657 0.000000 0.000000 0.000000
# 3 -0.014264 -0.014657 0.014941 0.000000 0.000000 0.000000
# 4 0.000000 0.000000 0.000000 -0.031651 0.000000 0.000000
# 5 0.000000 0.000000 0.000000 0.000000 0.031433 0.000000
# 6 0.000000 0.000000 0.000000 0.000000 0.000000 0.054176
#
#
# Mechanical properties :
#
#
# Convention : Reuss Voigt Hill
#
# Bulk Modulus (GPa) = 7.66305 77.17050 42.41677
# Shear Modulus (GPa) = 11.46380 14.17258 12.81819
#
# Velocity S-wave (km/s) = 2.51771 2.79940 2.66228
# Velocity P-wave (km/s) = 3.56217 7.28835 5.73625
#
# Compressibility (1/GPa) = 0.13049643
#
# Stress axis : x y z
#
# Youngs Moduli (GPa) = 5.32252 31.47076 66.92842
#
# Poissons Ratio (x) = 0.72790 0.95467
# Poissons Ratio (y) = 0.12311 0.98098
# Poissons Ratio (z) = 0.07592 0.46127
#
# Static dielectric constant tensor:
#      x y z
#    x 1.615730 0.000000 0.000000 
#    y 0.000000 1.617130 0.000000 
#    z 0.000000 0.000000 1.590540 
# 
# From -- ./inp_files/31359.got.cif
#   From: 2010.05.17/outbox.cif.g08.bks.cpg/sg51_16_cif.got.tgz:31359.got - 2010.06.03 11:52:47.
