data_PCOD9405673
_publ_section_title
;
Structure prediction by ZEFSAII (Michael W. Deem and Ramdas Pophale) SiO2 
 PCOD9405673
Probable space group: P M M A
;
_chemical_formula_sum "Si O2"
_cell_formula_units_Z 48
_cell_length_a 9.673988
_cell_length_b 7.773706
_cell_length_c 31.799107
_cell_angle_alpha 90.000000
_cell_angle_beta 90.000000
_cell_angle_gamma 90.000000
_cell_volume 2391.379930
_symmetry_space_group_name_H-M "P M M A"
_symmetry_group_IT_number 51
_symmetry_cell_setting 'orthorhombic'
loop_
_space_group_symop_operation_xyz
x,y,z
1/2-x,-y,z
1/2+x,-y,-z
-x,y,-z
-x,-y,-z
1/2+x,y,-z
1/2-x,y,z
x,-y,z
loop_
_atom_site_type_symbol
_atom_site_label
_atom_site_fract_x
_atom_site_fract_y
_atom_site_fract_z
Si Si1 0.906798 0.205625 0.787452
Si Si2 0.090314 0.290152 0.961058
Si Si3 0.906501 0.795315 0.288792
Si Si4 0.090999 0.292217 0.866862
Si Si5 0.908172 0.704482 0.632548
Si Si6 0.907390 0.207482 0.538436
O O1 0.750000 0.274246 0.787530
O O2 0.000252 0.275978 0.749286
O O3 0.986850 0.235919 0.830873
O O4 0.896873 0.000000 0.781577
O O5 0.250000 0.242507 0.966925
O O6 0.083989 0.500000 0.961183
O O7 0.049136 0.235191 0.913948
O O8 0.000000 0.227738 0.000000
O O9 0.750000 0.725324 0.289724
O O10 0.988532 0.770523 0.332108
O O11 0.895113 0.000000 0.281932
O O12 0.250000 0.234909 0.858884
O O13 0.093351 0.500000 0.867061
O O14 0.750000 0.772754 0.637579
O O15 0.901757 0.500000 0.636779
O O16 0.955973 0.746394 0.585241
O O17 0.750000 0.271076 0.534508
O O18 0.000000 0.271410 0.500000
O O19 0.904661 0.000000 0.536089
#
# Coordination Sequence:
#
# PCOD9405673 Si02
#       6
#     8   8   8   8   8   8
#     4  10  21  36  54  76 101 131 168 209 253 302
#     4   8  14  25  42  66  96 128 162 201 245 293
#     4  10  21  37  57  78  99 129 170 211 252 302
#     4   9  18  32  50  74 103 133 166 206 252 301
#     4  10  21  36  54  78 108 140 172 208 254 304
#     4   9  18  33  53  76 103 137 176 215 252 293
#
# _framework density 20.072092000000001
#
# number of rings (size 3 to 8) (size 9 to 14) (size 15 to 20)
#    0.000    2.667    0.000    2.500    0.000    5.667 
#    0.000    3.333    0.000    0.500    0.000    0.000 
#    0.000    0.000    0.000    0.000    0.000    0.000 
#
# Total GULP energy -267839.053154 kJ/mol
# GULP energy per Si atom -5579.980274 kJ/mol
# Density = 2.002641 g / cm^3
# Si number density = 20.072092 Si / 1000 Ang^3
#
#
#
# Elastic Constant Matrix: (Units=GPa)
#
#
# Indices 1 2 3 4 5 6 
#
# 1 150.0043 7.5803 135.9154 0.0000 0.0000 0.0000
# 2 7.5803 26.1781 -2.7738 0.0000 0.0000 0.0000
# 3 135.9154 -2.7738 201.7758 0.0000 0.0000 0.0000
# 4 0.0000 0.0000 0.0000 23.2889 0.0000 0.0000
# 5 0.0000 0.0000 0.0000 0.0000 39.6990 0.0000
# 6 0.0000 0.0000 0.0000 0.0000 0.0000 12.8449
#
#
#
# Elastic Compliance Matrix: (Units=1/GPa)
#
#
# Indices 1 2 3 4 5 6 
#
# 1 0.018170 -0.006568 -0.012329 0.000000 0.000000 0.000000
# 2 -0.006568 0.040630 0.004983 0.000000 0.000000 0.000000
# 3 -0.012329 0.004983 0.013329 0.000000 0.000000 0.000000
# 4 0.000000 0.000000 0.000000 0.042939 0.000000 0.000000
# 5 0.000000 0.000000 0.000000 0.000000 0.025190 0.000000
# 6 0.000000 0.000000 0.000000 0.000000 0.000000 0.077852
#
#
# Mechanical properties :
#
#
# Convention : Reuss Voigt Hill
#
# Bulk Modulus (GPa) = 22.57351 73.26690 47.92020
# Shear Modulus (GPa) = 19.17880 30.98231 25.08055
#
# Velocity S-wave (km/s) = 3.09446 3.93307 3.53870
# Velocity P-wave (km/s) = 4.90288 7.56350 6.37357
#
# Compressibility (1/GPa) = 0.04429972
#
# Stress axis : x y z
#
# Youngs Moduli (GPa) = 55.03689 24.61260 75.02192
#
# Poissons Ratio (x) = 0.16165 0.92497
# Poissons Ratio (y) = 0.36147 -0.37380
# Poissons Ratio (z) = 0.67856 -0.12263
#
# Static dielectric constant tensor:
#      x y z
#    x 1.702400 0.000000 0.000000 
#    y 0.000000 1.751290 0.000000 
#    z 0.000000 0.000000 1.686880 
# 
# From -- ./inp_files/36907.got.cif
#   From: 2010.05.17/outbox.cif.g08.bks.cpg/sg51_19_cif.got.tgz:36907.got - 2010.06.03 11:52:47.
