data_PCOD9405352
_publ_section_title
;
Structure prediction by ZEFSAII (Michael W. Deem and Ramdas Pophale) SiO2 
 PCOD9405352
Probable space group: P M M A
;
_chemical_formula_sum "Si O2"
_cell_formula_units_Z 48
_cell_length_a 15.912095
_cell_length_b 9.920924
_cell_length_c 14.947086
_cell_angle_alpha 90.000000
_cell_angle_beta 90.000000
_cell_angle_gamma 90.000000
_cell_volume 2359.587132
_symmetry_space_group_name_H-M "P M M A"
_symmetry_group_IT_number 51
_symmetry_cell_setting 'orthorhombic'
loop_
_space_group_symop_operation_xyz
x,y,z
1/2-x,-y,z
1/2+x,-y,-z
-x,y,-z
-x,-y,-z
1/2+x,y,-z
1/2-x,y,z
x,-y,z
loop_
_atom_site_type_symbol
_atom_site_label
_atom_site_fract_x
_atom_site_fract_y
_atom_site_fract_z
Si Si1 0.653145 0.353263 0.372845
Si Si2 0.851287 0.160194 0.718095
Si Si3 0.651929 0.852349 0.235061
Si Si4 0.389731 0.348457 0.915218
Si Si5 0.909719 0.346914 0.878974
Si Si6 0.914916 0.342964 0.557795
O O1 0.750000 0.363581 0.344469
O O2 0.612643 0.500000 0.357595
O O3 0.611881 0.238129 0.313226
O O4 0.651977 0.326142 0.477894
O O5 0.750000 0.173964 0.708588
O O6 0.879613 0.236049 0.808912
O O7 0.896349 0.240152 0.637009
O O8 0.870750 0.000000 0.718948
O O9 0.750000 0.869466 0.257940
O O10 0.648620 0.766879 0.145098
O O11 0.613250 0.000000 0.226455
O O12 0.360662 0.500000 0.891190
O O13 0.489536 0.343575 0.893818
O O14 0.374662 0.327880 0.020482
O O15 0.887778 0.500000 0.849375
O O16 0.912916 0.500000 0.588112
O O17 0.000000 0.321852 0.500000
#
# Coordination Sequence:
#
# PCOD9405352 Si02
#       6
#     8   8   8   8   8   8
#     4   9  18  34  55  78 108 148 190 232 279 332
#     4  11  25  42  60  87 124 162 198 240 293 354
#     4  10  21  34  51  80 116 152 186 225 279 341
#     4   9  19  37  60  85 114 148 192 244 292 339
#     4   9  20  39  62  86 112 149 195 242 290 342
#     4  10  22  39  61  89 116 148 194 246 294 343
#
# _framework density 20.342542000000002
#
# number of rings (size 3 to 8) (size 9 to 14) (size 15 to 20)
#    0.000    2.333    0.000    2.500    2.333    6.000 
#    0.000    6.667    0.000    0.000    0.000    0.000 
#    0.000    0.000    0.000    0.000    0.000    0.000 
#
# Total GULP energy -267724.975714 kJ/mol
# GULP energy per Si atom -5577.603661 kJ/mol
# Density = 2.029624 g / cm^3
# Si number density = 20.342542 Si / 1000 Ang^3
#
#
#
# Elastic Constant Matrix: (Units=GPa)
#
#
# Indices 1 2 3 4 5 6 
#
# 1 42.7153 36.1611 22.0747 0.0000 0.0000 0.0000
# 2 36.1611 205.7929 120.2842 0.0000 0.0000 0.0000
# 3 22.0747 120.2842 121.3771 0.0000 0.0000 0.0000
# 4 0.0000 0.0000 0.0000 -27.3617 0.0000 0.0000
# 5 0.0000 0.0000 0.0000 0.0000 29.5017 0.0000
# 6 0.0000 0.0000 0.0000 0.0000 0.0000 25.4922
#
#
#
# Elastic Compliance Matrix: (Units=1/GPa)
#
#
# Indices 1 2 3 4 5 6 
#
# 1 0.027515 -0.004539 -0.000506 0.000000 0.000000 0.000000
# 2 -0.004539 0.012297 -0.011361 0.000000 0.000000 0.000000
# 3 -0.000506 -0.011361 0.019589 0.000000 0.000000 0.000000
# 4 0.000000 0.000000 0.000000 -0.036547 0.000000 0.000000
# 5 0.000000 0.000000 0.000000 0.000000 0.033896 0.000000
# 6 0.000000 0.000000 0.000000 0.000000 0.000000 0.039228
#
#
# Mechanical properties :
#
#
# Convention : Reuss Voigt Hill
#
# Bulk Modulus (GPa) = 37.60860 80.76947 59.18903
# Shear Modulus (GPa) = 36.32315 18.28415 27.30365
#
# Velocity S-wave (km/s) = 4.23019 3.00127 3.66757
# Velocity P-wave (km/s) = 6.51054 7.19730 6.86252
#
# Compressibility (1/GPa) = 0.02658966
#
# Stress axis : x y z
#
# Youngs Moduli (GPa) = 36.34401 81.31888 51.04782
#
# Poissons Ratio (x) = 0.36912 0.02582
# Poissons Ratio (y) = 0.16497 0.57995
# Poissons Ratio (z) = 0.01838 0.92386
#
# Static dielectric constant tensor:
#      x y z
#    x 1.818750 0.000000 0.000000 
#    y 0.000000 1.767010 0.000000 
#    z 0.000000 0.000000 1.703950 
# 
# From -- ./inp_files/24721.got.cif
#   From: 2010.05.17/outbox.cif.g08.bks.cpg/sg51_13_cif.got.tgz:24721.got - 2010.06.03 11:52:47.
