data_PCOD9405474
_publ_section_title
;
Structure prediction by ZEFSAII (Michael W. Deem and Ramdas Pophale) SiO2 
 PCOD9405474
Probable space group: P M M A
;
_chemical_formula_sum "Si O2"
_cell_formula_units_Z 64
_cell_length_a 8.653287
_cell_length_b 14.902090
_cell_length_c 25.780009
_cell_angle_alpha 90.000000
_cell_angle_beta 90.000000
_cell_angle_gamma 90.000000
_cell_volume 3324.385310
_symmetry_space_group_name_H-M "P M M A"
_symmetry_group_IT_number 51
_symmetry_cell_setting 'orthorhombic'
loop_
_space_group_symop_operation_xyz
x,y,z
1/2-x,-y,z
1/2+x,-y,-z
-x,y,-z
-x,-y,-z
1/2+x,y,-z
1/2-x,y,z
x,-y,z
loop_
_atom_site_type_symbol
_atom_site_label
_atom_site_fract_x
_atom_site_fract_y
_atom_site_fract_z
Si Si1 0.563978 0.288401 0.554781
Si Si2 0.936433 0.099555 0.285705
Si Si3 0.436664 0.900683 0.402365
Si Si4 0.435284 0.097568 0.058889
Si Si5 0.065167 0.712422 0.756822
Si Si6 0.936494 0.394439 0.658554
Si Si7 0.934329 0.397095 0.852621
Si Si8 0.566785 0.282741 0.057990
O O1 0.500000 0.320385 0.500000
O O2 0.750000 0.288243 0.552589
O O3 0.510080 0.185983 0.565744
O O4 0.519085 0.349329 0.603848
O O5 0.750000 0.102470 0.290337
O O6 0.984148 0.184119 0.251276
O O7 0.006233 0.109743 0.343250
O O8 0.979927 0.000000 0.266370
O O9 0.250000 0.899578 0.402135
O O10 0.487451 0.000000 0.420750
O O11 0.250000 0.105209 0.057175
O O12 0.505783 0.188197 0.081618
O O13 0.475315 0.000000 0.082408
O O14 0.500000 0.095626 0.000000
O O15 0.250000 0.709639 0.762744
O O16 0.016155 0.658367 0.705336
O O17 0.988281 0.665411 0.805761
O O18 0.750000 0.385408 0.664179
O O19 0.973536 0.500000 0.659744
O O20 0.750000 0.392350 0.857818
O O21 0.978034 0.500000 0.841692
O O22 0.010509 0.361864 0.905244
O O23 0.750000 0.279237 0.054931
O O24 0.500000 0.291898 0.000000
#
# Coordination Sequence:
#
# PCOD9405474 Si02
#       8
#     8   8   8   8   8   8   8   8
#     4  10  21  35  51  75 108 144 185 232 282 338
#     4   9  18  33  55  84 116 148 181 220 272 334
#     4   9  17  31  52  77 105 140 183 228 274 330
#     4   9  16  28  50  81 117 156 198 241 283 333
#     4  11  22  37  61  90 117 145 183 233 285 339
#     4  10  21  38  58  79 106 144 187 232 287 346
#     4  11  25  44  64  86 115 153 196 243 294 346
#     4  11  22  38  62  90 123 161 200 244 294 349
#
# _framework density 19.251677999999998
#
# number of rings (size 3 to 8) (size 9 to 14) (size 15 to 20)
#    0.000    2.000    1.250    3.375    0.000    5.750 
#    0.000    0.625    0.000    2.250    0.000    0.000 
#    0.000    0.000    0.000    0.000    0.000    0.000 
#
# Total GULP energy -357272.408089 kJ/mol
# GULP energy per Si atom -5582.381376 kJ/mol
# Density = 1.920786 g / cm^3
# Si number density = 19.251678 Si / 1000 Ang^3
#
#
#
# Elastic Constant Matrix: (Units=GPa)
#
#
# Indices 1 2 3 4 5 6 
#
# 1 43.3716 33.1576 24.3010 0.0000 0.0000 0.0000
# 2 33.1576 106.0473 41.4807 0.0000 0.0000 0.0000
# 3 24.3010 41.4807 79.5444 0.0000 0.0000 0.0000
# 4 0.0000 0.0000 0.0000 14.1062 0.0000 0.0000
# 5 0.0000 0.0000 0.0000 0.0000 29.2247 0.0000
# 6 0.0000 0.0000 0.0000 0.0000 0.0000 27.1857
#
#
#
# Elastic Compliance Matrix: (Units=1/GPa)
#
#
# Indices 1 2 3 4 5 6 
#
# 1 0.032283 -0.007834 -0.005777 0.000000 0.000000 0.000000
# 2 -0.007834 0.013747 -0.004776 0.000000 0.000000 0.000000
# 3 -0.005777 -0.004776 0.016827 0.000000 0.000000 0.000000
# 4 0.000000 0.000000 0.000000 0.070891 0.000000 0.000000
# 5 0.000000 0.000000 0.000000 0.000000 0.034218 0.000000
# 6 0.000000 0.000000 0.000000 0.000000 0.000000 0.036784
#
#
# Mechanical properties :
#
#
# Convention : Reuss Voigt Hill
#
# Bulk Modulus (GPa) = 38.33879 47.42690 42.88285
# Shear Modulus (GPa) = 19.98267 22.77159 21.37713
#
# Velocity S-wave (km/s) = 3.22525 3.44297 3.33589
# Velocity P-wave (km/s) = 5.81613 6.36350 6.09596
#
# Compressibility (1/GPa) = 0.02608324
#
# Stress axis : x y z
#
# Youngs Moduli (GPa) = 30.97645 72.74228 59.42873
#
# Poissons Ratio (x) = 0.56986 0.34333
# Poissons Ratio (y) = 0.24267 0.28380
# Poissons Ratio (z) = 0.17896 0.34738
#
# Static dielectric constant tensor:
#      x y z
#    x 1.650300 0.000000 0.000000 
#    y 0.000000 1.712020 0.000000 
#    z 0.000000 0.000000 1.639350 
# 
# From -- ./inp_files/34873.got.cif
#   From: 2010.05.17/outbox.cif.g08.bks.cpg/sg51_18_cif.got.tgz:34873.got - 2010.06.03 11:52:47.
