data_PCOD9405209
_publ_section_title
;
Structure prediction by ZEFSAII (Michael W. Deem and Ramdas Pophale) SiO2 
 PCOD9405209
Probable space group: P M M A
;
_chemical_formula_sum "Si O2"
_cell_formula_units_Z 48
_cell_length_a 9.402742
_cell_length_b 29.873978
_cell_length_c 9.250019
_cell_angle_alpha 90.000000
_cell_angle_beta 90.000000
_cell_angle_gamma 90.000000
_cell_volume 2598.305433
_symmetry_space_group_name_H-M "P M M A"
_symmetry_group_IT_number 51
_symmetry_cell_setting 'orthorhombic'
loop_
_space_group_symop_operation_xyz
x,y,z
1/2-x,-y,z
1/2+x,-y,-z
-x,y,-z
-x,-y,-z
1/2+x,y,-z
1/2-x,y,z
x,-y,z
loop_
_atom_site_type_symbol
_atom_site_label
_atom_site_fract_x
_atom_site_fract_y
_atom_site_fract_z
Si Si1 0.081718 0.553597 0.350262
Si Si2 0.575918 0.377169 0.154631
Si Si3 0.581452 0.201460 0.651939
Si Si4 0.250000 0.946862 0.172369
Si Si5 0.421528 0.301912 0.344214
Si Si6 0.001335 0.105128 0.324664
Si Si7 0.750000 0.053783 0.172310
O O1 0.250000 0.567184 0.352503
O O2 0.079070 0.500000 0.331122
O O3 0.000000 0.564135 0.500000
O O4 0.989116 0.578472 0.229581
O O5 0.750000 0.376837 0.150129
O O6 0.508957 0.336591 0.247616
O O7 0.500000 0.374003 0.000000
O O8 0.500000 0.204508 0.500000
O O9 0.750000 0.193361 0.629252
O O10 0.566446 0.251075 0.717076
O O11 0.517337 0.157028 0.723467
O O12 0.375360 0.923634 0.256474
O O13 0.250000 0.000000 0.189680
O O14 0.250000 0.938191 0.000250
O O15 0.500000 0.303160 0.500000
O O16 0.250000 0.311598 0.355786
O O17 0.874667 0.078938 0.252873
O O18 0.000000 0.104621 0.500000
O O19 0.750000 0.000000 0.193076
#
# Coordination Sequence:
#
# PCOD9405209 Si02
#       7
#     8   8   8   4   8   8   4
#     4  10  21  39  64  93 124 161 207 257 307 364
#     4  12  25  41  60  86 123 165 207 255 309 362
#     4   9  19  35  60  90 119 148 188 243 299 350
#     4  11  23  41  61  81 119 159 193 239 296 367
#     4  10  20  38  63  90 119 155 199 245 298 366
#     4  11  22  38  62  91 116 149 197 251 299 351
#     4  11  25  41  57  83 119 161 199 237 300 367
#
# _framework density 18.473579000000001
#
# number of rings (size 3 to 8) (size 9 to 14) (size 15 to 20)
#    0.000    1.500    0.833    4.500    3.500    5.333 
#    0.000    1.667    0.000    0.000    0.000    0.000 
#    0.000    0.000    0.000    0.000    0.000    0.000 
#
# Total GULP energy -267383.264286 kJ/mol
# GULP energy per Si atom -5570.484673 kJ/mol
# Density = 1.843153 g / cm^3
# Si number density = 18.473579 Si / 1000 Ang^3
#
#
#
# Elastic Constant Matrix: (Units=GPa)
#
#
# Indices 1 2 3 4 5 6 
#
# 1 193.4284 58.2178 54.8874 0.0000 0.0000 0.0000
# 2 58.2178 87.8801 59.1109 0.0000 0.0000 0.0000
# 3 54.8874 59.1109 103.6513 0.0000 0.0000 0.0000
# 4 0.0000 0.0000 0.0000 -32.5129 0.0000 0.0000
# 5 0.0000 0.0000 0.0000 0.0000 -5.5757 0.0000
# 6 0.0000 0.0000 0.0000 0.0000 0.0000 31.2953
#
#
#
# Elastic Compliance Matrix: (Units=1/GPa)
#
#
# Indices 1 2 3 4 5 6 
#
# 1 0.006623 -0.003291 -0.001630 0.000000 0.000000 0.000000
# 2 -0.003291 0.020096 -0.009718 0.000000 0.000000 0.000000
# 3 -0.001630 -0.009718 0.016053 0.000000 0.000000 0.000000
# 4 0.000000 0.000000 0.000000 -0.030757 0.000000 0.000000
# 5 0.000000 0.000000 0.000000 0.000000 -0.179349 0.000000
# 6 0.000000 0.000000 0.000000 0.000000 0.000000 0.031954
#
#
# Mechanical properties :
#
#
# Convention : Reuss Voigt Hill
#
# Bulk Modulus (GPa) = 74.10827 81.04353 77.57590
# Shear Modulus (GPa) = -49.21034 12.82424 -18.19305
#
# Velocity S-wave (km/s) = -5.16682 2.63761 -3.14158
# Velocity P-wave (km/s) = 2.14666 7.29666 5.37817
#
# Compressibility (1/GPa) = 0.01349377
#
# Stress axis : x y z
#
# Youngs Moduli (GPa) = 150.98910 49.76207 62.29396
#
# Poissons Ratio (x) = 0.16376 0.10156
# Poissons Ratio (y) = 0.49689 0.60535
# Poissons Ratio (z) = 0.24617 0.48357
#
# Static dielectric constant tensor:
#      x y z
#    x 1.588550 0.000000 0.000000 
#    y 0.000000 1.796700 0.000000 
#    z 0.000000 0.000000 1.623850 
# 
# From -- ./inp_files/6282.got.cif
#   From: 2010.05.17/outbox.cif.g08.bks.cpg/sg51_4_cif.got.tgz:6282.got - 2010.06.03 11:52:47.
