data_PCOD9405055
_publ_section_title
;
Structure prediction by ZEFSAII (Michael W. Deem and Ramdas Pophale) SiO2 
 PCOD9405055
Probable space group: P M M A
;
_chemical_formula_sum "Si O2"
_cell_formula_units_Z 48
_cell_length_a 19.482877
_cell_length_b 9.242549
_cell_length_c 15.202623
_cell_angle_alpha 90.000000
_cell_angle_beta 90.000000
_cell_angle_gamma 90.000000
_cell_volume 2737.558296
_symmetry_space_group_name_H-M "P M M A"
_symmetry_group_IT_number 51
_symmetry_cell_setting 'orthorhombic'
loop_
_space_group_symop_operation_xyz
x,y,z
1/2-x,-y,z
1/2+x,-y,-z
-x,y,-z
-x,-y,-z
1/2+x,y,-z
1/2-x,y,z
x,-y,z
loop_
_atom_site_type_symbol
_atom_site_label
_atom_site_fract_x
_atom_site_fract_y
_atom_site_fract_z
Si Si1 0.072693 0.672230 0.952975
Si Si2 0.590847 0.827305 0.725626
Si Si3 0.169552 0.672603 0.428510
Si Si4 0.830778 0.327476 0.884397
Si Si5 0.932409 0.827319 0.232837
Si Si6 0.830335 0.327406 0.365837
O O1 0.073992 0.500000 0.934039
O O2 0.079120 0.759367 0.863193
O O3 0.132147 0.704958 0.023294
O O4 0.000000 0.704352 0.000000
O O5 0.621425 0.759348 0.637037
O O6 0.632208 0.758677 0.806913
O O7 0.510472 0.793501 0.738080
O O8 0.599052 0.000000 0.725196
O O9 0.250000 0.704626 0.410334
O O10 0.160497 0.500000 0.415804
O O11 0.156377 0.704768 0.531179
O O12 0.750000 0.296074 0.887052
O O13 0.839400 0.500000 0.868355
O O14 0.879614 0.759226 0.301802
O O15 0.924923 0.000000 0.229428
O O16 0.750000 0.295943 0.348736
O O17 0.840011 0.500000 0.353828
#
# Coordination Sequence:
#
# PCOD9405055 Si02
#       6
#     8   8   8   8   8   8
#     4  10  20  37  60  82 107 146 192 234 282 336
#     4  11  23  36  53  82 119 154 186 225 277 339
#     4   9  19  37  60  84 111 146 189 237 285 331
#     4  10  21  37  58  84 111 142 187 240 285 331
#     4  11  24  38  56  84 118 153 187 229 282 340
#     4   9  20  40  63  85 110 144 190 240 284 332
#
# _framework density 17.533873
#
# number of rings (size 3 to 8) (size 9 to 14) (size 15 to 20)
#    0.000    2.000    1.667    2.500    0.000    8.000 
#    0.000    6.667    0.000    0.000    0.000    0.000 
#    0.000    0.000    0.000    0.000    0.000    0.000 
#
# Total GULP energy -268100.256063 kJ/mol
# GULP energy per Si atom -5585.422001 kJ/mol
# Density = 1.749397 g / cm^3
# Si number density = 17.533873 Si / 1000 Ang^3
#
#
#
# Elastic Constant Matrix: (Units=GPa)
#
#
# Indices 1 2 3 4 5 6 
#
# 1 145.8245 85.6028 116.7436 0.0000 0.0000 0.0000
# 2 85.6028 64.7347 88.8602 0.0000 0.0000 0.0000
# 3 116.7436 88.8602 153.9697 0.0000 0.0000 0.0000
# 4 0.0000 0.0000 0.0000 -47.7007 0.0000 0.0000
# 5 0.0000 0.0000 0.0000 0.0000 32.5573 0.0000
# 6 0.0000 0.0000 0.0000 0.0000 0.0000 29.3487
#
#
#
# Elastic Compliance Matrix: (Units=1/GPa)
#
#
# Indices 1 2 3 4 5 6 
#
# 1 0.030667 -0.041556 0.000730 0.000000 0.000000 0.000000
# 2 -0.041556 0.130654 -0.043896 0.000000 0.000000 0.000000
# 3 0.000730 -0.043896 0.031274 0.000000 0.000000 0.000000
# 4 0.000000 0.000000 0.000000 -0.020964 0.000000 0.000000
# 5 0.000000 0.000000 0.000000 0.000000 0.030715 0.000000
# 6 0.000000 0.000000 0.000000 0.000000 0.000000 0.034073
#
#
# Mechanical properties :
#
#
# Convention : Reuss Voigt Hill
#
# Bulk Modulus (GPa) = 43.18933 105.21580 74.20256
# Shear Modulus (GPa) = 12.08955 7.72922 9.90939
#
# Velocity S-wave (km/s) = 2.62868 2.10184 2.37988
# Velocity P-wave (km/s) = 5.82226 8.12575 7.06847
#
# Compressibility (1/GPa) = 0.02315387
#
# Stress axis : x y z
#
# Youngs Moduli (GPa) = 32.60828 7.65377 31.97497
#
# Poissons Ratio (x) = 0.31806 -0.02336
# Poissons Ratio (y) = 1.35506 1.40357
# Poissons Ratio (z) = -0.02382 0.33597
#
# Static dielectric constant tensor:
#      x y z
#    x 1.579730 0.000000 0.000000 
#    y 0.000000 1.577740 0.000000 
#    z 0.000000 0.000000 1.566790 
# 
# From -- ./inp_files/24696.got.cif
#   From: 2010.05.17/outbox.cif.g08.bks.cpg/sg51_13_cif.got.tgz:24696.got - 2010.06.03 11:52:47.
