data_PCOD9405863
_publ_section_title
;
Structure prediction by ZEFSAII (Michael W. Deem and Ramdas Pophale) SiO2 
 PCOD9405863
Probable space group: P M M A
;
_chemical_formula_sum "Si O2"
_cell_formula_units_Z 34
_cell_length_a 9.782910
_cell_length_b 20.607323
_cell_length_c 9.120643
_cell_angle_alpha 90.000000
_cell_angle_beta 90.000000
_cell_angle_gamma 90.000000
_cell_volume 1838.717855
_symmetry_space_group_name_H-M "P M M A"
_symmetry_group_IT_number 51
_symmetry_cell_setting 'orthorhombic'
loop_
_space_group_symop_operation_xyz
x,y,z
1/2-x,-y,z
1/2+x,-y,-z
-x,y,-z
-x,-y,-z
1/2+x,y,-z
1/2-x,y,z
x,-y,z
loop_
_atom_site_type_symbol
_atom_site_label
_atom_site_fract_x
_atom_site_fract_y
_atom_site_fract_z
Si Si1 0.412135 0.124078 0.147197
Si Si2 0.911249 0.637772 0.861223
Si Si3 0.587642 0.000000 0.647877
Si Si4 0.750000 0.500000 0.461627
Si Si5 0.411516 0.753536 0.354812
Si Si6 0.024232 0.500000 0.275050
O O1 0.250000 0.122723 0.112021
O O2 0.440226 0.189435 0.238643
O O3 0.441188 0.063216 0.253340
O O4 0.500000 0.120995 0.000000
O O5 0.750000 0.642859 0.893841
O O6 0.939441 0.685079 0.724020
O O7 0.948509 0.564784 0.817734
O O8 0.000000 0.658769 0.000000
O O9 0.500000 0.000000 0.500000
O O10 0.750000 0.000000 0.612863
O O11 0.628637 0.500000 0.336892
O O12 0.631711 0.500000 0.591448
O O13 0.500000 0.761258 0.500000
O O14 0.250000 0.756532 0.390724
#
# Coordination Sequence:
#
# PCOD9405863 Si02
#       6
#     8   8   4   2   8   4
#     4  10  21  38  58  85 118 151 192 235 283 338
#     4  11  24  40  59  85 116 150 191 236 285 344
#     4  10  21  36  58  86 118 152 193 238 280 334
#     4  10  24  38  62  88 116 146 184 240 292 332
#     4  10  23  39  59  85 115 149 191 237 284 340
#     4  11  23  40  61  86 117 147 192 233 289 340
#
# _framework density 18.491146000000001
#
# number of rings (size 3 to 8) (size 9 to 14) (size 15 to 20)
#    0.000    1.647    1.176    2.118    4.941    2.824 
#    0.000    0.000    0.000    0.000    0.000    0.000 
#    0.000    0.000    0.000    0.000    0.000    0.000 
#
# Total GULP energy -189453.505886 kJ/mol
# GULP energy per Si atom -5572.161938 kJ/mol
# Density = 1.844906 g / cm^3
# Si number density = 18.491146 Si / 1000 Ang^3
#
#
#
# Elastic Constant Matrix: (Units=GPa)
#
#
# Indices 1 2 3 4 5 6 
#
# 1 119.8857 38.2009 96.3952 0.0000 0.0000 0.0000
# 2 38.2009 117.6378 53.4923 0.0000 0.0000 0.0000
# 3 96.3952 53.4923 156.0711 0.0000 0.0000 0.0000
# 4 0.0000 0.0000 0.0000 -10.4111 0.0000 0.0000
# 5 0.0000 0.0000 0.0000 0.0000 52.5383 0.0000
# 6 0.0000 0.0000 0.0000 0.0000 0.0000 -0.1829
#
#
#
# Elastic Compliance Matrix: (Units=1/GPa)
#
#
# Indices 1 2 3 4 5 6 
#
# 1 0.016644 -0.000865 -0.009984 0.000000 0.000000 0.000000
# 2 -0.000865 0.010115 -0.002932 0.000000 0.000000 0.000000
# 3 -0.009984 -0.002932 0.013579 0.000000 0.000000 0.000000
# 4 0.000000 0.000000 0.000000 -0.096051 0.000000 0.000000
# 5 0.000000 0.000000 0.000000 0.000000 0.019034 0.000000
# 6 0.000000 0.000000 0.000000 0.000000 0.000000 -5.466833
#
#
# Mechanical properties :
#
#
# Convention : Reuss Voigt Hill
#
# Bulk Modulus (GPa) = 78.27490 85.53014 81.90252
# Shear Modulus (GPa) = -0.91379 22.08928 10.58774
#
# Velocity S-wave (km/s) = -0.70374 3.46003 2.39547
# Velocity P-wave (km/s) = 6.46240 7.89414 7.21388
#
# Compressibility (1/GPa) = 0.01277549
#
# Stress axis : x y z
#
# Youngs Moduli (GPa) = 60.08016 98.86215 73.64482
#
# Poissons Ratio (x) = 0.08554 0.73524
# Poissons Ratio (y) = 0.05198 0.21596
# Poissons Ratio (z) = 0.59982 0.28991
#
# Static dielectric constant tensor:
#      x y z
#    x 1.611020 0.000000 0.000000 
#    y 0.000000 1.645000 0.000000 
#    z 0.000000 0.000000 1.596850 
# 
# From -- ./inp_files/5068.got.cif
#   From: 2010.05.17/outbox.cif.g08.bks.cpg/sg51_3_cif.got.tgz:5068.got - 2010.06.03 11:52:47.
