data_PCOD9405149
_publ_section_title
;
Structure prediction by ZEFSAII (Michael W. Deem and Ramdas Pophale) SiO2 
 PCOD9405149
Probable space group: P M M A
;
_chemical_formula_sum "Si O2"
_cell_formula_units_Z 32
_cell_length_a 14.087443
_cell_length_b 8.638546
_cell_length_c 11.932470
_cell_angle_alpha 90.000000
_cell_angle_beta 90.000000
_cell_angle_gamma 90.000000
_cell_volume 1452.122228
_symmetry_space_group_name_H-M "P M M A"
_symmetry_group_IT_number 51
_symmetry_cell_setting 'orthorhombic'
loop_
_space_group_symop_operation_xyz
x,y,z
1/2-x,-y,z
1/2+x,-y,-z
-x,y,-z
-x,-y,-z
1/2+x,y,-z
1/2-x,y,z
x,-y,z
loop_
_atom_site_type_symbol
_atom_site_label
_atom_site_fract_x
_atom_site_fract_y
_atom_site_fract_z
Si Si1 0.358710 0.258203 0.745668
Si Si2 0.431891 0.332247 0.285833
Si Si3 0.635680 0.000000 0.816882
Si Si4 0.860297 0.171039 0.512209
Si Si5 0.138617 0.000000 0.931841
O O1 0.250000 0.321296 0.756332
O O2 0.457260 0.347197 0.741548
O O3 0.360468 0.181828 0.621838
O O4 0.374678 0.144568 0.850057
O O5 0.386805 0.500000 0.255198
O O6 0.396501 0.168118 0.232786
O O7 0.414840 0.299889 0.417873
O O8 0.750000 0.000000 0.807862
O O9 0.595761 0.000000 0.944546
O O10 0.750000 0.182693 0.546318
O O11 0.895788 0.000000 0.543835
O O12 0.250000 0.000000 0.958207
#
# Coordination Sequence:
#
# PCOD9405149 Si02
#       5
#     8   8   4   8   4
#     4  10  21  39  65  96 131 171 216 268 325 384
#     4  12  26  41  65 100 134 174 221 264 318 391
#     4  11  25  46  70  95 129 171 216 274 333 384
#     4  10  20  37  64  97 132 170 212 264 325 386
#     4   9  19  40  69  97 123 167 224 270 327 392
#
# _framework density 22.036712000000001
#
# number of rings (size 3 to 8) (size 9 to 14) (size 15 to 20)
#    0.000    1.500    2.500    2.250    0.000    7.500 
#    0.000    5.000    0.000    4.500    0.000    0.000 
#    0.000    0.000    0.000    0.000    0.000    0.000 
#
# Total GULP energy -178150.953558 kJ/mol
# GULP energy per Si atom -5567.217299 kJ/mol
# Density = 2.198656 g / cm^3
# Si number density = 22.036712 Si / 1000 Ang^3
#
#
#
# Elastic Constant Matrix: (Units=GPa)
#
#
# Indices 1 2 3 4 5 6 
#
# 1 117.4004 55.3603 16.5754 0.0000 0.0000 0.0000
# 2 55.3603 179.7533 68.0353 0.0000 0.0000 0.0000
# 3 16.5754 68.0353 140.7447 0.0000 0.0000 0.0000
# 4 0.0000 0.0000 0.0000 -81.7407 0.0000 0.0000
# 5 0.0000 0.0000 0.0000 0.0000 22.7309 0.0000
# 6 0.0000 0.0000 0.0000 0.0000 0.0000 -731.2421
#
#
#
# Elastic Compliance Matrix: (Units=1/GPa)
#
#
# Indices 1 2 3 4 5 6 
#
# 1 0.009982 -0.003218 0.000380 0.000000 0.000000 0.000000
# 2 -0.003218 0.007846 -0.003414 0.000000 0.000000 0.000000
# 3 0.000380 -0.003414 0.008711 0.000000 0.000000 0.000000
# 4 0.000000 0.000000 0.000000 -0.012234 0.000000 0.000000
# 5 0.000000 0.000000 0.000000 0.000000 0.043993 0.000000
# 6 0.000000 0.000000 0.000000 0.000000 0.000000 -0.001368
#
#
# Mechanical properties :
#
#
# Convention : Reuss Voigt Hill
#
# Bulk Modulus (GPa) = 71.25115 79.76004 75.50560
# Shear Modulus (GPa) = 67.46525 -138.18854 -35.36164
#
# Velocity S-wave (km/s) = 5.53908 -7.92745 -4.01018
# Velocity P-wave (km/s) = 8.56222 6.89347 3.59108
#
# Compressibility (1/GPa) = 0.01403486
#
# Stress axis : x y z
#
# Youngs Moduli (GPa) = 100.18389 127.44704 114.80287
#
# Poissons Ratio (x) = 0.41012 -0.04363
# Poissons Ratio (y) = 0.32239 0.39193
# Poissons Ratio (z) = -0.03807 0.43510
#
# Static dielectric constant tensor:
#      x y z
#    x 1.863600 0.000000 0.000000 
#    y 0.000000 1.799300 0.000000 
#    z 0.000000 0.000000 1.827300 
# 
# From -- ./inp_files/15943.got.cif
#   From: 2010.05.17/outbox.cif.g08.bks.cpg/sg51_8_cif.got.tgz:15943.got - 2010.06.03 11:52:47.
