data_PCOD9405273
_publ_section_title
;
Structure prediction by ZEFSAII (Michael W. Deem and Ramdas Pophale) SiO2 
 PCOD9405273
Probable space group: P M M A
;
_chemical_formula_sum "Si O2"
_cell_formula_units_Z 48
_cell_length_a 14.552871
_cell_length_b 13.154529
_cell_length_c 12.692834
_cell_angle_alpha 90.000000
_cell_angle_beta 90.000000
_cell_angle_gamma 90.000000
_cell_volume 2429.867446
_symmetry_space_group_name_H-M "P M M A"
_symmetry_group_IT_number 51
_symmetry_cell_setting 'orthorhombic'
loop_
_space_group_symop_operation_xyz
x,y,z
1/2-x,-y,z
1/2+x,-y,-z
-x,y,-z
-x,-y,-z
1/2+x,y,-z
1/2-x,y,z
x,-y,z
loop_
_atom_site_type_symbol
_atom_site_label
_atom_site_fract_x
_atom_site_fract_y
_atom_site_fract_z
Si Si1 0.886393 0.380295 0.391393
Si Si2 0.644001 0.123104 0.533631
Si Si3 0.750000 0.376781 0.792408
Si Si4 0.605290 0.378042 0.623436
Si Si5 0.975851 0.878718 0.324216
Si Si6 0.750000 0.376470 0.036508
Si Si7 0.847251 0.247184 0.195965
O O1 0.866035 0.500000 0.386478
O O2 0.861904 0.341958 0.508304
O O3 0.843842 0.322504 0.294994
O O4 0.995961 0.366848 0.375729
O O5 0.750000 0.154179 0.541958
O O6 0.596183 0.141636 0.420145
O O7 0.573592 0.156239 0.626510
O O8 0.643714 0.000000 0.541603
O O9 0.750000 0.500000 0.795411
O O10 0.662050 0.342909 0.724172
O O11 0.750000 0.347396 0.914002
O O12 0.620443 0.500000 0.619977
O O13 0.934876 0.822248 0.221948
O O14 0.979290 0.000000 0.307092
O O15 0.750000 0.500000 0.048764
O O16 0.836407 0.321593 0.095223
O O17 0.750000 0.186447 0.195010
#
# Coordination Sequence:
#
# PCOD9405273 Si02
#       7
#     8   8   4   8   8   4   8
#     4   9  17  31  47  72 108 137 172 218 264 323
#     4   8  14  25  44  68 100 140 174 214 278 341
#     4   9  16  31  53  72  99 141 186 223 274 329
#     4   8  16  28  48  74 100 135 172 217 268 328
#     4   9  17  30  47  72 107 141 182 231 270 327
#     4   9  20  35  48  72 105 137 185 243 277 315
#     4  10  21  30  47  71 102 145 183 226 278 328
#
# _framework density 19.754163999999999
#
# number of rings (size 3 to 8) (size 9 to 14) (size 15 to 20)
#    0.500    2.667    0.000    3.000    1.167    3.667 
#    0.000    0.833    1.833    4.000    0.000    0.000 
#    0.000    6.667    0.000    0.000    0.000    0.000 
#
# Total GULP energy -267491.999431 kJ/mol
# GULP energy per Si atom -5572.749988 kJ/mol
# Density = 1.970920 g / cm^3
# Si number density = 19.754164 Si / 1000 Ang^3
#
#
#
# Elastic Constant Matrix: (Units=GPa)
#
#
# Indices 1 2 3 4 5 6 
#
# 1 119.2009 26.2636 55.8356 0.0000 0.0000 0.0000
# 2 26.2636 74.0888 34.3830 0.0000 0.0000 0.0000
# 3 55.8356 34.3830 146.6040 0.0000 0.0000 0.0000
# 4 0.0000 0.0000 0.0000 20.1728 0.0000 0.0000
# 5 0.0000 0.0000 0.0000 0.0000 60.4765 0.0000
# 6 0.0000 0.0000 0.0000 0.0000 0.0000 31.8178
#
#
#
# Elastic Compliance Matrix: (Units=1/GPa)
#
#
# Indices 1 2 3 4 5 6 
#
# 1 0.010492 -0.002093 -0.003505 0.000000 0.000000 0.000000
# 2 -0.002093 0.015563 -0.002853 0.000000 0.000000 0.000000
# 3 -0.003505 -0.002853 0.008825 0.000000 0.000000 0.000000
# 4 0.000000 0.000000 0.000000 0.049572 0.000000 0.000000
# 5 0.000000 0.000000 0.000000 0.000000 0.016535 0.000000
# 6 0.000000 0.000000 0.000000 0.000000 0.000000 0.031429
#
#
# Mechanical properties :
#
#
# Convention : Reuss Voigt Hill
#
# Bulk Modulus (GPa) = 55.62131 63.65090 59.63610
# Shear Modulus (GPa) = 32.19338 37.38752 34.79045
#
# Velocity S-wave (km/s) = 4.04133 4.35517 4.20118
# Velocity P-wave (km/s) = 7.07067 7.58824 7.33402
#
# Compressibility (1/GPa) = 0.01797872
#
# Stress axis : x y z
#
# Youngs Moduli (GPa) = 95.30894 64.25430 113.31143
#
# Poissons Ratio (x) = 0.13446 0.39719
# Poissons Ratio (y) = 0.19945 0.32328
# Poissons Ratio (z) = 0.33408 0.18332
#
# Static dielectric constant tensor:
#      x y z
#    x 1.761310 0.000000 0.000000 
#    y 0.000000 1.800150 0.000000 
#    z 0.000000 0.000000 1.656220 
# 
# From -- ./inp_files/16519.got.cif
#   From: 2010.05.17/outbox.cif.g08.bks.cpg/sg51_9_cif.got.tgz:16519.got - 2010.06.03 11:52:47.
