data_PCOD9405838
_publ_section_title
;
Structure prediction by ZEFSAII (Michael W. Deem and Ramdas Pophale) SiO2 
 PCOD9405838
Probable space group: P M M A
;
_chemical_formula_sum "Si O2"
_cell_formula_units_Z 48
_cell_length_a 19.578279
_cell_length_b 8.915115
_cell_length_c 15.382952
_cell_angle_alpha 90.000000
_cell_angle_beta 90.000000
_cell_angle_gamma 90.000000
_cell_volume 2684.980573
_symmetry_space_group_name_H-M "P M M A"
_symmetry_group_IT_number 51
_symmetry_cell_setting 'orthorhombic'
loop_
_space_group_symop_operation_xyz
x,y,z
1/2-x,-y,z
1/2+x,-y,-z
-x,y,-z
-x,-y,-z
1/2+x,y,-z
1/2-x,y,z
x,-y,z
loop_
_atom_site_type_symbol
_atom_site_label
_atom_site_fract_x
_atom_site_fract_y
_atom_site_fract_z
Si Si1 0.670108 0.180752 0.103462
Si Si2 0.066275 0.179808 0.230318
Si Si3 0.574079 0.679481 0.959327
Si Si4 0.588429 0.180414 0.277367
Si Si5 0.328752 0.319343 0.566571
Si Si6 0.169949 0.319948 0.366452
O O1 0.750000 0.219259 0.106129
O O2 0.632784 0.225291 0.193045
O O3 0.664149 0.000000 0.095443
O O4 0.631414 0.256602 0.023494
O O5 0.079361 0.250172 0.135986
O O6 0.121257 0.237781 0.299281
O O7 0.990051 0.223959 0.261265
O O8 0.068507 0.000000 0.223774
O O9 0.578944 0.500000 0.954005
O O10 0.500000 0.718561 0.000000
O O11 0.620871 0.250031 0.363370
O O12 0.591434 0.000000 0.283948
O O13 0.250000 0.273656 0.584418
O O14 0.331238 0.500000 0.571542
O O15 0.345010 0.277939 0.466779
O O16 0.250000 0.287247 0.350452
O O17 0.161296 0.500000 0.358774
#
# Coordination Sequence:
#
# PCOD9405838 Si02
#       6
#     8   8   8   8   8   8
#     4  10  21  38  60  85 115 152 191 232 282 338
#     4  11  23  38  60  86 114 150 190 234 284 339
#     4  11  23  39  60  84 112 149 190 233 284 338
#     4  10  21  36  56  84 118 152 186 231 283 336
#     4   9  19  36  58  83 113 152 193 234 283 335
#     4   9  20  40  61  82 113 151 192 239 286 334
#
# _framework density 17.877223999999998
#
# number of rings (size 3 to 8) (size 9 to 14) (size 15 to 20)
#    0.000    2.000    1.667    2.500    0.000    6.333 
#    0.000    5.000    0.000    0.000    0.000    0.000 
#    0.000    0.000    0.000    0.000    0.000    0.000 
#
# Total GULP energy -268098.448246 kJ/mol
# GULP energy per Si atom -5585.384338 kJ/mol
# Density = 1.783653 g / cm^3
# Si number density = 17.877224 Si / 1000 Ang^3
#
#
#
# Elastic Constant Matrix: (Units=GPa)
#
#
# Indices 1 2 3 4 5 6 
#
# 1 143.2962 55.0697 114.5971 0.0000 0.0000 0.0000
# 2 55.0697 31.7272 56.5734 0.0000 0.0000 0.0000
# 3 114.5971 56.5734 175.9833 0.0000 0.0000 0.0000
# 4 0.0000 0.0000 0.0000 36.6076 0.0000 0.0000
# 5 0.0000 0.0000 0.0000 0.0000 40.2731 0.0000
# 6 0.0000 0.0000 0.0000 0.0000 0.0000 28.9401
#
#
#
# Elastic Compliance Matrix: (Units=1/GPa)
#
#
# Indices 1 2 3 4 5 6 
#
# 1 0.022661 -0.030509 -0.004949 0.000000 0.000000 0.000000
# 2 -0.030509 0.114928 -0.017079 0.000000 0.000000 0.000000
# 3 -0.004949 -0.017079 0.014395 0.000000 0.000000 0.000000
# 4 0.000000 0.000000 0.000000 0.027317 0.000000 0.000000
# 5 0.000000 0.000000 0.000000 0.000000 0.024830 0.000000
# 6 0.000000 0.000000 0.000000 0.000000 0.000000 0.034554
#
#
# Mechanical properties :
#
#
# Convention : Reuss Voigt Hill
#
# Bulk Modulus (GPa) = 21.31716 89.27635 55.29675
# Shear Modulus (GPa) = 13.91227 29.48194 21.69711
#
# Velocity S-wave (km/s) = 2.79267 4.06536 3.48756
# Velocity P-wave (km/s) = 4.72745 8.49018 6.87139
#
# Compressibility (1/GPa) = 0.04691057
#
# Stress axis : x y z
#
# Youngs Moduli (GPa) = 44.12886 8.70113 69.46801
#
# Poissons Ratio (x) = 0.26546 0.34377
# Poissons Ratio (y) = 1.34633 1.18643
# Poissons Ratio (z) = 0.21838 0.14860
#
# Static dielectric constant tensor:
#      x y z
#    x 1.593720 0.000000 0.000000 
#    y 0.000000 1.599140 0.000000 
#    z 0.000000 0.000000 1.576010 
# 
# From -- ./inp_files/24697.got.cif
#   From: 2010.05.17/outbox.cif.g08.bks.cpg/sg51_13_cif.got.tgz:24697.got - 2010.06.03 11:52:47.
