data_PCOD9405536
_publ_section_title
;
Structure prediction by ZEFSAII (Michael W. Deem and Ramdas Pophale) SiO2 
 PCOD9405536
Probable space group: P M M A
;
_chemical_formula_sum "Si O2"
_cell_formula_units_Z 56
_cell_length_a 15.082248
_cell_length_b 19.928850
_cell_length_c 9.535759
_cell_angle_alpha 90.000000
_cell_angle_beta 90.000000
_cell_angle_gamma 90.000000
_cell_volume 2866.180801
_symmetry_space_group_name_H-M "P M M A"
_symmetry_group_IT_number 51
_symmetry_cell_setting 'orthorhombic'
loop_
_space_group_symop_operation_xyz
x,y,z
1/2-x,-y,z
1/2+x,-y,-z
-x,y,-z
-x,-y,-z
1/2+x,y,-z
1/2-x,y,z
x,-y,z
loop_
_atom_site_type_symbol
_atom_site_label
_atom_site_fract_x
_atom_site_fract_y
_atom_site_fract_z
Si Si1 0.093539 0.926827 0.585520
Si Si2 0.021605 0.924164 0.157637
Si Si3 0.647635 0.342168 0.253808
Si Si4 0.149775 0.190601 0.230379
Si Si5 0.483871 0.424544 0.169529
Si Si6 0.353523 0.314878 0.078042
Si Si7 0.605999 0.223318 0.473273
O O1 0.134863 0.853650 0.560896
O O2 0.000000 0.927677 0.500000
O O3 0.066085 0.925949 0.748281
O O4 0.136297 0.000000 0.553732
O O5 0.088555 0.874031 0.233056
O O6 0.942098 0.000000 0.845927
O O7 0.000000 0.903381 0.000000
O O8 0.750000 0.364991 0.277731
O O9 0.568906 0.397560 0.256816
O O10 0.629612 0.279020 0.357122
O O11 0.640868 0.322972 0.089136
O O12 0.250000 0.170773 0.197972
O O13 0.112727 0.241185 0.114852
O O14 0.147314 0.232931 0.373725
O O15 0.460222 0.500000 0.214302
O O16 0.406785 0.369278 0.168336
O O17 0.500000 0.428267 0.000000
O O18 0.250000 0.318282 0.115328
O O19 0.500000 0.224142 0.500000
#
# Coordination Sequence:
#
# PCOD9405536 Si02
#       7
#     8   8   8   8   8   8   8
#     4   9  17  32  52  77 105 136 188 236 275 331
#     4  10  21  35  54  80 106 143 188 231 282 338
#     4  10  21  36  55  82 116 150 188 234 282 335
#     4  11  22  35  53  80 112 144 182 230 283 335
#     4   9  18  33  57  87 114 144 183 226 278 337
#     4   9  20  36  55  82 115 150 187 232 282 335
#     4  11  20  33  55  82 105 149 192 237 282 332
#
# _framework density 19.538195000000002
#
# number of rings (size 3 to 8) (size 9 to 14) (size 15 to 20)
#    0.000    2.143    2.857    1.286    2.000    1.429 
#    0.000    2.857    0.000    5.143    0.000    4.000 
#    0.000    0.000    0.000    0.000    0.000    0.000 
#
# Total GULP energy -311748.579033 kJ/mol
# GULP energy per Si atom -5566.938911 kJ/mol
# Density = 1.949372 g / cm^3
# Si number density = 19.538195 Si / 1000 Ang^3
#
#
#
# Elastic Constant Matrix: (Units=GPa)
#
#
# Indices 1 2 3 4 5 6 
#
# 1 57.9741 37.4343 8.2465 0.0000 0.0000 0.0000
# 2 37.4343 93.5705 9.7052 0.0000 0.0000 0.0000
# 3 8.2465 9.7052 56.5383 0.0000 0.0000 0.0000
# 4 0.0000 0.0000 0.0000 20.3631 0.0000 0.0000
# 5 0.0000 0.0000 0.0000 0.0000 15.7849 0.0000
# 6 0.0000 0.0000 0.0000 0.0000 0.0000 10.0744
#
#
#
# Elastic Compliance Matrix: (Units=1/GPa)
#
#
# Indices 1 2 3 4 5 6 
#
# 1 0.023444 -0.009188 -0.001842 0.000000 0.000000 0.000000
# 2 -0.009188 0.014482 -0.001146 0.000000 0.000000 0.000000
# 3 -0.001842 -0.001146 0.018153 0.000000 0.000000 0.000000
# 4 0.000000 0.000000 0.000000 0.049108 0.000000 0.000000
# 5 0.000000 0.000000 0.000000 0.000000 0.063352 0.000000
# 6 0.000000 0.000000 0.000000 0.000000 0.000000 0.099261
#
#
# Mechanical properties :
#
#
# Convention : Reuss Voigt Hill
#
# Bulk Modulus (GPa) = 31.51980 35.42833 33.47407
# Shear Modulus (GPa) = 16.51651 19.42427 17.97039
#
# Velocity S-wave (km/s) = 2.91064 3.15647 3.03604
# Velocity P-wave (km/s) = 5.24053 5.60862 5.42769
#
# Compressibility (1/GPa) = 0.03172609
#
# Stress axis : x y z
#
# Youngs Moduli (GPa) = 42.65497 69.05223 55.08883
#
# Poissons Ratio (x) = 0.63445 0.10149
# Poissons Ratio (y) = 0.39192 0.06312
# Poissons Ratio (z) = 0.07858 0.07912
#
# Static dielectric constant tensor:
#      x y z
#    x 1.754940 0.000000 0.000000 
#    y 0.000000 1.711790 0.000000 
#    z 0.000000 0.000000 1.707750 
# 
# From -- ./inp_files/8560.got.cif
#   From: 2010.05.17/outbox.cif.g08.bks.cpg/sg51_5_cif.got.tgz:8560.got - 2010.06.03 11:52:47.
