data_PCOD9405585
_publ_section_title
;
Structure prediction by ZEFSAII (Michael W. Deem and Ramdas Pophale) SiO2 
 PCOD9405585
Probable space group: P M M A
;
_chemical_formula_sum "Si O2"
_cell_formula_units_Z 40
_cell_length_a 7.785986
_cell_length_b 9.968425
_cell_length_c 27.138810
_cell_angle_alpha 90.000000
_cell_angle_beta 90.000000
_cell_angle_gamma 90.000000
_cell_volume 2106.352074
_symmetry_space_group_name_H-M "P M M A"
_symmetry_group_IT_number 51
_symmetry_cell_setting 'orthorhombic'
loop_
_space_group_symop_operation_xyz
x,y,z
1/2-x,-y,z
1/2+x,-y,-z
-x,y,-z
-x,-y,-z
1/2+x,y,-z
1/2-x,y,z
x,-y,z
loop_
_atom_site_type_symbol
_atom_site_label
_atom_site_fract_x
_atom_site_fract_y
_atom_site_fract_z
Si Si1 0.956100 0.847799 0.643201
Si Si2 0.045968 0.651749 0.554899
Si Si3 0.456598 0.346869 0.055093
Si Si4 0.448671 0.836705 0.250282
Si Si5 0.460985 0.155211 0.142589
O O1 0.750000 0.856354 0.648843
O O2 0.024752 0.798571 0.696600
O O3 0.990112 0.749826 0.598190
O O4 0.019161 0.000000 0.633898
O O5 0.250000 0.643357 0.557311
O O6 0.974283 0.500000 0.560376
O O7 0.000000 0.700183 0.500000
O O8 0.250000 0.351058 0.058775
O O9 0.521180 0.500000 0.060150
O O10 0.518975 0.250027 0.098370
O O11 0.500000 0.299458 0.000000
O O12 0.250000 0.790888 0.249783
O O13 0.522375 0.799146 0.196982
O O14 0.447373 0.000000 0.250594
O O15 0.250000 0.156774 0.143874
O O16 0.510671 0.000000 0.134941
#
# Coordination Sequence:
#
# PCOD9405585 Si02
#       5
#     8   8   8   8   8
#     4   9  17  30  50  75  99 122 150 185 226 274
#     4  10  21  36  52  69  92 124 159 193 230 271
#     4   9  17  28  41  58  82 111 142 177 217 259
#     4   7  11  22  41  65  91 115 139 172 216 261
#     4   8  13  23  41  63  85 110 141 177 215 254
#
# _framework density 18.990178
#
# number of rings (size 3 to 8) (size 9 to 14) (size 15 to 20)
#    0.000    3.400    0.000    3.000    0.000    2.400 
#    0.000    1.000    0.000    4.800    0.000    5.600 
#    0.000    0.000    0.000    0.000    0.000    0.000 
#
# Total GULP energy -222703.265320 kJ/mol
# GULP energy per Si atom -5567.581633 kJ/mol
# Density = 1.894696 g / cm^3
# Si number density = 18.990178 Si / 1000 Ang^3
#
#
#
# Elastic Constant Matrix: (Units=GPa)
#
#
# Indices 1 2 3 4 5 6 
#
# 1 26.1420 5.2140 7.3574 0.0000 0.0000 0.0000
# 2 5.2140 67.1420 103.9413 0.0000 0.0000 0.0000
# 3 7.3574 103.9413 244.0813 0.0000 0.0000 0.0000
# 4 0.0000 0.0000 0.0000 -42.1476 0.0000 0.0000
# 5 0.0000 0.0000 0.0000 0.0000 18.0383 0.0000
# 6 0.0000 0.0000 0.0000 0.0000 0.0000 9.8390
#
#
#
# Elastic Compliance Matrix: (Units=1/GPa)
#
#
# Indices 1 2 3 4 5 6 
#
# 1 0.038864 -0.003535 0.000334 0.000000 0.000000 0.000000
# 2 -0.003535 0.044030 -0.018643 0.000000 0.000000 0.000000
# 3 0.000334 -0.018643 0.012026 0.000000 0.000000 0.000000
# 4 0.000000 0.000000 0.000000 -0.023726 0.000000 0.000000
# 5 0.000000 0.000000 0.000000 0.000000 0.055438 0.000000
# 6 0.000000 0.000000 0.000000 0.000000 0.000000 0.101636
#
#
# Mechanical properties :
#
#
# Convention : Reuss Voigt Hill
#
# Bulk Modulus (GPa) = 19.51947 63.37676 41.44811
# Shear Modulus (GPa) = 17.29904 11.86944 14.58424
#
# Velocity S-wave (km/s) = 3.02146 2.50277 2.77427
# Velocity P-wave (km/s) = 4.74061 6.46512 5.66882
#
# Compressibility (1/GPa) = 0.05123090
#
# Stress axis : x y z
#
# Youngs Moduli (GPa) = 25.73097 22.71186 83.15189
#
# Poissons Ratio (x) = 0.08028 -0.02776
# Poissons Ratio (y) = 0.09095 1.55024
# Poissons Ratio (z) = -0.00859 0.42343
#
# Static dielectric constant tensor:
#      x y z
#    x 1.716130 0.000000 0.000000 
#    y 0.000000 1.648690 0.000000 
#    z 0.000000 0.000000 1.698910 
# 
# From -- ./inp_files/31381.got.cif
#   From: 2010.05.17/outbox.cif.g08.bks.cpg/sg51_16_cif.got.tgz:31381.got - 2010.06.03 11:52:47.
