data_PCOD9405466
_publ_section_title
;
Structure prediction by ZEFSAII (Michael W. Deem and Ramdas Pophale) SiO2 
 PCOD9405466
Probable space group: P M M A
;
_chemical_formula_sum "Si O2"
_cell_formula_units_Z 48
_cell_length_a 8.377789
_cell_length_b 31.800947
_cell_length_c 9.354863
_cell_angle_alpha 90.000000
_cell_angle_beta 90.000000
_cell_angle_gamma 90.000000
_cell_volume 2492.337792
_symmetry_space_group_name_H-M "P M M A"
_symmetry_group_IT_number 51
_symmetry_cell_setting 'orthorhombic'
loop_
_space_group_symop_operation_xyz
x,y,z
1/2-x,-y,z
1/2+x,-y,-z
-x,y,-z
-x,-y,-z
1/2+x,y,-z
1/2-x,y,z
x,-y,z
loop_
_atom_site_type_symbol
_atom_site_label
_atom_site_fract_x
_atom_site_fract_y
_atom_site_fract_z
Si Si1 0.057047 0.337156 0.661789
Si Si2 0.442866 0.162141 0.838742
Si Si3 0.942844 0.000000 0.162215
Si Si4 0.557010 0.918176 0.338375
Si Si5 0.560023 0.500000 0.662916
Si Si6 0.942905 0.256853 0.161397
Si Si7 0.558576 0.580849 0.162710
O O1 0.250000 0.337064 0.661880
O O2 0.001530 0.293417 0.732689
O O3 0.003781 0.376392 0.758983
O O4 0.000000 0.341697 0.500000
O O5 0.250000 0.161913 0.838696
O O6 0.498667 0.125275 0.734302
O O7 0.495857 0.209489 0.799157
O O8 0.500000 0.153821 0.000000
O O9 0.996999 0.958179 0.245392
O O10 0.750000 0.000000 0.162526
O O11 0.000000 0.000000 0.000000
O O12 0.500000 0.921787 0.500000
O O13 0.750000 0.918073 0.337332
O O14 0.750000 0.500000 0.661894
O O15 0.500000 0.500000 0.500000
O O16 0.500136 0.541043 0.746935
O O17 0.750000 0.257160 0.161044
O O18 0.000000 0.265308 0.000000
O O19 0.750000 0.580549 0.161854
O O20 0.500000 0.578940 0.000000
#
# Coordination Sequence:
#
# PCOD9405466 Si02
#       7
#     8   8   4   8   4   8   8
#     4  10  22  37  55  80 111 144 180 222 270 320
#     4   9  18  33  53  76 104 136 175 218 262 313
#     4  10  21  36  54  76 102 132 173 218 262 312
#     4  10  21  35  51  75 105 137 172 215 262 313
#     4  12  25  42  63  88 118 150 184 226 273 322
#     4   9  18  34  54  78 106 138 176 220 265 314
#     4  11  23  40  61  86 114 147 186 227 271 322
#
# _framework density 19.259025999999999
#
# number of rings (size 3 to 8) (size 9 to 14) (size 15 to 20)
#    0.000    2.000    0.000    3.250    0.000    5.333 
#    0.000    0.000    0.000    0.000    0.000    0.000 
#    0.000    0.000    0.000    0.000    0.000    0.000 
#
# Total GULP energy -268151.143554 kJ/mol
# GULP energy per Si atom -5586.482157 kJ/mol
# Density = 1.921519 g / cm^3
# Si number density = 19.259026 Si / 1000 Ang^3
#
#
#
# Elastic Constant Matrix: (Units=GPa)
#
#
# Indices 1 2 3 4 5 6 
#
# 1 20.6139 30.0204 23.9382 0.0000 0.0000 0.0000
# 2 30.0204 183.9442 134.6336 0.0000 0.0000 0.0000
# 3 23.9382 134.6336 192.6637 0.0000 0.0000 0.0000
# 4 0.0000 0.0000 0.0000 10.1449 0.0000 0.0000
# 5 0.0000 0.0000 0.0000 0.0000 38.3141 0.0000
# 6 0.0000 0.0000 0.0000 0.0000 0.0000 -1.9479
#
#
#
# Elastic Compliance Matrix: (Units=1/GPa)
#
#
# Indices 1 2 3 4 5 6 
#
# 1 0.063802 -0.009438 -0.001332 0.000000 0.000000 0.000000
# 2 -0.009438 0.012524 -0.007579 0.000000 0.000000 0.000000
# 3 -0.001332 -0.007579 0.010652 0.000000 0.000000 0.000000
# 4 0.000000 0.000000 0.000000 0.098572 0.000000 0.000000
# 5 0.000000 0.000000 0.000000 0.000000 0.026100 0.000000
# 6 0.000000 0.000000 0.000000 0.000000 0.000000 -0.513384
#
#
# Mechanical properties :
#
#
# Convention : Reuss Voigt Hill
#
# Bulk Modulus (GPa) = 19.88851 86.04515 52.96683
# Shear Modulus (GPa) = -20.13896 23.21088 1.53596
#
# Velocity S-wave (km/s) = -3.23722 3.47536 0.89401
# Velocity P-wave (km/s) = 1.90356 7.80250 5.35049
#
# Compressibility (1/GPa) = 0.05028028
#
# Stress axis : x y z
#
# Youngs Moduli (GPa) = 15.67343 79.84560 93.87604
#
# Poissons Ratio (x) = 0.75355 0.12507
# Poissons Ratio (y) = 0.14792 0.71151
# Poissons Ratio (z) = 0.02088 0.60517
#
# Static dielectric constant tensor:
#      x y z
#    x 1.659210 0.000000 0.000000 
#    y 0.000000 1.686220 0.000000 
#    z 0.000000 0.000000 1.607620 
# 
# From -- ./inp_files/6185.got.cif
#   From: 2010.05.17/outbox.cif.g08.bks.cpg/sg51_4_cif.got.tgz:6185.got - 2010.06.03 11:52:47.
