data_PCOD9405357
_publ_section_title
;
Structure prediction by ZEFSAII (Michael W. Deem and Ramdas Pophale) SiO2 
 PCOD9405357
Probable space group: P M M A
;
_chemical_formula_sum "Si O2"
_cell_formula_units_Z 48
_cell_length_a 36.275226
_cell_length_b 7.671776
_cell_length_c 7.770413
_cell_angle_alpha 90.000000
_cell_angle_beta 90.000000
_cell_angle_gamma 90.000000
_cell_volume 2162.470258
_symmetry_space_group_name_H-M "P M M A"
_symmetry_group_IT_number 51
_symmetry_cell_setting 'orthorhombic'
loop_
_space_group_symop_operation_xyz
x,y,z
1/2-x,-y,z
1/2+x,-y,-z
-x,y,-z
-x,-y,-z
1/2+x,y,-z
1/2-x,y,z
x,-y,z
loop_
_atom_site_type_symbol
_atom_site_label
_atom_site_fract_x
_atom_site_fract_y
_atom_site_fract_z
Si Si1 0.791789 0.786787 0.954750
Si Si2 0.660479 0.213304 0.640880
Si Si3 0.150692 0.210146 0.755005
Si Si4 0.082016 0.805578 0.289378
Si Si5 0.925517 0.304295 0.340436
Si Si6 0.996381 0.801117 0.796862
O O1 0.750000 0.729652 0.985930
O O2 0.806397 0.735303 0.765693
O O3 0.791946 0.000000 0.958135
O O4 0.820366 0.728840 0.102235
O O5 0.660913 0.268467 0.440774
O O6 0.622456 0.272340 0.733676
O O7 0.658966 0.000000 0.638338
O O8 0.108185 0.264379 0.787774
O O9 0.151551 0.000000 0.755766
O O10 0.079740 0.817793 0.496021
O O11 0.043450 0.718285 0.240330
O O12 0.081809 0.000000 0.209091
O O13 0.920262 0.500000 0.403696
O O14 0.966725 0.285500 0.272472
O O15 0.995716 0.000000 0.726610
O O16 0.000000 0.809167 0.000000
#
# Coordination Sequence:
#
# PCOD9405357 Si02
#       6
#     8   8   8   8   8   8
#     4   9  17  28  49  82 111 133 164 215 274 323
#     4   8  15  28  47  73 103 135 169 211 258 311
#     4   9  18  33  54  76 105 141 178 217 263 319
#     4   9  18  34  54  75 100 137 181 218 261 314
#     4  11  22  35  52  74 104 141 180 221 267 308
#     4  10  21  34  53  79 105 137 178 219 263 317
#
# _framework density 22.196838
#
# number of rings (size 3 to 8) (size 9 to 14) (size 15 to 20)
#    0.000    2.667    0.000    3.000    2.333    3.667 
#    0.000    3.333    0.000    0.500    0.000    0.000 
#    0.000    0.000    0.000    0.000    0.000    0.000 
#
# Total GULP energy -267689.541405 kJ/mol
# GULP energy per Si atom -5576.865446 kJ/mol
# Density = 2.214632 g / cm^3
# Si number density = 22.196838 Si / 1000 Ang^3
#
#
#
# Elastic Constant Matrix: (Units=GPa)
#
#
# Indices 1 2 3 4 5 6 
#
# 1 95.7861 1.5708 5.3849 0.0000 0.0000 0.0000
# 2 1.5708 59.5216 -0.1145 0.0000 0.0000 0.0000
# 3 5.3849 -0.1145 33.2853 0.0000 0.0000 0.0000
# 4 0.0000 0.0000 0.0000 -74.4894 0.0000 0.0000
# 5 0.0000 0.0000 0.0000 0.0000 40.9025 0.0000
# 6 0.0000 0.0000 0.0000 0.0000 0.0000 27.0232
#
#
#
# Elastic Compliance Matrix: (Units=1/GPa)
#
#
# Indices 1 2 3 4 5 6 
#
# 1 0.010540 -0.000281 -0.001706 0.000000 0.000000 0.000000
# 2 -0.000281 0.016808 0.000103 0.000000 0.000000 0.000000
# 3 -0.001706 0.000103 0.030320 0.000000 0.000000 0.000000
# 4 0.000000 0.000000 0.000000 -0.013425 0.000000 0.000000
# 5 0.000000 0.000000 0.000000 0.000000 0.024448 0.000000
# 6 0.000000 0.000000 0.000000 0.000000 0.000000 0.037005
#
#
# Mechanical properties :
#
#
# Convention : Reuss Voigt Hill
#
# Bulk Modulus (GPa) = 18.55293 22.47504 20.51399
# Shear Modulus (GPa) = 39.23646 10.80405 25.02025
#
# Velocity S-wave (km/s) = 4.20892 2.20861 3.36102
# Velocity P-wave (km/s) = 5.65654 4.08059 4.93192
#
# Compressibility (1/GPa) = 0.05389983
#
# Stress axis : x y z
#
# Youngs Moduli (GPa) = 94.87253 59.49458 32.98186
#
# Poissons Ratio (x) = 0.01674 0.05627
# Poissons Ratio (y) = 0.02670 -0.00341
# Poissons Ratio (z) = 0.16187 -0.00615
#
# Static dielectric constant tensor:
#      x y z
#    x 1.865520 0.000000 0.000000 
#    y 0.000000 1.843940 0.000000 
#    z 0.000000 0.000000 1.784450 
# 
# From -- ./inp_files/12780.got.cif
#   From: 2010.05.17/outbox.cif.g08.bks.cpg/sg51_7_cif.got.tgz:12780.got - 2010.06.03 11:52:47.
