data_PCOD9405248
_publ_section_title
;
Structure prediction by ZEFSAII (Michael W. Deem and Ramdas Pophale) SiO2 
 PCOD9405248
Probable space group: P M M A
;
_chemical_formula_sum "Si O2"
_cell_formula_units_Z 48
_cell_length_a 16.079096
_cell_length_b 9.169297
_cell_length_c 17.097064
_cell_angle_alpha 90.000000
_cell_angle_beta 90.000000
_cell_angle_gamma 90.000000
_cell_volume 2520.688649
_symmetry_space_group_name_H-M "P M M A"
_symmetry_group_IT_number 51
_symmetry_cell_setting 'orthorhombic'
loop_
_space_group_symop_operation_xyz
x,y,z
1/2-x,-y,z
1/2+x,-y,-z
-x,y,-z
-x,-y,-z
1/2+x,y,-z
1/2-x,y,z
x,-y,z
loop_
_atom_site_type_symbol
_atom_site_label
_atom_site_fract_x
_atom_site_fract_y
_atom_site_fract_z
Si Si1 0.653218 0.671475 0.808149
Si Si2 0.920752 0.827001 0.662183
Si Si3 0.405949 0.673146 0.663689
Si Si4 0.250000 0.325387 0.773499
Si Si5 0.750000 0.824987 0.058854
Si Si6 0.086802 0.175080 0.042443
Si Si7 0.849388 0.330975 0.514834
O O1 0.750000 0.688608 0.830462
O O2 0.635357 0.500000 0.800117
O O3 0.637631 0.751439 0.726413
O O4 0.597697 0.743592 0.875493
O O5 0.894097 0.772174 0.576515
O O6 0.013032 0.767997 0.678683
O O7 0.916142 0.000000 0.667813
O O8 0.424477 0.500000 0.672361
O O9 0.331249 0.710806 0.722232
O O10 0.376499 0.695417 0.574295
O O11 0.250000 0.500000 0.784543
O O12 0.250000 0.247893 0.856573
O O13 0.750000 0.000000 0.067496
O O14 0.666440 0.785678 0.011137
O O15 0.089074 0.000000 0.055299
O O16 0.000000 0.210375 0.000000
O O17 0.750000 0.314804 0.520549
O O18 0.870340 0.500000 0.533795
#
# Coordination Sequence:
#
# PCOD9405248 Si02
#       7
#     8   8   8   4   4   8   8
#     4  11  24  43  66  92 121 157 206 257 307 359
#     4  12  26  39  58  90 126 162 203 249 304 365
#     4  10  21  41  64  89 120 159 204 254 306 355
#     4  10  22  40  64  91 120 155 202 255 302 355
#     4  10  22  40  62  91 130 167 200 247 306 369
#     4  10  22  41  65  93 127 165 203 245 306 375
#     4  10  20  39  65  89 119 160 206 252 303 359
#
# _framework density 19.042414999999998
#
# number of rings (size 3 to 8) (size 9 to 14) (size 15 to 20)
#    0.000    1.500    1.667    3.000    2.333    7.667 
#    0.000    0.000    0.000    0.000    0.000    0.000 
#    0.000    0.000    0.000    0.000    0.000    0.000 
#
# Total GULP energy -268383.197957 kJ/mol
# GULP energy per Si atom -5591.316624 kJ/mol
# Density = 1.899907 g / cm^3
# Si number density = 19.042415 Si / 1000 Ang^3
#
#
#
# Elastic Constant Matrix: (Units=GPa)
#
#
# Indices 1 2 3 4 5 6 
#
# 1 79.9232 34.7905 14.1587 0.0000 0.0000 0.0000
# 2 34.7905 57.3849 33.6680 0.0000 0.0000 0.0000
# 3 14.1587 33.6680 78.9822 0.0000 0.0000 0.0000
# 4 0.0000 0.0000 0.0000 54.4569 0.0000 0.0000
# 5 0.0000 0.0000 0.0000 0.0000 6.4259 0.0000
# 6 0.0000 0.0000 0.0000 0.0000 0.0000 11.6362
#
#
#
# Elastic Compliance Matrix: (Units=1/GPa)
#
#
# Indices 1 2 3 4 5 6 
#
# 1 0.017191 -0.011487 0.001815 0.000000 0.000000 0.000000
# 2 -0.011487 0.030914 -0.011118 0.000000 0.000000 0.000000
# 3 0.001815 -0.011118 0.017075 0.000000 0.000000 0.000000
# 4 0.000000 0.000000 0.000000 0.018363 0.000000 0.000000
# 5 0.000000 0.000000 0.000000 0.000000 0.155621 0.000000
# 6 0.000000 0.000000 0.000000 0.000000 0.000000 0.085939
#
#
# Mechanical properties :
#
#
# Convention : Reuss Voigt Hill
#
# Bulk Modulus (GPa) = 42.37547 42.39163 42.38355
# Shear Modulus (GPa) = 13.34936 23.41533 18.38235
#
# Velocity S-wave (km/s) = 2.65058 3.51043 3.11036
# Velocity P-wave (km/s) = 5.62751 6.22421 5.93337
#
# Compressibility (1/GPa) = 0.02359856
#
# Stress axis : x y z
#
# Youngs Moduli (GPa) = 58.17081 32.34830 58.56450
#
# Poissons Ratio (x) = 0.37158 -0.10629
# Poissons Ratio (y) = 0.66821 0.65114
# Poissons Ratio (z) = -0.10557 0.35966
#
# Static dielectric constant tensor:
#      x y z
#    x 1.661560 0.000000 0.000000 
#    y 0.000000 1.631110 0.000000 
#    z 0.000000 0.000000 1.629960 
# 
# From -- ./inp_files/29526.got.cif
#   From: 2010.05.17/outbox.cif.g08.bks.cpg/sg51_15_cif.got.tgz:29526.got - 2010.06.03 11:52:47.
