data_PCOD9405717
_publ_section_title
;
Structure prediction by ZEFSAII (Michael W. Deem and Ramdas Pophale) SiO2 
 PCOD9405717
Probable space group: P M M A
;
_chemical_formula_sum "Si O2"
_cell_formula_units_Z 48
_cell_length_a 9.200264
_cell_length_b 9.292239
_cell_length_c 31.985222
_cell_angle_alpha 90.000000
_cell_angle_beta 90.000000
_cell_angle_gamma 90.000000
_cell_volume 2734.450276
_symmetry_space_group_name_H-M "P M M A"
_symmetry_group_IT_number 51
_symmetry_cell_setting 'orthorhombic'
loop_
_space_group_symop_operation_xyz
x,y,z
1/2-x,-y,z
1/2+x,-y,-z
-x,y,-z
-x,-y,-z
1/2+x,y,-z
1/2-x,y,z
x,-y,z
loop_
_atom_site_type_symbol
_atom_site_label
_atom_site_fract_x
_atom_site_fract_y
_atom_site_fract_z
Si Si1 0.077608 0.671477 0.794262
Si Si2 0.079224 0.172794 0.956789
Si Si3 0.582585 0.675518 0.541801
Si Si4 0.420795 0.672873 0.119650
Si Si5 0.927080 0.165629 0.289638
Si Si6 0.576511 0.671120 0.373351
O O1 0.250000 0.699178 0.800675
O O2 0.060746 0.500000 0.787796
O O3 0.028070 0.753887 0.752708
O O4 0.990652 0.713402 0.835765
O O5 0.250000 0.208140 0.958869
O O6 0.004029 0.250008 0.917885
O O7 0.065628 0.000000 0.952061
O O8 0.000000 0.213344 0.000000
O O9 0.500000 0.723739 0.500000
O O10 0.750000 0.720412 0.541194
O O11 0.579499 0.500000 0.541444
O O12 0.503543 0.719514 0.584519
O O13 0.250000 0.707573 0.118601
O O14 0.436591 0.500000 0.115436
O O15 0.750000 0.169471 0.289767
O O16 0.973180 0.246430 0.331828
O O17 0.972840 0.000000 0.289609
O O18 0.750000 0.691991 0.378466
O O19 0.552397 0.500000 0.367778
#
# Coordination Sequence:
#
# PCOD9405717 Si02
#       6
#     8   8   8   8   8   8
#     4   9  17  31  51  73  98 129 165 205 248 294
#     4  10  21  37  57  80 106 138 175 213 254 301
#     4   9  16  26  42  66  94 121 151 190 234 278
#     4  10  21  36  54  78 107 138 172 211 256 304
#     4   9  17  29  47  71  96 123 159 201 241 285
#     4   9  16  27  45  68  93 122 155 191 234 283
#
# _framework density 17.553802999999998
#
# number of rings (size 3 to 8) (size 9 to 14) (size 15 to 20)
#    0.000    2.667    0.000    2.000    0.000    7.000 
#    0.000    2.500    0.000    6.000    0.000    0.000 
#    0.000    0.000    0.000    0.000    0.000    0.000 
#
# Total GULP energy -267730.823764 kJ/mol
# GULP energy per Si atom -5577.725495 kJ/mol
# Density = 1.751385 g / cm^3
# Si number density = 17.553803 Si / 1000 Ang^3
#
#
#
# Elastic Constant Matrix: (Units=GPa)
#
#
# Indices 1 2 3 4 5 6 
#
# 1 95.2526 48.2542 102.8263 0.0000 0.0000 0.0000
# 2 48.2542 36.6782 73.9552 0.0000 0.0000 0.0000
# 3 102.8263 73.9552 229.8300 0.0000 0.0000 0.0000
# 4 0.0000 0.0000 0.0000 -17.4355 0.0000 0.0000
# 5 0.0000 0.0000 0.0000 0.0000 31.9867 0.0000
# 6 0.0000 0.0000 0.0000 0.0000 0.0000 15.0580
#
#
#
# Elastic Compliance Matrix: (Units=1/GPa)
#
#
# Indices 1 2 3 4 5 6 
#
# 1 0.031857 -0.037511 -0.002183 0.000000 0.000000 0.000000
# 2 -0.037511 0.121803 -0.022412 0.000000 0.000000 0.000000
# 3 -0.002183 -0.022412 0.012539 0.000000 0.000000 0.000000
# 4 0.000000 0.000000 0.000000 -0.057354 0.000000 0.000000
# 5 0.000000 0.000000 0.000000 0.000000 0.031263 0.000000
# 6 0.000000 0.000000 0.000000 0.000000 0.000000 0.066410
#
#
# Mechanical properties :
#
#
# Convention : Reuss Voigt Hill
#
# Bulk Modulus (GPa) = 23.81559 90.20355 57.00957
# Shear Modulus (GPa) = 14.50435 15.03686 14.77060
#
# Velocity S-wave (km/s) = 2.87763 2.92997 2.90392
# Velocity P-wave (km/s) = 4.96363 7.93378 6.61749
#
# Compressibility (1/GPa) = 0.04198930
#
# Stress axis : x y z
#
# Youngs Moduli (GPa) = 31.39006 8.20999 79.74941
#
# Poissons Ratio (x) = 0.30796 0.17407
# Poissons Ratio (y) = 1.17746 1.78732
# Poissons Ratio (z) = 0.06852 0.18400
#
# Static dielectric constant tensor:
#      x y z
#    x 1.587640 0.000000 0.000000 
#    y 0.000000 1.584630 0.000000 
#    z 0.000000 0.000000 1.571540 
# 
# From -- ./inp_files/36995.got.cif
#   From: 2010.05.17/outbox.cif.g08.bks.cpg/sg51_19_cif.got.tgz:36995.got - 2010.06.03 11:52:47.
