data_PCOD9405975
_publ_section_title
;
Structure prediction by ZEFSAII (Michael W. Deem and Ramdas Pophale) SiO2 
 PCOD9405975
Probable space group: P M M A
;
_chemical_formula_sum "Si O2"
_cell_formula_units_Z 52
_cell_length_a 9.219299
_cell_length_b 10.032312
_cell_length_c 30.419964
_cell_angle_alpha 90.000000
_cell_angle_beta 90.000000
_cell_angle_gamma 90.000000
_cell_volume 2813.569361
_symmetry_space_group_name_H-M "P M M A"
_symmetry_group_IT_number 51
_symmetry_cell_setting 'orthorhombic'
loop_
_space_group_symop_operation_xyz
x,y,z
1/2-x,-y,z
1/2+x,-y,-z
-x,y,-z
-x,-y,-z
1/2+x,y,-z
1/2-x,y,z
x,-y,z
loop_
_atom_site_type_symbol
_atom_site_label
_atom_site_fract_x
_atom_site_fract_y
_atom_site_fract_z
Si Si1 0.921075 0.264105 0.114424
Si Si2 0.589970 0.153678 0.958650
Si Si3 0.074659 0.158639 0.722074
Si Si4 0.415227 0.500000 0.955312
Si Si5 0.924396 0.343308 0.795011
Si Si6 0.426368 0.346382 0.640488
Si Si7 0.915938 0.337929 0.456931
O O1 0.750000 0.238227 0.121718
O O2 0.937985 0.378051 0.077712
O O3 0.006586 0.152334 0.087713
O O4 0.999436 0.308364 0.158784
O O5 0.750000 0.217134 0.954683
O O6 0.610776 0.000000 0.970439
O O7 0.500000 0.210380 0.000000
O O8 0.250000 0.169629 0.728183
O O9 0.036425 0.237762 0.677156
O O10 0.992616 0.241202 0.759888
O O11 0.040337 0.000000 0.721247
O O12 0.250000 0.500000 0.968869
O O13 0.500000 0.500000 0.000000
O O14 0.750000 0.328268 0.797656
O O15 0.954701 0.500000 0.784311
O O16 0.250000 0.350892 0.638257
O O17 0.472829 0.500000 0.650505
O O18 0.477258 0.306647 0.591481
O O19 0.750000 0.291704 0.459265
O O20 0.913997 0.500000 0.458118
O O21 0.000000 0.291143 0.500000
#
# Coordination Sequence:
#
# PCOD9405975 Si02
#       7
#     8   8   8   4   8   8   8
#     4  11  22  38  59  83 109 139 176 217 264 315
#     4  10  21  37  56  80 111 146 183 220 259 308
#     4  10  21  37  59  85 110 142 186 235 287 341
#     4  10  22  36  54  82 112 140 168 204 249 300
#     4  11  24  41  61  84 111 145 183 226 280 339
#     4   8  14  27  49  76 106 142 184 230 281 334
#     4   8  13  22  39  66 100 137 178 225 276 327
#
# _framework density 18.481863000000001
#
# number of rings (size 3 to 8) (size 9 to 14) (size 15 to 20)
#    0.000    2.308    0.769    3.231    0.000    5.846 
#    0.000    0.769    0.000    3.231    0.000    0.000 
#    0.000    0.000    0.000    0.000    0.000    0.000 
#
# Total GULP energy -289595.362882 kJ/mol
# GULP energy per Si atom -5569.141594 kJ/mol
# Density = 1.843980 g / cm^3
# Si number density = 18.481863 Si / 1000 Ang^3
#
#
#
# Elastic Constant Matrix: (Units=GPa)
#
#
# Indices 1 2 3 4 5 6 
#
# 1 79.0322 52.8537 78.7765 0.0000 0.0000 0.0000
# 2 52.8537 97.4474 71.0628 0.0000 0.0000 0.0000
# 3 78.7765 71.0628 176.2880 0.0000 0.0000 0.0000
# 4 0.0000 0.0000 0.0000 18.6033 0.0000 0.0000
# 5 0.0000 0.0000 0.0000 0.0000 29.7215 0.0000
# 6 0.0000 0.0000 0.0000 0.0000 0.0000 15.2694
#
#
#
# Elastic Compliance Matrix: (Units=1/GPa)
#
#
# Indices 1 2 3 4 5 6 
#
# 1 0.026767 -0.008208 -0.008652 0.000000 0.000000 0.000000
# 2 -0.008208 0.017052 -0.003206 0.000000 0.000000 0.000000
# 3 -0.008652 -0.003206 0.010831 0.000000 0.000000 0.000000
# 4 0.000000 0.000000 0.000000 0.053754 0.000000 0.000000
# 5 0.000000 0.000000 0.000000 0.000000 0.033646 0.000000
# 6 0.000000 0.000000 0.000000 0.000000 0.000000 0.065490
#
#
# Mechanical properties :
#
#
# Convention : Reuss Voigt Hill
#
# Bulk Modulus (GPa) = 68.88380 84.23927 76.56154
# Shear Modulus (GPa) = 19.80117 22.72384 21.26250
#
# Velocity S-wave (km/s) = 3.27675 3.51026 3.39551
# Velocity P-wave (km/s) = 7.18805 7.88084 7.54240
#
# Compressibility (1/GPa) = 0.01451720
#
# Stress axis : x y z
#
# Youngs Moduli (GPa) = 37.36002 58.64548 92.32640
#
# Poissons Ratio (x) = 0.48137 0.79883
# Poissons Ratio (y) = 0.30666 0.29597
# Poissons Ratio (z) = 0.32325 0.18800
#
# Static dielectric constant tensor:
#      x y z
#    x 1.668530 0.000000 0.000000 
#    y 0.000000 1.708870 0.000000 
#    z 0.000000 0.000000 1.628200 
# 
# From -- ./inp_files/36210.got.cif
#   From: 2010.05.17/outbox.cif.g08.bks.cpg/sg51_19_cif.got.tgz:36210.got - 2010.06.03 11:52:47.
