data_PCOD9405825
_publ_section_title
;
Structure prediction by ZEFSAII (Michael W. Deem and Ramdas Pophale) SiO2 
 PCOD9405825
Probable space group: P M M A
;
_chemical_formula_sum "Si O2"
_cell_formula_units_Z 32
_cell_length_a 14.656290
_cell_length_b 10.702609
_cell_length_c 9.797591
_cell_angle_alpha 90.000000
_cell_angle_beta 90.000000
_cell_angle_gamma 90.000000
_cell_volume 1536.855427
_symmetry_space_group_name_H-M "P M M A"
_symmetry_group_IT_number 51
_symmetry_cell_setting 'orthorhombic'
loop_
_space_group_symop_operation_xyz
x,y,z
1/2-x,-y,z
1/2+x,-y,-z
-x,y,-z
-x,-y,-z
1/2+x,y,-z
1/2-x,y,z
x,-y,z
loop_
_atom_site_type_symbol
_atom_site_label
_atom_site_fract_x
_atom_site_fract_y
_atom_site_fract_z
Si Si1 0.353025 0.217633 0.768310
Si Si2 0.356608 0.361583 0.028799
Si Si3 0.950973 0.861272 0.809287
Si Si4 0.854618 0.144417 0.526470
O O1 0.250000 0.165387 0.788084
O O2 0.439819 0.138568 0.815339
O O3 0.364388 0.231113 0.605689
O O4 0.358823 0.337764 0.865916
O O5 0.250000 0.353345 0.069310
O O6 0.390782 0.500000 0.062666
O O7 0.410319 0.250233 0.101445
O O8 0.920884 0.836102 0.652942
O O9 0.916105 0.000000 0.846047
O O10 0.750000 0.154871 0.576125
O O11 0.867349 0.000000 0.478763
#
# Coordination Sequence:
#
# PCOD9405825 Si02
#       4
#     8   8   8   8
#     4  10  21  36  56  83 118 159 198 237 286 343
#     4  10  23  43  63  84 115 155 197 243 295 350
#     4  11  22  36  59  91 122 153 193 241 291 345
#     4   9  18  34  56  84 119 154 189 236 292 346
#
# _framework density 20.821736999999999
#
# number of rings (size 3 to 8) (size 9 to 14) (size 15 to 20)
#    0.000    2.000    0.000    3.000    0.000   10.000 
#    0.000    6.250    0.000    7.500    0.000    0.000 
#    0.000    0.000    0.000    0.000    0.000    0.000 
#
# Total GULP energy -178497.967201 kJ/mol
# GULP energy per Si atom -5578.061475 kJ/mol
# Density = 2.077435 g / cm^3
# Si number density = 20.821737 Si / 1000 Ang^3
#
#
#
# Elastic Constant Matrix: (Units=GPa)
#
#
# Indices 1 2 3 4 5 6 
#
# 1 115.6429 58.5589 39.1093 0.0000 0.0000 0.0000
# 2 58.5589 127.0052 67.5554 0.0000 0.0000 0.0000
# 3 39.1093 67.5554 100.8690 0.0000 0.0000 0.0000
# 4 0.0000 0.0000 0.0000 6.4858 0.0000 0.0000
# 5 0.0000 0.0000 0.0000 0.0000 34.4967 0.0000
# 6 0.0000 0.0000 0.0000 0.0000 0.0000 13.1222
#
#
#
# Elastic Compliance Matrix: (Units=1/GPa)
#
#
# Indices 1 2 3 4 5 6 
#
# 1 0.011407 -0.004516 -0.001398 0.000000 0.000000 0.000000
# 2 -0.004516 0.014018 -0.007638 0.000000 0.000000 0.000000
# 3 -0.001398 -0.007638 0.015571 0.000000 0.000000 0.000000
# 4 0.000000 0.000000 0.000000 0.154184 0.000000 0.000000
# 5 0.000000 0.000000 0.000000 0.000000 0.028988 0.000000
# 6 0.000000 0.000000 0.000000 0.000000 0.000000 0.076207
#
#
# Mechanical properties :
#
#
# Convention : Reuss Voigt Hill
#
# Bulk Modulus (GPa) = 71.97916 74.88494 73.43205
# Shear Modulus (GPa) = 15.05527 22.70718 18.88123
#
# Velocity S-wave (km/s) = 2.69189 3.30593 3.01459
# Velocity P-wave (km/s) = 6.65627 7.11443 6.88916
#
# Compressibility (1/GPa) = 0.01389291
#
# Stress axis : x y z
#
# Youngs Moduli (GPa) = 87.66684 71.33538 64.22056
#
# Poissons Ratio (x) = 0.32212 0.08981
# Poissons Ratio (y) = 0.39586 0.49050
# Poissons Ratio (z) = 0.12260 0.54484
#
# Static dielectric constant tensor:
#      x y z
#    x 1.793880 0.000000 0.000000 
#    y 0.000000 1.714560 0.000000 
#    z 0.000000 0.000000 1.760240 
# 
# From -- ./inp_files/7487.got.cif
#   From: 2010.05.17/outbox.cif.g08.bks.cpg/sg51_4_cif.got.tgz:7487.got - 2010.06.03 11:52:47.
