data_PCOD9405870
_publ_section_title
;
Structure prediction by ZEFSAII (Michael W. Deem and Ramdas Pophale) SiO2 
 PCOD9405870
Probable space group: P M M A
;
_chemical_formula_sum "Si O2"
_cell_formula_units_Z 32
_cell_length_a 26.911195
_cell_length_b 8.207224
_cell_length_c 7.328480
_cell_angle_alpha 90.000000
_cell_angle_beta 90.000000
_cell_angle_gamma 90.000000
_cell_volume 1618.613569
_symmetry_space_group_name_H-M "P M M A"
_symmetry_group_IT_number 51
_symmetry_cell_setting 'orthorhombic'
loop_
_space_group_symop_operation_xyz
x,y,z
1/2-x,-y,z
1/2+x,-y,-z
-x,y,-z
-x,-y,-z
1/2+x,y,-z
1/2-x,y,z
x,-y,z
loop_
_atom_site_type_symbol
_atom_site_label
_atom_site_fract_x
_atom_site_fract_y
_atom_site_fract_z
Si Si1 0.191460 0.000000 0.669086
Si Si2 0.000000 0.252137 0.000000
Si Si3 0.970969 0.000000 0.307736
Si Si4 0.399417 0.676104 0.192533
Si Si5 0.389979 0.000000 0.422310
Si Si6 0.308421 0.314504 0.914428
O O1 0.179269 0.833347 0.778070
O O2 0.250000 0.000000 0.651072
O O3 0.167548 0.000000 0.469927
O O4 0.051762 0.330345 0.064175
O O5 0.984091 0.149367 0.177919
O O6 0.000000 0.000000 0.500000
O O7 0.914968 0.000000 0.377954
O O8 0.397141 0.500000 0.290733
O O9 0.404299 0.836493 0.316045
O O10 0.348874 0.694328 0.075929
O O11 0.250000 0.295412 0.969978
O O12 0.312761 0.500000 0.837760
#
# Coordination Sequence:
#
# PCOD9405870 Si02
#       6
#     4   4   4   8   4   8
#     4  10  21  36  59  87 115 154 200 247 300 353
#     4  11  21  40  64  85 121 160 203 253 294 357
#     4  11  20  38  63  89 115 161 200 239 306 352
#     4  11  23  38  60  89 118 156 200 246 302 357
#     4  12  23  39  57  86 125 155 193 251 300 360
#     4   9  19  38  61  84 113 153 201 246 293 353
#
# _framework density 19.770005000000001
#
# number of rings (size 3 to 8) (size 9 to 14) (size 15 to 20)
#    0.000    1.500    2.500    3.375    0.000    2.000 
#    0.000    3.750    0.000    0.000    0.000    0.000 
#    0.000    0.000    0.000    0.000    0.000    0.000 
#
# Total GULP energy -178232.419576 kJ/mol
# GULP energy per Si atom -5569.763112 kJ/mol
# Density = 1.972501 g / cm^3
# Si number density = 19.770005 Si / 1000 Ang^3
#
#
#
# Elastic Constant Matrix: (Units=GPa)
#
#
# Indices 1 2 3 4 5 6 
#
# 1 90.4381 56.7857 34.7141 0.0000 0.0000 0.0000
# 2 56.7857 169.6843 67.0450 0.0000 0.0000 0.0000
# 3 34.7141 67.0450 79.9091 0.0000 0.0000 0.0000
# 4 0.0000 0.0000 0.0000 -7.5338 0.0000 0.0000
# 5 0.0000 0.0000 0.0000 0.0000 42.7360 0.0000
# 6 0.0000 0.0000 0.0000 0.0000 0.0000 -9.0200
#
#
#
# Elastic Compliance Matrix: (Units=1/GPa)
#
#
# Indices 1 2 3 4 5 6 
#
# 1 0.014575 -0.003554 -0.003350 0.000000 0.000000 0.000000
# 2 -0.003554 0.009682 -0.006580 0.000000 0.000000 0.000000
# 3 -0.003350 -0.006580 0.019490 0.000000 0.000000 0.000000
# 4 0.000000 0.000000 0.000000 -0.132736 0.000000 0.000000
# 5 0.000000 0.000000 0.000000 0.000000 0.023399 0.000000
# 6 0.000000 0.000000 0.000000 0.000000 0.000000 -0.110865
#
#
# Mechanical properties :
#
#
# Convention : Reuss Voigt Hill
#
# Bulk Modulus (GPa) = 59.59440 73.01344 66.30392
# Shear Modulus (GPa) = -34.74778 17.33556 -8.70611
#
# Velocity S-wave (km/s) = -4.19692 2.96440 -2.10078
# Velocity P-wave (km/s) = 2.59302 6.98058 5.26556
#
# Compressibility (1/GPa) = 0.01678010
#
# Stress axis : x y z
#
# Youngs Moduli (GPa) = 68.61283 103.27982 51.30854
#
# Poissons Ratio (x) = 0.36705 0.17187
# Poissons Ratio (y) = 0.24385 0.33760
# Poissons Ratio (z) = 0.22983 0.67956
#
# Static dielectric constant tensor:
#      x y z
#    x 1.790880 0.000000 0.000000 
#    y 0.000000 1.728950 0.000000 
#    z 0.000000 0.000000 1.651450 
# 
# From -- ./inp_files/3833.got.cif
#   From: 2010.05.17/outbox.cif.g08.bks.cpg/sg51_2_cif.got.tgz:3833.got - 2010.06.03 11:52:47.
