data_PCOD9405833
_publ_section_title
;
Structure prediction by ZEFSAII (Michael W. Deem and Ramdas Pophale) SiO2 
 PCOD9405833
Probable space group: P M M A
;
_chemical_formula_sum "Si O2"
_cell_formula_units_Z 48
_cell_length_a 19.063916
_cell_length_b 9.092530
_cell_length_c 13.613486
_cell_angle_alpha 90.000000
_cell_angle_beta 90.000000
_cell_angle_gamma 90.000000
_cell_volume 2359.751156
_symmetry_space_group_name_H-M "P M M A"
_symmetry_group_IT_number 51
_symmetry_cell_setting 'orthorhombic'
loop_
_space_group_symop_operation_xyz
x,y,z
1/2-x,-y,z
1/2+x,-y,-z
-x,y,-z
-x,-y,-z
1/2+x,y,-z
1/2-x,y,z
x,-y,z
loop_
_atom_site_type_symbol
_atom_site_label
_atom_site_fract_x
_atom_site_fract_y
_atom_site_fract_z
Si Si1 0.166645 0.170755 0.995450
Si Si2 0.833849 0.333596 0.806403
Si Si3 0.330912 0.823939 0.580404
Si Si4 0.465588 0.825329 0.698872
Si Si5 0.043243 0.674340 0.901695
Si Si6 0.410252 0.325970 0.400510
O O1 0.250000 0.189127 0.982043
O O2 0.149671 0.221568 0.106531
O O3 0.148763 0.000000 0.980608
O O4 0.121715 0.271131 0.923590
O O5 0.750000 0.331119 0.792492
O O6 0.853889 0.500000 0.838714
O O7 0.869618 0.304590 0.702756
O O8 0.250000 0.781465 0.597843
O O9 0.384854 0.795305 0.669287
O O10 0.363809 0.742812 0.486587
O O11 0.332517 0.000000 0.562748
O O12 0.482496 0.753796 0.803631
O O13 0.515767 0.753919 0.616958
O O14 0.476381 0.000000 0.701667
O O15 0.039248 0.500000 0.887908
O O16 0.000000 0.713358 0.000000
O O17 0.420045 0.500000 0.416236
#
# Coordination Sequence:
#
# PCOD9405833 Si02
#       6
#     8   8   8   8   8   8
#     4  10  21  36  56  84 116 152 197 246 296 355
#     4   9  18  33  53  80 116 155 194 240 294 348
#     4  10  23  43  64  87 118 156 197 242 293 349
#     4  11  24  41  62  88 119 156 198 246 299 354
#     4  11  24  41  61  87 119 156 199 247 300 357
#     4  11  22  37  60  90 122 156 196 243 295 354
#
# _framework density 20.341127
#
# number of rings (size 3 to 8) (size 9 to 14) (size 15 to 20)
#    0.000    1.667    0.000    4.000    0.000   12.667 
#    0.000    3.333    0.000    0.000    0.000    0.000 
#    0.000    0.000    0.000    0.000    0.000    0.000 
#
# Total GULP energy -268393.833833 kJ/mol
# GULP energy per Si atom -5591.538205 kJ/mol
# Density = 2.029483 g / cm^3
# Si number density = 20.341127 Si / 1000 Ang^3
#
#
#
# Elastic Constant Matrix: (Units=GPa)
#
#
# Indices 1 2 3 4 5 6 
#
# 1 100.3933 49.9078 36.4754 0.0000 0.0000 0.0000
# 2 49.9078 54.7164 41.2628 0.0000 0.0000 0.0000
# 3 36.4754 41.2628 78.5900 0.0000 0.0000 0.0000
# 4 0.0000 0.0000 0.0000 34.7986 0.0000 0.0000
# 5 0.0000 0.0000 0.0000 0.0000 34.5938 0.0000
# 6 0.0000 0.0000 0.0000 0.0000 0.0000 16.4689
#
#
#
# Elastic Compliance Matrix: (Units=1/GPa)
#
#
# Indices 1 2 3 4 5 6 
#
# 1 0.018234 -0.016968 0.000446 0.000000 0.000000 0.000000
# 2 -0.016968 0.046045 -0.016300 0.000000 0.000000 0.000000
# 3 0.000446 -0.016300 0.021076 0.000000 0.000000 0.000000
# 4 0.000000 0.000000 0.000000 0.028737 0.000000 0.000000
# 5 0.000000 0.000000 0.000000 0.000000 0.028907 0.000000
# 6 0.000000 0.000000 0.000000 0.000000 0.000000 0.060721
#
#
# Mechanical properties :
#
#
# Convention : Reuss Voigt Hill
#
# Bulk Modulus (GPa) = 50.73485 54.33239 52.53362
# Shear Modulus (GPa) = 18.12034 24.24249 21.18142
#
# Velocity S-wave (km/s) = 2.98790 3.45599 3.23043
# Velocity P-wave (km/s) = 6.07450 6.53404 6.30846
#
# Compressibility (1/GPa) = 0.01971032
#
# Stress axis : x y z
#
# Youngs Moduli (GPa) = 54.84313 21.71787 47.44828
#
# Poissons Ratio (x) = 0.36850 -0.02116
# Poissons Ratio (y) = 0.93056 0.77342
# Poissons Ratio (z) = -0.02446 0.35401
#
# Static dielectric constant tensor:
#      x y z
#    x 1.755870 0.000000 0.000000 
#    y 0.000000 1.685630 0.000000 
#    z 0.000000 0.000000 1.693900 
# 
# From -- ./inp_files/24818.got.cif
#   From: 2010.05.17/outbox.cif.g08.bks.cpg/sg51_13_cif.got.tgz:24818.got - 2010.06.03 11:52:47.
