data_PCOD9405159
_publ_section_title
;
Structure prediction by ZEFSAII (Michael W. Deem and Ramdas Pophale) SiO2 
 PCOD9405159
Probable space group: P M M A
;
_chemical_formula_sum "Si O2"
_cell_formula_units_Z 64
_cell_length_a 14.891015
_cell_length_b 22.600036
_cell_length_c 9.971607
_cell_angle_alpha 90.000000
_cell_angle_beta 90.000000
_cell_angle_gamma 90.000000
_cell_volume 3355.819442
_symmetry_space_group_name_H-M "P M M A"
_symmetry_group_IT_number 51
_symmetry_cell_setting 'orthorhombic'
loop_
_space_group_symop_operation_xyz
x,y,z
1/2-x,-y,z
1/2+x,-y,-z
-x,y,-z
-x,-y,-z
1/2+x,y,-z
1/2-x,y,z
x,-y,z
loop_
_atom_site_type_symbol
_atom_site_label
_atom_site_fract_x
_atom_site_fract_y
_atom_site_fract_z
Si Si1 0.358908 0.932859 0.200091
Si Si2 0.351549 0.429220 0.046242
Si Si3 0.144654 0.145218 0.439795
Si Si4 0.020599 0.313306 0.654459
Si Si5 0.854410 0.796218 0.294947
Si Si6 0.152171 0.743166 0.239045
Si Si7 0.395382 0.826148 0.003055
Si Si8 0.530818 0.429803 0.212327
O O1 0.250000 0.932567 0.205728
O O2 0.392802 0.905351 0.341409
O O3 0.383406 0.888085 0.080686
O O4 0.389351 0.000000 0.179947
O O5 0.250000 0.404833 0.064152
O O6 0.342499 0.500000 0.038753
O O7 0.399933 0.412501 0.906740
O O8 0.429044 0.420947 0.157353
O O9 0.250000 0.130041 0.460899
O O10 0.107147 0.162028 0.585716
O O11 0.141622 0.204475 0.349084
O O12 0.093480 0.265734 0.702958
O O13 0.000000 0.301394 0.500000
O O14 0.931030 0.299277 0.739027
O O15 0.046856 0.381582 0.673470
O O16 0.750000 0.785314 0.325820
O O17 0.861868 0.825291 0.148870
O O18 0.250000 0.715568 0.259081
O O19 0.148988 0.776098 0.096241
O O20 0.500000 0.811895 0.000000
O O21 0.541808 0.500000 0.242772
#
# Coordination Sequence:
#
# PCOD9405159 Si02
#       8
#     8   8   8   8   8   8   8   8
#     4   9  18  35  58  84 117 160 201 233 280 349
#     4   8  15  33  59  80 104 143 184 225 276 336
#     4   8  16  33  58  79 104 148 195 235 280 334
#     4  12  24  37  58  83 111 152 197 243 296 352
#     4  11  22  38  58  85 116 148 194 250 302 344
#     4  10  20  38  58  80 110 150 197 239 288 352
#     4  11  21  35  58  87 121 152 189 243 302 350
#     4   9  20  36  55  84 117 146 188 235 287 358
#
# _framework density 19.071348
#
# number of rings (size 3 to 8) (size 9 to 14) (size 15 to 20)
#    0.000    2.250    2.500    2.625    0.000    3.500 
#    0.000    0.625    0.000    3.000    0.000    5.250 
#    0.000    0.000    0.000    0.000    0.000    0.000 
#
# Total GULP energy -356701.560689 kJ/mol
# GULP energy per Si atom -5573.461886 kJ/mol
# Density = 1.902794 g / cm^3
# Si number density = 19.071348 Si / 1000 Ang^3
#
#
#
# Elastic Constant Matrix: (Units=GPa)
#
#
# Indices 1 2 3 4 5 6 
#
# 1 75.4757 20.4404 8.5071 0.0000 0.0000 0.0000
# 2 20.4404 92.5606 46.2228 0.0000 0.0000 0.0000
# 3 8.5071 46.2228 117.1359 0.0000 0.0000 0.0000
# 4 0.0000 0.0000 0.0000 21.1139 0.0000 0.0000
# 5 0.0000 0.0000 0.0000 0.0000 17.9258 0.0000
# 6 0.0000 0.0000 0.0000 0.0000 0.0000 8.0678
#
#
#
# Elastic Compliance Matrix: (Units=1/GPa)
#
#
# Indices 1 2 3 4 5 6 
#
# 1 0.014098 -0.003241 0.000255 0.000000 0.000000 0.000000
# 2 -0.003241 0.014200 -0.005368 0.000000 0.000000 0.000000
# 3 0.000255 -0.005368 0.010637 0.000000 0.000000 0.000000
# 4 0.000000 0.000000 0.000000 0.047362 0.000000 0.000000
# 5 0.000000 0.000000 0.000000 0.000000 0.055786 0.000000
# 6 0.000000 0.000000 0.000000 0.000000 0.000000 0.123950
#
#
# Mechanical properties :
#
#
# Convention : Reuss Voigt Hill
#
# Bulk Modulus (GPa) = 44.98944 48.39033 46.68989
# Shear Modulus (GPa) = 17.23247 23.42161 20.32704
#
# Velocity S-wave (km/s) = 3.00922 3.50823 3.26826
# Velocity P-wave (km/s) = 5.97622 6.46828 6.22711
#
# Compressibility (1/GPa) = 0.02222744
#
# Stress axis : x y z
#
# Youngs Moduli (GPa) = 70.93108 70.42200 94.01242
#
# Poissons Ratio (x) = 0.22821 -0.02396
# Poissons Ratio (y) = 0.22986 0.50467
# Poissons Ratio (z) = -0.01808 0.37803
#
# Static dielectric constant tensor:
#      x y z
#    x 1.714420 0.000000 0.000000 
#    y 0.000000 1.651080 0.000000 
#    z 0.000000 0.000000 1.682700 
# 
# From -- ./inp_files/8760.got.cif
#   From: 2010.05.17/outbox.cif.g08.bks.cpg/sg51_5_cif.got.tgz:8760.got - 2010.06.03 11:52:47.
