data_PCOD9405735
_publ_section_title
;
Structure prediction by ZEFSAII (Michael W. Deem and Ramdas Pophale) SiO2 
 PCOD9405735
Probable space group: P M M A
;
_chemical_formula_sum "Si O2"
_cell_formula_units_Z 48
_cell_length_a 8.723866
_cell_length_b 9.294752
_cell_length_c 31.731401
_cell_angle_alpha 90.000000
_cell_angle_beta 90.000000
_cell_angle_gamma 90.000000
_cell_volume 2572.977806
_symmetry_space_group_name_H-M "P M M A"
_symmetry_group_IT_number 51
_symmetry_cell_setting 'orthorhombic'
loop_
_space_group_symop_operation_xyz
x,y,z
1/2-x,-y,z
1/2+x,-y,-z
-x,y,-z
-x,-y,-z
1/2+x,y,-z
1/2-x,y,z
x,-y,z
loop_
_atom_site_type_symbol
_atom_site_label
_atom_site_fract_x
_atom_site_fract_y
_atom_site_fract_z
Si Si1 0.435405 0.166376 0.371260
Si Si2 0.066616 0.831184 0.954407
Si Si3 0.435151 0.333163 0.708948
Si Si4 0.933712 0.667218 0.874421
Si Si5 0.065360 0.667324 0.455067
Si Si6 0.564717 0.167516 0.206085
O O1 0.250000 0.171386 0.370059
O O2 0.499087 0.255379 0.332033
O O3 0.484863 0.238311 0.415329
O O4 0.483221 0.000000 0.368815
O O5 0.250000 0.818544 0.955006
O O6 0.998456 0.736877 0.917011
O O7 0.027790 0.000000 0.947260
O O8 0.000000 0.790268 0.000000
O O9 0.250000 0.328721 0.707031
O O10 0.482689 0.500000 0.710612
O O11 0.482607 0.249503 0.751295
O O12 0.750000 0.674907 0.875027
O O13 0.979706 0.500000 0.871152
O O14 0.996519 0.754792 0.834571
O O15 0.250000 0.672026 0.457068
O O16 0.019715 0.500000 0.448786
O O17 0.000000 0.715774 0.500000
O O18 0.750000 0.173794 0.203427
O O19 0.520005 0.000000 0.207655
#
# Coordination Sequence:
#
# PCOD9405735 Si02
#       6
#     8   8   8   8   8   8
#     4  10  21  36  54  78 109 144 181 221 268 322
#     4  10  21  38  61  87 114 147 187 230 278 330
#     4  10  21  37  58  83 110 142 181 224 271 324
#     4  11  24  39  56  82 115 150 188 228 272 324
#     4   9  18  33  52  74 102 137 177 221 268 319
#     4  10  21  38  60  84 110 142 181 225 274 326
#
# _framework density 18.655429000000002
#
# number of rings (size 3 to 8) (size 9 to 14) (size 15 to 20)
#    0.000    2.000    0.000    3.000    0.000    9.333 
#    0.000    1.667    0.000    0.000    0.000    0.000 
#    0.000    0.000    0.000    0.000    0.000    0.000 
#
# Total GULP energy -268193.532289 kJ/mol
# GULP energy per Si atom -5587.365256 kJ/mol
# Density = 1.861297 g / cm^3
# Si number density = 18.655429 Si / 1000 Ang^3
#
#
#
# Elastic Constant Matrix: (Units=GPa)
#
#
# Indices 1 2 3 4 5 6 
#
# 1 15.5471 43.7066 42.1047 0.0000 0.0000 0.0000
# 2 43.7066 178.0669 137.6048 0.0000 0.0000 0.0000
# 3 42.1047 137.6048 212.0329 0.0000 0.0000 0.0000
# 4 0.0000 0.0000 0.0000 43.0020 0.0000 0.0000
# 5 0.0000 0.0000 0.0000 0.0000 39.7943 0.0000
# 6 0.0000 0.0000 0.0000 0.0000 0.0000 28.1447
#
#
#
# Elastic Compliance Matrix: (Units=1/GPa)
#
#
# Indices 1 2 3 4 5 6 
#
# 1 0.240222 -0.044333 -0.018931 0.000000 0.000000 0.000000
# 2 -0.044333 0.019448 -0.003818 0.000000 0.000000 0.000000
# 3 -0.018931 -0.003818 0.010953 0.000000 0.000000 0.000000
# 4 0.000000 0.000000 0.000000 0.023255 0.000000 0.000000
# 5 0.000000 0.000000 0.000000 0.000000 0.025129 0.000000
# 6 0.000000 0.000000 0.000000 0.000000 0.000000 0.035531
#
#
# Mechanical properties :
#
#
# Convention : Reuss Voigt Hill
#
# Bulk Modulus (GPa) = 7.32823 94.71990 51.02406
# Shear Modulus (GPa) = 9.36003 34.33691 21.84847
#
# Velocity S-wave (km/s) = 2.24237 4.29486 3.42593
# Velocity P-wave (km/s) = 3.26206 8.68781 6.56197
#
# Compressibility (1/GPa) = 0.13645865
#
# Stress axis : x y z
#
# Youngs Moduli (GPa) = 4.16282 51.42036 91.29934
#
# Poissons Ratio (x) = 2.27963 1.72839
# Poissons Ratio (y) = 0.18455 0.34854
# Poissons Ratio (z) = 0.07881 0.19630
#
# Static dielectric constant tensor:
#      x y z
#    x 1.634000 0.000000 0.000000 
#    y 0.000000 1.633370 0.000000 
#    z 0.000000 0.000000 1.600730 
# 
# From -- ./inp_files/36938.got.cif
#   From: 2010.05.17/outbox.cif.g08.bks.cpg/sg51_19_cif.got.tgz:36938.got - 2010.06.03 11:52:47.
