data_PCOD9405392
_publ_section_title
;
Structure prediction by ZEFSAII (Michael W. Deem and Ramdas Pophale) SiO2 
 PCOD9405392
Probable space group: P M M A
;
_chemical_formula_sum "Si O2"
_cell_formula_units_Z 40
_cell_length_a 7.898549
_cell_length_b 7.712690
_cell_length_c 31.155087
_cell_angle_alpha 90.000000
_cell_angle_beta 90.000000
_cell_angle_gamma 90.000000
_cell_volume 1897.938611
_symmetry_space_group_name_H-M "P M M A"
_symmetry_group_IT_number 51
_symmetry_cell_setting 'orthorhombic'
loop_
_space_group_symop_operation_xyz
x,y,z
1/2-x,-y,z
1/2+x,-y,-z
-x,y,-z
-x,-y,-z
1/2+x,y,-z
1/2-x,y,z
x,-y,z
loop_
_atom_site_type_symbol
_atom_site_label
_atom_site_fract_x
_atom_site_fract_y
_atom_site_fract_z
Si Si1 0.451270 0.191934 0.044479
Si Si2 0.250000 0.711836 0.293449
Si Si3 0.750000 0.287734 0.608062
Si Si4 0.557541 0.288237 0.452220
Si Si5 0.046397 0.692360 0.860611
Si Si6 0.554396 0.713212 0.232278
O O1 0.250000 0.185408 0.044386
O O2 0.502352 0.248237 0.091878
O O3 0.529240 0.000000 0.041079
O O4 0.500000 0.286588 0.000000
O O5 0.250000 0.500000 0.293565
O O6 0.250000 0.769138 0.342690
O O7 0.418293 0.765761 0.267674
O O8 0.750000 0.500000 0.607905
O O9 0.582531 0.232505 0.582162
O O10 0.500000 0.235735 0.500000
O O11 0.750000 0.231855 0.443641
O O12 0.558028 0.500000 0.451997
O O13 0.250000 0.686798 0.858592
O O14 0.973494 0.500000 0.858275
O O15 0.998977 0.778292 0.815281
O O16 0.750000 0.764419 0.240555
O O17 0.555216 0.500000 0.230677
#
# Coordination Sequence:
#
# PCOD9405392 Si02
#       6
#     8   4   4   8   8   8
#     4  10  21  35  50  69  94 123 151 181 224 274
#     4   9  16  24  36  52  73  99 127 163 216 271
#     4   9  16  22  28  44  62  83 119 157 202 261
#     4   9  14  20  29  38  53  79 113 156 202 249
#     4   9  18  32  50  71  91 115 151 188 224 271
#     4   8  15  27  41  58  80 103 131 171 215 260
#
# _framework density 21.075496000000001
#
# number of rings (size 3 to 8) (size 9 to 14) (size 15 to 20)
#    0.000    3.000    1.000    1.800    1.400    2.800 
#    0.000    4.000    0.000    0.000    0.000    0.000 
#    0.000    0.000    0.000    0.000    0.000    0.000 
#
# Total GULP energy -222813.975418 kJ/mol
# GULP energy per Si atom -5570.349385 kJ/mol
# Density = 2.102753 g / cm^3
# Si number density = 21.075496 Si / 1000 Ang^3
#
#
#
# Elastic Constant Matrix: (Units=GPa)
#
#
# Indices 1 2 3 4 5 6 
#
# 1 144.8544 4.7728 117.4471 0.0000 0.0000 0.0000
# 2 4.7728 23.7836 14.8611 0.0000 0.0000 0.0000
# 3 117.4471 14.8611 256.4408 0.0000 0.0000 0.0000
# 4 0.0000 0.0000 0.0000 5.4911 0.0000 0.0000
# 5 0.0000 0.0000 0.0000 0.0000 43.6966 0.0000
# 6 0.0000 0.0000 0.0000 0.0000 0.0000 4.3792
#
#
#
# Elastic Compliance Matrix: (Units=1/GPa)
#
#
# Indices 1 2 3 4 5 6 
#
# 1 0.011003 0.000976 -0.005096 0.000000 0.000000 0.000000
# 2 0.000976 0.043712 -0.002980 0.000000 0.000000 0.000000
# 3 -0.005096 -0.002980 0.006406 0.000000 0.000000 0.000000
# 4 0.000000 0.000000 0.000000 0.182114 0.000000 0.000000
# 5 0.000000 0.000000 0.000000 0.000000 0.022885 0.000000
# 6 0.000000 0.000000 0.000000 0.000000 0.000000 0.228354
#
#
# Mechanical properties :
#
#
# Convention : Reuss Voigt Hill
#
# Bulk Modulus (GPa) = 21.31233 77.69342 49.50288
# Shear Modulus (GPa) = 9.53625 29.91322 19.72473
#
# Velocity S-wave (km/s) = 2.12947 3.77150 3.06258
# Velocity P-wave (km/s) = 4.02250 7.47729 6.00377
#
# Compressibility (1/GPa) = 0.04692121
#
# Stress axis : x y z
#
# Youngs Moduli (GPa) = 90.88457 22.87698 156.10211
#
# Poissons Ratio (x) = -0.02233 0.79547
# Poissons Ratio (y) = -0.08871 0.46521
# Poissons Ratio (z) = 0.46313 0.06818
#
# Static dielectric constant tensor:
#      x y z
#    x 1.719940 0.000000 0.000000 
#    y 0.000000 1.834380 0.000000 
#    z 0.000000 0.000000 1.795870 
# 
# From -- ./inp_files/36049.got.cif
#   From: 2010.05.17/outbox.cif.g08.bks.cpg/sg51_19_cif.got.tgz:36049.got - 2010.06.03 11:52:47.
