data_PCOD9405924
_publ_section_title
;
Structure prediction by ZEFSAII (Michael W. Deem and Ramdas Pophale) SiO2 
 PCOD9405924
Probable space group: P M M A
;
_chemical_formula_sum "Si O2"
_cell_formula_units_Z 40
_cell_length_a 16.340015
_cell_length_b 7.638102
_cell_length_c 15.143528
_cell_angle_alpha 90.000000
_cell_angle_beta 90.000000
_cell_angle_gamma 90.000000
_cell_volume 1890.013775
_symmetry_space_group_name_H-M "P M M A"
_symmetry_group_IT_number 51
_symmetry_cell_setting 'orthorhombic'
loop_
_space_group_symop_operation_xyz
x,y,z
1/2-x,-y,z
1/2+x,-y,-z
-x,y,-z
-x,-y,-z
1/2+x,y,-z
1/2-x,y,z
x,-y,z
loop_
_atom_site_type_symbol
_atom_site_label
_atom_site_fract_x
_atom_site_fract_y
_atom_site_fract_z
Si Si1 0.917378 0.290249 0.399574
Si Si2 0.085747 0.209829 0.963283
Si Si3 0.750000 0.285351 0.722692
Si Si4 0.250000 0.708611 0.073887
Si Si5 0.159259 0.790312 0.786338
Si Si6 0.895053 0.286213 0.594032
O O1 0.921610 0.500000 0.406216
O O2 0.868915 0.245823 0.312218
O O3 0.878671 0.230548 0.492559
O O4 0.011388 0.229207 0.389630
O O5 0.101894 0.277585 0.864333
O O6 0.077016 0.000000 0.958225
O O7 0.166983 0.240344 0.022102
O O8 0.000000 0.280493 0.000000
O O9 0.750000 0.500000 0.723849
O O10 0.750000 0.225776 0.824469
O O11 0.829613 0.228512 0.666551
O O12 0.250000 0.500000 0.078088
O O13 0.250000 0.719823 0.801118
O O14 0.162335 0.000000 0.795835
O O15 0.893249 0.500000 0.596189
#
# Coordination Sequence:
#
# PCOD9405924 Si02
#       6
#     8   8   4   4   8   8
#     4   9  18  32  55  82 106 138 183 223 259 315
#     4  10  22  42  64  80 107 155 198 230 277 344
#     4   9  18  31  50  75 112 148 171 211 276 325
#     4  11  23  37  58  89 118 144 181 239 296 333
#     4  10  21  37  55  78 109 141 175 225 283 326
#     4   8  16  32  50  76 112 145 176 215 262 320
#
# _framework density 21.163867
#
# number of rings (size 3 to 8) (size 9 to 14) (size 15 to 20)
#    0.000    2.600    1.000    1.500    4.200    1.600 
#    0.000    2.000    0.000    2.400    0.000    0.000 
#    0.000    0.000    0.000    0.000    0.000    0.000 
#
# Total GULP energy -223192.739824 kJ/mol
# GULP energy per Si atom -5579.818496 kJ/mol
# Density = 2.111570 g / cm^3
# Si number density = 21.163867 Si / 1000 Ang^3
#
#
#
# Elastic Constant Matrix: (Units=GPa)
#
#
# Indices 1 2 3 4 5 6 
#
# 1 73.1041 -4.9293 28.8693 0.0000 0.0000 0.0000
# 2 -4.9293 35.9927 -6.2685 0.0000 0.0000 0.0000
# 3 28.8693 -6.2685 105.6020 0.0000 0.0000 0.0000
# 4 0.0000 0.0000 0.0000 21.3594 0.0000 0.0000
# 5 0.0000 0.0000 0.0000 0.0000 34.6557 0.0000
# 6 0.0000 0.0000 0.0000 0.0000 0.0000 3.8141
#
#
#
# Elastic Compliance Matrix: (Units=1/GPa)
#
#
# Indices 1 2 3 4 5 6 
#
# 1 0.015403 0.001391 -0.004128 0.000000 0.000000 0.000000
# 2 0.001391 0.028199 0.001294 0.000000 0.000000 0.000000
# 3 -0.004128 0.001294 0.010675 0.000000 0.000000 0.000000
# 4 0.000000 0.000000 0.000000 0.046818 0.000000 0.000000
# 5 0.000000 0.000000 0.000000 0.000000 0.028855 0.000000
# 6 0.000000 0.000000 0.000000 0.000000 0.000000 0.262185
#
#
# Mechanical properties :
#
#
# Convention : Reuss Voigt Hill
#
# Bulk Modulus (GPa) = 19.45936 27.78241 23.62088
# Shear Modulus (GPa) = 12.13140 25.10099 18.61619
#
# Velocity S-wave (km/s) = 2.39678 3.44762 2.96906
# Velocity P-wave (km/s) = 4.10780 5.38552 4.78946
#
# Compressibility (1/GPa) = 0.05138916
#
# Stress axis : x y z
#
# Youngs Moduli (GPa) = 64.92153 35.46201 93.67748
#
# Poissons Ratio (x) = -0.04931 0.38674
# Poissons Ratio (y) = -0.09027 -0.12120
# Poissons Ratio (z) = 0.26802 -0.04588
#
# Static dielectric constant tensor:
#      x y z
#    x 1.758690 0.000000 0.000000 
#    y 0.000000 1.786250 0.000000 
#    z 0.000000 0.000000 1.758310 
# 
# From -- ./inp_files/23804.got.cif
#   From: 2010.05.17/outbox.cif.g08.bks.cpg/sg51_12_cif.got.tgz:23804.got - 2010.06.03 11:52:47.
