data_PCOD9405801
_publ_section_title
;
Structure prediction by ZEFSAII (Michael W. Deem and Ramdas Pophale) SiO2 
 PCOD9405801
Probable space group: P M M A
;
_chemical_formula_sum "Si O2"
_cell_formula_units_Z 56
_cell_length_a 13.887021
_cell_length_b 15.942144
_cell_length_c 11.714335
_cell_angle_alpha 90.000000
_cell_angle_beta 90.000000
_cell_angle_gamma 90.000000
_cell_volume 2593.423605
_symmetry_space_group_name_H-M "P M M A"
_symmetry_group_IT_number 51
_symmetry_cell_setting 'orthorhombic'
loop_
_space_group_symop_operation_xyz
x,y,z
1/2-x,-y,z
1/2+x,-y,-z
-x,y,-z
-x,-y,-z
1/2+x,y,-z
1/2-x,y,z
x,-y,z
loop_
_atom_site_type_symbol
_atom_site_label
_atom_site_fract_x
_atom_site_fract_y
_atom_site_fract_z
Si Si1 0.862859 0.091763 0.232026
Si Si2 0.859010 0.751487 0.082932
Si Si3 0.568642 0.592486 0.668378
Si Si4 0.566895 0.258224 0.829166
Si Si5 0.355632 0.628101 0.582677
Si Si6 0.102387 0.815108 0.542131
Si Si7 0.639324 0.098198 0.696487
O O1 0.750000 0.088208 0.263105
O O2 0.866752 0.152267 0.123980
O O3 0.908512 0.126620 0.347968
O O4 0.898587 0.000000 0.203579
O O5 0.750000 0.722582 0.113231
O O6 0.954804 0.717916 0.145864
O O7 0.878052 0.741751 0.949202
O O8 0.587450 0.500000 0.717040
O O9 0.603137 0.670077 0.744383
O O10 0.452951 0.601394 0.647862
O O11 0.621735 0.600162 0.546853
O O12 0.581733 0.166717 0.771920
O O13 0.250000 0.597199 0.620165
O O14 0.348974 0.729493 0.581305
O O15 0.140092 0.867571 0.434353
O O16 0.000000 0.782804 0.500000
O O17 0.750000 0.101025 0.737453
O O18 0.608887 0.000000 0.699144
#
# Coordination Sequence:
#
# PCOD9405801 Si02
#       7
#     8   8   8   8   8   8   8
#     4  10  21  36  55  84 122 167 219 269 316 371
#     4  10  23  42  65  89 118 164 222 275 326 385
#     4  11  24  42  64  97 132 165 215 266 321 392
#     4  11  23  43  67  91 125 170 214 270 334 385
#     4  11  21  38  63  93 136 177 210 252 310 382
#     4  12  21  34  56  90 132 175 215 261 317 380
#     4  11  23  38  60  93 132 174 218 266 322 389
#
# _framework density 21.593077999999998
#
# number of rings (size 3 to 8) (size 9 to 14) (size 15 to 20)
#    0.000    1.143    2.857    4.714    0.000    8.000 
#    0.000    4.286    0.000    0.857    0.000    0.000 
#    0.000    0.000    0.000    0.000    0.000    0.000 
#
# Total GULP energy -312618.628311 kJ/mol
# GULP energy per Si atom -5582.475506 kJ/mol
# Density = 2.154393 g / cm^3
# Si number density = 21.593078 Si / 1000 Ang^3
#
#
#
# Elastic Constant Matrix: (Units=GPa)
#
#
# Indices 1 2 3 4 5 6 
#
# 1 78.5038 -19.2782 -1.9519 0.0000 0.0000 0.0000
# 2 -19.2782 92.8818 27.7857 0.0000 0.0000 0.0000
# 3 -1.9519 27.7857 83.3523 0.0000 0.0000 0.0000
# 4 0.0000 0.0000 0.0000 15.6214 0.0000 0.0000
# 5 0.0000 0.0000 0.0000 0.0000 9.1801 0.0000
# 6 0.0000 0.0000 0.0000 0.0000 0.0000 2.9919
#
#
#
# Elastic Compliance Matrix: (Units=1/GPa)
#
#
# Indices 1 2 3 4 5 6 
#
# 1 0.013457 0.002998 -0.000684 0.000000 0.000000 0.000000
# 2 0.002998 0.012627 -0.004139 0.000000 0.000000 0.000000
# 3 -0.000684 -0.004139 0.013361 0.000000 0.000000 0.000000
# 4 0.000000 0.000000 0.000000 0.064015 0.000000 0.000000
# 5 0.000000 0.000000 0.000000 0.000000 0.108932 0.000000
# 6 0.000000 0.000000 0.000000 0.000000 0.000000 0.334238
#
#
# Mechanical properties :
#
#
# Convention : Reuss Voigt Hill
#
# Bulk Modulus (GPa) = 27.93722 29.76100 28.84911
# Shear Modulus (GPa) = 8.89345 22.10415 15.49880
#
# Velocity S-wave (km/s) = 2.03165 3.20295 2.68202
# Velocity P-wave (km/s) = 4.29763 5.24320 4.79378
#
# Compressibility (1/GPa) = 0.03579455
#
# Stress axis : x y z
#
# Youngs Moduli (GPa) = 74.30849 79.19677 74.84476
#
# Poissons Ratio (x) = -0.23742 0.05121
# Poissons Ratio (y) = -0.22277 0.30978
# Poissons Ratio (z) = 0.05084 0.32779
#
# Static dielectric constant tensor:
#      x y z
#    x 2.139800 0.000000 0.000000 
#    y 0.000000 1.787650 0.000000 
#    z 0.000000 0.000000 1.737460 
# 
# From -- ./inp_files/16654.got.cif
#   From: 2010.05.17/outbox.cif.g08.bks.cpg/sg51_9_cif.got.tgz:16654.got - 2010.06.03 11:52:47.
