data_PCOD9405223
_publ_section_title
;
Structure prediction by ZEFSAII (Michael W. Deem and Ramdas Pophale) SiO2 
 PCOD9405223
Probable space group: P M M A
;
_chemical_formula_sum "Si O2"
_cell_formula_units_Z 24
_cell_length_a 24.123894
_cell_length_b 5.487045
_cell_length_c 7.159903
_cell_angle_alpha 90.000000
_cell_angle_beta 90.000000
_cell_angle_gamma 90.000000
_cell_volume 947.748427
_symmetry_space_group_name_H-M "P M M A"
_symmetry_group_IT_number 51
_symmetry_cell_setting 'orthorhombic'
loop_
_space_group_symop_operation_xyz
x,y,z
1/2-x,-y,z
1/2+x,-y,-z
-x,y,-z
-x,-y,-z
1/2+x,y,-z
1/2-x,y,z
x,-y,z
loop_
_atom_site_type_symbol
_atom_site_label
_atom_site_fract_x
_atom_site_fract_y
_atom_site_fract_z
Si Si1 0.155162 0.000000 0.161105
Si Si2 0.688140 0.000000 0.428100
Si Si3 0.532106 0.500000 0.209499
Si Si4 0.872576 0.500000 0.473298
Si Si5 0.134267 0.500000 0.074002
Si Si6 0.475045 0.000000 0.288801
O O1 0.191542 0.000000 0.345243
O O2 0.163644 0.242880 0.042818
O O3 0.090962 0.000000 0.242804
O O4 0.655557 0.746671 0.395688
O O5 0.750000 0.000000 0.349892
O O6 0.564727 0.500000 0.405747
O O7 0.498670 0.249412 0.203962
O O8 0.579640 0.500000 0.051894
O O9 0.871733 0.500000 0.698399
O O10 0.500000 0.000000 0.500000
#
# Coordination Sequence:
#
# PCOD9405223 Si02
#       6
#     4   4   4   4   4   4
#     4  10  21  37  56  85 120 147 194 245 275 341
#     4  10  20  38  65  86 109 153 194 240 301 339
#     4  12  24  38  62  86 120 163 190 227 293 346
#     4  10  21  40  61  88 121 146 194 246 278 346
#     4  10  21  38  58  83 116 153 189 232 281 334
#     4  12  23  37  57  87 121 159 196 231 283 346
#
# _framework density 25.323177000000001
#
# number of rings (size 3 to 8) (size 9 to 14) (size 15 to 20)
#    0.000    1.333    0.000    8.000    0.000    4.000 
#    0.000    0.000    0.000   24.000    0.000    0.000 
#    0.000    0.000    0.000    0.000    0.000    0.000 
#
# Total GULP energy -134326.267550 kJ/mol
# GULP energy per Si atom -5596.927815 kJ/mol
# Density = 2.526554 g / cm^3
# Si number density = 25.323177 Si / 1000 Ang^3
#
#
#
# Elastic Constant Matrix: (Units=GPa)
#
#
# Indices 1 2 3 4 5 6 
#
# 1 94.8263 45.0758 -15.3986 0.0000 0.0000 0.0000
# 2 45.0758 274.8178 -0.0277 0.0000 0.0000 0.0000
# 3 -15.3986 -0.0277 100.4680 0.0000 0.0000 0.0000
# 4 0.0000 0.0000 0.0000 -11.3108 0.0000 0.0000
# 5 0.0000 0.0000 0.0000 0.0000 18.7703 0.0000
# 6 0.0000 0.0000 0.0000 0.0000 0.0000 5.7035
#
#
#
# Elastic Compliance Matrix: (Units=1/GPa)
#
#
# Indices 1 2 3 4 5 6 
#
# 1 0.011754 -0.001928 0.001801 0.000000 0.000000 0.000000
# 2 -0.001928 0.003955 -0.000294 0.000000 0.000000 0.000000
# 3 0.001801 -0.000294 0.010229 0.000000 0.000000 0.000000
# 4 0.000000 0.000000 0.000000 -0.088411 0.000000 0.000000
# 5 0.000000 0.000000 0.000000 0.000000 0.053276 0.000000
# 6 0.000000 0.000000 0.000000 0.000000 0.000000 0.175330
#
#
# Mechanical properties :
#
#
# Convention : Reuss Voigt Hill
#
# Bulk Modulus (GPa) = 39.84613 58.82347 49.33480
# Shear Modulus (GPa) = 28.51585 31.99677 30.25631
#
# Velocity S-wave (km/s) = 3.35935 3.55848 3.46035
# Velocity P-wave (km/s) = 5.55123 6.33745 5.95732
#
# Compressibility (1/GPa) = 0.02509654
#
# Stress axis : x y z
#
# Youngs Moduli (GPa) = 85.07424 252.84818 97.75758
#
# Poissons Ratio (x) = 0.48744 -0.17607
# Poissons Ratio (y) = 0.16401 0.02878
# Poissons Ratio (z) = -0.15322 0.07443
#
# Static dielectric constant tensor:
#      x y z
#    x 1.971890 0.000000 0.000000 
#    y 0.000000 2.051070 0.000000 
#    z 0.000000 0.000000 2.036570 
# 
# From -- ./inp_files/11291.got.cif
#   From: 2010.05.17/outbox.cif.g08.bks.cpg/sg51_6_cif.got.tgz:11291.got - 2010.06.03 11:52:47.
