data_PCOD9405868
_publ_section_title
;
Structure prediction by ZEFSAII (Michael W. Deem and Ramdas Pophale) SiO2 
 PCOD9405868
Probable space group: P M M A
;
_chemical_formula_sum "Si O2"
_cell_formula_units_Z 38
_cell_length_a 9.043515
_cell_length_b 12.011790
_cell_length_c 18.538779
_cell_angle_alpha 90.000000
_cell_angle_beta 90.000000
_cell_angle_gamma 90.000000
_cell_volume 2013.845373
_symmetry_space_group_name_H-M "P M M A"
_symmetry_group_IT_number 51
_symmetry_cell_setting 'orthorhombic'
loop_
_space_group_symop_operation_xyz
x,y,z
1/2-x,-y,z
1/2+x,-y,-z
-x,y,-z
-x,-y,-z
1/2+x,y,-z
1/2-x,y,z
x,-y,z
loop_
_atom_site_type_symbol
_atom_site_label
_atom_site_fract_x
_atom_site_fract_y
_atom_site_fract_z
Si Si1 0.920062 0.686974 0.221094
Si Si2 0.075274 0.366005 0.076720
Si Si3 0.250000 0.748601 0.549473
Si Si4 0.750000 0.877369 0.595299
Si Si5 0.068872 0.500000 0.314560
Si Si6 0.555369 0.129011 0.335502
Si Si7 0.250000 0.500000 0.595573
O O1 0.750000 0.642123 0.221487
O O2 0.912377 0.803342 0.263415
O O3 0.984902 0.691245 0.141096
O O4 0.031744 0.607889 0.265951
O O5 0.250000 0.338677 0.077251
O O6 0.062928 0.500000 0.088035
O O7 0.000000 0.341079 0.000000
O O8 0.250000 0.788996 0.468188
O O9 0.118691 0.802739 0.596137
O O10 0.250000 0.616343 0.553913
O O11 0.614743 0.869302 0.647954
O O12 0.750000 0.000000 0.558856
O O13 0.250000 0.500000 0.335061
O O14 0.917140 0.500000 0.366217
O O15 0.600490 0.000000 0.334713
#
# Coordination Sequence:
#
# PCOD9405868 Si02
#       7
#     8   8   4   4   4   8   2
#     4  12  22  37  62  91 128 167 215 271 317 382
#     4  10  21  36  58  91 128 170 212 255 315 378
#     4  12  22  42  66  86 133 159 211 266 329 392
#     4  10  24  42  64  92 120 161 219 275 323 379
#     4  12  22  38  60  89 128 176 212 261 329 390
#     4  11  23  40  64  91 120 165 217 268 323 379
#     4  12  24  44  60 100 128 170 214 262 330 406
#
# _framework density 18.869371999999998
#
# number of rings (size 3 to 8) (size 9 to 14) (size 15 to 20)
#    0.000    0.842    5.263    2.842    2.947    2.526 
#    0.000    3.158    0.000    0.632    0.000    0.000 
#    0.000    0.000    0.000    0.000    0.000    0.000 
#
# Total GULP energy -211747.999918 kJ/mol
# GULP energy per Si atom -5572.315787 kJ/mol
# Density = 1.882642 g / cm^3
# Si number density = 18.869372 Si / 1000 Ang^3
#
#
#
# Elastic Constant Matrix: (Units=GPa)
#
#
# Indices 1 2 3 4 5 6 
#
# 1 177.6296 33.2670 46.5028 0.0000 0.0000 0.0000
# 2 33.2670 112.2351 46.7072 0.0000 0.0000 0.0000
# 3 46.5028 46.7072 101.3015 0.0000 0.0000 0.0000
# 4 0.0000 0.0000 0.0000 25.0783 0.0000 0.0000
# 5 0.0000 0.0000 0.0000 0.0000 57.2313 0.0000
# 6 0.0000 0.0000 0.0000 0.0000 0.0000 16.4963
#
#
#
# Elastic Compliance Matrix: (Units=1/GPa)
#
#
# Indices 1 2 3 4 5 6 
#
# 1 0.006462 -0.000843 -0.002578 0.000000 0.000000 0.000000
# 2 -0.000843 0.011135 -0.004747 0.000000 0.000000 0.000000
# 3 -0.002578 -0.004747 0.013244 0.000000 0.000000 0.000000
# 4 0.000000 0.000000 0.000000 0.039875 0.000000 0.000000
# 5 0.000000 0.000000 0.000000 0.000000 0.017473 0.000000
# 6 0.000000 0.000000 0.000000 0.000000 0.000000 0.060619
#
#
# Mechanical properties :
#
#
# Convention : Reuss Voigt Hill
#
# Bulk Modulus (GPa) = 68.93955 71.56891 70.25423
# Shear Modulus (GPa) = 29.41516 37.40714 33.41115
#
# Velocity S-wave (km/s) = 3.95255 4.45727 4.21248
# Velocity P-wave (km/s) = 7.57923 8.03123 7.80850
#
# Compressibility (1/GPa) = 0.01450546
#
# Stress axis : x y z
#
# Youngs Moduli (GPa) = 154.74040 89.80493 75.50664
#
# Poissons Ratio (x) = 0.07567 0.19466
# Poissons Ratio (y) = 0.13039 0.35846
# Poissons Ratio (z) = 0.39894 0.42633
#
# Static dielectric constant tensor:
#      x y z
#    x 1.681210 0.000000 0.000000 
#    y 0.000000 1.677100 0.000000 
#    z 0.000000 0.000000 1.626420 
# 
# From -- ./inp_files/27105.got.cif
#   From: 2010.05.17/outbox.cif.g08.bks.cpg/sg51_14_cif.got.tgz:27105.got - 2010.06.03 11:52:47.
