data_PCOD9405739
_publ_section_title
;
Structure prediction by ZEFSAII (Michael W. Deem and Ramdas Pophale) SiO2 
 PCOD9405739
Probable space group: P M M A
;
_chemical_formula_sum "Si O2"
_cell_formula_units_Z 64
_cell_length_a 9.109897
_cell_length_b 24.014131
_cell_length_c 15.398758
_cell_angle_alpha 90.000000
_cell_angle_beta 90.000000
_cell_angle_gamma 90.000000
_cell_volume 3368.728696
_symmetry_space_group_name_H-M "P M M A"
_symmetry_group_IT_number 51
_symmetry_cell_setting 'orthorhombic'
loop_
_space_group_symop_operation_xyz
x,y,z
1/2-x,-y,z
1/2+x,-y,-z
-x,y,-z
-x,-y,-z
1/2+x,y,-z
1/2-x,y,z
x,-y,z
loop_
_atom_site_type_symbol
_atom_site_label
_atom_site_fract_x
_atom_site_fract_y
_atom_site_fract_z
Si Si1 0.425469 0.063267 0.238873
Si Si2 0.928069 0.562746 0.278942
Si Si3 0.573105 0.324991 0.721334
Si Si4 0.089211 0.565945 0.919622
Si Si5 0.575418 0.239305 0.407766
Si Si6 0.925285 0.279273 0.907616
Si Si7 0.077009 0.106596 0.590874
Si Si8 0.425880 0.149797 0.091766
O O1 0.250000 0.070055 0.251345
O O2 0.505178 0.074728 0.329216
O O3 0.474094 0.108012 0.167178
O O4 0.452287 0.000000 0.209594
O O5 0.750000 0.567527 0.283513
O O6 0.965408 0.500000 0.310330
O O7 0.972732 0.565892 0.177111
O O8 0.007442 0.617039 0.315605
O O9 0.750000 0.324827 0.716284
O O10 0.504194 0.274966 0.666035
O O11 0.531081 0.314898 0.822955
O O12 0.250000 0.592143 0.917465
O O13 0.106289 0.500000 0.937720
O O14 0.000000 0.589142 0.000000
O O15 0.500000 0.252750 0.500000
O O16 0.750000 0.250928 0.409946
O O17 0.556099 0.173056 0.393871
O O18 0.750000 0.285037 0.917795
O O19 0.958327 0.214318 0.886615
O O20 0.000000 0.290782 0.000000
O O21 0.250000 0.095706 0.585172
O O22 0.000000 0.092516 0.500000
O O23 0.250000 0.145003 0.082812
O O24 0.500000 0.136768 0.000000
#
# Coordination Sequence:
#
# PCOD9405739 Si02
#       8
#     8   8   8   8   8   8   8   8
#     4  10  21  36  54  78 111 151 191 231 276 326
#     4   9  19  35  51  69  99 140 181 219 264 319
#     4  11  22  35  55  83 112 143 180 224 273 324
#     4   8  14  25  41  60  84 119 164 211 255 298
#     4  10  21  38  61  88 114 140 174 219 273 330
#     4   9  19  34  52  76 107 143 182 227 277 328
#     4  10  21  37  59  85 112 144 180 221 271 327
#     4   9  18  34  54  75 103 141 185 232 281 328
#
# _framework density 18.998265
#
# number of rings (size 3 to 8) (size 9 to 14) (size 15 to 20)
#    0.000    2.500    0.000    2.625    0.000    6.000 
#    0.000    6.250    0.000    0.375    0.000    0.000 
#    0.000    0.000    0.000    0.000    0.000    0.000 
#
# Total GULP energy -356953.790113 kJ/mol
# GULP energy per Si atom -5577.402971 kJ/mol
# Density = 1.895502 g / cm^3
# Si number density = 18.998265 Si / 1000 Ang^3
#
#
#
# Elastic Constant Matrix: (Units=GPa)
#
#
# Indices 1 2 3 4 5 6 
#
# 1 30.3057 38.3275 20.4513 0.0000 0.0000 0.0000
# 2 38.3275 93.6810 40.8779 0.0000 0.0000 0.0000
# 3 20.4513 40.8779 56.8921 0.0000 0.0000 0.0000
# 4 0.0000 0.0000 0.0000 -1.0246 0.0000 0.0000
# 5 0.0000 0.0000 0.0000 0.0000 32.7255 0.0000
# 6 0.0000 0.0000 0.0000 0.0000 0.0000 10.1713
#
#
#
# Elastic Compliance Matrix: (Units=1/GPa)
#
#
# Indices 1 2 3 4 5 6 
#
# 1 0.070081 -0.025754 -0.006688 0.000000 0.000000 0.000000
# 2 -0.025754 0.025014 -0.008715 0.000000 0.000000 0.000000
# 3 -0.006688 -0.008715 0.026243 0.000000 0.000000 0.000000
# 4 0.000000 0.000000 0.000000 -0.976036 0.000000 0.000000
# 5 0.000000 0.000000 0.000000 0.000000 0.030557 0.000000
# 6 0.000000 0.000000 0.000000 0.000000 0.000000 0.098316
#
#
# Mechanical properties :
#
#
# Convention : Reuss Voigt Hill
#
# Bulk Modulus (GPa) = 25.62481 42.24358 33.93420
# Shear Modulus (GPa) = -7.93019 13.78925 2.92953
#
# Velocity S-wave (km/s) = -2.04529 2.69702 1.24312
# Velocity P-wave (km/s) = 2.81773 5.65529 4.46777
#
# Compressibility (1/GPa) = 0.03902468
#
# Stress axis : x y z
#
# Youngs Moduli (GPa) = 14.26919 39.97763 38.10508
#
# Poissons Ratio (x) = 1.02958 0.25484
# Poissons Ratio (y) = 0.36749 0.33209
# Poissons Ratio (z) = 0.09543 0.34841
#
# Static dielectric constant tensor:
#      x y z
#    x 1.666220 0.000000 0.000000 
#    y 0.000000 1.686710 0.000000 
#    z 0.000000 0.000000 1.651280 
# 
# From -- ./inp_files/22236.got.cif
#   From: 2010.05.17/outbox.cif.g08.bks.cpg/sg51_12_cif.got.tgz:22236.got - 2010.06.03 11:52:47.
