data_PCOD9405433
_publ_section_title
;
Structure prediction by ZEFSAII (Michael W. Deem and Ramdas Pophale) SiO2 
 PCOD9405433
Probable space group: P M M A
;
_chemical_formula_sum "Si O2"
_cell_formula_units_Z 48
_cell_length_a 8.152564
_cell_length_b 32.632258
_cell_length_c 9.275310
_cell_angle_alpha 90.000000
_cell_angle_beta 90.000000
_cell_angle_gamma 90.000000
_cell_volume 2467.571675
_symmetry_space_group_name_H-M "P M M A"
_symmetry_group_IT_number 51
_symmetry_cell_setting 'orthorhombic'
loop_
_space_group_symop_operation_xyz
x,y,z
1/2-x,-y,z
1/2+x,-y,-z
-x,y,-z
-x,-y,-z
1/2+x,y,-z
1/2-x,y,z
x,-y,z
loop_
_atom_site_type_symbol
_atom_site_label
_atom_site_fract_x
_atom_site_fract_y
_atom_site_fract_z
Si Si1 0.945511 0.419411 0.835327
Si Si2 0.055792 0.500000 0.665175
Si Si3 0.948483 0.161228 0.667037
Si Si4 0.551298 0.339675 0.667119
Si Si5 0.051712 0.080859 0.165347
Si Si6 0.052304 0.749575 0.332523
Si Si7 0.448124 0.000000 0.334388
O O1 0.750000 0.417108 0.833077
O O2 0.010550 0.378020 0.759397
O O3 0.995560 0.459404 0.746281
O O4 0.000000 0.422590 0.000000
O O5 0.250000 0.500000 0.668905
O O6 0.000000 0.500000 0.500000
O O7 0.750000 0.161129 0.670390
O O8 0.007861 0.122705 0.759331
O O9 0.005245 0.206075 0.723617
O O10 0.000000 0.156941 0.500000
O O11 0.500000 0.343979 0.500000
O O12 0.750000 0.339860 0.670385
O O13 0.495006 0.294787 0.723610
O O14 0.250000 0.081077 0.171304
O O15 0.993693 0.040929 0.252904
O O16 0.000000 0.078633 0.000000
O O17 0.250000 0.749588 0.324007
O O18 0.000000 0.749567 0.500000
O O19 0.500000 0.000000 0.500000
O O20 0.250000 0.000000 0.329125
#
# Coordination Sequence:
#
# PCOD9405433 Si02
#       7
#     8   4   8   8   8   8   4
#     4  11  23  39  57  80 110 144 178 215 261 311
#     4  12  25  42  63  86 110 138 174 216 259 308
#     4   9  17  30  50  74 100 130 169 212 255 302
#     4   9  18  32  53  78 104 135 173 214 258 305
#     4  10  21  35  50  72 101 134 168 206 251 303
#     4   8  14  27  47  72 100 130 165 210 256 299
#     4  10  21  36  54  76 100 126 165 210 254 302
#
# _framework density 19.452323
#
# number of rings (size 3 to 8) (size 9 to 14) (size 15 to 20)
#    0.000    2.333    0.000    2.750    0.000    4.000 
#    0.000    0.833    0.000    0.000    0.000    0.000 
#    0.000    0.000    0.000    0.000    0.000    0.000 
#
# Total GULP energy -267750.058409 kJ/mol
# GULP energy per Si atom -5578.126217 kJ/mol
# Density = 1.940805 g / cm^3
# Si number density = 19.452323 Si / 1000 Ang^3
#
#
#
# Elastic Constant Matrix: (Units=GPa)
#
#
# Indices 1 2 3 4 5 6 
#
# 1 20.2718 21.5404 7.7428 0.0000 0.0000 0.0000
# 2 21.5404 254.0232 114.0228 0.0000 0.0000 0.0000
# 3 7.7428 114.0228 130.1126 0.0000 0.0000 0.0000
# 4 0.0000 0.0000 0.0000 -7.9019 0.0000 0.0000
# 5 0.0000 0.0000 0.0000 0.0000 28.8571 0.0000
# 6 0.0000 0.0000 0.0000 0.0000 0.0000 0.5187
#
#
#
# Elastic Compliance Matrix: (Units=1/GPa)
#
#
# Indices 1 2 3 4 5 6 
#
# 1 0.054353 -0.005204 0.001326 0.000000 0.000000 0.000000
# 2 -0.005204 0.006988 -0.005814 0.000000 0.000000 0.000000
# 3 0.001326 -0.005814 0.012702 0.000000 0.000000 0.000000
# 4 0.000000 0.000000 0.000000 -0.126551 0.000000 0.000000
# 5 0.000000 0.000000 0.000000 0.000000 0.034654 0.000000
# 6 0.000000 0.000000 0.000000 0.000000 0.000000 1.928006
#
#
# Mechanical properties :
#
#
# Convention : Reuss Voigt Hill
#
# Bulk Modulus (GPa) = 18.29541 76.77995 47.53768
# Shear Modulus (GPa) = 2.56706 21.70154 12.13430
#
# Velocity S-wave (km/s) = 1.15001 3.34372 2.50030
# Velocity P-wave (km/s) = 3.34500 7.37996 5.72944
#
# Compressibility (1/GPa) = 0.05465852
#
# Stress axis : x y z
#
# Youngs Moduli (GPa) = 18.39825 143.11117 78.73036
#
# Poissons Ratio (x) = 0.74479 -0.10442
# Poissons Ratio (y) = 0.09575 0.45772
# Poissons Ratio (z) = -0.02440 0.83202
#
# Static dielectric constant tensor:
#      x y z
#    x 1.669920 0.000000 0.000000 
#    y 0.000000 1.770520 0.000000 
#    z 0.000000 0.000000 1.610010 
# 
# From -- ./inp_files/6153.got.cif
#   From: 2010.05.17/outbox.cif.g08.bks.cpg/sg51_4_cif.got.tgz:6153.got - 2010.06.03 11:52:47.
