data_PCOD9405633
_publ_section_title
;
Structure prediction by ZEFSAII (Michael W. Deem and Ramdas Pophale) SiO2 
 PCOD9405633
Probable space group: P M M A
;
_chemical_formula_sum "Si O2"
_cell_formula_units_Z 32
_cell_length_a 14.988706
_cell_length_b 14.345743
_cell_length_c 6.946966
_cell_angle_alpha 90.000000
_cell_angle_beta 90.000000
_cell_angle_gamma 90.000000
_cell_volume 1493.765280
_symmetry_space_group_name_H-M "P M M A"
_symmetry_group_IT_number 51
_symmetry_cell_setting 'orthorhombic'
loop_
_space_group_symop_operation_xyz
x,y,z
1/2-x,-y,z
1/2+x,-y,-z
-x,y,-z
-x,-y,-z
1/2+x,y,-z
1/2-x,y,z
x,-y,z
loop_
_atom_site_type_symbol
_atom_site_label
_atom_site_fract_x
_atom_site_fract_y
_atom_site_fract_z
Si Si1 0.143754 0.103200 0.443464
Si Si2 0.517136 0.396854 0.768730
Si Si3 0.903659 0.778895 0.904655
Si Si4 0.148948 0.278936 0.686641
O O1 0.250000 0.099810 0.474694
O O2 0.127554 0.136343 0.225380
O O3 0.111991 0.186160 0.581841
O O4 0.107516 0.000000 0.481259
O O5 0.543914 0.500000 0.705212
O O6 0.586180 0.311217 0.763863
O O7 0.424665 0.360785 0.675263
O O8 0.500000 0.402857 0.000000
O O9 0.846554 0.748741 0.087647
O O10 0.000000 0.798606 0.000000
O O11 0.250000 0.301472 0.620560
#
# Coordination Sequence:
#
# PCOD9405633 Si02
#       4
#     8   8   8   8
#     4  10  21  36  53  74 102 135 171 213 259 306
#     4   8  16  32  52  75 103 134 167 204 251 302
#     4   9  19  34  53  77 104 134 169 211 256 304
#     4   9  18  33  53  76 102 134 172 211 252 302
#
# _framework density 21.422374999999999
#
# number of rings (size 3 to 8) (size 9 to 14) (size 15 to 20)
#    0.000    3.500    0.000    0.750    0.000    6.000 
#    0.000   13.750    0.000    4.500    0.000    0.000 
#    0.000    0.000    0.000    0.000    0.000    0.000 
#
# Total GULP energy -178333.617230 kJ/mol
# GULP energy per Si atom -5572.925538 kJ/mol
# Density = 2.137362 g / cm^3
# Si number density = 21.422375 Si / 1000 Ang^3
#
#
#
# Elastic Constant Matrix: (Units=GPa)
#
#
# Indices 1 2 3 4 5 6 
#
# 1 41.6276 15.4383 -9.2529 0.0000 0.0000 0.0000
# 2 15.4383 142.0464 28.7791 0.0000 0.0000 0.0000
# 3 -9.2529 28.7791 62.0100 0.0000 0.0000 0.0000
# 4 0.0000 0.0000 0.0000 -6.4656 0.0000 0.0000
# 5 0.0000 0.0000 0.0000 0.0000 22.7950 0.0000
# 6 0.0000 0.0000 0.0000 0.0000 0.0000 15.0161
#
#
#
# Elastic Compliance Matrix: (Units=1/GPa)
#
#
# Indices 1 2 3 4 5 6 
#
# 1 0.026866 -0.004120 0.005921 0.000000 0.000000 0.000000
# 2 -0.004120 0.008402 -0.004514 0.000000 0.000000 0.000000
# 3 0.005921 -0.004514 0.019105 0.000000 0.000000 0.000000
# 4 0.000000 0.000000 0.000000 -0.154665 0.000000 0.000000
# 5 0.000000 0.000000 0.000000 0.000000 0.043869 0.000000
# 6 0.000000 0.000000 0.000000 0.000000 0.000000 0.066595
#
#
# Mechanical properties :
#
#
# Convention : Reuss Voigt Hill
#
# Bulk Modulus (GPa) = 20.42993 35.06809 27.74901
# Shear Modulus (GPa) = 156.66661 20.31707 88.49184
#
# Velocity S-wave (km/s) = 8.56102 3.08296 6.43411
# Velocity P-wave (km/s) = 10.35755 5.39242 8.25703
#
# Compressibility (1/GPa) = 0.04894779
#
# Stress axis : x y z
#
# Youngs Moduli (GPa) = 37.22116 119.01520 52.34229
#
# Poissons Ratio (x) = 0.49029 -0.30991
# Poissons Ratio (y) = 0.15333 0.23629
# Poissons Ratio (z) = -0.22038 0.53726
#
# Static dielectric constant tensor:
#      x y z
#    x 1.799990 0.000000 0.000000 
#    y 0.000000 1.799620 0.000000 
#    z 0.000000 0.000000 1.832130 
# 
# From -- ./inp_files/7474.got.cif
#   From: 2010.05.17/outbox.cif.g08.bks.cpg/sg51_4_cif.got.tgz:7474.got - 2010.06.03 11:52:47.
