data_PCOD9405775
_publ_section_title
;
Structure prediction by ZEFSAII (Michael W. Deem and Ramdas Pophale) SiO2 
 PCOD9405775
Probable space group: P M M A
;
_chemical_formula_sum "Si O2"
_cell_formula_units_Z 44
_cell_length_a 9.237850
_cell_length_b 15.536445
_cell_length_c 17.787107
_cell_angle_alpha 90.000000
_cell_angle_beta 90.000000
_cell_angle_gamma 90.000000
_cell_volume 2552.865156
_symmetry_space_group_name_H-M "P M M A"
_symmetry_group_IT_number 51
_symmetry_cell_setting 'orthorhombic'
loop_
_space_group_symop_operation_xyz
x,y,z
1/2-x,-y,z
1/2+x,-y,-z
-x,y,-z
-x,-y,-z
1/2+x,y,-z
1/2-x,y,z
x,-y,z
loop_
_atom_site_type_symbol
_atom_site_label
_atom_site_fract_x
_atom_site_fract_y
_atom_site_fract_z
Si Si1 0.426405 0.595390 0.258213
Si Si2 0.079888 0.000000 0.579417
Si Si3 0.585670 0.840564 0.637863
Si Si4 0.422721 0.901180 0.919419
Si Si5 0.921589 0.347858 0.576045
Si Si6 0.918389 0.227648 0.808340
O O1 0.250000 0.600082 0.259665
O O2 0.469166 0.500000 0.233515
O O3 0.471769 0.610254 0.345138
O O4 0.472103 0.674499 0.205400
O O5 0.000000 0.000000 0.500000
O O6 0.026586 0.915052 0.621899
O O7 0.250000 0.000000 0.569594
O O8 0.750000 0.870447 0.621172
O O9 0.558549 0.754669 0.589301
O O10 0.580815 0.812290 0.724604
O O11 0.250000 0.891306 0.927063
O O12 0.488058 0.831267 0.862889
O O13 0.450982 0.000000 0.893251
O O14 0.500000 0.891885 0.000000
O O15 0.750000 0.364186 0.569047
O O16 0.000000 0.375572 0.500000
O O17 0.750000 0.229092 0.833717
#
# Coordination Sequence:
#
# PCOD9405775 Si02
#       6
#     8   4   8   8   8   8
#     4   8  15  30  51  74 100 132 171 211 254 307
#     4  12  24  34  46  64  89 124 169 216 260 302
#     4   9  19  34  48  66  93 128 168 207 251 303
#     4  10  21  36  55  81 112 141 169 202 244 296
#     4   9  17  29  46  67  93 126 166 210 257 305
#     4   9  18  33  55  79 103 135 170 207 252 299
#
# _framework density 17.235537000000001
#
# number of rings (size 3 to 8) (size 9 to 14) (size 15 to 20)
#    0.000    2.727    0.000    4.091    1.273    4.364 
#    0.000    2.727    0.000    2.182    0.000    0.000 
#    0.000    0.000    0.000    0.000    0.000    0.000 
#
# Total GULP energy -245317.461568 kJ/mol
# GULP energy per Si atom -5575.396854 kJ/mol
# Density = 1.719631 g / cm^3
# Si number density = 17.235537 Si / 1000 Ang^3
#
#
#
# Elastic Constant Matrix: (Units=GPa)
#
#
# Indices 1 2 3 4 5 6 
#
# 1 64.3219 57.4147 29.4352 0.0000 0.0000 0.0000
# 2 57.4147 125.2051 54.4700 0.0000 0.0000 0.0000
# 3 29.4352 54.4700 66.2556 0.0000 0.0000 0.0000
# 4 0.0000 0.0000 0.0000 4.7765 0.0000 0.0000
# 5 0.0000 0.0000 0.0000 0.0000 30.2998 0.0000
# 6 0.0000 0.0000 0.0000 0.0000 0.0000 11.9170
#
#
#
# Elastic Compliance Matrix: (Units=1/GPa)
#
#
# Indices 1 2 3 4 5 6 
#
# 1 0.026648 -0.011006 -0.002791 0.000000 0.000000 0.000000
# 2 -0.011006 0.016979 -0.009070 0.000000 0.000000 0.000000
# 3 -0.002791 -0.009070 0.023789 0.000000 0.000000 0.000000
# 4 0.000000 0.000000 0.000000 0.209359 0.000000 0.000000
# 5 0.000000 0.000000 0.000000 0.000000 0.033003 0.000000
# 6 0.000000 0.000000 0.000000 0.000000 0.000000 0.083914
#
#
# Mechanical properties :
#
#
# Convention : Reuss Voigt Hill
#
# Bulk Modulus (GPa) = 46.11643 59.82474 52.97058
# Shear Modulus (GPa) = 11.19439 17.02952 14.11195
#
# Velocity S-wave (km/s) = 2.55128 3.14673 2.86452
# Velocity P-wave (km/s) = 5.95763 6.92734 6.46071
#
# Compressibility (1/GPa) = 0.02168425
#
# Stress axis : x y z
#
# Youngs Moduli (GPa) = 37.52676 58.89494 42.03574
#
# Poissons Ratio (x) = 0.64817 0.11731
# Poissons Ratio (y) = 0.41300 0.38125
# Poissons Ratio (z) = 0.10473 0.53416
#
# Static dielectric constant tensor:
#      x y z
#    x 1.575080 0.000000 0.000000 
#    y 0.000000 1.605430 0.000000 
#    z 0.000000 0.000000 1.562430 
# 
# From -- ./inp_files/27372.got.cif
#   From: 2010.05.17/outbox.cif.g08.bks.cpg/sg51_14_cif.got.tgz:27372.got - 2010.06.03 11:52:47.
