data_PCOD9405803
_publ_section_title
;
Structure prediction by ZEFSAII (Michael W. Deem and Ramdas Pophale) SiO2 
 PCOD9405803
Probable space group: P M M A
;
_chemical_formula_sum "Si O2"
_cell_formula_units_Z 32
_cell_length_a 19.045269
_cell_length_b 13.875309
_cell_length_c 4.953945
_cell_angle_alpha 90.000000
_cell_angle_beta 90.000000
_cell_angle_gamma 90.000000
_cell_volume 1309.124514
_symmetry_space_group_name_H-M "P M M A"
_symmetry_group_IT_number 51
_symmetry_cell_setting 'orthorhombic'
loop_
_space_group_symop_operation_xyz
x,y,z
1/2-x,-y,z
1/2+x,-y,-z
-x,y,-z
-x,-y,-z
1/2+x,y,-z
1/2-x,y,z
x,-y,z
loop_
_atom_site_type_symbol
_atom_site_label
_atom_site_fract_x
_atom_site_fract_y
_atom_site_fract_z
Si Si1 0.639430 0.111204 0.287760
Si Si2 0.447901 0.111980 0.213810
Si Si3 0.670976 0.684222 0.471345
Si Si4 0.083611 0.387933 0.035808
O O1 0.570761 0.131906 0.477334
O O2 0.680154 0.205577 0.374306
O O3 0.661245 0.000000 0.349080
O O4 0.622993 0.114419 0.970027
O O5 0.468556 0.000000 0.223230
O O6 0.500000 0.162391 0.000000
O O7 0.750000 0.644650 0.516294
O O8 0.626686 0.631554 0.237399
O O9 0.621917 0.675003 0.735111
O O10 0.091199 0.500000 0.114968
O O11 0.000000 0.371261 0.000000
#
# Coordination Sequence:
#
# PCOD9405803 Si02
#       4
#     8   8   8   8
#     4  10  21  36  55  85 129 177 221 265 316 382
#     4   9  17  30  50  78 114 161 217 271 320 370
#     4  12  26  43  69 105 140 179 227 278 337 402
#     4  11  26  49  75 102 134 174 222 281 349 415
#
# _framework density 24.443818
#
# number of rings (size 3 to 8) (size 9 to 14) (size 15 to 20)
#    0.000    1.500    0.000    4.500    0.000   14.500 
#    0.000    0.000    0.000    7.500    0.000    0.000 
#    0.000    0.000    0.000    0.000    0.000    0.000 
#
# Total GULP energy -178428.778751 kJ/mol
# GULP energy per Si atom -5575.899336 kJ/mol
# Density = 2.438818 g / cm^3
# Si number density = 24.443818 Si / 1000 Ang^3
#
#
#
# Elastic Constant Matrix: (Units=GPa)
#
#
# Indices 1 2 3 4 5 6 
#
# 1 134.6305 26.0455 22.5459 0.0000 0.0000 0.0000
# 2 26.0455 140.0538 9.3711 0.0000 0.0000 0.0000
# 3 22.5459 9.3711 162.8391 0.0000 0.0000 0.0000
# 4 0.0000 0.0000 0.0000 35.3061 0.0000 0.0000
# 5 0.0000 0.0000 0.0000 0.0000 -12.5284 0.0000
# 6 0.0000 0.0000 0.0000 0.0000 0.0000 20.7864
#
#
#
# Elastic Compliance Matrix: (Units=1/GPa)
#
#
# Indices 1 2 3 4 5 6 
#
# 1 0.007867 -0.001395 -0.001009 0.000000 0.000000 0.000000
# 2 -0.001395 0.007415 -0.000234 0.000000 0.000000 0.000000
# 3 -0.001009 -0.000234 0.006294 0.000000 0.000000 0.000000
# 4 0.000000 0.000000 0.000000 0.028324 0.000000 0.000000
# 5 0.000000 0.000000 0.000000 0.000000 -0.079819 0.000000
# 6 0.000000 0.000000 0.000000 0.000000 0.000000 0.048108
#
#
# Mechanical properties :
#
#
# Convention : Reuss Voigt Hill
#
# Bulk Modulus (GPa) = 61.34832 61.49428 61.42130
# Shear Modulus (GPa) = 173.01942 34.01689 103.51815
#
# Velocity S-wave (km/s) = 8.42236 3.73451 6.51470
# Velocity P-wave (km/s) = 10.94229 6.61872 9.04271
#
# Compressibility (1/GPa) = 0.01630037
#
# Stress axis : x y z
#
# Youngs Moduli (GPa) = 127.11896 134.85728 158.87761
#
# Poissons Ratio (x) = 0.18819 0.16029
# Poissons Ratio (y) = 0.17739 0.03710
# Poissons Ratio (z) = 0.12825 0.03149
#
# Static dielectric constant tensor:
#      x y z
#    x 2.095330 0.000000 0.000000 
#    y 0.000000 1.938710 0.000000 
#    z 0.000000 0.000000 1.897660 
# 
# From -- ./inp_files/1780.got.cif
#   From: 2010.05.17/outbox.cif.g08.bks.cpg/sg51_1_cif.got.tgz:1780.got - 2010.06.03 11:52:47.
