data_PCOD9405477
_publ_section_title
;
Structure prediction by ZEFSAII (Michael W. Deem and Ramdas Pophale) SiO2 
 PCOD9405477
Probable space group: P M M A
;
_chemical_formula_sum "Si O2"
_cell_formula_units_Z 56
_cell_length_a 8.564025
_cell_length_b 20.990254
_cell_length_c 16.003386
_cell_angle_alpha 90.000000
_cell_angle_beta 90.000000
_cell_angle_gamma 90.000000
_cell_volume 2876.785631
_symmetry_space_group_name_H-M "P M M A"
_symmetry_group_IT_number 51
_symmetry_cell_setting 'orthorhombic'
loop_
_space_group_symop_operation_xyz
x,y,z
1/2-x,-y,z
1/2+x,-y,-z
-x,y,-z
-x,-y,-z
1/2+x,y,-z
1/2-x,y,z
x,-y,z
loop_
_atom_site_type_symbol
_atom_site_label
_atom_site_fract_x
_atom_site_fract_y
_atom_site_fract_z
Si Si1 0.562720 0.425544 0.250082
Si Si2 0.438252 0.931558 0.329683
Si Si3 0.561894 0.656496 0.595773
Si Si4 0.937599 0.202063 0.592987
Si Si5 0.064243 0.795880 0.092468
Si Si6 0.938113 0.344055 0.904036
Si Si7 0.934121 0.931839 0.145323
O O1 0.750000 0.420203 0.249958
O O2 0.519631 0.500000 0.251047
O O3 0.499265 0.391850 0.334222
O O4 0.499097 0.393138 0.165126
O O5 0.250000 0.927894 0.315579
O O6 0.490263 0.864831 0.368614
O O7 0.527358 0.935476 0.242809
O O8 0.465907 0.000000 0.374664
O O9 0.500000 0.647156 0.500000
O O10 0.750000 0.653342 0.592070
O O11 0.515788 0.728264 0.626468
O O12 0.750000 0.200650 0.594662
O O13 0.000000 0.202193 0.500000
O O14 0.250000 0.798355 0.095831
O O15 0.017207 0.727214 0.129957
O O16 0.004975 0.864386 0.120796
O O17 0.000000 0.789766 0.000000
O O18 0.750000 0.346990 0.908323
O O19 0.000000 0.352959 0.000000
O O20 0.750000 0.929478 0.129144
O O21 0.994321 0.000000 0.108881
#
# Coordination Sequence:
#
# PCOD9405477 Si02
#       7
#     8   8   8   8   8   8   8
#     4  11  25  43  64  93 125 159 200 242 294 361
#     4   9  18  33  51  73 106 147 188 233 285 338
#     4  10  21  39  62  89 123 160 202 252 302 357
#     4   9  19  34  53  79 109 143 187 234 284 340
#     4  10  21  37  58  83 111 145 188 234 285 341
#     4  10  22  41  65  93 125 160 200 247 297 354
#     4  10  21  35  51  76 109 146 190 237 286 340
#
# _framework density 19.466170000000002
#
# number of rings (size 3 to 8) (size 9 to 14) (size 15 to 20)
#    0.000    2.143    0.000    2.143    2.000    6.000 
#    0.000    0.000    0.000    0.000    0.000    0.000 
#    0.000    0.000    0.000    0.000    0.000    0.000 
#
# Total GULP energy -311841.547805 kJ/mol
# GULP energy per Si atom -5568.599068 kJ/mol
# Density = 1.942186 g / cm^3
# Si number density = 19.466170 Si / 1000 Ang^3
#
#
#
# Elastic Constant Matrix: (Units=GPa)
#
#
# Indices 1 2 3 4 5 6 
#
# 1 35.6971 57.7744 24.9253 0.0000 0.0000 0.0000
# 2 57.7744 223.4722 87.6988 0.0000 0.0000 0.0000
# 3 24.9253 87.6988 80.4778 0.0000 0.0000 0.0000
# 4 0.0000 0.0000 0.0000 69.0689 0.0000 0.0000
# 5 0.0000 0.0000 0.0000 0.0000 31.9139 0.0000
# 6 0.0000 0.0000 0.0000 0.0000 0.0000 23.6758
#
#
#
# Elastic Compliance Matrix: (Units=1/GPa)
#
#
# Indices 1 2 3 4 5 6 
#
# 1 0.048425 -0.011590 -0.002368 0.000000 0.000000 0.000000
# 2 -0.011590 0.010592 -0.007953 0.000000 0.000000 0.000000
# 3 -0.002368 -0.007953 0.021826 0.000000 0.000000 0.000000
# 4 0.000000 0.000000 0.000000 0.014478 0.000000 0.000000
# 5 0.000000 0.000000 0.000000 0.000000 0.031334 0.000000
# 6 0.000000 0.000000 0.000000 0.000000 0.000000 0.042237
#
#
# Mechanical properties :
#
#
# Convention : Reuss Voigt Hill
#
# Bulk Modulus (GPa) = 27.01187 75.60489 51.30838
# Shear Modulus (GPa) = 22.21676 36.21496 29.21586
#
# Velocity S-wave (km/s) = 3.38198 4.31792 3.87829
# Velocity P-wave (km/s) = 5.39971 7.98641 6.81687
#
# Compressibility (1/GPa) = 0.03702077
#
# Stress axis : x y z
#
# Youngs Moduli (GPa) = 20.65056 94.40840 45.81709
#
# Poissons Ratio (x) = 1.09419 0.10850
# Poissons Ratio (y) = 0.23934 0.36439
# Poissons Ratio (z) = 0.04890 0.75084
#
# Static dielectric constant tensor:
#      x y z
#    x 1.658660 0.000000 0.000000 
#    y 0.000000 1.867260 0.000000 
#    z 0.000000 0.000000 1.661070 
# 
# From -- ./inp_files/21856.got.cif
#   From: 2010.05.17/outbox.cif.g08.bks.cpg/sg51_11_cif.got.tgz:21856.got - 2010.06.03 11:52:47.
