data_PCOD9405158
_publ_section_title
;
Structure prediction by ZEFSAII (Michael W. Deem and Ramdas Pophale) SiO2 
 PCOD9405158
Probable space group: P M M A
;
_chemical_formula_sum "Si O2"
_cell_formula_units_Z 48
_cell_length_a 18.195058
_cell_length_b 17.804227
_cell_length_c 7.913316
_cell_angle_alpha 90.000000
_cell_angle_beta 90.000000
_cell_angle_gamma 90.000000
_cell_volume 2563.510353
_symmetry_space_group_name_H-M "P M M A"
_symmetry_group_IT_number 51
_symmetry_cell_setting 'orthorhombic'
loop_
_space_group_symop_operation_xyz
x,y,z
1/2-x,-y,z
1/2+x,-y,-z
-x,y,-z
-x,-y,-z
1/2+x,y,-z
1/2-x,y,z
x,-y,z
loop_
_atom_site_type_symbol
_atom_site_label
_atom_site_fract_x
_atom_site_fract_y
_atom_site_fract_z
Si Si1 0.339598 0.914042 0.066461
Si Si2 0.837044 0.184581 0.623020
Si Si3 0.664375 0.500000 0.763914
Si Si4 0.579674 0.500000 0.093464
Si Si5 0.904251 0.340994 0.662132
Si Si6 0.339001 0.199392 0.766088
Si Si7 0.933445 0.658764 0.262236
O O1 0.250000 0.914968 0.072845
O O2 0.366559 0.873943 0.238650
O O3 0.364501 0.000000 0.053556
O O4 0.357947 0.864114 0.902653
O O5 0.750000 0.173755 0.616513
O O6 0.853177 0.268805 0.688669
O O7 0.861766 0.178062 0.427100
O O8 0.750000 0.500000 0.725616
O O9 0.628635 0.577341 0.698858
O O10 0.645404 0.500000 0.960863
O O11 0.584446 0.424022 0.198578
O O12 0.500000 0.500000 0.000000
O O13 0.921432 0.339925 0.463195
O O14 0.979656 0.329242 0.764959
O O15 0.250000 0.210800 0.767627
O O16 0.381599 0.276203 0.810350
#
# Coordination Sequence:
#
# PCOD9405158 Si02
#       7
#     8   8   4   4   8   8   8
#     4   9  18  32  53  81 111 143 180 227 282 338
#     4   9  18  33  53  79 110 142 181 229 280 332
#     4  12  25  37  55  83 113 146 184 232 281 325
#     4  12  23  37  52  81 114 147 187 232 277 333
#     4  10  20  38  58  80 106 146 190 229 274 335
#     4   9  19  34  54  81 111 143 185 234 279 329
#     4  10  21  37  59  78 108 149 188 228 279 330
#
# _framework density 18.724325
#
# number of rings (size 3 to 8) (size 9 to 14) (size 15 to 20)
#    0.000    2.167    1.667    1.000    2.333    3.333 
#    0.000    4.167    0.000    2.000    0.000    4.667 
#    0.000    0.000    0.000    0.000    0.000    0.000 
#
# Total GULP energy -267628.818697 kJ/mol
# GULP energy per Si atom -5575.600390 kJ/mol
# Density = 1.868171 g / cm^3
# Si number density = 18.724325 Si / 1000 Ang^3
#
#
#
# Elastic Constant Matrix: (Units=GPa)
#
#
# Indices 1 2 3 4 5 6 
#
# 1 39.5147 29.2403 19.7513 0.0000 0.0000 0.0000
# 2 29.2403 172.9472 73.4752 0.0000 0.0000 0.0000
# 3 19.7513 73.4752 73.5498 0.0000 0.0000 0.0000
# 4 0.0000 0.0000 0.0000 36.6728 0.0000 0.0000
# 5 0.0000 0.0000 0.0000 0.0000 16.9261 0.0000
# 6 0.0000 0.0000 0.0000 0.0000 0.0000 3.6565
#
#
#
# Elastic Compliance Matrix: (Units=1/GPa)
#
#
# Indices 1 2 3 4 5 6 
#
# 1 0.030028 -0.002868 -0.005198 0.000000 0.000000 0.000000
# 2 -0.002868 0.010320 -0.009539 0.000000 0.000000 0.000000
# 3 -0.005198 -0.009539 0.024521 0.000000 0.000000 0.000000
# 4 0.000000 0.000000 0.000000 0.027268 0.000000 0.000000
# 5 0.000000 0.000000 0.000000 0.000000 0.059080 0.000000
# 6 0.000000 0.000000 0.000000 0.000000 0.000000 0.273484
#
#
# Mechanical properties :
#
#
# Convention : Reuss Voigt Hill
#
# Bulk Modulus (GPa) = 33.71793 58.99390 46.35591
# Shear Modulus (GPa) = 10.64288 22.35408 16.49848
#
# Velocity S-wave (km/s) = 2.38670 3.45897 2.97160
# Velocity P-wave (km/s) = 5.06377 6.89402 6.04852
#
# Compressibility (1/GPa) = 0.02965781
#
# Stress axis : x y z
#
# Youngs Moduli (GPa) = 33.30232 96.90348 40.78084
#
# Poissons Ratio (x) = 0.27796 0.21199
# Poissons Ratio (y) = 0.09552 0.38900
# Poissons Ratio (z) = 0.17312 0.92434
#
# Static dielectric constant tensor:
#      x y z
#    x 1.656180 0.000000 0.000000 
#    y 0.000000 1.747320 0.000000 
#    z 0.000000 0.000000 1.676860 
# 
# From -- ./inp_files/9684.got.cif
#   From: 2010.05.17/outbox.cif.g08.bks.cpg/sg51_5_cif.got.tgz:9684.got - 2010.06.03 11:52:47.
