data_PCOD9405063
_publ_section_title
;
Structure prediction by ZEFSAII (Michael W. Deem and Ramdas Pophale) SiO2 
 PCOD9405063
Probable space group: P M M A
;
_chemical_formula_sum "Si O2"
_cell_formula_units_Z 40
_cell_length_a 20.655326
_cell_length_b 7.540052
_cell_length_c 11.874174
_cell_angle_alpha 90.000000
_cell_angle_beta 90.000000
_cell_angle_gamma 90.000000
_cell_volume 1849.310363
_symmetry_space_group_name_H-M "P M M A"
_symmetry_group_IT_number 51
_symmetry_cell_setting 'orthorhombic'
loop_
_space_group_symop_operation_xyz
x,y,z
1/2-x,-y,z
1/2+x,-y,-z
-x,y,-z
-x,-y,-z
1/2+x,y,-z
1/2-x,y,z
x,-y,z
loop_
_atom_site_type_symbol
_atom_site_label
_atom_site_fract_x
_atom_site_fract_y
_atom_site_fract_z
Si Si1 0.509770 0.204303 0.624934
Si Si2 0.624284 0.709901 0.266732
Si Si3 0.750000 0.285776 0.661912
Si Si4 0.618653 0.205975 0.788600
Si Si5 0.750000 0.716317 0.402019
Si Si6 0.825038 0.214227 0.019277
O O1 0.500000 0.283719 0.500000
O O2 0.441982 0.206986 0.690152
O O3 0.563902 0.285954 0.707268
O O4 0.530915 0.000000 0.605090
O O5 0.618071 0.500000 0.286558
O O6 0.685666 0.776780 0.338145
O O7 0.641255 0.739382 0.136494
O O8 0.750000 0.500000 0.668017
O O9 0.686312 0.216274 0.723060
O O10 0.750000 0.232054 0.531726
O O11 0.600021 0.000000 0.807003
O O12 0.634398 0.281781 0.911988
O O13 0.750000 0.500000 0.397228
O O14 0.750000 0.276973 0.017236
O O15 0.822335 0.000000 0.011020
#
# Coordination Sequence:
#
# PCOD9405063 Si02
#       6
#     8   8   4   8   4   8
#     4  10  22  40  61  87 119 155 198 243 289 348
#     4  11  22  38  60  84 118 155 193 241 294 350
#     4  11  21  34  57  86 114 145 192 241 284 347
#     4  10  21  39  60  83 117 155 192 238 292 346
#     4   9  20  36  53  80 114 151 188 231 292 347
#     4  10  20  37  60  84 113 150 195 240 287 346
#
# _framework density 21.629686
#
# number of rings (size 3 to 8) (size 9 to 14) (size 15 to 20)
#    0.000    1.800    2.000    2.100    0.000    2.800 
#    0.000    7.000    0.000    0.000    0.000    0.000 
#    0.000    0.000    0.000    0.000    0.000    0.000 
#
# Total GULP energy -223521.749215 kJ/mol
# GULP energy per Si atom -5588.043730 kJ/mol
# Density = 2.158046 g / cm^3
# Si number density = 21.629686 Si / 1000 Ang^3
#
#
#
# Elastic Constant Matrix: (Units=GPa)
#
#
# Indices 1 2 3 4 5 6 
#
# 1 111.7636 -21.1851 45.4633 0.0000 0.0000 0.0000
# 2 -21.1851 58.8822 -16.9949 0.0000 0.0000 0.0000
# 3 45.4633 -16.9949 170.6590 0.0000 0.0000 0.0000
# 4 0.0000 0.0000 0.0000 3.0998 0.0000 0.0000
# 5 0.0000 0.0000 0.0000 0.0000 49.9211 0.0000
# 6 0.0000 0.0000 0.0000 0.0000 0.0000 10.9538
#
#
#
# Elastic Compliance Matrix: (Units=1/GPa)
#
#
# Indices 1 2 3 4 5 6 
#
# 1 0.010548 0.003072 -0.002504 0.000000 0.000000 0.000000
# 2 0.003072 0.018381 0.001012 0.000000 0.000000 0.000000
# 3 -0.002504 0.001012 0.006628 0.000000 0.000000 0.000000
# 4 0.000000 0.000000 0.000000 0.322599 0.000000 0.000000
# 5 0.000000 0.000000 0.000000 0.000000 0.020032 0.000000
# 6 0.000000 0.000000 0.000000 0.000000 0.000000 0.091293
#
#
# Mechanical properties :
#
#
# Convention : Reuss Voigt Hill
#
# Bulk Modulus (GPa) = 25.82845 39.54129 32.68487
# Shear Modulus (GPa) = 10.43352 35.06303 22.74827
#
# Velocity S-wave (km/s) = 2.19868 4.03061 3.24653
# Velocity P-wave (km/s) = 4.29100 6.32311 5.40345
#
# Compressibility (1/GPa) = 0.03871699
#
# Stress axis : x y z
#
# Youngs Moduli (GPa) = 94.80036 54.40531 150.88627
#
# Poissons Ratio (x) = -0.16716 0.37784
# Poissons Ratio (y) = -0.29127 -0.15268
# Poissons Ratio (z) = 0.23739 -0.05505
#
# Static dielectric constant tensor:
#      x y z
#    x 1.735650 0.000000 0.000000 
#    y 0.000000 1.858350 0.000000 
#    z 0.000000 0.000000 1.773290 
# 
# From -- ./inp_files/17940.got.cif
#   From: 2010.05.17/outbox.cif.g08.bks.cpg/sg51_9_cif.got.tgz:17940.got - 2010.06.03 11:52:47.
