data_PCOD9405632
_publ_section_title
;
Structure prediction by ZEFSAII (Michael W. Deem and Ramdas Pophale) SiO2 
 PCOD9405632
Probable space group: P M M A
;
_chemical_formula_sum "Si O2"
_cell_formula_units_Z 40
_cell_length_a 9.856947
_cell_length_b 7.580446
_cell_length_c 26.428776
_cell_angle_alpha 90.000000
_cell_angle_beta 90.000000
_cell_angle_gamma 90.000000
_cell_volume 1974.759582
_symmetry_space_group_name_H-M "P M M A"
_symmetry_group_IT_number 51
_symmetry_cell_setting 'orthorhombic'
loop_
_space_group_symop_operation_xyz
x,y,z
1/2-x,-y,z
1/2+x,-y,-z
-x,y,-z
-x,-y,-z
1/2+x,y,-z
1/2-x,y,z
x,-y,z
loop_
_atom_site_type_symbol
_atom_site_label
_atom_site_fract_x
_atom_site_fract_y
_atom_site_fract_z
Si Si1 0.593429 0.284623 0.158800
Si Si2 0.403513 0.292304 0.543841
Si Si3 0.595352 0.791489 0.635401
Si Si4 0.904057 0.287326 0.750679
Si Si5 0.093131 0.715292 0.954112
O O1 0.750000 0.231888 0.165296
O O2 0.591184 0.500000 0.159275
O O3 0.501205 0.222261 0.204876
O O4 0.548469 0.230446 0.102358
O O5 0.500000 0.214842 0.500000
O O6 0.250000 0.219204 0.545709
O O7 0.389437 0.500000 0.532695
O O8 0.485582 0.278204 0.596108
O O9 0.750000 0.720213 0.628107
O O10 0.554869 0.758396 0.693533
O O11 0.602205 0.000000 0.627506
O O12 0.750000 0.223235 0.757665
O O13 0.902064 0.500000 0.753661
O O14 0.250000 0.767415 0.960765
O O15 0.090585 0.500000 0.954653
O O16 0.000000 0.777203 0.000000
#
# Coordination Sequence:
#
# PCOD9405632 Si02
#       5
#     8   8   8   8   8
#     4   8  14  24  37  55  81 113 149 188 230 277
#     4  10  21  37  58  82 105 131 164 200 238 282
#     4  10  21  36  53  74 102 134 165 200 243 288
#     4   9  17  29  46  67  90 119 157 198 236 277
#     4   8  13  20  30  47  74 108 143 179 222 273
#
# _framework density 20.25563
#
# number of rings (size 3 to 8) (size 9 to 14) (size 15 to 20)
#    0.000    3.000    0.000    2.400    0.000    4.400 
#    0.000    6.000    0.000    0.000    0.000    0.000 
#    0.000    0.800    0.000    1.800    0.000    3.600 
#
# Total GULP energy -223105.151160 kJ/mol
# GULP energy per Si atom -5577.628779 kJ/mol
# Density = 2.020953 g / cm^3
# Si number density = 20.255630 Si / 1000 Ang^3
#
#
#
# Elastic Constant Matrix: (Units=GPa)
#
#
# Indices 1 2 3 4 5 6 
#
# 1 138.1225 5.3956 135.3104 0.0000 0.0000 0.0000
# 2 5.3956 45.0130 -4.7161 0.0000 0.0000 0.0000
# 3 135.3104 -4.7161 189.1266 0.0000 0.0000 0.0000
# 4 0.0000 0.0000 0.0000 -96.7444 0.0000 0.0000
# 5 0.0000 0.0000 0.0000 0.0000 39.0384 0.0000
# 6 0.0000 0.0000 0.0000 0.0000 0.0000 -2.2116
#
#
#
# Elastic Compliance Matrix: (Units=1/GPa)
#
#
# Indices 1 2 3 4 5 6 
#
# 1 0.025251 -0.004933 -0.018189 0.000000 0.000000 0.000000
# 2 -0.004933 0.023238 0.004108 0.000000 0.000000 0.000000
# 3 -0.018189 0.004108 0.018403 0.000000 0.000000 0.000000
# 4 0.000000 0.000000 0.000000 -0.010337 0.000000 0.000000
# 5 0.000000 0.000000 0.000000 0.000000 0.025616 0.000000
# 6 0.000000 0.000000 0.000000 0.000000 0.000000 -0.452156
#
#
# Mechanical properties :
#
#
# Convention : Reuss Voigt Hill
#
# Bulk Modulus (GPa) = 34.64307 71.58242 53.11275
# Shear Modulus (GPa) = -15.51176 3.76795 -5.87191
#
# Velocity S-wave (km/s) = -2.77031 1.36537 -1.70446
# Velocity P-wave (km/s) = 2.62816 6.15645 4.73335
#
# Compressibility (1/GPa) = 0.02886580
#
# Stress axis : x y z
#
# Youngs Moduli (GPa) = 39.60179 43.03389 54.33819
#
# Poissons Ratio (x) = 0.21227 0.98836
# Poissons Ratio (y) = 0.19534 -0.22325
# Poissons Ratio (z) = 0.72032 -0.17680
#
# Static dielectric constant tensor:
#      x y z
#    x 1.704670 0.000000 0.000000 
#    y 0.000000 1.752480 0.000000 
#    z 0.000000 0.000000 1.695540 
# 
# From -- ./inp_files/35975.got.cif
#   From: 2010.05.17/outbox.cif.g08.bks.cpg/sg51_18_cif.got.tgz:35975.got - 2010.06.03 11:52:47.
