data_PCOD9405024
_publ_section_title
;
Structure prediction by ZEFSAII (Michael W. Deem and Ramdas Pophale) SiO2 
 PCOD9405024
Probable space group: P M M A
;
_chemical_formula_sum "Si O2"
_cell_formula_units_Z 56
_cell_length_a 14.435000
_cell_length_b 18.232274
_cell_length_c 11.058364
_cell_angle_alpha 90.000000
_cell_angle_beta 90.000000
_cell_angle_gamma 90.000000
_cell_volume 2910.372032
_symmetry_space_group_name_H-M "P M M A"
_symmetry_group_IT_number 51
_symmetry_cell_setting 'orthorhombic'
loop_
_space_group_symop_operation_xyz
x,y,z
1/2-x,-y,z
1/2+x,-y,-z
-x,y,-z
-x,-y,-z
1/2+x,y,-z
1/2-x,y,z
x,-y,z
loop_
_atom_site_type_symbol
_atom_site_label
_atom_site_fract_x
_atom_site_fract_y
_atom_site_fract_z
Si Si1 0.356778 0.194643 0.461204
Si Si2 0.500757 0.586310 0.646751
Si Si3 0.142004 0.848064 0.819959
Si Si4 0.357212 0.705815 0.682465
Si Si5 0.361918 0.167310 0.095523
Si Si6 0.531336 0.913701 0.692904
Si Si7 0.855187 0.305877 0.765082
O O1 0.250000 0.171862 0.488477
O O2 0.393065 0.243758 0.571673
O O3 0.420513 0.128236 0.418668
O O4 0.353105 0.249705 0.347863
O O5 0.500000 0.595396 0.500000
O O6 0.499277 0.500000 0.671248
O O7 0.412136 0.631362 0.691980
O O8 0.584353 0.626843 0.716630
O O9 0.250000 0.868460 0.801070
O O10 0.135063 0.760952 0.794249
O O11 0.072400 0.888789 0.729643
O O12 0.116401 0.857702 0.959853
O O13 0.250000 0.690913 0.657038
O O14 0.250000 0.166135 0.109319
O O15 0.408241 0.113509 0.191900
O O16 0.390838 0.251365 0.128653
O O17 0.535127 0.000000 0.676136
O O18 0.750000 0.328875 0.792919
#
# Coordination Sequence:
#
# PCOD9405024 Si02
#       7
#     8   8   8   8   8   8   8
#     4   9  18  34  56  79 101 134 183 229 267 317
#     4  11  22  32  50  84 119 144 170 213 272 331
#     4  10  22  37  55  80 106 142 190 228 266 322
#     4  10  20  37  59  77 104 145 183 224 270 320
#     4   9  19  36  58  83 106 136 188 239 270 312
#     4  11  22  34  54  81 109 142 176 223 287 335
#     4   9  17  33  56  77 105 145 184 225 267 308
#
# _framework density 19.241526
#
# number of rings (size 3 to 8) (size 9 to 14) (size 15 to 20)
#    0.000    2.143    1.429    3.429    0.000    3.143 
#    0.000    4.286    0.000    4.286    0.000    4.000 
#    0.000    0.000    0.000    0.000    0.000    0.000 
#
# Total GULP energy -312497.554729 kJ/mol
# GULP energy per Si atom -5580.313477 kJ/mol
# Density = 1.919773 g / cm^3
# Si number density = 19.241526 Si / 1000 Ang^3
#
#
#
# Elastic Constant Matrix: (Units=GPa)
#
#
# Indices 1 2 3 4 5 6 
#
# 1 91.8365 65.3948 14.1261 0.0000 0.0000 0.0000
# 2 65.3948 138.8782 3.5301 0.0000 0.0000 0.0000
# 3 14.1261 3.5301 26.0279 0.0000 0.0000 0.0000
# 4 0.0000 0.0000 0.0000 8.2369 0.0000 0.0000
# 5 0.0000 0.0000 0.0000 0.0000 24.0306 0.0000
# 6 0.0000 0.0000 0.0000 0.0000 0.0000 -17.6899
#
#
#
# Elastic Compliance Matrix: (Units=1/GPa)
#
#
# Indices 1 2 3 4 5 6 
#
# 1 0.018164 -0.008331 -0.008728 0.000000 0.000000 0.000000
# 2 -0.008331 0.011047 0.003023 0.000000 0.000000 0.000000
# 3 -0.008728 0.003023 0.042747 0.000000 0.000000 0.000000
# 4 0.000000 0.000000 0.000000 0.121405 0.000000 0.000000
# 5 0.000000 0.000000 0.000000 0.000000 0.041614 0.000000
# 6 0.000000 0.000000 0.000000 0.000000 0.000000 -0.056530
#
#
# Mechanical properties :
#
#
# Convention : Reuss Voigt Hill
#
# Bulk Modulus (GPa) = 22.78635 46.98274 34.88454
# Shear Modulus (GPa) = 22.60935 14.49496 18.55216
#
# Velocity S-wave (km/s) = 3.43159 2.74764 3.10848
# Velocity P-wave (km/s) = 5.25062 5.87677 5.57250
#
# Compressibility (1/GPa) = 0.04388592
#
# Stress axis : x y z
#
# Youngs Moduli (GPa) = 55.05431 90.52507 23.39330
#
# Poissons Ratio (x) = 0.75418 0.20418
# Poissons Ratio (y) = 0.45866 -0.07073
# Poissons Ratio (z) = 0.48052 -0.27369
#
# Static dielectric constant tensor:
#      x y z
#    x 1.743570 0.000000 0.000000 
#    y 0.000000 1.624360 0.000000 
#    z 0.000000 0.000000 1.582380 
# 
# From -- ./inp_files/16604.got.cif
#   From: 2010.05.17/outbox.cif.g08.bks.cpg/sg51_9_cif.got.tgz:16604.got - 2010.06.03 11:52:47.
