data_PCOD9405787
_publ_section_title
;
Structure prediction by ZEFSAII (Michael W. Deem and Ramdas Pophale) SiO2 
 PCOD9405787
Probable space group: P M M A
;
_chemical_formula_sum "Si O2"
_cell_formula_units_Z 56
_cell_length_a 9.017274
_cell_length_b 14.318259
_cell_length_c 21.646996
_cell_angle_alpha 90.000000
_cell_angle_beta 90.000000
_cell_angle_gamma 90.000000
_cell_volume 2794.879687
_symmetry_space_group_name_H-M "P M M A"
_symmetry_group_IT_number 51
_symmetry_cell_setting 'orthorhombic'
loop_
_space_group_symop_operation_xyz
x,y,z
1/2-x,-y,z
1/2+x,-y,-z
-x,y,-z
-x,-y,-z
1/2+x,y,-z
1/2-x,y,z
x,-y,z
loop_
_atom_site_type_symbol
_atom_site_label
_atom_site_fract_x
_atom_site_fract_y
_atom_site_fract_z
Si Si1 0.073045 0.889231 0.687545
Si Si2 0.427202 0.215691 0.562450
Si Si3 0.082384 0.386883 0.243008
Si Si4 0.426771 0.781805 0.062485
Si Si5 0.575561 0.389734 0.117413
Si Si6 0.928110 0.609277 0.616331
Si Si7 0.572079 0.890758 0.814021
O O1 0.250000 0.877158 0.693979
O O2 0.026422 0.840118 0.624082
O O3 0.995714 0.853715 0.750029
O O4 0.041783 0.000000 0.682702
O O5 0.500000 0.177773 0.500000
O O6 0.250000 0.212966 0.557554
O O7 0.484582 0.321002 0.572731
O O8 0.250000 0.351499 0.230252
O O9 0.091761 0.500000 0.244018
O O10 0.036733 0.362752 0.312529
O O11 0.973555 0.364074 0.187326
O O12 0.250000 0.785836 0.057656
O O13 0.481190 0.676101 0.073257
O O14 0.474139 0.837631 0.123972
O O15 0.500000 0.818938 0.000000
O O16 0.750000 0.373591 0.108796
O O17 0.545596 0.500000 0.108637
O O18 0.750000 0.619060 0.608958
O O19 0.964580 0.500000 0.607546
O O20 0.750000 0.885246 0.809754
O O21 0.530374 0.000000 0.819341
#
# Coordination Sequence:
#
# PCOD9405787 Si02
#       7
#     8   8   8   8   8   8   8
#     4   9  20  40  64  90 119 150 188 236 291 349
#     4  11  24  39  57  85 118 156 198 242 292 347
#     4   8  15  30  52  78 107 142 186 235 288 340
#     4  11  24  40  59  86 119 157 197 240 290 346
#     4  10  21  36  55  81 115 155 198 243 289 340
#     4   9  19  36  57  81 113 154 197 241 290 344
#     4   9  20  40  65  92 119 149 189 235 287 349
#
# _framework density 20.036639999999998
#
# number of rings (size 3 to 8) (size 9 to 14) (size 15 to 20)
#    0.000    2.429    0.000    2.143    2.000    5.143 
#    0.000    1.429    0.000    0.000    0.000    0.000 
#    0.000    0.000    0.000    0.000    0.000    0.000 
#
# Total GULP energy -312756.393027 kJ/mol
# GULP energy per Si atom -5584.935590 kJ/mol
# Density = 1.999104 g / cm^3
# Si number density = 20.036640 Si / 1000 Ang^3
#
#
#
# Elastic Constant Matrix: (Units=GPa)
#
#
# Indices 1 2 3 4 5 6 
#
# 1 34.9927 28.2708 57.1339 0.0000 0.0000 0.0000
# 2 28.2708 62.0287 56.1069 0.0000 0.0000 0.0000
# 3 57.1339 56.1069 169.2901 0.0000 0.0000 0.0000
# 4 0.0000 0.0000 0.0000 20.0630 0.0000 0.0000
# 5 0.0000 0.0000 0.0000 0.0000 36.9241 0.0000
# 6 0.0000 0.0000 0.0000 0.0000 0.0000 15.7091
#
#
#
# Elastic Compliance Matrix: (Units=1/GPa)
#
#
# Indices 1 2 3 4 5 6 
#
# 1 0.072971 -0.015684 -0.019429 0.000000 0.000000 0.000000
# 2 -0.015684 0.026395 -0.003455 0.000000 0.000000 0.000000
# 3 -0.019429 -0.003455 0.013609 0.000000 0.000000 0.000000
# 4 0.000000 0.000000 0.000000 0.049843 0.000000 0.000000
# 5 0.000000 0.000000 0.000000 0.000000 0.027083 0.000000
# 6 0.000000 0.000000 0.000000 0.000000 0.000000 0.063657
#
#
# Mechanical properties :
#
#
# Convention : Reuss Voigt Hill
#
# Bulk Modulus (GPa) = 27.90201 61.03718 44.46960
# Shear Modulus (GPa) = 14.59260 22.85922 18.72591
#
# Velocity S-wave (km/s) = 2.70162 3.38134 3.06041
# Velocity P-wave (km/s) = 4.86697 6.76562 5.89326
#
# Compressibility (1/GPa) = 0.03583972
#
# Stress axis : x y z
#
# Youngs Moduli (GPa) = 13.70407 37.88651 73.48001
#
# Poissons Ratio (x) = 0.59420 1.42765
# Poissons Ratio (y) = 0.21493 0.25385
# Poissons Ratio (z) = 0.26626 0.13089
#
# Static dielectric constant tensor:
#      x y z
#    x 1.665680 0.000000 0.000000 
#    y 0.000000 1.729370 0.000000 
#    z 0.000000 0.000000 1.716270 
# 
# From -- ./inp_files/32002.got.cif
#   From: 2010.05.17/outbox.cif.g08.bks.cpg/sg51_17_cif.got.tgz:32002.got - 2010.06.03 11:52:47.
