data_PCOD9405366
_publ_section_title
;
Structure prediction by ZEFSAII (Michael W. Deem and Ramdas Pophale) SiO2 
 PCOD9405366
Probable space group: P M M A
;
_chemical_formula_sum "Si O2"
_cell_formula_units_Z 48
_cell_length_a 32.229531
_cell_length_b 7.606895
_cell_length_c 10.244062
_cell_angle_alpha 90.000000
_cell_angle_beta 90.000000
_cell_angle_gamma 90.000000
_cell_volume 2511.502447
_symmetry_space_group_name_H-M "P M M A"
_symmetry_group_IT_number 51
_symmetry_cell_setting 'orthorhombic'
loop_
_space_group_symop_operation_xyz
x,y,z
1/2-x,-y,z
1/2+x,-y,-z
-x,y,-z
-x,-y,-z
1/2+x,y,-z
1/2-x,y,z
x,-y,z
loop_
_atom_site_type_symbol
_atom_site_label
_atom_site_fract_x
_atom_site_fract_y
_atom_site_fract_z
Si Si1 0.902920 0.211528 0.757234
Si Si2 0.701982 0.000000 0.393796
Si Si3 0.077133 0.289082 0.734456
Si Si4 0.201591 0.000000 0.920901
Si Si5 0.010782 0.794967 0.357453
Si Si6 0.640762 0.706471 0.490385
Si Si7 0.363086 0.702522 0.970108
O O1 0.948587 0.277265 0.713913
O O2 0.872616 0.260173 0.638458
O O3 0.886625 0.287618 0.892499
O O4 0.903734 0.000000 0.771918
O O5 0.678476 0.829365 0.448425
O O6 0.750000 0.000000 0.431132
O O7 0.699243 0.000000 0.236727
O O8 0.073723 0.500000 0.738845
O O9 0.102004 0.241539 0.602787
O O10 0.030755 0.217543 0.727689
O O11 0.105249 0.234739 0.856791
O O12 0.250000 0.000000 0.958425
O O13 0.176480 0.829704 0.970085
O O14 0.000000 0.716025 0.500000
O O15 0.020633 0.000000 0.380545
O O16 0.649088 0.500000 0.468970
O O17 0.351679 0.500000 0.941345
#
# Coordination Sequence:
#
# PCOD9405366 Si02
#       7
#     8   4   8   4   8   8   8
#     4  11  22  39  63  92 127 171 215 258 308 366
#     4  11  24  41  69 100 126 156 198 261 318 377
#     4  10  22  37  59  87 123 168 208 254 303 361
#     4  11  24  43  71  98 123 159 202 259 319 378
#     4  10  21  34  57  90 124 165 214 260 304 357
#     4  11  22  39  64  93 126 166 205 251 310 369
#     4  11  24  43  64  93 129 167 209 256 316 378
#
# _framework density 19.112065000000001
#
# number of rings (size 3 to 8) (size 9 to 14) (size 15 to 20)
#    0.000    1.333    5.000    0.500    2.333    3.000 
#    0.000    6.667    0.000    2.000    0.000    0.000 
#    0.000    0.000    0.000    0.000    0.000    0.000 
#
# Total GULP energy -268218.274053 kJ/mol
# GULP energy per Si atom -5587.880709 kJ/mol
# Density = 1.906857 g / cm^3
# Si number density = 19.112065 Si / 1000 Ang^3
#
#
#
# Elastic Constant Matrix: (Units=GPa)
#
#
# Indices 1 2 3 4 5 6 
#
# 1 131.3787 36.4487 26.0707 0.0000 0.0000 0.0000
# 2 36.4487 85.3331 2.0921 0.0000 0.0000 0.0000
# 3 26.0707 2.0921 90.9227 0.0000 0.0000 0.0000
# 4 0.0000 0.0000 0.0000 13.0669 0.0000 0.0000
# 5 0.0000 0.0000 0.0000 0.0000 26.6342 0.0000
# 6 0.0000 0.0000 0.0000 0.0000 0.0000 -21.0069
#
#
#
# Elastic Compliance Matrix: (Units=1/GPa)
#
#
# Indices 1 2 3 4 5 6 
#
# 1 0.009188 -0.003862 -0.002546 0.000000 0.000000 0.000000
# 2 -0.003862 0.013349 0.000800 0.000000 0.000000 0.000000
# 3 -0.002546 0.000800 0.011710 0.000000 0.000000 0.000000
# 4 0.000000 0.000000 0.000000 0.076529 0.000000 0.000000
# 5 0.000000 0.000000 0.000000 0.000000 0.037546 0.000000
# 6 0.000000 0.000000 0.000000 0.000000 0.000000 -0.047603
#
#
# Mechanical properties :
#
#
# Convention : Reuss Voigt Hill
#
# Bulk Modulus (GPa) = 43.41846 48.53972 45.97909
# Shear Modulus (GPa) = 41.80218 19.94037 30.87128
#
# Velocity S-wave (km/s) = 4.68184 3.23358 4.02341
# Velocity P-wave (km/s) = 7.21064 6.27646 6.75971
#
# Compressibility (1/GPa) = 0.02303168
#
# Stress axis : x y z
#
# Youngs Moduli (GPa) = 108.83457 74.91287 85.39790
#
# Poissons Ratio (x) = 0.28933 0.21740
# Poissons Ratio (y) = 0.42034 -0.06834
# Poissons Ratio (z) = 0.27706 -0.05995
#
# Static dielectric constant tensor:
#      x y z
#    x 1.640460 0.000000 0.000000 
#    y 0.000000 1.684590 0.000000 
#    z 0.000000 0.000000 1.652360 
# 
# From -- ./inp_files/12891.got.cif
#   From: 2010.05.17/outbox.cif.g08.bks.cpg/sg51_7_cif.got.tgz:12891.got - 2010.06.03 11:52:47.
