data_PCOD9405081
_publ_section_title
;
Structure prediction by ZEFSAII (Michael W. Deem and Ramdas Pophale) SiO2 
 PCOD9405081
Probable space group: P M M A
;
_chemical_formula_sum "Si O2"
_cell_formula_units_Z 64
_cell_length_a 15.214828
_cell_length_b 9.260166
_cell_length_c 24.099722
_cell_angle_alpha 90.000000
_cell_angle_beta 90.000000
_cell_angle_gamma 90.000000
_cell_volume 3395.454006
_symmetry_space_group_name_H-M "P M M A"
_symmetry_group_IT_number 51
_symmetry_cell_setting 'orthorhombic'
loop_
_space_group_symop_operation_xyz
x,y,z
1/2-x,-y,z
1/2+x,-y,-z
-x,y,-z
-x,-y,-z
1/2+x,y,-z
1/2-x,y,z
x,-y,z
loop_
_atom_site_type_symbol
_atom_site_label
_atom_site_fract_x
_atom_site_fract_y
_atom_site_fract_z
Si Si1 0.349675 0.171277 0.244187
Si Si2 0.149780 0.828336 0.784788
Si Si3 0.148332 0.663584 0.006743
Si Si4 0.116438 0.164573 0.117805
Si Si5 0.018007 0.174804 0.587397
Si Si6 0.986241 0.672868 0.295823
Si Si7 0.148221 0.825392 0.486612
Si Si8 0.410856 0.164271 0.902939
O O1 0.250000 0.188392 0.264365
O O2 0.352998 0.209447 0.178773
O O3 0.419220 0.267020 0.276444
O O4 0.372933 0.000000 0.248179
O O5 0.250000 0.813093 0.765665
O O6 0.143205 0.784562 0.849519
O O7 0.083755 0.736720 0.747880
O O8 0.126308 0.000000 0.782613
O O9 0.250000 0.664504 0.988806
O O10 0.117298 0.500000 0.011804
O O11 0.096611 0.745652 0.958770
O O12 0.144090 0.738775 0.066364
O O13 0.011000 0.163851 0.117419
O O14 0.146400 0.000000 0.108455
O O15 0.032481 0.257785 0.644328
O O16 0.922365 0.215028 0.561261
O O17 0.095505 0.210053 0.543359
O O18 0.018422 0.000000 0.595268
O O19 0.984089 0.500000 0.296943
O O20 0.250000 0.773149 0.483094
O O21 0.152615 0.000000 0.484847
O O22 0.383544 0.000000 0.915969
#
# Coordination Sequence:
#
# PCOD9405081 Si02
#       8
#     8   8   8   8   8   8   8   8
#     4  10  21  40  65  87 110 148 200 253 299 348
#     4  10  21  40  65  87 110 148 200 253 299 348
#     4  11  24  37  50  76 114 149 182 224 281 355
#     4  10  20  37  61  84 106 136 183 240 294 349
#     4   9  18  34  58  86 117 153 199 246 283 335
#     4  12  25  39  57  85 127 166 197 240 292 352
#     4   8  15  31  58  90 118 148 192 247 296 329
#     4  10  20  37  61  84 106 136 183 240 294 349
#
# _framework density 18.848731999999998
#
# number of rings (size 3 to 8) (size 9 to 14) (size 15 to 20)
#    0.000    2.000    1.250    3.375    0.000    6.500 
#    0.000    3.750    0.000    0.750    0.000    0.000 
#    0.000    0.000    0.000    0.000    0.000    0.000 
#
# Total GULP energy -357215.354760 kJ/mol
# GULP energy per Si atom -5581.489918 kJ/mol
# Density = 1.880583 g / cm^3
# Si number density = 18.848732 Si / 1000 Ang^3
#
#
#
# Elastic Constant Matrix: (Units=GPa)
#
#
# Indices 1 2 3 4 5 6 
#
# 1 79.5126 14.5239 -2.9564 0.0000 0.0000 0.0000
# 2 14.5239 59.8298 35.7039 0.0000 0.0000 0.0000
# 3 -2.9564 35.7039 58.5632 0.0000 0.0000 0.0000
# 4 0.0000 0.0000 0.0000 -25.0503 0.0000 0.0000
# 5 0.0000 0.0000 0.0000 0.0000 41.5267 0.0000
# 6 0.0000 0.0000 0.0000 0.0000 0.0000 14.9105
#
#
#
# Elastic Compliance Matrix: (Units=1/GPa)
#
#
# Indices 1 2 3 4 5 6 
#
# 1 0.013820 -0.005928 0.004312 0.000000 0.000000 0.000000
# 2 -0.005928 0.028815 -0.017867 0.000000 0.000000 0.000000
# 3 0.004312 -0.017867 0.028186 0.000000 0.000000 0.000000
# 4 0.000000 0.000000 0.000000 -0.039920 0.000000 0.000000
# 5 0.000000 0.000000 0.000000 0.000000 0.024081 0.000000
# 6 0.000000 0.000000 0.000000 0.000000 0.000000 0.067067
#
#
# Mechanical properties :
#
#
# Convention : Reuss Voigt Hill
#
# Bulk Modulus (GPa) = 31.39234 32.49426 31.94330
# Shear Modulus (GPa) = 29.13184 16.31965 22.72575
#
# Velocity S-wave (km/s) = 3.93563 2.94568 3.47607
# Velocity P-wave (km/s) = 6.11091 5.37087 5.75280
#
# Compressibility (1/GPa) = 0.03185491
#
# Stress axis : x y z
#
# Youngs Moduli (GPa) = 72.36042 34.70387 35.47859
#
# Poissons Ratio (x) = 0.20572 -0.15297
# Poissons Ratio (y) = 0.42893 0.63389
# Poissons Ratio (z) = -0.31199 0.62005
#
# Static dielectric constant tensor:
#      x y z
#    x 1.690590 0.000000 0.000000 
#    y 0.000000 1.630570 0.000000 
#    z 0.000000 0.000000 1.633250 
# 
# From -- ./inp_files/35834.got.cif
#   From: 2010.05.17/outbox.cif.g08.bks.cpg/sg51_18_cif.got.tgz:35834.got - 2010.06.03 11:52:47.
