data_PCOD9405311
_publ_section_title
;
Structure prediction by ZEFSAII (Michael W. Deem and Ramdas Pophale) SiO2 
 PCOD9405311
Probable space group: P M M A
;
_chemical_formula_sum "Si O2"
_cell_formula_units_Z 56
_cell_length_a 29.184219
_cell_length_b 9.066148
_cell_length_c 13.621805
_cell_angle_alpha 90.000000
_cell_angle_beta 90.000000
_cell_angle_gamma 90.000000
_cell_volume 3604.172254
_symmetry_space_group_name_H-M "P M M A"
_symmetry_group_IT_number 51
_symmetry_cell_setting 'orthorhombic'
loop_
_space_group_symop_operation_xyz
x,y,z
1/2-x,-y,z
1/2+x,-y,-z
-x,y,-z
-x,-y,-z
1/2+x,y,-z
1/2-x,y,z
x,-y,z
loop_
_atom_site_type_symbol
_atom_site_label
_atom_site_fract_x
_atom_site_fract_y
_atom_site_fract_z
Si Si1 0.801735 0.822933 0.014065
Si Si2 0.604231 0.327901 0.307280
Si Si3 0.017804 0.175825 0.608698
Si Si4 0.301867 0.677768 0.772818
Si Si5 0.894487 0.175315 0.916799
Si Si6 0.534036 0.675354 0.788660
Si Si7 0.443621 0.670014 0.905852
O O1 0.750000 0.786395 0.981466
O O2 0.842056 0.780943 0.939698
O O3 0.804438 0.000000 0.027555
O O4 0.809011 0.747551 0.119732
O O5 0.602468 0.500000 0.337030
O O6 0.569091 0.235546 0.372312
O O7 0.656852 0.277179 0.298936
O O8 0.584863 0.321302 0.195612
O O9 0.000000 0.211032 0.500000
O O10 0.985629 0.250879 0.690582
O O11 0.016972 0.000000 0.622174
O O12 0.250000 0.715383 0.741127
O O13 0.304816 0.500000 0.782406
O O14 0.918824 0.257035 0.826978
O O15 0.897027 0.000000 0.902966
O O16 0.922345 0.222896 0.014281
O O17 0.536637 0.500000 0.775527
O O18 0.495518 0.702664 0.873077
O O19 0.441109 0.500000 0.941725
#
# Coordination Sequence:
#
# PCOD9405311 Si02
#       7
#     8   8   8   8   8   8   8
#     4   9  18  30  42  61  92 129 165 196 229 268
#     4   9  17  29  46  69  96 127 158 189 229 276
#     4  10  21  36  53  72  93 116 148 193 239 285
#     4   9  16  27  44  66  93 126 162 194 223 262
#     4  11  20  28  43  66  92 125 160 194 228 265
#     4  10  21  34  48  66  90 121 153 188 229 278
#     4   9  17  29  42  61  91 125 157 186 220 265
#
# _framework density 15.537547
#
# number of rings (size 3 to 8) (size 9 to 14) (size 15 to 20)
#    0.000    2.429    1.429    2.571    0.000    6.857 
#    0.000    0.000    0.000    0.000    0.000    1.000 
#    0.000    1.143    0.000    0.000    0.000    0.000 
#
# Total GULP energy -312211.051890 kJ/mol
# GULP energy per Si atom -5575.197355 kJ/mol
# Density = 1.550218 g / cm^3
# Si number density = 15.537547 Si / 1000 Ang^3
#
#
#
# Elastic Constant Matrix: (Units=GPa)
#
#
# Indices 1 2 3 4 5 6 
#
# 1 147.5474 50.6269 57.6906 0.0000 0.0000 0.0000
# 2 50.6269 40.7368 36.0776 0.0000 0.0000 0.0000
# 3 57.6906 36.0776 59.4738 0.0000 0.0000 0.0000
# 4 0.0000 0.0000 0.0000 44.9223 0.0000 0.0000
# 5 0.0000 0.0000 0.0000 0.0000 17.8044 0.0000
# 6 0.0000 0.0000 0.0000 0.0000 0.0000 21.9818
#
#
#
# Elastic Compliance Matrix: (Units=1/GPa)
#
#
# Indices 1 2 3 4 5 6 
#
# 1 0.012718 -0.010546 -0.005940 0.000000 0.000000 0.000000
# 2 -0.010546 0.061790 -0.027253 0.000000 0.000000 0.000000
# 3 -0.005940 -0.027253 0.039108 0.000000 0.000000 0.000000
# 4 0.000000 0.000000 0.000000 0.022261 0.000000 0.000000
# 5 0.000000 0.000000 0.000000 0.000000 0.056166 0.000000
# 6 0.000000 0.000000 0.000000 0.000000 0.000000 0.045492
#
#
# Mechanical properties :
#
#
# Convention : Reuss Voigt Hill
#
# Bulk Modulus (GPa) = 38.25713 59.61645 48.93679
# Shear Modulus (GPa) = 14.98240 23.83257 19.40749
#
# Velocity S-wave (km/s) = 3.10864 3.92071 3.53805
# Velocity P-wave (km/s) = 6.12868 7.67780 6.94655
#
# Compressibility (1/GPa) = 0.02613892
#
# Stress axis : x y z
#
# Youngs Moduli (GPa) = 78.62601 16.18397 25.57017
#
# Poissons Ratio (x) = 0.17067 0.15189
# Poissons Ratio (y) = 0.82915 0.69686
# Poissons Ratio (z) = 0.46704 0.44106
#
# Static dielectric constant tensor:
#      x y z
#    x 1.561010 0.000000 0.000000 
#    y 0.000000 1.517260 0.000000 
#    z 0.000000 0.000000 1.485410 
# 
# From -- ./inp_files/26476.got.cif
#   From: 2010.05.17/outbox.cif.g08.bks.cpg/sg51_14_cif.got.tgz:26476.got - 2010.06.03 11:52:47.
