data_PCOD9405798
_publ_section_title
;
Structure prediction by ZEFSAII (Michael W. Deem and Ramdas Pophale) SiO2 
 PCOD9405798
Probable space group: P M M A
;
_chemical_formula_sum "Si O2"
_cell_formula_units_Z 64
_cell_length_a 14.750505
_cell_length_b 8.886066
_cell_length_c 25.154225
_cell_angle_alpha 90.000000
_cell_angle_beta 90.000000
_cell_angle_gamma 90.000000
_cell_volume 3297.063906
_symmetry_space_group_name_H-M "P M M A"
_symmetry_group_IT_number 51
_symmetry_cell_setting 'orthorhombic'
loop_
_space_group_symop_operation_xyz
x,y,z
1/2-x,-y,z
1/2+x,-y,-z
-x,y,-z
-x,-y,-z
1/2+x,y,-z
1/2-x,y,z
x,-y,z
loop_
_atom_site_type_symbol
_atom_site_label
_atom_site_fract_x
_atom_site_fract_y
_atom_site_fract_z
Si Si1 0.477798 0.321216 0.177479
Si Si2 0.355105 0.823276 0.480815
Si Si3 0.646842 0.679456 0.404115
Si Si4 0.144834 0.681875 0.278179
Si Si5 0.393776 0.673235 0.985420
Si Si6 0.536330 0.819807 0.624363
Si Si7 0.145591 0.821173 0.871337
Si Si8 0.148160 0.174376 0.092458
O O1 0.491184 0.500000 0.178877
O O2 0.417440 0.274820 0.227955
O O3 0.573884 0.240013 0.171264
O O4 0.419906 0.276374 0.125636
O O5 0.250000 0.809916 0.463062
O O6 0.365318 0.728902 0.534406
O O7 0.421160 0.778789 0.433166
O O8 0.371347 0.000000 0.493625
O O9 0.750000 0.724620 0.389020
O O10 0.639914 0.500000 0.399527
O O11 0.565483 0.756717 0.372343
O O12 0.250000 0.727413 0.271674
O O13 0.142958 0.500000 0.281912
O O14 0.100313 0.751868 0.330444
O O15 0.362687 0.500000 0.987518
O O16 0.375454 0.740985 0.927565
O O17 0.500000 0.674644 0.000000
O O18 0.350571 0.773183 0.031614
O O19 0.535977 0.000000 0.627797
O O20 0.250000 0.790669 0.857032
O O21 0.134188 0.000000 0.877962
O O22 0.250000 0.189261 0.114272
O O23 0.120213 0.000000 0.095890
#
# Coordination Sequence:
#
# PCOD9405798 Si02
#       8
#     8   8   8   8   8   8   8   8
#     4  11  23  41  64  88 114 149 193 239 289 342
#     4   9  18  33  53  81 119 158 195 238 290 350
#     4  10  21  36  55  82 117 158 202 245 291 345
#     4  10  23  43  65  89 118 151 189 237 291 346
#     4  11  22  36  57  87 119 155 194 235 284 340
#     4  11  22  36  58  87 118 155 198 243 294 351
#     4  11  24  41  62  88 119 155 194 239 291 346
#     4  11  23  37  57  86 118 153 190 231 284 342
#
# _framework density 19.411210000000001
#
# number of rings (size 3 to 8) (size 9 to 14) (size 15 to 20)
#    0.000    1.500    1.250    3.750    0.000    9.500 
#    0.000    1.875    0.000    0.750    0.000    0.000 
#    0.000    0.000    0.000    0.000    0.000    0.000 
#
# Total GULP energy -357706.577939 kJ/mol
# GULP energy per Si atom -5589.165280 kJ/mol
# Density = 1.936703 g / cm^3
# Si number density = 19.411210 Si / 1000 Ang^3
#
#
#
# Elastic Constant Matrix: (Units=GPa)
#
#
# Indices 1 2 3 4 5 6 
#
# 1 146.3547 39.7584 44.4797 0.0000 0.0000 0.0000
# 2 39.7584 38.6917 15.1634 0.0000 0.0000 0.0000
# 3 44.4797 15.1634 48.2551 0.0000 0.0000 0.0000
# 4 0.0000 0.0000 0.0000 40.3233 0.0000 0.0000
# 5 0.0000 0.0000 0.0000 0.0000 28.2115 0.0000
# 6 0.0000 0.0000 0.0000 0.0000 0.0000 25.7299
#
#
#
# Elastic Compliance Matrix: (Units=1/GPa)
#
#
# Indices 1 2 3 4 5 6 
#
# 1 0.011660 -0.008861 -0.007963 0.000000 0.000000 0.000000
# 2 -0.008861 0.036208 -0.003211 0.000000 0.000000 0.000000
# 3 -0.007963 -0.003211 0.029072 0.000000 0.000000 0.000000
# 4 0.000000 0.000000 0.000000 0.024800 0.000000 0.000000
# 5 0.000000 0.000000 0.000000 0.000000 0.035447 0.000000
# 6 0.000000 0.000000 0.000000 0.000000 0.000000 0.038865
#
#
# Mechanical properties :
#
#
# Convention : Reuss Voigt Hill
#
# Bulk Modulus (GPa) = 27.12109 48.01161 37.56635
# Shear Modulus (GPa) = 21.89026 27.77961 24.83494
#
# Velocity S-wave (km/s) = 3.36179 3.78711 3.58077
# Velocity P-wave (km/s) = 5.39175 6.62651 6.04076
#
# Compressibility (1/GPa) = 0.03687167
#
# Stress axis : x y z
#
# Youngs Moduli (GPa) = 85.76352 27.61784 34.39681
#
# Poissons Ratio (x) = 0.24471 0.27392
# Poissons Ratio (y) = 0.75991 0.11044
# Poissons Ratio (z) = 0.68297 0.08867
#
# Static dielectric constant tensor:
#      x y z
#    x 1.718190 0.000000 0.000000 
#    y 0.000000 1.647700 0.000000 
#    z 0.000000 0.000000 1.647490 
# 
# From -- ./inp_files/35693.got.cif
#   From: 2010.05.17/outbox.cif.g08.bks.cpg/sg51_18_cif.got.tgz:35693.got - 2010.06.03 11:52:47.
