data_PCOD9405308
_publ_section_title
;
Structure prediction by ZEFSAII (Michael W. Deem and Ramdas Pophale) SiO2 
 PCOD9405308
Probable space group: P M M A
;
_chemical_formula_sum "Si O2"
_cell_formula_units_Z 40
_cell_length_a 7.529218
_cell_length_b 27.227779
_cell_length_c 9.445344
_cell_angle_alpha 90.000000
_cell_angle_beta 90.000000
_cell_angle_gamma 90.000000
_cell_volume 1936.332203
_symmetry_space_group_name_H-M "P M M A"
_symmetry_group_IT_number 51
_symmetry_cell_setting 'orthorhombic'
loop_
_space_group_symop_operation_xyz
x,y,z
1/2-x,-y,z
1/2+x,-y,-z
-x,y,-z
-x,-y,-z
1/2+x,y,-z
1/2-x,y,z
x,-y,z
loop_
_atom_site_type_symbol
_atom_site_label
_atom_site_fract_x
_atom_site_fract_y
_atom_site_fract_z
Si Si1 0.463186 0.500000 0.165638
Si Si2 0.036972 0.405839 0.334666
Si Si3 0.536764 0.201979 0.834035
Si Si4 0.037461 0.000000 0.331791
Si Si5 0.536934 0.703743 0.665446
Si Si6 0.536546 0.893158 0.667503
O O1 0.250000 0.500000 0.185323
O O2 0.532127 0.549440 0.240521
O O3 0.500000 0.500000 0.000000
O O4 0.250000 0.404236 0.317503
O O5 0.968350 0.351053 0.300225
O O6 0.000000 0.415229 0.500000
O O7 0.750000 0.202091 0.815170
O O8 0.468169 0.251821 0.760961
O O9 0.468188 0.153288 0.754853
O O10 0.500000 0.200825 0.000000
O O11 0.969054 0.946850 0.282154
O O12 0.000000 0.000000 0.500000
O O13 0.250000 0.000000 0.310715
O O14 0.500000 0.713354 0.500000
O O15 0.750000 0.702136 0.682030
O O16 0.500000 0.887442 0.500000
O O17 0.750000 0.894269 0.682511
#
# Coordination Sequence:
#
# PCOD9405308 Si02
#       6
#     4   8   8   4   8   8
#     4  10  21  34  48  70 100 130 159 192 230 274
#     4   9  18  33  52  73  96 122 155 195 235 276
#     4  10  21  34  47  67  96 127 157 190 230 276
#     4   8  14  26  45  68  92 116 146 188 233 272
#     4   9  18  33  52  73  95 120 154 195 236 277
#     4   9  17  30  49  71  93 119 153 192 232 275
#
# _framework density 20.657613000000001
#
# number of rings (size 3 to 8) (size 9 to 14) (size 15 to 20)
#    0.000    2.800    0.000    0.900    0.000    3.200 
#    0.000    0.500    0.000    0.000    0.000    0.000 
#    0.000    0.000    0.000    0.000    0.000    0.000 
#
# Total GULP energy -223130.105222 kJ/mol
# GULP energy per Si atom -5578.252631 kJ/mol
# Density = 2.061060 g / cm^3
# Si number density = 20.657613 Si / 1000 Ang^3
#
#
#
# Elastic Constant Matrix: (Units=GPa)
#
#
# Indices 1 2 3 4 5 6 
#
# 1 54.9469 12.1506 -6.2458 0.0000 0.0000 0.0000
# 2 12.1506 265.7279 141.9448 0.0000 0.0000 0.0000
# 3 -6.2458 141.9448 111.8551 0.0000 0.0000 0.0000
# 4 0.0000 0.0000 0.0000 -36.7837 0.0000 0.0000
# 5 0.0000 0.0000 0.0000 0.0000 24.6970 0.0000
# 6 0.0000 0.0000 0.0000 0.0000 0.0000 -5.3398
#
#
#
# Elastic Compliance Matrix: (Units=1/GPa)
#
#
# Indices 1 2 3 4 5 6 
#
# 1 0.020044 -0.004701 0.007085 0.000000 0.000000 0.000000
# 2 -0.004701 0.012785 -0.016487 0.000000 0.000000 0.000000
# 3 0.007085 -0.016487 0.030258 0.000000 0.000000 0.000000
# 4 0.000000 0.000000 0.000000 -0.027186 0.000000 0.000000
# 5 0.000000 0.000000 0.000000 0.000000 0.040491 0.000000
# 6 0.000000 0.000000 0.000000 0.000000 0.000000 -0.187274
#
#
# Mechanical properties :
#
#
# Convention : Reuss Voigt Hill
#
# Bulk Modulus (GPa) = 28.66875 80.91435 54.79155
# Shear Modulus (GPa) = -70.37344 15.49339 -27.44002
#
# Velocity S-wave (km/s) = -5.84299 2.74160 -3.64857
# Velocity P-wave (km/s) = 5.62250 7.01970 2.97183
#
# Compressibility (1/GPa) = 0.03488118
#
# Stress axis : x y z
#
# Youngs Moduli (GPa) = 49.88936 78.21674 33.04965
#
# Poissons Ratio (x) = 0.36771 -0.23416
# Poissons Ratio (y) = 0.23454 0.54488
# Poissons Ratio (z) = -0.35347 1.28954
#
# Static dielectric constant tensor:
#      x y z
#    x 1.762020 0.000000 0.000000 
#    y 0.000000 1.794200 0.000000 
#    z 0.000000 0.000000 1.655850 
# 
# From -- ./inp_files/5613.got.cif
#   From: 2010.05.17/outbox.cif.g08.bks.cpg/sg51_3_cif.got.tgz:5613.got - 2010.06.03 11:52:47.
