data_PCOD9405541
_publ_section_title
;
Structure prediction by ZEFSAII (Michael W. Deem and Ramdas Pophale) SiO2 
 PCOD9405541
Probable space group: P M M A
;
_chemical_formula_sum "Si O2"
_cell_formula_units_Z 48
_cell_length_a 34.707333
_cell_length_b 8.907752
_cell_length_c 7.776061
_cell_angle_alpha 90.000000
_cell_angle_beta 90.000000
_cell_angle_gamma 90.000000
_cell_volume 2404.080572
_symmetry_space_group_name_H-M "P M M A"
_symmetry_group_IT_number 51
_symmetry_cell_setting 'orthorhombic'
loop_
_space_group_symop_operation_xyz
x,y,z
1/2-x,-y,z
1/2+x,-y,-z
-x,y,-z
-x,-y,-z
1/2+x,y,-z
1/2-x,y,z
x,-y,z
loop_
_atom_site_type_symbol
_atom_site_label
_atom_site_fract_x
_atom_site_fract_y
_atom_site_fract_z
Si Si1 0.651248 0.320455 0.240203
Si Si2 0.706022 0.178938 0.952148
Si Si3 0.166026 0.678519 0.358856
Si Si4 0.485988 0.666745 0.192643
Si Si5 0.087940 0.174391 0.296376
Si Si6 0.068385 0.319275 0.653882
O O1 0.656361 0.500000 0.226363
O O2 0.663267 0.277603 0.438076
O O3 0.605180 0.289568 0.222985
O O4 0.676841 0.242855 0.095312
O O5 0.750000 0.215751 0.001535
O O6 0.697466 0.245084 0.762631
O O7 0.701730 0.000000 0.944614
O O8 0.170136 0.500000 0.354322
O O9 0.125889 0.727064 0.269036
O O10 0.474081 0.500000 0.256973
O O11 0.449704 0.774973 0.194559
O O12 0.524821 0.712768 0.290409
O O13 0.500000 0.652090 0.000000
O O14 0.076180 0.217331 0.490054
O O15 0.096757 0.000000 0.274664
O O16 0.070743 0.500000 0.618066
#
# Coordination Sequence:
#
# PCOD9405541 Si02
#       6
#     8   8   8   8   8   8
#     4   9  20  39  64  92 119 157 207 255 299 352
#     4  11  25  42  62  93 130 163 193 238 307 374
#     4  10  22  42  67  91 119 160 210 255 298 354
#     4  10  21  35  54  81 114 156 201 245 292 343
#     4  11  22  36  56  84 116 153 195 244 304 356
#     4   9  19  37  58  82 112 153 202 247 292 346
#
# _framework density 19.966052999999999
#
# number of rings (size 3 to 8) (size 9 to 14) (size 15 to 20)
#    0.000    2.000    0.000    4.000    2.333    8.333 
#    0.000    3.333    0.000    0.000    0.000    0.000 
#    0.000    0.000    0.000    0.000    0.000    0.000 
#
# Total GULP energy -267772.498024 kJ/mol
# GULP energy per Si atom -5578.593709 kJ/mol
# Density = 1.992061 g / cm^3
# Si number density = 19.966053 Si / 1000 Ang^3
#
#
#
# Elastic Constant Matrix: (Units=GPa)
#
#
# Indices 1 2 3 4 5 6 
#
# 1 44.9301 4.0379 15.6124 0.0000 0.0000 0.0000
# 2 4.0379 17.2765 8.9197 0.0000 0.0000 0.0000
# 3 15.6124 8.9197 44.9535 0.0000 0.0000 0.0000
# 4 0.0000 0.0000 0.0000 177.5334 0.0000 0.0000
# 5 0.0000 0.0000 0.0000 0.0000 36.5834 0.0000
# 6 0.0000 0.0000 0.0000 0.0000 0.0000 35.4793
#
#
#
# Elastic Compliance Matrix: (Units=1/GPa)
#
#
# Indices 1 2 3 4 5 6 
#
# 1 0.025348 -0.001537 -0.008498 0.000000 0.000000 0.000000
# 2 -0.001537 0.064582 -0.012281 0.000000 0.000000 0.000000
# 3 -0.008498 -0.012281 0.027633 0.000000 0.000000 0.000000
# 4 0.000000 0.000000 0.000000 0.005633 0.000000 0.000000
# 5 0.000000 0.000000 0.000000 0.000000 0.027335 0.000000
# 6 0.000000 0.000000 0.000000 0.000000 0.000000 0.028185
#
#
# Mechanical properties :
#
#
# Convention : Reuss Voigt Hill
#
# Bulk Modulus (GPa) = 13.71149 18.25558 15.98353
# Shear Modulus (GPa) = 20.18910 55.15856 37.67383
#
# Velocity S-wave (km/s) = 3.18334 5.26176 4.34855
# Velocity P-wave (km/s) = 4.51596 6.78808 5.76506
#
# Compressibility (1/GPa) = 0.07293151
#
# Stress axis : x y z
#
# Youngs Moduli (GPa) = 39.45098 15.48422 36.18804
#
# Poissons Ratio (x) = 0.02380 0.30754
# Poissons Ratio (y) = 0.06063 0.44441
# Poissons Ratio (z) = 0.33527 0.19016
#
# Static dielectric constant tensor:
#      x y z
#    x 1.841710 0.000000 0.000000 
#    y 0.000000 1.693200 0.000000 
#    z 0.000000 0.000000 1.739360 
# 
# From -- ./inp_files/12824.got.cif
#   From: 2010.05.17/outbox.cif.g08.bks.cpg/sg51_7_cif.got.tgz:12824.got - 2010.06.03 11:52:47.
