data_PCOD9405816
_publ_section_title
;
Structure prediction by ZEFSAII (Michael W. Deem and Ramdas Pophale) SiO2 
 PCOD9405816
Probable space group: P M M A
;
_chemical_formula_sum "Si O2"
_cell_formula_units_Z 38
_cell_length_a 7.554358
_cell_length_b 26.043601
_cell_length_c 8.705593
_cell_angle_alpha 90.000000
_cell_angle_beta 90.000000
_cell_angle_gamma 90.000000
_cell_volume 1712.761746
_symmetry_space_group_name_H-M "P M M A"
_symmetry_group_IT_number 51
_symmetry_cell_setting 'orthorhombic'
loop_
_space_group_symop_operation_xyz
x,y,z
1/2-x,-y,z
1/2+x,-y,-z
-x,y,-z
-x,-y,-z
1/2+x,y,-z
1/2-x,y,z
x,-y,z
loop_
_atom_site_type_symbol
_atom_site_label
_atom_site_fract_x
_atom_site_fract_y
_atom_site_fract_z
Si Si1 0.537738 0.000000 0.679849
Si Si2 0.039090 0.318320 0.178657
Si Si3 0.951524 0.575534 0.320806
Si Si4 0.250000 0.500000 0.207869
Si Si5 0.537725 0.893550 0.820337
Si Si6 0.462080 0.212525 0.320871
O O1 0.500000 0.000000 0.500000
O O2 0.467982 0.947325 0.753787
O O3 0.750000 0.000000 0.702743
O O4 0.250000 0.319149 0.201551
O O5 0.970959 0.262378 0.229870
O O6 0.963097 0.364537 0.279344
O O7 0.000000 0.327126 0.000000
O O8 0.750000 0.558637 0.294993
O O9 0.000000 0.566982 0.500000
O O10 0.093982 0.544511 0.221982
O O11 0.750000 0.894134 0.797669
O O12 0.468050 0.842171 0.738580
O O13 0.500000 0.890482 0.000000
O O14 0.500000 0.218664 0.500000
O O15 0.250000 0.211480 0.299005
#
# Coordination Sequence:
#
# PCOD9405816 Si02
#       6
#     4   8   8   2   8   8
#     4  10  21  36  56  82 120 160 211 262 312 368
#     4  11  23  42  63  90 125 164 207 260 318 383
#     4  12  24  41  69  98 131 169 214 265 317 378
#     4  12  24  44  68 100 136 166 220 260 320 372
#     4  10  21  37  56  86 120 161 206 257 313 377
#     4  10  22  38  61  89 122 156 205 258 313 373
#
# _framework density 22.186391
#
# number of rings (size 3 to 8) (size 9 to 14) (size 15 to 20)
#    0.000    1.263    2.105    3.474    0.000    5.053 
#    0.000    0.526    0.000    0.000    0.000    0.000 
#    0.000    0.000    0.000    0.000    0.000    0.000 
#
# Total GULP energy -212103.991678 kJ/mol
# GULP energy per Si atom -5581.683992 kJ/mol
# Density = 2.213589 g / cm^3
# Si number density = 22.186391 Si / 1000 Ang^3
#
#
#
# Elastic Constant Matrix: (Units=GPa)
#
#
# Indices 1 2 3 4 5 6 
#
# 1 129.1609 35.8389 -10.4842 0.0000 0.0000 0.0000
# 2 35.8389 164.6658 9.8575 0.0000 0.0000 0.0000
# 3 -10.4842 9.8575 46.8290 0.0000 0.0000 0.0000
# 4 0.0000 0.0000 0.0000 -67.3804 0.0000 0.0000
# 5 0.0000 0.0000 0.0000 0.0000 28.0369 0.0000
# 6 0.0000 0.0000 0.0000 0.0000 0.0000 312.4799
#
#
#
# Elastic Compliance Matrix: (Units=1/GPa)
#
#
# Indices 1 2 3 4 5 6 
#
# 1 0.008481 -0.001985 0.002316 0.000000 0.000000 0.000000
# 2 -0.001985 0.006615 -0.001837 0.000000 0.000000 0.000000
# 3 0.002316 -0.001837 0.022260 0.000000 0.000000 0.000000
# 4 0.000000 0.000000 0.000000 -0.014841 0.000000 0.000000
# 5 0.000000 0.000000 0.000000 0.000000 0.035667 0.000000
# 6 0.000000 0.000000 0.000000 0.000000 0.000000 0.003200
#
#
# Mechanical properties :
#
#
# Convention : Reuss Voigt Hill
#
# Bulk Modulus (GPa) = 29.11564 45.67556 37.39560
# Shear Modulus (GPa) = 65.92843 74.99018 70.45930
#
# Velocity S-wave (km/s) = 5.45713 5.82009 5.64153
# Velocity P-wave (km/s) = 7.27040 8.11150 7.70244
#
# Compressibility (1/GPa) = 0.03434580
#
# Stress axis : x y z
#
# Youngs Moduli (GPa) = 117.91102 151.17655 44.92455
#
# Poissons Ratio (x) = 0.30001 -0.10407
# Poissons Ratio (y) = 0.23400 0.08251
# Poissons Ratio (z) = -0.27314 0.27767
#
# Static dielectric constant tensor:
#      x y z
#    x 1.805610 0.000000 0.000000 
#    y 0.000000 1.828950 0.000000 
#    z 0.000000 0.000000 1.756580 
# 
# From -- ./inp_files/5328.got.cif
#   From: 2010.05.17/outbox.cif.g08.bks.cpg/sg51_3_cif.got.tgz:5328.got - 2010.06.03 11:52:47.
