data_PCOD9405075
_publ_section_title
;
Structure prediction by ZEFSAII (Michael W. Deem and Ramdas Pophale) SiO2 
 PCOD9405075
Probable space group: P M M A
;
_chemical_formula_sum "Si O2"
_cell_formula_units_Z 40
_cell_length_a 10.060987
_cell_length_b 14.136906
_cell_length_c 13.961248
_cell_angle_alpha 90.000000
_cell_angle_beta 90.000000
_cell_angle_gamma 90.000000
_cell_volume 1985.725440
_symmetry_space_group_name_H-M "P M M A"
_symmetry_group_IT_number 51
_symmetry_cell_setting 'orthorhombic'
loop_
_space_group_symop_operation_xyz
x,y,z
1/2-x,-y,z
1/2+x,-y,-z
-x,y,-z
-x,-y,-z
1/2+x,y,-z
1/2-x,y,z
x,-y,z
loop_
_atom_site_type_symbol
_atom_site_label
_atom_site_fract_x
_atom_site_fract_y
_atom_site_fract_z
Si Si1 0.750000 0.115062 0.423429
Si Si2 0.405641 0.384614 0.412397
Si Si3 0.471375 0.113939 0.726676
Si Si4 0.750000 0.115269 0.643076
Si Si5 0.598034 0.230966 0.087487
Si Si6 0.902417 0.387503 0.238528
O O1 0.623309 0.143526 0.360933
O O2 0.750000 0.146764 0.532726
O O3 0.750000 0.000000 0.426683
O O4 0.500000 0.352196 0.500000
O O5 0.250000 0.355266 0.414775
O O6 0.403225 0.500000 0.417157
O O7 0.486396 0.360067 0.315958
O O8 0.619033 0.144073 0.699084
O O9 0.424504 0.157347 0.826122
O O10 0.465906 0.000000 0.732577
O O11 0.750000 0.000000 0.640234
O O12 0.750000 0.224844 0.054566
O O13 0.577014 0.331415 0.140293
O O14 0.500000 0.215971 0.000000
O O15 0.750000 0.365700 0.271764
O O16 0.909596 0.500000 0.225207
#
# Coordination Sequence:
#
# PCOD9405075 Si02
#       6
#     4   8   8   4   8   8
#     4   9  16  32  59  87 120 157 191 231 283 339
#     4   9  16  28  51  83 116 151 188 228 281 345
#     4  10  20  37  60  88 122 156 192 236 284 343
#     4   9  18  32  57  91 122 157 195 231 279 341
#     4  11  25  42  61  84 113 151 196 247 299 346
#     4   9  19  38  61  82 110 148 192 244 297 348
#
# _framework density 20.143771999999998
#
# number of rings (size 3 to 8) (size 9 to 14) (size 15 to 20)
#    0.000    2.400    1.000    1.200    1.400    6.400 
#    0.000    2.000    0.000    0.000    0.000    0.000 
#    0.000    0.000    0.000    0.000    0.000    0.000 
#
# Total GULP energy -223479.031521 kJ/mol
# GULP energy per Si atom -5586.975788 kJ/mol
# Density = 2.009792 g / cm^3
# Si number density = 20.143772 Si / 1000 Ang^3
#
#
#
# Elastic Constant Matrix: (Units=GPa)
#
#
# Indices 1 2 3 4 5 6 
#
# 1 119.1600 14.2776 39.4654 0.0000 0.0000 0.0000
# 2 14.2776 64.7561 14.2208 0.0000 0.0000 0.0000
# 3 39.4654 14.2208 83.6191 0.0000 0.0000 0.0000
# 4 0.0000 0.0000 0.0000 19.6143 0.0000 0.0000
# 5 0.0000 0.0000 0.0000 0.0000 42.4445 0.0000
# 6 0.0000 0.0000 0.0000 0.0000 0.0000 13.9150
#
#
#
# Elastic Compliance Matrix: (Units=1/GPa)
#
#
# Indices 1 2 3 4 5 6 
#
# 1 0.010039 -0.001218 -0.004531 0.000000 0.000000 0.000000
# 2 -0.001218 0.016190 -0.002178 0.000000 0.000000 0.000000
# 3 -0.004531 -0.002178 0.014468 0.000000 0.000000 0.000000
# 4 0.000000 0.000000 0.000000 0.050983 0.000000 0.000000
# 5 0.000000 0.000000 0.000000 0.000000 0.023560 0.000000
# 6 0.000000 0.000000 0.000000 0.000000 0.000000 0.071865
#
#
# Mechanical properties :
#
#
# Convention : Reuss Voigt Hill
#
# Bulk Modulus (GPa) = 40.25558 44.82920 42.54239
# Shear Modulus (GPa) = 23.66983 28.49952 26.08468
#
# Velocity S-wave (km/s) = 3.43161 3.76547 3.60241
# Velocity P-wave (km/s) = 5.97736 6.41934 6.20229
#
# Compressibility (1/GPa) = 0.02484128
#
# Stress axis : x y z
#
# Youngs Moduli (GPa) = 99.61539 61.76826 69.11917
#
# Poissons Ratio (x) = 0.07526 0.31316
# Poissons Ratio (y) = 0.12137 0.15056
# Poissons Ratio (z) = 0.45133 0.13455
#
# Static dielectric constant tensor:
#      x y z
#    x 1.721770 0.000000 0.000000 
#    y 0.000000 1.766090 0.000000 
#    z 0.000000 0.000000 1.643840 
# 
# From -- ./inp_files/20553.got.cif
#   From: 2010.05.17/outbox.cif.g08.bks.cpg/sg51_11_cif.got.tgz:20553.got - 2010.06.03 11:52:47.
