data_PCOD9405959
_publ_section_title
;
Structure prediction by ZEFSAII (Michael W. Deem and Ramdas Pophale) SiO2 
 PCOD9405959
Probable space group: P M M A
;
_chemical_formula_sum "Si O2"
_cell_formula_units_Z 48
_cell_length_a 19.735610
_cell_length_b 21.923303
_cell_length_c 5.613427
_cell_angle_alpha 90.000000
_cell_angle_beta 90.000000
_cell_angle_gamma 90.000000
_cell_volume 2428.760101
_symmetry_space_group_name_H-M "P M M A"
_symmetry_group_IT_number 51
_symmetry_cell_setting 'orthorhombic'
loop_
_space_group_symop_operation_xyz
x,y,z
1/2-x,-y,z
1/2+x,-y,-z
-x,y,-z
-x,-y,-z
1/2+x,y,-z
1/2-x,y,z
x,-y,z
loop_
_atom_site_type_symbol
_atom_site_label
_atom_site_fract_x
_atom_site_fract_y
_atom_site_fract_z
Si Si1 0.428617 0.434324 0.864723
Si Si2 0.674165 0.368248 0.838183
Si Si3 0.175692 0.752119 0.863084
Si Si4 0.331098 0.870770 0.134184
Si Si5 0.832437 0.928779 0.368736
Si Si6 0.423697 0.688562 0.555308
O O1 0.420625 0.500000 0.738358
O O2 0.366226 0.424193 0.046201
O O3 0.500000 0.435860 0.000000
O O4 0.431272 0.373240 0.710831
O O5 0.750000 0.382370 0.746703
O O6 0.624325 0.335859 0.653290
O O7 0.682005 0.315983 0.037130
O O8 0.250000 0.770219 0.761273
O O9 0.159913 0.799398 0.073452
O O10 0.115795 0.744498 0.677233
O O11 0.250000 0.881899 0.142373
O O12 0.355817 0.903730 0.889924
O O13 0.356454 0.893502 0.391761
O O14 0.750000 0.924214 0.364533
O O15 0.849589 0.000000 0.391828
O O16 0.500000 0.707448 0.500000
#
# Coordination Sequence:
#
# PCOD9405959 Si02
#       6
#     8   8   8   8   8   8
#     4  10  21  38  57  79 108 142 182 224 275 340
#     4  10  21  37  56  79 109 143 179 228 282 334
#     4   9  20  34  51  76 109 145 181 227 282 342
#     4   9  17  28  45  69 103 147 188 227 281 342
#     4   9  16  26  42  68 104 145 187 230 277 335
#     4  11  21  35  57  81 104 141 183 229 279 334
#
# _framework density 19.763169000000001
#
# number of rings (size 3 to 8) (size 9 to 14) (size 15 to 20)
#    0.000    2.333    1.667    1.000    2.333    4.000 
#    0.000    0.000    0.000    0.000    0.000    0.000 
#    0.000    4.000    0.000    0.000    0.000    0.000 
#
# Total GULP energy -267224.819950 kJ/mol
# GULP energy per Si atom -5567.183749 kJ/mol
# Density = 1.971819 g / cm^3
# Si number density = 19.763169 Si / 1000 Ang^3
#
#
#
# Elastic Constant Matrix: (Units=GPa)
#
#
# Indices 1 2 3 4 5 6 
#
# 1 104.3565 3.2056 17.3489 0.0000 0.0000 0.0000
# 2 3.2056 71.2246 6.4152 0.0000 0.0000 0.0000
# 3 17.3489 6.4152 54.8199 0.0000 0.0000 0.0000
# 4 0.0000 0.0000 0.0000 31.0821 0.0000 0.0000
# 5 0.0000 0.0000 0.0000 0.0000 18.8991 0.0000
# 6 0.0000 0.0000 0.0000 0.0000 0.0000 393.7603
#
#
#
# Elastic Compliance Matrix: (Units=1/GPa)
#
#
# Indices 1 2 3 4 5 6 
#
# 1 0.010117 -0.000169 -0.003182 0.000000 0.000000 0.000000
# 2 -0.000169 0.014192 -0.001607 0.000000 0.000000 0.000000
# 3 -0.003182 -0.001607 0.019437 0.000000 0.000000 0.000000
# 4 0.000000 0.000000 0.000000 0.032173 0.000000 0.000000
# 5 0.000000 0.000000 0.000000 0.000000 0.052913 0.000000
# 6 0.000000 0.000000 0.000000 0.000000 0.000000 0.002540
#
#
# Mechanical properties :
#
#
# Convention : Reuss Voigt Hill
#
# Bulk Modulus (GPa) = 29.55988 31.59339 30.57664
# Shear Modulus (GPa) = 32.77321 102.31038 67.54180
#
# Velocity S-wave (km/s) = 4.07664 7.20282 5.85233
# Velocity P-wave (km/s) = 6.09493 9.23010 7.82122
#
# Compressibility (1/GPa) = 0.03382964
#
# Stress axis : x y z
#
# Youngs Moduli (GPa) = 98.84650 70.45991 51.44920
#
# Poissons Ratio (x) = 0.01189 0.16371
# Poissons Ratio (y) = 0.01668 0.08270
# Poissons Ratio (z) = 0.31452 0.11326
#
# Static dielectric constant tensor:
#      x y z
#    x 0.791940 0.000000 0.000000 
#    y 0.000000 1.703360 0.000000 
#    z 0.000000 0.000000 1.867270 
# 
# From -- ./inp_files/2045.got.cif
#   From: 2010.05.17/outbox.cif.g08.bks.cpg/sg51_2_cif.got.tgz:2045.got - 2010.06.03 11:52:47.
