data_PCOD9405503
_publ_section_title
;
Structure prediction by ZEFSAII (Michael W. Deem and Ramdas Pophale) SiO2 
 PCOD9405503
Probable space group: P M M A
;
_chemical_formula_sum "Si O2"
_cell_formula_units_Z 64
_cell_length_a 19.330496
_cell_length_b 14.003206
_cell_length_c 15.449810
_cell_angle_alpha 90.000000
_cell_angle_beta 90.000000
_cell_angle_gamma 90.000000
_cell_volume 4182.092346
_symmetry_space_group_name_H-M "P M M A"
_symmetry_group_IT_number 51
_symmetry_cell_setting 'orthorhombic'
loop_
_space_group_symop_operation_xyz
x,y,z
1/2-x,-y,z
1/2+x,-y,-z
-x,y,-z
-x,-y,-z
1/2+x,y,-z
1/2-x,y,z
x,-y,z
loop_
_atom_site_type_symbol
_atom_site_label
_atom_site_fract_x
_atom_site_fract_y
_atom_site_fract_z
Si Si1 0.925047 0.197901 0.781692
Si Si2 0.104558 0.390235 0.936329
Si Si3 0.668805 0.800214 0.121320
Si Si4 0.076103 0.115605 0.529943
Si Si5 0.668378 0.885319 0.631821
Si Si6 0.423337 0.114088 0.029640
Si Si7 0.425048 0.884409 0.728622
Si Si8 0.946510 0.390133 0.870732
O O1 0.870190 0.167270 0.709869
O O2 0.908561 0.151770 0.874814
O O3 0.928997 0.310766 0.800245
O O4 0.999634 0.156357 0.753531
O O5 0.126814 0.500000 0.924704
O O6 0.152659 0.311706 0.892874
O O7 0.027454 0.380814 0.896303
O O8 0.094959 0.372835 0.039395
O O9 0.750000 0.818727 0.123972
O O10 0.630435 0.840622 0.205860
O O11 0.631865 0.850646 0.039833
O O12 0.132434 0.143611 0.458633
O O13 0.090030 0.142394 0.629031
O O14 0.000000 0.148738 0.500000
O O15 0.074178 0.000000 0.529573
O O16 0.750000 0.867355 0.630916
O O17 0.657707 0.000000 0.642410
O O18 0.424853 0.000000 0.030696
O O19 0.500000 0.148546 0.000000
O O20 0.426425 0.000000 0.736700
O O21 0.934368 0.500000 0.844692
#
# Coordination Sequence:
#
# PCOD9405503 Si02
#       8
#     8   8   8   8   8   8   8   8
#     4  12  19  32  56  78 104 135 177 217 256 310
#     4   9  17  34  54  73  97 132 177 222 264 302
#     4  12  24  35  48  74 108 141 176 216 259 306
#     4   9  17  32  54  77 100 133 178 218 255 304
#     4  10  21  35  52  79 111 138 170 217 267 311
#     4  11  21  33  50  70 100 144 182 207 243 301
#     4  11  21  33  53  78 104 141 181 215 252 305
#     4   9  17  31  56  80  97 125 174 226 261 298
#
# _framework density 15.303343999999999
#
# number of rings (size 3 to 8) (size 9 to 14) (size 15 to 20)
#    0.000    1.625    5.000    2.250    0.000    2.250 
#    0.000    1.250    0.000    0.375    0.000    2.625 
#    0.000    0.000    0.000    0.000    0.000    0.000 
#
# Total GULP energy -357122.711038 kJ/mol
# GULP energy per Si atom -5580.042360 kJ/mol
# Density = 1.526851 g / cm^3
# Si number density = 15.303344 Si / 1000 Ang^3
#
#
#
# Elastic Constant Matrix: (Units=GPa)
#
#
# Indices 1 2 3 4 5 6 
#
# 1 111.7082 44.7953 74.5390 0.0000 0.0000 0.0000
# 2 44.7953 85.7731 52.4182 0.0000 0.0000 0.0000
# 3 74.5390 52.4182 148.3791 0.0000 0.0000 0.0000
# 4 0.0000 0.0000 0.0000 6.6260 0.0000 0.0000
# 5 0.0000 0.0000 0.0000 0.0000 23.0103 0.0000
# 6 0.0000 0.0000 0.0000 0.0000 0.0000 15.3755
#
#
#
# Elastic Compliance Matrix: (Units=1/GPa)
#
#
# Indices 1 2 3 4 5 6 
#
# 1 0.014452 -0.003967 -0.005858 0.000000 0.000000 0.000000
# 2 -0.003967 0.015958 -0.003644 0.000000 0.000000 0.000000
# 3 -0.005858 -0.003644 0.010970 0.000000 0.000000 0.000000
# 4 0.000000 0.000000 0.000000 0.150921 0.000000 0.000000
# 5 0.000000 0.000000 0.000000 0.000000 0.043459 0.000000
# 6 0.000000 0.000000 0.000000 0.000000 0.000000 0.065039
#
#
# Mechanical properties :
#
#
# Convention : Reuss Voigt Hill
#
# Bulk Modulus (GPa) = 69.25540 76.59615 72.92578
# Shear Modulus (GPa) = 15.03526 20.60955 17.82240
#
# Velocity S-wave (km/s) = 3.13786 3.67377 3.41634
# Velocity P-wave (km/s) = 7.64732 8.25567 7.95731
#
# Compressibility (1/GPa) = 0.01443931
#
# Stress axis : x y z
#
# Youngs Moduli (GPa) = 69.19480 62.66517 91.15770
#
# Poissons Ratio (x) = 0.24861 0.53404
# Poissons Ratio (y) = 0.27452 0.33222
# Poissons Ratio (z) = 0.40538 0.22838
#
# Static dielectric constant tensor:
#      x y z
#    x 1.497000 0.000000 0.000000 
#    y 0.000000 1.516760 0.000000 
#    z 0.000000 0.000000 1.496100 
# 
# From -- ./inp_files/25387.got.cif
#   From: 2010.05.17/outbox.cif.g08.bks.cpg/sg51_13_cif.got.tgz:25387.got - 2010.06.03 11:52:47.
