data_PCOD9405635
_publ_section_title
;
Structure prediction by ZEFSAII (Michael W. Deem and Ramdas Pophale) SiO2 
 PCOD9405635
Probable space group: P M M A
;
_chemical_formula_sum "Si O2"
_cell_formula_units_Z 48
_cell_length_a 32.538664
_cell_length_b 7.581525
_cell_length_c 9.226818
_cell_angle_alpha 90.000000
_cell_angle_beta 90.000000
_cell_angle_gamma 90.000000
_cell_volume 2276.188595
_symmetry_space_group_name_H-M "P M M A"
_symmetry_group_IT_number 51
_symmetry_cell_setting 'orthorhombic'
loop_
_space_group_symop_operation_xyz
x,y,z
1/2-x,-y,z
1/2+x,-y,-z
-x,y,-z
-x,-y,-z
1/2+x,y,-z
1/2-x,y,z
x,-y,z
loop_
_atom_site_type_symbol
_atom_site_label
_atom_site_fract_x
_atom_site_fract_y
_atom_site_fract_z
Si Si1 0.494465 0.204166 0.340843
Si Si2 0.580731 0.785234 0.852602
Si Si3 0.660856 0.788537 0.683381
Si Si4 0.839314 0.287951 0.341114
Si Si5 0.421855 0.706558 0.809951
Si Si6 0.750000 0.214772 0.666230
Si Si7 0.250000 0.705316 0.674457
O O1 0.500000 0.285398 0.500000
O O2 0.458255 0.278531 0.240905
O O3 0.537645 0.209349 0.258434
O O4 0.482287 0.000000 0.364605
O O5 0.622639 0.722732 0.776202
O O6 0.580449 0.000000 0.854468
O O7 0.578102 0.726831 0.017901
O O8 0.656120 0.748345 0.512564
O O9 0.706396 0.727281 0.731136
O O10 0.660590 0.000000 0.696552
O O11 0.837718 0.500000 0.324238
O O12 0.879311 0.221813 0.256833
O O13 0.794819 0.218298 0.286460
O O14 0.424039 0.500000 0.772497
O O15 0.750000 0.282383 0.500864
O O16 0.750000 0.000000 0.660684
O O17 0.250000 0.500000 0.718153
#
# Coordination Sequence:
#
# PCOD9405635 Si02
#       7
#     8   8   8   8   8   4   4
#     4  10  21  38  59  79  98 126 167 209 248 298
#     4  10  21  36  53  74 102 136 169 201 244 299
#     4   9  17  31  53  78 102 131 168 210 253 296
#     4   9  18  32  51  75 101 131 168 208 249 294
#     4  11  23  36  51  75 106 136 166 205 252 296
#     4   8  14  26  47  76 104 126 158 208 257 294
#     4   8  14  28  49  70  96 130 166 204 245 290
#
# _framework density 21.087883000000001
#
# number of rings (size 3 to 8) (size 9 to 14) (size 15 to 20)
#    0.000    2.500    0.000    2.000    0.000    6.333 
#    0.000    0.833    0.000    0.000    0.000    0.000 
#    0.000    0.000    0.000    0.000    0.000    0.000 
#
# Total GULP energy -267795.108372 kJ/mol
# GULP energy per Si atom -5579.064758 kJ/mol
# Density = 2.103989 g / cm^3
# Si number density = 21.087883 Si / 1000 Ang^3
#
#
#
# Elastic Constant Matrix: (Units=GPa)
#
#
# Indices 1 2 3 4 5 6 
#
# 1 200.6684 -9.1526 80.7498 0.0000 0.0000 0.0000
# 2 -9.1526 47.7260 -14.4965 0.0000 0.0000 0.0000
# 3 80.7498 -14.4965 105.4293 0.0000 0.0000 0.0000
# 4 0.0000 0.0000 0.0000 19.6440 0.0000 0.0000
# 5 0.0000 0.0000 0.0000 0.0000 -18.6901 0.0000
# 6 0.0000 0.0000 0.0000 0.0000 0.0000 11.8539
#
#
#
# Elastic Compliance Matrix: (Units=1/GPa)
#
#
# Indices 1 2 3 4 5 6 
#
# 1 0.007208 -0.000307 -0.005563 0.000000 0.000000 0.000000
# 2 -0.000307 0.021879 0.003244 0.000000 0.000000 0.000000
# 3 -0.005563 0.003244 0.014192 0.000000 0.000000 0.000000
# 4 0.000000 0.000000 0.000000 0.050906 0.000000 0.000000
# 5 0.000000 0.000000 0.000000 0.000000 -0.053504 0.000000
# 6 0.000000 0.000000 0.000000 0.000000 0.000000 0.084360
#
#
# Mechanical properties :
#
#
# Convention : Reuss Voigt Hill
#
# Bulk Modulus (GPa) = 26.29777 52.00278 39.15028
# Shear Modulus (GPa) = 34.97252 22.34309 28.65781
#
# Velocity S-wave (km/s) = 4.07679 3.25856 3.69042
# Velocity P-wave (km/s) = 5.88709 6.23468 6.06338
#
# Compressibility (1/GPa) = 0.03802603
#
# Stress axis : x y z
#
# Youngs Moduli (GPa) = 138.73774 45.70532 70.46352
#
# Poissons Ratio (x) = 0.01405 0.39198
# Poissons Ratio (y) = 0.04265 -0.22857
# Poissons Ratio (z) = 0.77178 -0.14826
#
# Static dielectric constant tensor:
#      x y z
#    x 1.800210 0.000000 0.000000 
#    y 0.000000 2.919880 0.000000 
#    z 0.000000 0.000000 1.693590 
# 
# From -- ./inp_files/12976.got.cif
#   From: 2010.05.17/outbox.cif.g08.bks.cpg/sg51_7_cif.got.tgz:12976.got - 2010.06.03 11:52:47.
