data_PCOD9405427
_publ_section_title
;
Structure prediction by ZEFSAII (Michael W. Deem and Ramdas Pophale) SiO2 
 PCOD9405427
Probable space group: P M M A
;
_chemical_formula_sum "Si O2"
_cell_formula_units_Z 48
_cell_length_a 10.273125
_cell_length_b 7.865088
_cell_length_c 31.397263
_cell_angle_alpha 90.000000
_cell_angle_beta 90.000000
_cell_angle_gamma 90.000000
_cell_volume 2536.868463
_symmetry_space_group_name_H-M "P M M A"
_symmetry_group_IT_number 51
_symmetry_cell_setting 'orthorhombic'
loop_
_space_group_symop_operation_xyz
x,y,z
1/2-x,-y,z
1/2+x,-y,-z
-x,y,-z
-x,-y,-z
1/2+x,y,-z
1/2-x,y,z
x,-y,z
loop_
_atom_site_type_symbol
_atom_site_label
_atom_site_fract_x
_atom_site_fract_y
_atom_site_fract_z
Si Si1 0.397414 0.295321 0.368085
Si Si2 0.897403 0.703164 0.200674
Si Si3 0.102746 0.202318 0.703925
Si Si4 0.600786 0.707693 0.535545
Si Si5 0.398306 0.205091 0.035125
Si Si6 0.101986 0.295041 0.131527
O O1 0.250000 0.235402 0.358275
O O2 0.392870 0.500000 0.369352
O O3 0.502123 0.247138 0.332931
O O4 0.431316 0.237840 0.416145
O O5 0.750000 0.771589 0.195609
O O6 0.890614 0.500000 0.194638
O O7 0.938377 0.733842 0.249412
O O8 0.000074 0.770552 0.166367
O O9 0.250000 0.268288 0.695585
O O10 0.109570 0.000000 0.706430
O O11 0.500000 0.767706 0.500000
O O12 0.750000 0.757483 0.526468
O O13 0.597856 0.500000 0.535225
O O14 0.250000 0.267001 0.028150
O O15 0.436730 0.251555 0.083249
O O16 0.395411 0.000000 0.032422
O O17 0.500000 0.268417 0.000000
O O18 0.250000 0.231742 0.138209
O O19 0.106001 0.500000 0.134927
#
# Coordination Sequence:
#
# PCOD9405427 Si02
#       6
#     8   8   8   8   8   8
#     4   9  18  32  50  73 100 129 162 200 242 289
#     4   9  18  33  51  70  94 124 157 194 238 287
#     4  10  21  35  50  71  99 129 163 203 244 288
#     4   8  14  25  42  67  97 124 153 193 238 283
#     4   9  18  32  48  67  93 124 156 189 226 270
#     4   9  18  32  49  70  95 121 151 190 234 278
#
# _framework density 18.920964000000001
#
# number of rings (size 3 to 8) (size 9 to 14) (size 15 to 20)
#    0.000    3.000    0.000    1.500    0.000    4.333 
#    0.000    3.333    0.000    0.500    0.000    0.000 
#    0.000    0.000    0.000    0.000    0.000    0.000 
#
# Total GULP energy -267605.833431 kJ/mol
# GULP energy per Si atom -5575.121530 kJ/mol
# Density = 1.887790 g / cm^3
# Si number density = 18.920964 Si / 1000 Ang^3
#
#
#
# Elastic Constant Matrix: (Units=GPa)
#
#
# Indices 1 2 3 4 5 6 
#
# 1 130.7575 5.7253 142.1769 0.0000 0.0000 0.0000
# 2 5.7253 17.5725 1.6070 0.0000 0.0000 0.0000
# 3 142.1769 1.6070 187.3962 0.0000 0.0000 0.0000
# 4 0.0000 0.0000 0.0000 58.2356 0.0000 0.0000
# 5 0.0000 0.0000 0.0000 0.0000 39.9316 0.0000
# 6 0.0000 0.0000 0.0000 0.0000 0.0000 5.6863
#
#
#
# Elastic Compliance Matrix: (Units=1/GPa)
#
#
# Indices 1 2 3 4 5 6 
#
# 1 0.046015 -0.011809 -0.034810 0.000000 0.000000 0.000000
# 2 -0.011809 0.059982 0.008445 0.000000 0.000000 0.000000
# 3 -0.034810 0.008445 0.031674 0.000000 0.000000 0.000000
# 4 0.000000 0.000000 0.000000 0.017172 0.000000 0.000000
# 5 0.000000 0.000000 0.000000 0.000000 0.025043 0.000000
# 6 0.000000 0.000000 0.000000 0.000000 0.000000 0.175862
#
#
# Mechanical properties :
#
#
# Convention : Reuss Voigt Hill
#
# Bulk Modulus (GPa) = 16.30700 70.52719 43.41709
# Shear Modulus (GPa) = 11.04879 33.18516 22.11698
#
# Velocity S-wave (km/s) = 2.41912 4.19248 3.42265
# Velocity P-wave (km/s) = 4.05463 7.79689 6.21416
#
# Compressibility (1/GPa) = 0.06132335
#
# Stress axis : x y z
#
# Youngs Moduli (GPa) = 21.73187 16.67161 31.57117
#
# Poissons Ratio (x) = 0.19687 1.09901
# Poissons Ratio (y) = 0.25663 -0.26662
# Poissons Ratio (z) = 0.75650 -0.14079
#
# Static dielectric constant tensor:
#      x y z
#    x 1.672600 0.000000 0.000000 
#    y 0.000000 1.680110 0.000000 
#    z 0.000000 0.000000 1.627330 
# 
# From -- ./inp_files/37030.got.cif
#   From: 2010.05.17/outbox.cif.g08.bks.cpg/sg51_19_cif.got.tgz:37030.got - 2010.06.03 11:52:47.
