data_PCOD9405085
_publ_section_title
;
Structure prediction by ZEFSAII (Michael W. Deem and Ramdas Pophale) SiO2 
 PCOD9405085
Probable space group: P M M A
;
_chemical_formula_sum "Si O2"
_cell_formula_units_Z 40
_cell_length_a 18.672530
_cell_length_b 7.723035
_cell_length_c 12.791743
_cell_angle_alpha 90.000000
_cell_angle_beta 90.000000
_cell_angle_gamma 90.000000
_cell_volume 1844.679384
_symmetry_space_group_name_H-M "P M M A"
_symmetry_group_IT_number 51
_symmetry_cell_setting 'orthorhombic'
loop_
_space_group_symop_operation_xyz
x,y,z
1/2-x,-y,z
1/2+x,-y,-z
-x,y,-z
-x,-y,-z
1/2+x,y,-z
1/2-x,y,z
x,-y,z
loop_
_atom_site_type_symbol
_atom_site_label
_atom_site_fract_x
_atom_site_fract_y
_atom_site_fract_z
Si Si1 0.066402 0.289173 0.162820
Si Si2 0.169052 0.291531 0.352553
Si Si3 0.925050 0.792763 0.452299
Si Si4 0.829074 0.297067 0.015923
Si Si5 0.406332 0.201485 0.780948
O O1 0.060346 0.500000 0.161452
O O2 0.114344 0.235022 0.262244
O O3 0.986753 0.219537 0.175058
O O4 0.108906 0.228336 0.060029
O O5 0.250000 0.227360 0.337220
O O6 0.171128 0.500000 0.346714
O O7 0.136785 0.241595 0.464260
O O8 0.908150 0.724334 0.336609
O O9 0.000000 0.724321 0.500000
O O10 0.933883 0.000000 0.440971
O O11 0.750000 0.221078 0.998993
O O12 0.824387 0.500000 0.988772
O O13 0.853119 0.283521 0.135520
O O14 0.386792 0.000000 0.774874
#
# Coordination Sequence:
#
# PCOD9405085 Si02
#       5
#     8   8   8   8   8
#     4  10  20  37  61  86 114 149 189 233 285 341
#     4  10  21  36  58  89 118 145 186 239 288 335
#     4  10  21  39  58  79 113 154 192 230 279 338
#     4  10  22  40  60  83 115 153 190 231 284 344
#     4  11  23  38  59  85 115 150 193 239 281 333
#
# _framework density 21.683983999999999
#
# number of rings (size 3 to 8) (size 9 to 14) (size 15 to 20)
#    0.000    1.800    2.000    1.800    0.000    9.200 
#    0.000    4.000    0.000    3.600    0.000    0.000 
#    0.000    0.000    0.000    0.000    0.000    0.000 
#
# Total GULP energy -223547.863791 kJ/mol
# GULP energy per Si atom -5588.696595 kJ/mol
# Density = 2.163463 g / cm^3
# Si number density = 21.683984 Si / 1000 Ang^3
#
#
#
# Elastic Constant Matrix: (Units=GPa)
#
#
# Indices 1 2 3 4 5 6 
#
# 1 36.3582 -15.0452 -10.4368 0.0000 0.0000 0.0000
# 2 -15.0452 27.9340 -6.8432 0.0000 0.0000 0.0000
# 3 -10.4368 -6.8432 97.0462 0.0000 0.0000 0.0000
# 4 0.0000 0.0000 0.0000 35.6148 0.0000 0.0000
# 5 0.0000 0.0000 0.0000 0.0000 3.2629 0.0000
# 6 0.0000 0.0000 0.0000 0.0000 0.0000 26.3510
#
#
#
# Elastic Compliance Matrix: (Units=1/GPa)
#
#
# Indices 1 2 3 4 5 6 
#
# 1 0.038221 0.021972 0.005660 0.000000 0.000000 0.000000
# 2 0.021972 0.049059 0.005822 0.000000 0.000000 0.000000
# 3 0.005660 0.005822 0.011324 0.000000 0.000000 0.000000
# 4 0.000000 0.000000 0.000000 0.028078 0.000000 0.000000
# 5 0.000000 0.000000 0.000000 0.000000 0.306471 0.000000
# 6 0.000000 0.000000 0.000000 0.000000 0.000000 0.037949
#
#
# Mechanical properties :
#
#
# Convention : Reuss Voigt Hill
#
# Bulk Modulus (GPa) = 6.04184 10.74312 8.39248
# Shear Modulus (GPa) = 10.88460 25.95666 18.42063
#
# Velocity S-wave (km/s) = 2.24289 3.46358 2.91779
# Velocity P-wave (km/s) = 3.08217 4.57825 3.90257
#
# Compressibility (1/GPa) = 0.16551252
#
# Stress axis : x y z
#
# Youngs Moduli (GPa) = 26.16368 20.38356 88.31095
#
# Poissons Ratio (x) = -0.44787 -0.49982
# Poissons Ratio (y) = -0.57487 -0.51418
# Poissons Ratio (z) = -0.14808 -0.11868
#
# Static dielectric constant tensor:
#      x y z
#    x 1.758350 0.000000 0.000000 
#    y 0.000000 1.801270 0.000000 
#    z 0.000000 0.000000 1.783940 
# 
# From -- ./inp_files/17055.got.cif
#   From: 2010.05.17/outbox.cif.g08.bks.cpg/sg51_9_cif.got.tgz:17055.got - 2010.06.03 11:52:47.
