data_PCOD9405453
_publ_section_title
;
Structure prediction by ZEFSAII (Michael W. Deem and Ramdas Pophale) SiO2 
 PCOD9405453
Probable space group: P M M A
;
_chemical_formula_sum "Si O2"
_cell_formula_units_Z 64
_cell_length_a 14.300277
_cell_length_b 9.355469
_cell_length_c 24.927895
_cell_angle_alpha 90.000000
_cell_angle_beta 90.000000
_cell_angle_gamma 90.000000
_cell_volume 3334.998329
_symmetry_space_group_name_H-M "P M M A"
_symmetry_group_IT_number 51
_symmetry_cell_setting 'orthorhombic'
loop_
_space_group_symop_operation_xyz
x,y,z
1/2-x,-y,z
1/2+x,-y,-z
-x,y,-z
-x,-y,-z
1/2+x,y,-z
1/2-x,y,z
x,-y,z
loop_
_atom_site_type_symbol
_atom_site_label
_atom_site_fract_x
_atom_site_fract_y
_atom_site_fract_z
Si Si1 0.038561 0.326861 0.808838
Si Si2 0.642544 0.671283 0.869086
Si Si3 0.637221 0.333508 0.082476
Si Si4 0.136024 0.836180 0.022655
Si Si5 0.643461 0.670361 0.632687
Si Si6 0.137704 0.831324 0.593042
Si Si7 0.540553 0.671477 0.309663
Si Si8 0.136070 0.164725 0.474098
O O1 0.045624 0.500000 0.807005
O O2 0.098639 0.281339 0.860313
O O3 0.066854 0.276267 0.749840
O O4 0.931277 0.291816 0.823085
O O5 0.750000 0.709817 0.856896
O O6 0.639091 0.500000 0.877235
O O7 0.612646 0.747529 0.924111
O O8 0.750000 0.330109 0.083880
O O9 0.608977 0.500000 0.075162
O O10 0.604658 0.240682 0.031899
O O11 0.250000 0.836419 0.020771
O O12 0.105044 0.000000 0.026019
O O13 0.750000 0.716272 0.644460
O O14 0.644486 0.500000 0.624312
O O15 0.569116 0.700029 0.679077
O O16 0.610391 0.744130 0.577656
O O17 0.250000 0.816914 0.594602
O O18 0.094985 0.745172 0.642024
O O19 0.105441 0.784954 0.533214
O O20 0.116035 0.000000 0.597798
O O21 0.554655 0.500000 0.312372
O O22 0.250000 0.165730 0.475573
O O23 0.106854 0.000000 0.467176
#
# Coordination Sequence:
#
# PCOD9405453 Si02
#       8
#     8   8   8   8   8   8   8   8
#     4   9  19  34  50  71  97 126 166 207 237 276
#     4   9  17  31  52  74  96 126 162 198 237 283
#     4   9  17  31  51  71  93 124 159 195 236 283
#     4   9  17  30  49  74 102 126 151 191 243 294
#     4   9  18  32  50  74 105 136 164 202 253 302
#     4   9  19  36  55  75 101 132 165 205 254 303
#     4  10  21  35  51  74 102 133 172 212 249 294
#     4   8  15  30  52  75  98 127 165 205 247 301
#
# _framework density 19.190414000000001
#
# number of rings (size 3 to 8) (size 9 to 14) (size 15 to 20)
#    0.000    3.000    0.000    1.125    0.000    4.750 
#    0.000   11.875    0.000    1.500    0.000    3.500 
#    0.000    0.000    0.000    0.000    0.000    0.000 
#
# Total GULP energy -356940.303565 kJ/mol
# GULP energy per Si atom -5577.192243 kJ/mol
# Density = 1.914674 g / cm^3
# Si number density = 19.190414 Si / 1000 Ang^3
#
#
#
# Elastic Constant Matrix: (Units=GPa)
#
#
# Indices 1 2 3 4 5 6 
#
# 1 21.3738 4.8225 -3.4780 0.0000 0.0000 0.0000
# 2 4.8225 20.7863 20.0363 0.0000 0.0000 0.0000
# 3 -3.4780 20.0363 88.8405 0.0000 0.0000 0.0000
# 4 0.0000 0.0000 0.0000 -21.3841 0.0000 0.0000
# 5 0.0000 0.0000 0.0000 0.0000 25.0427 0.0000
# 6 0.0000 0.0000 0.0000 0.0000 0.0000 13.9538
#
#
#
# Elastic Compliance Matrix: (Units=1/GPa)
#
#
# Indices 1 2 3 4 5 6 
#
# 1 0.051800 -0.017854 0.006054 0.000000 0.000000 0.000000
# 2 -0.017854 0.067626 -0.015951 0.000000 0.000000 0.000000
# 3 0.006054 -0.015951 0.015091 0.000000 0.000000 0.000000
# 4 0.000000 0.000000 0.000000 -0.046764 0.000000 0.000000
# 5 0.000000 0.000000 0.000000 0.000000 0.039932 0.000000
# 6 0.000000 0.000000 0.000000 0.000000 0.000000 0.071665
#
#
# Mechanical properties :
#
#
# Convention : Reuss Voigt Hill
#
# Bulk Modulus (GPa) = 12.65564 19.30693 15.98129
# Shear Modulus (GPa) = 17.78170 10.83046 14.30608
#
# Velocity S-wave (km/s) = 3.04730 2.37822 2.73331
# Velocity P-wave (km/s) = 4.35781 4.19807 4.27868
#
# Compressibility (1/GPa) = 0.07901613
#
# Stress axis : x y z
#
# Youngs Moduli (GPa) = 19.30513 14.78724 66.26661
#
# Poissons Ratio (x) = 0.26401 -0.40121
# Poissons Ratio (y) = 0.34467 1.05700
# Poissons Ratio (z) = -0.11688 0.23587
#
# Static dielectric constant tensor:
#      x y z
#    x 1.727020 0.000000 0.000000 
#    y 0.000000 1.643440 0.000000 
#    z 0.000000 0.000000 1.644830 
# 
# From -- ./inp_files/35676.got.cif
#   From: 2010.05.17/outbox.cif.g08.bks.cpg/sg51_18_cif.got.tgz:35676.got - 2010.06.03 11:52:47.
