data_PCOD9405617
_publ_section_title
;
Structure prediction by ZEFSAII (Michael W. Deem and Ramdas Pophale) SiO2 
 PCOD9405617
Probable space group: P M M A
;
_chemical_formula_sum "Si O2"
_cell_formula_units_Z 40
_cell_length_a 7.801405
_cell_length_b 9.866440
_cell_length_c 26.513146
_cell_angle_alpha 90.000000
_cell_angle_beta 90.000000
_cell_angle_gamma 90.000000
_cell_volume 2040.772375
_symmetry_space_group_name_H-M "P M M A"
_symmetry_group_IT_number 51
_symmetry_cell_setting 'orthorhombic'
loop_
_space_group_symop_operation_xyz
x,y,z
1/2-x,-y,z
1/2+x,-y,-z
-x,y,-z
-x,-y,-z
1/2+x,y,-z
1/2-x,y,z
x,-y,z
loop_
_atom_site_type_symbol
_atom_site_label
_atom_site_fract_x
_atom_site_fract_y
_atom_site_fract_z
Si Si1 0.043836 0.654146 0.557337
Si Si2 0.459181 0.343702 0.740245
Si Si3 0.044480 0.347465 0.853483
Si Si4 0.546880 0.152786 0.944696
Si Si5 0.960177 0.843960 0.351785
O O1 0.250000 0.649475 0.561338
O O2 0.980085 0.500000 0.566318
O O3 0.982832 0.760513 0.598928
O O4 0.000000 0.691873 0.500000
O O5 0.250000 0.342198 0.739561
O O6 0.509465 0.500000 0.729763
O O7 0.515673 0.308241 0.797178
O O8 0.516092 0.239352 0.697626
O O9 0.250000 0.354555 0.850226
O O10 0.980580 0.500000 0.864229
O O11 0.004142 0.245465 0.898105
O O12 0.750000 0.142298 0.943464
O O13 0.472607 0.000000 0.940771
O O14 0.500000 0.208153 0.000000
O O15 0.750000 0.844637 0.351806
O O16 0.015748 0.000000 0.351768
#
# Coordination Sequence:
#
# PCOD9405617 Si02
#       5
#     8   8   8   8   8
#     4   9  17  29  45  64  87 117 152 189 229 273
#     4   8  14  26  44  66  93 122 151 186 228 274
#     4   9  18  32  51  76 102 127 158 197 241 287
#     4  10  21  36  53  73  98 130 166 201 239 285
#     4   9  16  25  40  65  93 119 150 188 229 272
#
# _framework density 19.600421999999998
#
# number of rings (size 3 to 8) (size 9 to 14) (size 15 to 20)
#    0.000    3.000    0.000    2.400    0.000    5.600 
#    0.000    2.000    0.000    1.200    0.000    2.800 
#    0.000    0.000    0.000    0.000    0.000    0.000 
#
# Total GULP energy -223062.991935 kJ/mol
# GULP energy per Si atom -5576.574798 kJ/mol
# Density = 1.955581 g / cm^3
# Si number density = 19.600422 Si / 1000 Ang^3
#
#
#
# Elastic Constant Matrix: (Units=GPa)
#
#
# Indices 1 2 3 4 5 6 
#
# 1 23.4601 7.9441 8.0546 0.0000 0.0000 0.0000
# 2 7.9441 147.6188 150.5477 0.0000 0.0000 0.0000
# 3 8.0546 150.5477 212.8120 0.0000 0.0000 0.0000
# 4 0.0000 0.0000 0.0000 -124.1788 0.0000 0.0000
# 5 0.0000 0.0000 0.0000 0.0000 20.8770 0.0000
# 6 0.0000 0.0000 0.0000 0.0000 0.0000 9.9153
#
#
#
# Elastic Compliance Matrix: (Units=1/GPa)
#
#
# Indices 1 2 3 4 5 6 
#
# 1 0.043417 -0.002372 0.000035 0.000000 0.000000 0.000000
# 2 -0.002372 0.024450 -0.017207 0.000000 0.000000 0.000000
# 3 0.000035 -0.017207 0.016870 0.000000 0.000000 0.000000
# 4 0.000000 0.000000 0.000000 -0.008053 0.000000 0.000000
# 5 0.000000 0.000000 0.000000 0.000000 0.047900 0.000000
# 6 0.000000 0.000000 0.000000 0.000000 0.000000 0.100854
#
#
# Mechanical properties :
#
#
# Convention : Reuss Voigt Hill
#
# Bulk Modulus (GPa) = 21.90622 79.66485 50.78554
# Shear Modulus (GPa) = 17.87369 -4.18766 6.84302
#
# Velocity S-wave (km/s) = 3.02305 -1.46327 1.87052
# Velocity P-wave (km/s) = 4.83588 6.15450 5.53460
#
# Compressibility (1/GPa) = 0.04564914
#
# Stress axis : x y z
#
# Youngs Moduli (GPa) = 23.03256 40.90021 59.27704
#
# Poissons Ratio (x) = 0.09700 -0.00205
# Poissons Ratio (y) = 0.05463 1.01995
# Poissons Ratio (z) = -0.00080 0.70375
#
# Static dielectric constant tensor:
#      x y z
#    x 1.727830 0.000000 0.000000 
#    y 0.000000 1.693390 0.000000 
#    z 0.000000 0.000000 1.682080 
# 
# From -- ./inp_files/34331.got.cif
#   From: 2010.05.17/outbox.cif.g08.bks.cpg/sg51_18_cif.got.tgz:34331.got - 2010.06.03 11:52:47.
