data_PCOD9405716
_publ_section_title
;
Structure prediction by ZEFSAII (Michael W. Deem and Ramdas Pophale) SiO2 
 PCOD9405716
Probable space group: P M M A
;
_chemical_formula_sum "Si O2"
_cell_formula_units_Z 64
_cell_length_a 8.830909
_cell_length_b 10.076539
_cell_length_c 41.777114
_cell_angle_alpha 90.000000
_cell_angle_beta 90.000000
_cell_angle_gamma 90.000000
_cell_volume 3717.536445
_symmetry_space_group_name_H-M "P M M A"
_symmetry_group_IT_number 51
_symmetry_cell_setting 'orthorhombic'
loop_
_space_group_symop_operation_xyz
x,y,z
1/2-x,-y,z
1/2+x,-y,-z
-x,y,-z
-x,-y,-z
1/2+x,y,-z
1/2-x,y,z
x,-y,z
loop_
_atom_site_type_symbol
_atom_site_label
_atom_site_fract_x
_atom_site_fract_y
_atom_site_fract_z
Si Si1 0.931154 0.654859 0.034764
Si Si2 0.430790 0.154497 0.842433
Si Si3 0.068802 0.844975 0.088325
Si Si4 0.932795 0.654078 0.465720
Si Si5 0.932426 0.845703 0.336752
Si Si6 0.932472 0.347220 0.715959
Si Si7 0.067712 0.655126 0.210781
Si Si8 0.434463 0.152399 0.590752
O O1 0.750000 0.667694 0.033585
O O2 0.967934 0.500000 0.041597
O O3 0.998198 0.750302 0.061671
O O4 0.000000 0.686879 0.000000
O O5 0.250000 0.165401 0.845186
O O6 0.505370 0.188650 0.876533
O O7 0.491022 0.249340 0.814691
O O8 0.468564 0.000000 0.835531
O O9 0.250000 0.832643 0.088265
O O10 0.030183 0.000000 0.082140
O O11 0.750000 0.660901 0.467401
O O12 0.974439 0.500000 0.459994
O O13 0.985250 0.747849 0.436835
O O14 0.000000 0.694150 0.500000
O O15 0.750000 0.837334 0.335607
O O16 0.980667 0.810366 0.373095
O O17 0.000796 0.750961 0.310130
O O18 0.973667 0.000000 0.331380
O O19 0.750000 0.342676 0.714754
O O20 0.978600 0.500000 0.709897
O O21 0.976745 0.313244 0.752523
O O22 0.250000 0.667760 0.208542
O O23 0.030759 0.500000 0.204997
O O24 0.250000 0.153633 0.590657
O O25 0.480852 0.000000 0.584678
#
# Coordination Sequence:
#
# PCOD9405716 Si02
#       8
#     8   8   8   8   8   8   8   8
#     4  10  21  37  57  81 109 141 177 217 261 308
#     4  10  21  36  54  78 107 136 168 210 257 302
#     4  10  21  37  57  80 106 139 178 216 256 305
#     4   9  17  29  45  65  89 117 150 188 230 277
#     4   9  18  32  50  73  99 126 160 202 245 291
#     4   9  19  35  52  72 100 132 166 204 246 293
#     4   9  19  36  55  74  99 133 171 208 247 295
#     4   8  15  29  47  66  90 120 153 190 231 277
#
# _framework density 17.215703000000001
#
# number of rings (size 3 to 8) (size 9 to 14) (size 15 to 20)
#    0.000    2.750    0.000    2.625    0.000    5.500 
#    0.000    5.625    0.000    2.250    0.000    0.000 
#    0.000    0.000    0.000    0.000    0.000    0.000 
#
# Total GULP energy -356931.190530 kJ/mol
# GULP energy per Si atom -5577.049852 kJ/mol
# Density = 1.717652 g / cm^3
# Si number density = 17.215703 Si / 1000 Ang^3
#
#
#
# Elastic Constant Matrix: (Units=GPa)
#
#
# Indices 1 2 3 4 5 6 
#
# 1 28.0413 43.2214 53.6699 0.0000 0.0000 0.0000
# 2 43.2214 108.2619 131.6270 0.0000 0.0000 0.0000
# 3 53.6699 131.6270 193.2829 0.0000 0.0000 0.0000
# 4 0.0000 0.0000 0.0000 43.8228 0.0000 0.0000
# 5 0.0000 0.0000 0.0000 0.0000 34.7561 0.0000
# 6 0.0000 0.0000 0.0000 0.0000 0.0000 27.7347
#
#
#
# Elastic Compliance Matrix: (Units=1/GPa)
#
#
# Indices 1 2 3 4 5 6 
#
# 1 0.093039 -0.033332 -0.003135 0.000000 0.000000 0.000000
# 2 -0.033332 0.065638 -0.035445 0.000000 0.000000 0.000000
# 3 -0.003135 -0.035445 0.030183 0.000000 0.000000 0.000000
# 4 0.000000 0.000000 0.000000 0.022819 0.000000 0.000000
# 5 0.000000 0.000000 0.000000 0.000000 0.028772 0.000000
# 6 0.000000 0.000000 0.000000 0.000000 0.000000 0.036056
#
#
# Mechanical properties :
#
#
# Convention : Reuss Voigt Hill
#
# Bulk Modulus (GPa) = 22.20459 87.40252 54.80355
# Shear Modulus (GPa) = 11.48522 28.00059 19.74290
#
# Velocity S-wave (km/s) = 2.58570 4.03731 3.39011
# Velocity P-wave (km/s) = 4.67336 8.52129 6.87215
#
# Compressibility (1/GPa) = 0.04503573
#
# Stress axis : x y z
#
# Youngs Moduli (GPa) = 10.74822 15.23502 33.13177
#
# Poissons Ratio (x) = 0.50781 0.10388
# Poissons Ratio (y) = 0.35826 1.17435
# Poissons Ratio (z) = 0.03370 0.54000
#
# Static dielectric constant tensor:
#      x y z
#    x 1.579340 0.000000 0.000000 
#    y 0.000000 1.571550 0.000000 
#    z 0.000000 0.000000 1.557870 
# 
# From -- ./inp_files/37432.got.cif
#   From: 2010.05.17/outbox.cif.g08.bks.cpg/sg51_19_cif.got.tgz:37432.got - 2010.06.03 11:52:47.
