data_PCOD9405900
_publ_section_title
;
Structure prediction by ZEFSAII (Michael W. Deem and Ramdas Pophale) SiO2 
 PCOD9405900
Probable space group: P M M A
;
_chemical_formula_sum "Si O2"
_cell_formula_units_Z 64
_cell_length_a 7.829730
_cell_length_b 15.318606
_cell_length_c 29.203243
_cell_angle_alpha 90.000000
_cell_angle_beta 90.000000
_cell_angle_gamma 90.000000
_cell_volume 3502.652997
_symmetry_space_group_name_H-M "P M M A"
_symmetry_group_IT_number 51
_symmetry_cell_setting 'orthorhombic'
loop_
_space_group_symop_operation_xyz
x,y,z
1/2-x,-y,z
1/2+x,-y,-z
-x,y,-z
-x,-y,-z
1/2+x,y,-z
1/2-x,y,z
x,-y,z
loop_
_atom_site_type_symbol
_atom_site_label
_atom_site_fract_x
_atom_site_fract_y
_atom_site_fract_z
Si Si1 0.957531 0.097806 0.186894
Si Si2 0.453578 0.899881 0.648549
Si Si3 0.546975 0.099623 0.548803
Si Si4 0.041448 0.096680 0.919198
Si Si5 0.952939 0.280325 0.049449
Si Si6 0.048135 0.401038 0.134108
Si Si7 0.049383 0.402254 0.763553
Si Si8 0.039717 0.778894 0.731443
O O1 0.750000 0.099381 0.187056
O O2 0.008280 0.109968 0.134117
O O3 0.015195 0.169683 0.222788
O O4 0.009267 0.000000 0.201364
O O5 0.250000 0.906143 0.654835
O O6 0.485786 0.864436 0.597362
O O7 0.517622 0.835076 0.687802
O O8 0.521870 0.000000 0.651768
O O9 0.500000 0.141275 0.500000
O O10 0.750000 0.095272 0.550763
O O11 0.475047 0.000000 0.547610
O O12 0.250000 0.095407 0.920606
O O13 0.978829 0.181056 0.946289
O O14 0.983383 0.000000 0.933969
O O15 0.750000 0.276151 0.052318
O O16 0.011935 0.336834 0.092456
O O17 0.000000 0.317698 0.000000
O O18 0.250000 0.402013 0.142246
O O19 0.992113 0.500000 0.122400
O O20 0.964613 0.377760 0.182653
O O21 0.250000 0.408434 0.752775
O O22 0.974806 0.500000 0.758058
O O23 0.979444 0.320996 0.734761
O O24 0.250000 0.777693 0.731304
#
# Coordination Sequence:
#
# PCOD9405900 Si02
#       8
#     8   8   8   8   8   8   8   8
#     4   8  12  19  34  57  83 110 141 174 205 241
#     4   9  16  25  38  59  88 121 156 190 222 259
#     4   9  16  26  40  57  80 114 155 195 231 266
#     4   8  15  28  46  68  92 118 149 182 214 251
#     4  11  22  35  52  73  96 120 146 179 220 266
#     4  10  21  37  55  73  93 117 146 182 225 273
#     4   9  17  30  49  71  92 116 148 183 218 260
#     4   9  15  23  38  62  91 119 146 178 216 256
#
# _framework density 18.271865999999999
#
# number of rings (size 3 to 8) (size 9 to 14) (size 15 to 20)
#    0.000    2.875    0.000    3.000    0.000    6.250 
#    0.000    0.625    0.000    1.125    0.000    0.000 
#    0.000    0.500    0.000    0.875    0.000    1.250 
#
# Total GULP energy -356737.119175 kJ/mol
# GULP energy per Si atom -5574.017487 kJ/mol
# Density = 1.823028 g / cm^3
# Si number density = 18.271866 Si / 1000 Ang^3
#
#
#
# Elastic Constant Matrix: (Units=GPa)
#
#
# Indices 1 2 3 4 5 6 
#
# 1 24.3305 4.3548 -4.0309 0.0000 0.0000 0.0000
# 2 4.3548 94.8593 58.0308 0.0000 0.0000 0.0000
# 3 -4.0309 58.0308 74.2155 0.0000 0.0000 0.0000
# 4 0.0000 0.0000 0.0000 13.5420 0.0000 0.0000
# 5 0.0000 0.0000 0.0000 0.0000 13.2173 0.0000
# 6 0.0000 0.0000 0.0000 0.0000 0.0000 -2.7279
#
#
#
# Elastic Compliance Matrix: (Units=1/GPa)
#
#
# Indices 1 2 3 4 5 6 
#
# 1 0.043530 -0.006603 0.007528 0.000000 0.000000 0.000000
# 2 -0.006603 0.021210 -0.016944 0.000000 0.000000 0.000000
# 3 0.007528 -0.016944 0.027132 0.000000 0.000000 0.000000
# 4 0.000000 0.000000 0.000000 0.073844 0.000000 0.000000
# 5 0.000000 0.000000 0.000000 0.000000 0.075658 0.000000
# 6 0.000000 0.000000 0.000000 0.000000 0.000000 -0.366586
#
#
# Mechanical properties :
#
#
# Convention : Reuss Voigt Hill
#
# Bulk Modulus (GPa) = 16.71318 34.45720 25.58519
# Shear Modulus (GPa) = -68.27993 13.80966 -27.23514
#
# Velocity S-wave (km/s) = -6.11964 2.75214 -3.86495
# Velocity P-wave (km/s) = 6.38487 5.38498 2.42575
#
# Compressibility (1/GPa) = 0.05983301
#
# Stress axis : x y z
#
# Youngs Moduli (GPa) = 22.97284 47.14657 36.85722
#
# Poissons Ratio (x) = 0.31133 -0.27745
# Poissons Ratio (y) = 0.15170 0.62449
# Poissons Ratio (z) = -0.17293 0.79883
#
# Static dielectric constant tensor:
#      x y z
#    x 1.670380 0.000000 0.000000 
#    y 0.000000 1.659860 0.000000 
#    z 0.000000 0.000000 1.605670 
# 
# From -- ./inp_files/37595.got.cif
#   From: 2010.05.17/outbox.cif.g08.bks.cpg/sg51_19_cif.got.tgz:37595.got - 2010.06.03 11:52:47.
