data_PCOD9405048
_publ_section_title
;
Structure prediction by ZEFSAII (Michael W. Deem and Ramdas Pophale) SiO2 
 PCOD9405048
Probable space group: P M M A
;
_chemical_formula_sum "Si O2"
_cell_formula_units_Z 48
_cell_length_a 16.611741
_cell_length_b 7.704411
_cell_length_c 17.508649
_cell_angle_alpha 90.000000
_cell_angle_beta 90.000000
_cell_angle_gamma 90.000000
_cell_volume 2240.821332
_symmetry_space_group_name_H-M "P M M A"
_symmetry_group_IT_number 51
_symmetry_cell_setting 'orthorhombic'
loop_
_space_group_symop_operation_xyz
x,y,z
1/2-x,-y,z
1/2+x,-y,-z
-x,y,-z
-x,-y,-z
1/2+x,y,-z
1/2-x,y,z
x,-y,z
loop_
_atom_site_type_symbol
_atom_site_label
_atom_site_fract_x
_atom_site_fract_y
_atom_site_fract_z
Si Si1 0.841464 0.289386 0.681062
Si Si2 0.087245 0.204851 0.476870
Si Si3 0.398390 0.789341 0.842253
Si Si4 0.750000 0.788389 0.263016
Si Si5 0.340359 0.794276 0.006894
Si Si6 0.581079 0.702619 0.835734
Si Si7 0.750000 0.787071 0.439845
O O1 0.750000 0.234013 0.665339
O O2 0.843545 0.500000 0.681279
O O3 0.897989 0.227036 0.613035
O O4 0.869469 0.224973 0.763990
O O5 0.167739 0.273948 0.518978
O O6 0.000000 0.278336 0.500000
O O7 0.085167 0.000000 0.495546
O O8 0.329072 0.733088 0.783735
O O9 0.487049 0.729126 0.820991
O O10 0.399359 0.000000 0.842344
O O11 0.377338 0.726150 0.927915
O O12 0.750000 0.735177 0.351093
O O13 0.750000 0.000000 0.262366
O O14 0.250000 0.724403 0.019498
O O15 0.393964 0.772286 0.081741
O O16 0.333213 0.000000 0.994921
O O17 0.599572 0.500000 0.839273
O O18 0.750000 0.000000 0.443357
#
# Coordination Sequence:
#
# PCOD9405048 Si02
#       7
#     8   8   8   4   8   8   4
#     4  10  22  41  60  79 111 154 195 233 279 335
#     4  10  21  36  59  91 119 146 185 234 288 345
#     4  10  20  37  60  85 112 147 190 235 283 337
#     4   9  18  34  59  84 111 148 184 229 289 339
#     4  10  20  37  59  85 114 147 191 236 280 333
#     4  11  24  38  55  83 116 152 192 232 282 339
#     4   9  18  34  55  86 121 146 180 233 287 343
#
# _framework density 21.420718000000001
#
# number of rings (size 3 to 8) (size 9 to 14) (size 15 to 20)
#    0.000    2.000    1.667    1.500    2.333    5.333 
#    0.000    0.417    0.000    1.000    0.000    0.000 
#    0.000    0.000    0.000    0.000    0.000    0.000 
#
# Total GULP energy -268151.063358 kJ/mol
# GULP energy per Si atom -5586.480487 kJ/mol
# Density = 2.137196 g / cm^3
# Si number density = 21.420718 Si / 1000 Ang^3
#
#
#
# Elastic Constant Matrix: (Units=GPa)
#
#
# Indices 1 2 3 4 5 6 
#
# 1 110.2121 0.8053 33.0394 0.0000 0.0000 0.0000
# 2 0.8053 26.4777 -1.4939 0.0000 0.0000 0.0000
# 3 33.0394 -1.4939 119.2542 0.0000 0.0000 0.0000
# 4 0.0000 0.0000 0.0000 27.9182 0.0000 0.0000
# 5 0.0000 0.0000 0.0000 0.0000 26.2933 0.0000
# 6 0.0000 0.0000 0.0000 0.0000 0.0000 -0.8737
#
#
#
# Elastic Compliance Matrix: (Units=1/GPa)
#
#
# Indices 1 2 3 4 5 6 
#
# 1 0.009901 -0.000456 -0.002749 0.000000 0.000000 0.000000
# 2 -0.000456 0.037815 0.000600 0.000000 0.000000 0.000000
# 3 -0.002749 0.000600 0.009155 0.000000 0.000000 0.000000
# 4 0.000000 0.000000 0.000000 0.035819 0.000000 0.000000
# 5 0.000000 0.000000 0.000000 0.000000 0.038033 0.000000
# 6 0.000000 0.000000 0.000000 0.000000 0.000000 -1.144512
#
#
# Mechanical properties :
#
#
# Convention : Reuss Voigt Hill
#
# Bulk Modulus (GPa) = 19.35697 35.62729 27.49213
# Shear Modulus (GPa) = -5.04358 25.57377 10.26510
#
# Velocity S-wave (km/s) = -1.53611 3.45901 2.19147
# Velocity P-wave (km/s) = 2.43105 5.71150 4.38926
#
# Compressibility (1/GPa) = 0.05166097
#
# Stress axis : x y z
#
# Youngs Moduli (GPa) = 101.00230 26.44429 109.23587
#
# Poissons Ratio (x) = 0.01206 0.30026
# Poissons Ratio (y) = 0.04608 -0.06555
# Poissons Ratio (z) = 0.27763 -0.01587
#
# Static dielectric constant tensor:
#      x y z
#    x 1.756020 0.000000 0.000000 
#    y 0.000000 1.813940 0.000000 
#    z 0.000000 0.000000 1.744250 
# 
# From -- ./inp_files/29512.got.cif
#   From: 2010.05.17/outbox.cif.g08.bks.cpg/sg51_15_cif.got.tgz:29512.got - 2010.06.03 11:52:47.
