data_PCOD9405861
_publ_section_title
;
Structure prediction by ZEFSAII (Michael W. Deem and Ramdas Pophale) SiO2 
 PCOD9405861
Probable space group: P M M A
;
_chemical_formula_sum "Si O2"
_cell_formula_units_Z 52
_cell_length_a 14.438545
_cell_length_b 22.655929
_cell_length_c 8.507637
_cell_angle_alpha 90.000000
_cell_angle_beta 90.000000
_cell_angle_gamma 90.000000
_cell_volume 2783.006733
_symmetry_space_group_name_H-M "P M M A"
_symmetry_group_IT_number 51
_symmetry_cell_setting 'orthorhombic'
loop_
_space_group_symop_operation_xyz
x,y,z
1/2-x,-y,z
1/2+x,-y,-z
-x,y,-z
-x,-y,-z
1/2+x,y,-z
1/2-x,y,z
x,-y,z
loop_
_atom_site_type_symbol
_atom_site_label
_atom_site_fract_x
_atom_site_fract_y
_atom_site_fract_z
Si Si1 0.855500 0.431266 0.312432
Si Si2 0.466109 0.781267 0.753817
Si Si3 0.000000 0.871619 0.500000
Si Si4 0.003939 0.655402 0.820156
Si Si5 0.861101 0.567560 0.681257
Si Si6 0.857731 0.068622 0.738933
Si Si7 0.858309 0.180732 0.934800
O O1 0.750000 0.411195 0.300790
O O2 0.859674 0.500000 0.272537
O O3 0.883529 0.426218 0.495598
O O4 0.919006 0.394147 0.200127
O O5 0.446318 0.826613 0.614857
O O6 0.463049 0.711814 0.719656
O O7 0.573381 0.789957 0.807467
O O8 0.400696 0.800412 0.898543
O O9 0.070354 0.909739 0.394106
O O10 0.911447 0.621007 0.768983
O O11 0.000000 0.676064 0.000000
O O12 0.750000 0.570401 0.698046
O O13 0.889472 0.500000 0.727629
O O14 0.750000 0.075491 0.686773
O O15 0.867961 0.111354 0.890396
O O16 0.873208 0.000000 0.775228
O O17 0.750000 0.196457 0.922495
#
# Coordination Sequence:
#
# PCOD9405861 Si02
#       7
#     8   8   4   8   8   8   8
#     4   9  20  39  59  80 107 140 181 230 283 338
#     4  10  22  38  52  81 112 150 192 226 267 335
#     4  10  21  36  58  80 125 152 178 228 288 316
#     4  12  23  35  54  81 112 144 187 231 279 324
#     4   9  20  39  60  81 107 141 183 230 284 343
#     4   9  18  35  61  90 115 146 188 228 272 325
#     4   9  18  38  59  75 110 153 184 221 270 321
#
# _framework density 18.684826999999999
#
# number of rings (size 3 to 8) (size 9 to 14) (size 15 to 20)
#    0.000    2.308    1.538    2.077    2.154    4.923 
#    0.000    8.462    0.000    1.846    0.000    0.000 
#    0.000    0.000    0.000    0.000    0.000    0.000 
#
# Total GULP energy -289810.860467 kJ/mol
# GULP energy per Si atom -5573.285778 kJ/mol
# Density = 1.864230 g / cm^3
# Si number density = 18.684827 Si / 1000 Ang^3
#
#
#
# Elastic Constant Matrix: (Units=GPa)
#
#
# Indices 1 2 3 4 5 6 
#
# 1 76.7801 18.4933 8.3835 0.0000 0.0000 0.0000
# 2 18.4933 59.7278 15.3708 0.0000 0.0000 0.0000
# 3 8.3835 15.3708 21.9108 0.0000 0.0000 0.0000
# 4 0.0000 0.0000 0.0000 38.6641 0.0000 0.0000
# 5 0.0000 0.0000 0.0000 0.0000 21.9551 0.0000
# 6 0.0000 0.0000 0.0000 0.0000 0.0000 43.6314
#
#
#
# Elastic Compliance Matrix: (Units=1/GPa)
#
#
# Indices 1 2 3 4 5 6 
#
# 1 0.014220 -0.003664 -0.002870 0.000000 0.000000 0.000000
# 2 -0.003664 0.021375 -0.013593 0.000000 0.000000 0.000000
# 3 -0.002870 -0.013593 0.056274 0.000000 0.000000 0.000000
# 4 0.000000 0.000000 0.000000 0.025864 0.000000 0.000000
# 5 0.000000 0.000000 0.000000 0.000000 0.045548 0.000000
# 6 0.000000 0.000000 0.000000 0.000000 0.000000 0.022919
#
#
# Mechanical properties :
#
#
# Convention : Reuss Voigt Hill
#
# Bulk Modulus (GPa) = 19.37475 26.99044 23.18259
# Shear Modulus (GPa) = 20.52043 28.59485 24.55764
#
# Velocity S-wave (km/s) = 3.31757 3.91625 3.62927
# Velocity P-wave (km/s) = 5.00667 5.90981 5.47689
#
# Compressibility (1/GPa) = 0.05161357
#
# Stress axis : x y z
#
# Youngs Moduli (GPa) = 70.32255 46.78295 17.77034
#
# Poissons Ratio (x) = 0.17142 0.05101
# Poissons Ratio (y) = 0.25768 0.24155
# Poissons Ratio (z) = 0.20185 0.63592
#
# Static dielectric constant tensor:
#      x y z
#    x 1.649330 0.000000 0.000000 
#    y 0.000000 1.653340 0.000000 
#    z 0.000000 0.000000 1.654800 
# 
# From -- ./inp_files/8449.got.cif
#   From: 2010.05.17/outbox.cif.g08.bks.cpg/sg51_5_cif.got.tgz:8449.got - 2010.06.03 11:52:47.
