data_PCOD9405460
_publ_section_title
;
Structure prediction by ZEFSAII (Michael W. Deem and Ramdas Pophale) SiO2 
 PCOD9405460
Probable space group: P M M A
;
_chemical_formula_sum "Si O2"
_cell_formula_units_Z 40
_cell_length_a 10.052899
_cell_length_b 7.351591
_cell_length_c 29.927043
_cell_angle_alpha 90.000000
_cell_angle_beta 90.000000
_cell_angle_gamma 90.000000
_cell_volume 2211.752182
_symmetry_space_group_name_H-M "P M M A"
_symmetry_group_IT_number 51
_symmetry_cell_setting 'orthorhombic'
loop_
_space_group_symop_operation_xyz
x,y,z
1/2-x,-y,z
1/2+x,-y,-z
-x,y,-z
-x,-y,-z
1/2+x,y,-z
1/2-x,y,z
x,-y,z
loop_
_atom_site_type_symbol
_atom_site_label
_atom_site_fract_x
_atom_site_fract_y
_atom_site_fract_z
Si Si1 0.095292 0.715742 0.459234
Si Si2 0.092813 0.000000 0.703557
Si Si3 0.902962 0.721186 0.860383
Si Si4 0.407268 0.000000 0.382400
Si Si5 0.596852 0.721675 0.960854
Si Si6 0.405076 0.716298 0.780536
O O1 0.250000 0.750888 0.470959
O O2 0.079511 0.500000 0.451871
O O3 0.066553 0.827393 0.414480
O O4 0.000000 0.769334 0.500000
O O5 0.066847 0.826841 0.735518
O O6 0.999884 0.000000 0.660610
O O7 0.250000 0.000000 0.691691
O O8 0.750000 0.776689 0.852537
O O9 0.904355 0.500000 0.860523
O O10 0.941849 0.778264 0.910581
O O11 0.001087 0.777759 0.821091
O O12 0.250000 0.000000 0.370594
O O13 0.750000 0.775402 0.968396
O O14 0.594540 0.500000 0.961140
O O15 0.500000 0.784088 0.000000
O O16 0.250000 0.748128 0.791974
O O17 0.423083 0.500000 0.773883
#
# Coordination Sequence:
#
# PCOD9405460 Si02
#       6
#     8   4   8   4   8   8
#     4   9  18  33  53  78 107 137 170 206 241 281
#     4  10  22  37  51  72 100 127 162 206 246 288
#     4   8  14  25  41  62  88 118 153 193 236 283
#     4  10  21  35  51  74 104 135 167 204 245 288
#     4   8  13  20  31  52  84 117 147 182 225 275
#     4   9  18  33  51  69  91 121 157 198 243 289
#
# _framework density 18.085208000000002
#
# number of rings (size 3 to 8) (size 9 to 14) (size 15 to 20)
#    0.000    3.200    0.000    1.500    0.000    3.200 
#    0.000    4.000    0.000    0.000    0.000    0.700 
#    0.000    0.000    0.000    0.000    0.000    0.000 
#
# Total GULP energy -223072.411508 kJ/mol
# GULP energy per Si atom -5576.810288 kJ/mol
# Density = 1.804405 g / cm^3
# Si number density = 18.085208 Si / 1000 Ang^3
#
#
#
# Elastic Constant Matrix: (Units=GPa)
#
#
# Indices 1 2 3 4 5 6 
#
# 1 113.4120 42.5735 136.2587 0.0000 0.0000 0.0000
# 2 42.5735 73.8790 52.4134 0.0000 0.0000 0.0000
# 3 136.2587 52.4134 197.9219 0.0000 0.0000 0.0000
# 4 0.0000 0.0000 0.0000 -44.1266 0.0000 0.0000
# 5 0.0000 0.0000 0.0000 0.0000 47.9313 0.0000
# 6 0.0000 0.0000 0.0000 0.0000 0.0000 5.7262
#
#
#
# Elastic Compliance Matrix: (Units=1/GPa)
#
#
# Indices 1 2 3 4 5 6 
#
# 1 0.052901 -0.005722 -0.034904 0.000000 0.000000 0.000000
# 2 -0.005722 0.017286 -0.000638 0.000000 0.000000 0.000000
# 3 -0.034904 -0.000638 0.029251 0.000000 0.000000 0.000000
# 4 0.000000 0.000000 0.000000 -0.022662 0.000000 0.000000
# 5 0.000000 0.000000 0.000000 0.000000 0.020863 0.000000
# 6 0.000000 0.000000 0.000000 0.000000 0.000000 0.174635
#
#
# Mechanical properties :
#
#
# Convention : Reuss Voigt Hill
#
# Bulk Modulus (GPa) = 59.14004 94.18935 76.66470
# Shear Modulus (GPa) = 13.87194 12.17066 13.02130
#
# Velocity S-wave (km/s) = 2.77254 2.59697 2.68619
# Velocity P-wave (km/s) = 6.55905 7.82216 7.21829
#
# Compressibility (1/GPa) = 0.01690902
#
# Stress axis : x y z
#
# Youngs Moduli (GPa) = 18.90325 57.85072 34.18661
#
# Poissons Ratio (x) = 0.33102 1.19326
# Poissons Ratio (y) = 0.10816 0.02182
# Poissons Ratio (z) = 0.65980 0.03693
#
# Static dielectric constant tensor:
#      x y z
#    x 1.600120 0.000000 0.000000 
#    y 0.000000 1.686390 0.000000 
#    z 0.000000 0.000000 1.573940 
# 
# From -- ./inp_files/36060.got.cif
#   From: 2010.05.17/outbox.cif.g08.bks.cpg/sg51_19_cif.got.tgz:36060.got - 2010.06.03 11:52:47.
