data_PCOD9405188
_publ_section_title
;
Structure prediction by ZEFSAII (Michael W. Deem and Ramdas Pophale) SiO2 
 PCOD9405188
Probable space group: P M M A
;
_chemical_formula_sum "Si O2"
_cell_formula_units_Z 48
_cell_length_a 16.779361
_cell_length_b 7.710439
_cell_length_c 17.115366
_cell_angle_alpha 90.000000
_cell_angle_beta 90.000000
_cell_angle_gamma 90.000000
_cell_volume 2214.321690
_symmetry_space_group_name_H-M "P M M A"
_symmetry_group_IT_number 51
_symmetry_cell_setting 'orthorhombic'
loop_
_space_group_symop_operation_xyz
x,y,z
1/2-x,-y,z
1/2+x,-y,-z
-x,y,-z
-x,-y,-z
1/2+x,y,-z
1/2-x,y,z
x,-y,z
loop_
_atom_site_type_symbol
_atom_site_label
_atom_site_fract_x
_atom_site_fract_y
_atom_site_fract_z
Si Si1 0.159398 0.794882 0.323340
Si Si2 0.413760 0.700966 0.479331
Si Si3 0.750000 0.802294 0.278949
Si Si4 0.841379 0.711720 0.989653
Si Si5 0.071748 0.290249 0.166131
Si Si6 0.250000 0.301346 0.548093
Si Si7 0.108107 0.710142 0.836967
O O1 0.250000 0.730283 0.332659
O O2 0.102093 0.708862 0.386919
O O3 0.129012 0.764306 0.236026
O O4 0.158955 0.000000 0.338602
O O5 0.500000 0.778666 0.500000
O O6 0.416940 0.500000 0.506338
O O7 0.333217 0.778432 0.517684
O O8 0.750000 0.695727 0.358539
O O9 0.826822 0.768461 0.225301
O O10 0.750000 0.000000 0.304838
O O11 0.750000 0.763649 0.976368
O O12 0.843541 0.500000 0.990243
O O13 0.896274 0.769687 0.918078
O O14 0.868963 0.767968 0.075454
O O15 0.071049 0.500000 0.164095
O O16 0.981473 0.231754 0.181038
O O17 0.250000 0.500000 0.517593
O O18 0.109635 0.500000 0.837131
#
# Coordination Sequence:
#
# PCOD9405188 Si02
#       7
#     8   8   4   8   8   4   8
#     4  11  24  41  60  86 124 164 197 235 292 356
#     4  10  22  41  67  95 118 149 197 249 302 357
#     4  12  26  40  58  85 120 159 200 239 288 357
#     4   9  16  31  58  89 117 149 192 245 299 344
#     4  10  21  35  60  92 118 150 200 252 296 347
#     4  10  22  42  66  91 122 153 192 251 304 349
#     4  10  20  38  61  86 118 154 196 250 303 347
#
# _framework density 21.677066
#
# number of rings (size 3 to 8) (size 9 to 14) (size 15 to 20)
#    0.000    1.833    1.667    2.250    2.333    5.333 
#    0.000    0.833    0.000    2.000    0.000    0.000 
#    0.000    0.000    0.000    0.000    0.000    0.000 
#
# Total GULP energy -268251.094056 kJ/mol
# GULP energy per Si atom -5588.564460 kJ/mol
# Density = 2.162773 g / cm^3
# Si number density = 21.677066 Si / 1000 Ang^3
#
#
#
# Elastic Constant Matrix: (Units=GPa)
#
#
# Indices 1 2 3 4 5 6 
#
# 1 136.0153 12.2229 22.7771 0.0000 0.0000 0.0000
# 2 12.2229 43.8091 -4.2133 0.0000 0.0000 0.0000
# 3 22.7771 -4.2133 94.0549 0.0000 0.0000 0.0000
# 4 0.0000 0.0000 0.0000 -520.6523 0.0000 0.0000
# 5 0.0000 0.0000 0.0000 0.0000 21.5401 0.0000
# 6 0.0000 0.0000 0.0000 0.0000 0.0000 1.0969
#
#
#
# Elastic Compliance Matrix: (Units=1/GPa)
#
#
# Indices 1 2 3 4 5 6 
#
# 1 0.007906 -0.002400 -0.002022 0.000000 0.000000 0.000000
# 2 -0.002400 0.023654 0.001641 0.000000 0.000000 0.000000
# 3 -0.002022 0.001641 0.011195 0.000000 0.000000 0.000000
# 4 0.000000 0.000000 0.000000 -0.001921 0.000000 0.000000
# 5 0.000000 0.000000 0.000000 0.000000 0.046425 0.000000
# 6 0.000000 0.000000 0.000000 0.000000 0.000000 0.911677
#
#
# Mechanical properties :
#
#
# Convention : Reuss Voigt Hill
#
# Bulk Modulus (GPa) = 26.88739 37.27252 32.07995
# Shear Modulus (GPa) = 4.91692 -83.39689 -39.23999
#
# Velocity S-wave (km/s) = 1.50771 -6.20934 -4.25927
# Velocity P-wave (km/s) = 3.93210 5.84604 3.05898
#
# Compressibility (1/GPa) = 0.03719215
#
# Stress axis : x y z
#
# Youngs Moduli (GPa) = 126.47870 42.27642 89.32308
#
# Poissons Ratio (x) = 0.10148 0.18063
# Poissons Ratio (y) = 0.30360 -0.14657
# Poissons Ratio (z) = 0.25577 -0.06937
#
# Static dielectric constant tensor:
#      x y z
#    x 1.785550 0.000000 0.000000 
#    y 0.000000 1.815500 0.000000 
#    z 0.000000 0.000000 1.732040 
# 
# From -- ./inp_files/24948.got.cif
#   From: 2010.05.17/outbox.cif.g08.bks.cpg/sg51_13_cif.got.tgz:24948.got - 2010.06.03 11:52:47.
