data_PCOD9405926
_publ_section_title
;
Structure prediction by ZEFSAII (Michael W. Deem and Ramdas Pophale) SiO2 
 PCOD9405926
Probable space group: P M M A
;
_chemical_formula_sum "Si O2"
_cell_formula_units_Z 48
_cell_length_a 9.141169
_cell_length_b 7.491764
_cell_length_c 35.807721
_cell_angle_alpha 90.000000
_cell_angle_beta 90.000000
_cell_angle_gamma 90.000000
_cell_volume 2452.237375
_symmetry_space_group_name_H-M "P M M A"
_symmetry_group_IT_number 51
_symmetry_cell_setting 'orthorhombic'
loop_
_space_group_symop_operation_xyz
x,y,z
1/2-x,-y,z
1/2+x,-y,-z
-x,y,-z
-x,-y,-z
1/2+x,y,-z
1/2-x,y,z
x,-y,z
loop_
_atom_site_type_symbol
_atom_site_label
_atom_site_fract_x
_atom_site_fract_y
_atom_site_fract_z
Si Si1 0.073925 0.000000 0.099378
Si Si2 0.924926 0.292896 0.961555
Si Si3 0.417093 0.282558 0.691914
Si Si4 0.923343 0.713519 0.768462
Si Si5 0.084025 0.214082 0.463714
Si Si6 0.574723 0.000000 0.179618
Si Si7 0.582628 0.286548 0.618474
O O1 0.037749 0.170428 0.073577
O O2 0.986944 0.000000 0.137719
O O3 0.250000 0.000000 0.106479
O O4 0.750000 0.281932 0.966528
O O5 0.964704 0.500000 0.955240
O O6 0.000000 0.233312 0.000000
O O7 0.250000 0.222331 0.696267
O O8 0.414565 0.500000 0.690740
O O9 0.514595 0.235635 0.727672
O O10 0.488233 0.219623 0.653169
O O11 0.750000 0.749365 0.770639
O O12 0.944847 0.500000 0.773350
O O13 0.010013 0.828246 0.798762
O O14 0.250000 0.283744 0.463510
O O15 0.019767 0.251446 0.422772
O O16 0.000000 0.282355 0.500000
O O17 0.090519 0.000000 0.467014
O O18 0.750000 0.000000 0.180599
O O19 0.750000 0.216987 0.619725
O O20 0.591067 0.500000 0.622438
#
# Coordination Sequence:
#
# PCOD9405926 Si02
#       7
#     4   8   8   8   8   4   8
#     4  10  21  37  55  78 114 156 198 243 293 350
#     4   9  18  33  55  83 114 150 194 244 296 350
#     4   9  17  31  53  80 108 136 168 214 272 327
#     4  10  21  40  65  87 112 152 196 238 290 352
#     4   9  18  32  47  63  88 123 160 198 244 299
#     4  12  26  41  59  88 123 156 199 251 300 354
#     4   9  17  30  48  70  96 126 162 203 250 310
#
# _framework density 19.573962000000002
#
# number of rings (size 3 to 8) (size 9 to 14) (size 15 to 20)
#    0.000    2.500    0.000    2.000    0.000    5.333 
#    1.500    1.667    0.000    0.000    0.000    0.000 
#    0.000    0.000    0.000    0.000    0.000    0.000 
#
# Total GULP energy -267959.576695 kJ/mol
# GULP energy per Si atom -5582.491181 kJ/mol
# Density = 1.952941 g / cm^3
# Si number density = 19.573962 Si / 1000 Ang^3
#
#
#
# Elastic Constant Matrix: (Units=GPa)
#
#
# Indices 1 2 3 4 5 6 
#
# 1 109.0136 41.1971 98.1972 0.0000 0.0000 0.0000
# 2 41.1971 74.5318 56.1826 0.0000 0.0000 0.0000
# 3 98.1972 56.1826 208.2739 0.0000 0.0000 0.0000
# 4 0.0000 0.0000 0.0000 233.6327 0.0000 0.0000
# 5 0.0000 0.0000 0.0000 0.0000 36.7326 0.0000
# 6 0.0000 0.0000 0.0000 0.0000 0.0000 31.1865
#
#
#
# Elastic Compliance Matrix: (Units=1/GPa)
#
#
# Indices 1 2 3 4 5 6 
#
# 1 0.016928 -0.004193 -0.006850 0.000000 0.000000 0.000000
# 2 -0.004193 0.017880 -0.002846 0.000000 0.000000 0.000000
# 3 -0.006850 -0.002846 0.008799 0.000000 0.000000 0.000000
# 4 0.000000 0.000000 0.000000 0.004280 0.000000 0.000000
# 5 0.000000 0.000000 0.000000 0.000000 0.027224 0.000000
# 6 0.000000 0.000000 0.000000 0.000000 0.000000 0.032065
#
#
# Mechanical properties :
#
#
# Convention : Reuss Voigt Hill
#
# Bulk Modulus (GPa) = 63.17864 86.99699 75.08782
# Shear Modulus (GPa) = 35.65502 73.39319 54.52411
#
# Velocity S-wave (km/s) = 4.27260 6.12999 5.28355
# Velocity P-wave (km/s) = 7.52908 9.72852 8.69859
#
# Compressibility (1/GPa) = 0.01582814
#
# Stress axis : x y z
#
# Youngs Moduli (GPa) = 59.07214 55.92699 113.65022
#
# Poissons Ratio (x) = 0.23452 0.77854
# Poissons Ratio (y) = 0.24771 0.32348
# Poissons Ratio (z) = 0.40466 0.15918
#
# Static dielectric constant tensor:
#      x y z
#    x 1.667970 0.000000 0.000000 
#    y 0.000000 1.721910 0.000000 
#    z 0.000000 0.000000 1.656540 
# 
# From -- ./inp_files/37216.got.cif
#   From: 2010.05.17/outbox.cif.g08.bks.cpg/sg51_19_cif.got.tgz:37216.got - 2010.06.03 11:52:47.
