data_PCOD9405145
_publ_section_title
;
Structure prediction by ZEFSAII (Michael W. Deem and Ramdas Pophale) SiO2 
 PCOD9405145
Probable space group: P M M A
;
_chemical_formula_sum "Si O2"
_cell_formula_units_Z 60
_cell_length_a 26.981392
_cell_length_b 19.788930
_cell_length_c 5.614015
_cell_angle_alpha 90.000000
_cell_angle_beta 90.000000
_cell_angle_gamma 90.000000
_cell_volume 2997.507184
_symmetry_space_group_name_H-M "P M M A"
_symmetry_group_IT_number 51
_symmetry_cell_setting 'orthorhombic'
loop_
_space_group_symop_operation_xyz
x,y,z
1/2-x,-y,z
1/2+x,-y,-z
-x,y,-z
-x,-y,-z
1/2+x,y,-z
1/2-x,y,z
x,-y,z
loop_
_atom_site_type_symbol
_atom_site_label
_atom_site_fract_x
_atom_site_fract_y
_atom_site_fract_z
Si Si1 0.392613 0.259870 0.494063
Si Si2 0.337150 0.187075 0.877597
Si Si3 0.942271 0.394356 0.509296
Si Si4 0.393836 0.884048 0.251899
Si Si5 0.197611 0.926046 0.559175
Si Si6 0.027989 0.000000 0.249657
Si Si7 0.807412 0.687599 0.829814
Si Si8 0.883625 0.576646 0.007295
O O1 0.377724 0.234138 0.751652
O O2 0.436172 0.313269 0.483455
O O3 0.403032 0.191686 0.348283
O O4 0.342877 0.297238 0.396354
O O5 0.303249 0.143435 0.705666
O O6 0.308004 0.239208 0.041755
O O7 0.368753 0.128613 0.000585
O O8 0.913892 0.413618 0.259020
O O9 0.000000 0.414684 0.500000
O O10 0.917063 0.417269 0.762289
O O11 0.351209 0.919195 0.405277
O O12 0.439851 0.932129 0.248417
O O13 0.250000 0.925649 0.421214
O O14 0.195917 0.000000 0.683789
O O15 0.000000 0.000000 0.500000
O O16 0.000000 0.000000 0.000000
O O17 0.750000 0.668496 0.784363
O O18 0.838994 0.631091 0.975754
O O19 0.864208 0.500000 0.011588
#
# Coordination Sequence:
#
# PCOD9405145 Si02
#       8
#     8   8   8   8   8   4   8   8
#     4   9  21  40  61  93 126 162 216 273 328 385
#     4  10  20  37  64  88 124 166 215 267 324 386
#     4  11  23  43  69  96 129 169 218 275 335 392
#     4  10  23  41  63  88 128 169 218 275 333 392
#     4  10  21  35  58  89 126 163 209 263 327 389
#     4  12  30  48  69  94 129 178 236 282 338 402
#     4  10  21  39  63  94 131 174 217 263 318 391
#     4  11  24  43  65  99 137 171 216 268 322 391
#
# _framework density 20.016632999999999
#
# number of rings (size 3 to 8) (size 9 to 14) (size 15 to 20)
#    0.000    1.733    2.000    1.200    4.667    8.267 
#    0.000    1.333    0.000    1.600    0.000    0.000 
#    0.000    0.000    0.000    0.000    0.000    0.000 
#
# Total GULP energy -334021.090437 kJ/mol
# GULP energy per Si atom -5567.018174 kJ/mol
# Density = 1.997107 g / cm^3
# Si number density = 20.016633 Si / 1000 Ang^3
#
#
#
# Elastic Constant Matrix: (Units=GPa)
#
#
# Indices 1 2 3 4 5 6 
#
# 1 122.9407 47.7645 43.2133 0.0000 0.0000 0.0000
# 2 47.7645 113.9439 16.3133 0.0000 0.0000 0.0000
# 3 43.2133 16.3133 77.8222 0.0000 0.0000 0.0000
# 4 0.0000 0.0000 0.0000 14.4498 0.0000 0.0000
# 5 0.0000 0.0000 0.0000 0.0000 -79.8134 0.0000
# 6 0.0000 0.0000 0.0000 0.0000 0.0000 7.6029
#
#
#
# Elastic Compliance Matrix: (Units=1/GPa)
#
#
# Indices 1 2 3 4 5 6 
#
# 1 0.011711 -0.004101 -0.005643 0.000000 0.000000 0.000000
# 2 -0.004101 0.010484 0.000080 0.000000 0.000000 0.000000
# 3 -0.005643 0.000080 0.015967 0.000000 0.000000 0.000000
# 4 0.000000 0.000000 0.000000 0.069205 0.000000 0.000000
# 5 0.000000 0.000000 0.000000 0.000000 -0.012529 0.000000
# 6 0.000000 0.000000 0.000000 0.000000 0.000000 0.131529
#
#
# Mechanical properties :
#
#
# Convention : Reuss Voigt Hill
#
# Bulk Modulus (GPa) = 53.10065 58.80988 55.95526
# Shear Modulus (GPa) = 19.84337 2.27557 11.05947
#
# Velocity S-wave (km/s) = 3.15198 1.06738 2.35311
# Velocity P-wave (km/s) = 6.31130 5.56447 5.94962
#
# Compressibility (1/GPa) = 0.01883216
#
# Stress axis : x y z
#
# Youngs Moduli (GPa) = 85.39017 95.38297 62.63047
#
# Poissons Ratio (x) = 0.39119 0.35343
# Poissons Ratio (y) = 0.35020 -0.00499
# Poissons Ratio (z) = 0.48187 -0.00760
#
# Static dielectric constant tensor:
#      x y z
#    x 1.639390 0.000000 0.000000 
#    y 0.000000 1.621480 0.000000 
#    z 0.000000 0.000000 1.777700 
# 
# From -- ./inp_files/3169.got.cif
#   From: 2010.05.17/outbox.cif.g08.bks.cpg/sg51_2_cif.got.tgz:3169.got - 2010.06.03 11:52:47.
