data_PCOD9405019
_publ_section_title
;
Structure prediction by ZEFSAII (Michael W. Deem and Ramdas Pophale) SiO2 
 PCOD9405019
Probable space group: P M M A
;
_chemical_formula_sum "Si O2"
_cell_formula_units_Z 64
_cell_length_a 19.110633
_cell_length_b 19.789051
_cell_length_c 9.376226
_cell_angle_alpha 90.000000
_cell_angle_beta 90.000000
_cell_angle_gamma 90.000000
_cell_volume 3545.913254
_symmetry_space_group_name_H-M "P M M A"
_symmetry_group_IT_number 51
_symmetry_cell_setting 'orthorhombic'
loop_
_space_group_symop_operation_xyz
x,y,z
1/2-x,-y,z
1/2+x,-y,-z
-x,y,-z
-x,-y,-z
1/2+x,y,-z
1/2-x,y,z
x,-y,z
loop_
_atom_site_type_symbol
_atom_site_label
_atom_site_fract_x
_atom_site_fract_y
_atom_site_fract_z
Si Si1 0.930362 0.919679 0.093574
Si Si2 0.457662 0.423751 0.855679
Si Si3 0.830372 0.322470 0.478227
Si Si4 0.440332 0.576204 0.382716
Si Si5 0.923871 0.077684 0.429555
Si Si6 0.666077 0.188705 0.953640
Si Si7 0.332771 0.321549 0.859653
Si Si8 0.167464 0.822463 0.377269
O O1 0.934244 0.904748 0.262690
O O2 0.868823 0.873971 0.032625
O O3 0.917614 0.000000 0.077983
O O4 0.000000 0.904518 0.000000
O O5 0.440578 0.500000 0.802616
O O6 0.515028 0.392884 0.747507
O O7 0.387313 0.382137 0.881747
O O8 0.500000 0.429242 0.000000
O O9 0.750000 0.344917 0.495076
O O10 0.880727 0.377614 0.549064
O O11 0.841074 0.308140 0.309981
O O12 0.840018 0.251940 0.557832
O O13 0.500000 0.569465 0.500000
O O14 0.415197 0.500000 0.344140
O O15 0.874437 0.126007 0.522369
O O16 0.000000 0.079906 0.500000
O O17 0.897961 0.000000 0.436176
O O18 0.750000 0.184487 0.957764
O O19 0.648393 0.258055 0.038708
O O20 0.644239 0.183304 0.787765
O O21 0.250000 0.337289 0.884229
O O22 0.250000 0.840384 0.378746
#
# Coordination Sequence:
#
# PCOD9405019 Si02
#       8
#     8   8   8   8   8   8   8   8
#     4  10  21  38  60  86 117 151 190 237 286 341
#     4  10  22  39  58  84 116 151 191 236 289 350
#     4  10  21  37  58  84 114 150 192 240 292 347
#     4  10  20  37  58  83 116 148 186 238 292 347
#     4  10  21  38  60  86 116 150 189 236 288 341
#     4  10  22  39  58  82 114 152 192 236 285 340
#     4  10  21  38  59  83 114 151 193 241 291 348
#     4  10  22  39  58  83 116 152 192 238 286 341
#
# _framework density 18.048946999999998
#
# number of rings (size 3 to 8) (size 9 to 14) (size 15 to 20)
#    0.000    2.000    1.250    1.500    1.750    5.000 
#    2.250    3.750    0.000    2.250    0.000    0.000 
#    0.000    0.000    0.000    0.000    0.000    0.000 
#
# Total GULP energy -356684.739450 kJ/mol
# GULP energy per Si atom -5573.199054 kJ/mol
# Density = 1.800787 g / cm^3
# Si number density = 18.048947 Si / 1000 Ang^3
#
#
#
# Elastic Constant Matrix: (Units=GPa)
#
#
# Indices 1 2 3 4 5 6 
#
# 1 66.9770 54.9245 58.3466 0.0000 0.0000 0.0000
# 2 54.9245 64.2753 57.2846 0.0000 0.0000 0.0000
# 3 58.3466 57.2846 129.3095 0.0000 0.0000 0.0000
# 4 0.0000 0.0000 0.0000 29.3716 0.0000 0.0000
# 5 0.0000 0.0000 0.0000 0.0000 30.8534 0.0000
# 6 0.0000 0.0000 0.0000 0.0000 0.0000 82.6456
#
#
#
# Elastic Compliance Matrix: (Units=1/GPa)
#
#
# Indices 1 2 3 4 5 6 
#
# 1 0.052869 -0.039520 -0.006348 0.000000 0.000000 0.000000
# 2 -0.039520 0.055250 -0.006644 0.000000 0.000000 0.000000
# 3 -0.006348 -0.006644 0.013541 0.000000 0.000000 0.000000
# 4 0.000000 0.000000 0.000000 0.034047 0.000000 0.000000
# 5 0.000000 0.000000 0.000000 0.000000 0.032411 0.000000
# 6 0.000000 0.000000 0.000000 0.000000 0.000000 0.012100
#
#
# Mechanical properties :
#
#
# Convention : Reuss Voigt Hill
#
# Bulk Modulus (GPa) = 60.10948 66.85260 63.48104
# Shear Modulus (GPa) = 16.08826 34.57452 25.33139
#
# Velocity S-wave (km/s) = 2.98882 4.38150 3.75037
# Velocity P-wave (km/s) = 6.72953 7.91939 7.34858
#
# Compressibility (1/GPa) = 0.01663631
#
# Stress axis : x y z
#
# Youngs Moduli (GPa) = 18.91481 18.09957 73.85070
#
# Poissons Ratio (x) = 0.71529 0.46878
# Poissons Ratio (y) = 0.74751 0.49065
# Poissons Ratio (z) = 0.12007 0.12025
#
# Static dielectric constant tensor:
#      x y z
#    x 1.924530 0.000000 0.000000 
#    y 0.000000 1.612330 0.000000 
#    z 0.000000 0.000000 1.870890 
# 
# From -- ./inp_files/10038.got.cif
#   From: 2010.05.17/outbox.cif.g08.bks.cpg/sg51_6_cif.got.tgz:10038.got - 2010.06.03 11:52:47.
