data_PCOD9405230
_publ_section_title
;
Structure prediction by ZEFSAII (Michael W. Deem and Ramdas Pophale) SiO2 
 PCOD9405230
Probable space group: P M M A
;
_chemical_formula_sum "Si O2"
_cell_formula_units_Z 48
_cell_length_a 14.683097
_cell_length_b 11.086113
_cell_length_c 13.427506
_cell_angle_alpha 90.000000
_cell_angle_beta 90.000000
_cell_angle_gamma 90.000000
_cell_volume 2185.708917
_symmetry_space_group_name_H-M "P M M A"
_symmetry_group_IT_number 51
_symmetry_cell_setting 'orthorhombic'
loop_
_space_group_symop_operation_xyz
x,y,z
1/2-x,-y,z
1/2+x,-y,-z
-x,y,-z
-x,-y,-z
1/2+x,y,-z
1/2-x,y,z
x,-y,z
loop_
_atom_site_type_symbol
_atom_site_label
_atom_site_fract_x
_atom_site_fract_y
_atom_site_fract_z
Si Si1 0.144052 0.744063 0.245581
Si Si2 0.097278 0.639879 0.034538
Si Si3 0.852433 0.362750 0.187628
Si Si4 0.903188 0.630114 0.558064
Si Si5 0.963965 0.867734 0.264214
Si Si6 0.149925 0.129348 0.541295
O O1 0.250000 0.765872 0.269344
O O2 0.861753 0.500000 0.532491
O O3 0.137546 0.702397 0.130992
O O4 0.101498 0.645495 0.322486
O O5 0.082554 0.500000 0.062741
O O6 0.152484 0.641359 0.932248
O O7 0.000000 0.692222 0.000000
O O8 0.750000 0.348441 0.228647
O O9 0.884410 0.500000 0.214078
O O10 0.915970 0.251689 0.219441
O O11 0.855186 0.751356 0.522628
O O12 0.000000 0.631583 0.500000
O O13 0.927969 0.851950 0.743215
O O14 0.929421 0.866356 0.377736
O O15 0.936612 0.000000 0.222879
O O16 0.250000 0.128960 0.591307
O O17 0.142165 0.000000 0.487261
#
# Coordination Sequence:
#
# PCOD9405230 Si02
#       6
#     8   8   8   8   8   8
#     4  12  25  42  66  98 136 180 227 277 337 398
#     4  10  20  38  66  95 130 176 224 273 332 404
#     4  10  21  39  66 100 133 170 221 279 336 399
#     4  11  24  42  67  99 136 174 219 276 337 399
#     4  11  24  43  67  96 136 179 223 277 338 399
#     4  10  22  42  68  95 126 172 226 274 330 404
#
# _framework density 21.960837999999999
#
# number of rings (size 3 to 8) (size 9 to 14) (size 15 to 20)
#    0.000    1.333    3.333    2.000    0.000    6.667 
#    0.000    1.667    0.000    2.000    0.000    0.000 
#    0.000    0.000    0.000    0.000    0.000    0.000 
#
# Total GULP energy -267716.024893 kJ/mol
# GULP energy per Si atom -5577.417185 kJ/mol
# Density = 2.191085 g / cm^3
# Si number density = 21.960838 Si / 1000 Ang^3
#
#
#
# Elastic Constant Matrix: (Units=GPa)
#
#
# Indices 1 2 3 4 5 6 
#
# 1 126.2067 56.4201 22.8306 0.0000 0.0000 0.0000
# 2 56.4201 191.6447 53.7319 0.0000 0.0000 0.0000
# 3 22.8306 53.7319 68.1627 0.0000 0.0000 0.0000
# 4 0.0000 0.0000 0.0000 18.3942 0.0000 0.0000
# 5 0.0000 0.0000 0.0000 0.0000 20.3653 0.0000
# 6 0.0000 0.0000 0.0000 0.0000 0.0000 34.4964
#
#
#
# Elastic Compliance Matrix: (Units=1/GPa)
#
#
# Indices 1 2 3 4 5 6 
#
# 1 0.009202 -0.002368 -0.001215 0.000000 0.000000 0.000000
# 2 -0.002368 0.007308 -0.004968 0.000000 0.000000 0.000000
# 3 -0.001215 -0.004968 0.018994 0.000000 0.000000 0.000000
# 4 0.000000 0.000000 0.000000 0.054365 0.000000 0.000000
# 5 0.000000 0.000000 0.000000 0.000000 0.049103 0.000000
# 6 0.000000 0.000000 0.000000 0.000000 0.000000 0.028989
#
#
# Mechanical properties :
#
#
# Convention : Reuss Voigt Hill
#
# Bulk Modulus (GPa) = 54.34336 72.44215 63.39275
# Shear Modulus (GPa) = 26.15110 31.51995 28.83552
#
# Velocity S-wave (km/s) = 3.45455 3.79262 3.62752
# Velocity P-wave (km/s) = 6.38053 7.22753 6.81720
#
# Compressibility (1/GPa) = 0.01840151
#
# Stress axis : x y z
#
# Youngs Moduli (GPa) = 108.67066 136.83628 52.64910
#
# Poissons Ratio (x) = 0.32408 0.06398
# Poissons Ratio (y) = 0.25737 0.26154
# Poissons Ratio (z) = 0.13206 0.67974
#
# Static dielectric constant tensor:
#      x y z
#    x 1.869900 0.000000 0.000000 
#    y 0.000000 1.821000 0.000000 
#    z 0.000000 0.000000 1.820850 
# 
# From -- ./inp_files/17295.got.cif
#   From: 2010.05.17/outbox.cif.g08.bks.cpg/sg51_9_cif.got.tgz:17295.got - 2010.06.03 11:52:47.
