data_PCOD9405345
_publ_section_title
;
Structure prediction by ZEFSAII (Michael W. Deem and Ramdas Pophale) SiO2 
 PCOD9405345
Probable space group: P M M A
;
_chemical_formula_sum "Si O2"
_cell_formula_units_Z 48
_cell_length_a 15.380632
_cell_length_b 9.223170
_cell_length_c 17.864164
_cell_angle_alpha 90.000000
_cell_angle_beta 90.000000
_cell_angle_gamma 90.000000
_cell_volume 2534.177857
_symmetry_space_group_name_H-M "P M M A"
_symmetry_group_IT_number 51
_symmetry_cell_setting 'orthorhombic'
loop_
_space_group_symop_operation_xyz
x,y,z
1/2-x,-y,z
1/2+x,-y,-z
-x,y,-z
-x,-y,-z
1/2+x,y,-z
1/2-x,y,z
x,-y,z
loop_
_atom_site_type_symbol
_atom_site_label
_atom_site_fract_x
_atom_site_fract_y
_atom_site_fract_z
Si Si1 0.397201 0.164566 0.507708
Si Si2 0.853571 0.172795 0.190754
Si Si3 0.492286 0.325774 0.912488
Si Si4 0.354406 0.664094 0.657751
Si Si5 0.646719 0.163709 0.655251
Si Si6 0.148756 0.326447 0.196318
O O1 0.500000 0.154260 0.500000
O O2 0.376195 0.258478 0.579953
O O3 0.367065 0.225967 0.427653
O O4 0.361122 0.000000 0.515843
O O5 0.750000 0.201296 0.179878
O O6 0.881324 0.242946 0.270124
O O7 0.912453 0.245008 0.127124
O O8 0.865512 0.000000 0.192885
O O9 0.479831 0.500000 0.905454
O O10 0.581567 0.287525 0.869077
O O11 0.500000 0.290805 0.000000
O O12 0.250000 0.656325 0.661249
O O13 0.389415 0.500000 0.661124
O O14 0.750000 0.152491 0.664517
O O15 0.616722 0.255554 0.726033
O O16 0.609052 0.000000 0.656013
O O17 0.250000 0.284177 0.181645
O O18 0.148019 0.500000 0.204567
#
# Coordination Sequence:
#
# PCOD9405345 Si02
#       6
#     8   8   8   8   8   8
#     4  10  21  34  50  78 113 148 187 231 280 333
#     4  10  22  40  62  87 117 155 197 241 290 344
#     4  10  22  39  61  90 120 151 188 234 291 350
#     4  10  21  37  57  81 110 147 191 237 286 338
#     4   9  18  33  52  74 104 145 188 229 274 325
#     4   9  19  36  57  82 113 149 188 230 280 339
#
# _framework density 18.941054000000001
#
# number of rings (size 3 to 8) (size 9 to 14) (size 15 to 20)
#    0.000    2.333    0.000    1.500    2.333    5.333 
#    0.000    3.333    0.000    2.000    0.000    0.000 
#    0.000    0.000    0.000    0.000    0.000    0.000 
#
# Total GULP energy -267801.439278 kJ/mol
# GULP energy per Si atom -5579.196652 kJ/mol
# Density = 1.889794 g / cm^3
# Si number density = 18.941054 Si / 1000 Ang^3
#
#
#
# Elastic Constant Matrix: (Units=GPa)
#
#
# Indices 1 2 3 4 5 6 
#
# 1 68.1810 46.3164 68.9233 0.0000 0.0000 0.0000
# 2 46.3164 69.9740 83.8296 0.0000 0.0000 0.0000
# 3 68.9233 83.8296 208.2454 0.0000 0.0000 0.0000
# 4 0.0000 0.0000 0.0000 41.0266 0.0000 0.0000
# 5 0.0000 0.0000 0.0000 0.0000 37.4270 0.0000
# 6 0.0000 0.0000 0.0000 0.0000 0.0000 22.3381
#
#
#
# Elastic Compliance Matrix: (Units=1/GPa)
#
#
# Indices 1 2 3 4 5 6 
#
# 1 0.027894 -0.014299 -0.003476 0.000000 0.000000 0.000000
# 2 -0.014299 0.034933 -0.009330 0.000000 0.000000 0.000000
# 3 -0.003476 -0.009330 0.009708 0.000000 0.000000 0.000000
# 4 0.000000 0.000000 0.000000 0.024374 0.000000 0.000000
# 5 0.000000 0.000000 0.000000 0.000000 0.026719 0.000000
# 6 0.000000 0.000000 0.000000 0.000000 0.000000 0.044767
#
#
# Mechanical properties :
#
#
# Convention : Reuss Voigt Hill
#
# Bulk Modulus (GPa) = 54.56859 82.72658 68.64758
# Shear Modulus (GPa) = 21.86141 29.98040 25.92090
#
# Velocity S-wave (km/s) = 3.40101 3.98279 3.70334
# Velocity P-wave (km/s) = 6.65543 8.05734 7.38971
#
# Compressibility (1/GPa) = 0.01832556
#
# Stress axis : x y z
#
# Youngs Moduli (GPa) = 35.84944 28.62640 103.00588
#
# Poissons Ratio (x) = 0.40933 0.35806
# Poissons Ratio (y) = 0.51262 0.96101
# Poissons Ratio (z) = 0.12462 0.26707
#
# Static dielectric constant tensor:
#      x y z
#    x 1.665910 0.000000 0.000000 
#    y 0.000000 1.669590 0.000000 
#    z 0.000000 0.000000 1.639480 
# 
# From -- ./inp_files/24806.got.cif
#   From: 2010.05.17/outbox.cif.g08.bks.cpg/sg51_13_cif.got.tgz:24806.got - 2010.06.03 11:52:47.
