data_PCOD9405919
_publ_section_title
;
Structure prediction by ZEFSAII (Michael W. Deem and Ramdas Pophale) SiO2 
 PCOD9405919
Probable space group: P M M A
;
_chemical_formula_sum "Si O2"
_cell_formula_units_Z 36
_cell_length_a 8.850680
_cell_length_b 11.049401
_cell_length_c 19.397115
_cell_angle_alpha 90.000000
_cell_angle_beta 90.000000
_cell_angle_gamma 90.000000
_cell_volume 1896.935284
_symmetry_space_group_name_H-M "P M M A"
_symmetry_group_IT_number 51
_symmetry_cell_setting 'orthorhombic'
loop_
_space_group_symop_operation_xyz
x,y,z
1/2-x,-y,z
1/2+x,-y,-z
-x,y,-z
-x,-y,-z
1/2+x,y,-z
1/2-x,y,z
x,-y,z
loop_
_atom_site_type_symbol
_atom_site_label
_atom_site_fract_x
_atom_site_fract_y
_atom_site_fract_z
Si Si1 0.070613 0.000000 0.424721
Si Si2 0.932738 0.363262 0.076494
Si Si3 0.566135 0.138603 0.172126
Si Si4 0.569711 0.203096 0.328476
Si Si5 0.078919 0.356264 0.429943
O O1 0.000000 0.000000 0.500000
O O2 0.009349 0.887989 0.380866
O O3 0.250000 0.000000 0.428998
O O4 0.750000 0.359134 0.073108
O O5 0.972880 0.500000 0.102227
O O6 0.983283 0.248524 0.122451
O O7 0.000000 0.351909 0.000000
O O8 0.750000 0.136763 0.169655
O O9 0.523729 0.173000 0.250488
O O10 0.516188 0.000000 0.156052
O O11 0.750000 0.191232 0.332218
O O12 0.515165 0.328452 0.361067
O O13 0.250000 0.308794 0.425028
O O14 0.087954 0.500000 0.437452
O O15 0.000000 0.309150 0.500000
#
# Coordination Sequence:
#
# PCOD9405919 Si02
#       5
#     4   8   8   8   8
#     4  12  24  38  56  78 107 144 187 232 281 336
#     4   9  18  34  57  84 113 146 185 228 274 330
#     4   9  18  34  56  80 110 147 186 229 278 334
#     4  11  21  36  57  80 107 141 184 232 282 335
#     4  10  21  37  55  77 107 142 182 230 283 339
#
# _framework density 18.977979999999999
#
# number of rings (size 3 to 8) (size 9 to 14) (size 15 to 20)
#    0.000    2.000    1.111    3.000    0.000    2.667 
#    0.000    4.444    0.000    2.667    0.000    0.000 
#    0.000    0.000    0.000    0.000    0.000    0.000 
#
# Total GULP energy -200726.016378 kJ/mol
# GULP energy per Si atom -5575.722677 kJ/mol
# Density = 1.893478 g / cm^3
# Si number density = 18.977980 Si / 1000 Ang^3
#
#
#
# Elastic Constant Matrix: (Units=GPa)
#
#
# Indices 1 2 3 4 5 6 
#
# 1 63.4960 30.9226 34.0644 0.0000 0.0000 0.0000
# 2 30.9226 128.2363 85.0837 0.0000 0.0000 0.0000
# 3 34.0644 85.0837 124.4491 0.0000 0.0000 0.0000
# 4 0.0000 0.0000 0.0000 17.3608 0.0000 0.0000
# 5 0.0000 0.0000 0.0000 0.0000 24.7513 0.0000
# 6 0.0000 0.0000 0.0000 0.0000 0.0000 24.1168
#
#
#
# Elastic Compliance Matrix: (Units=1/GPa)
#
#
# Indices 1 2 3 4 5 6 
#
# 1 0.018748 -0.002042 -0.003735 0.000000 0.000000 0.000000
# 2 -0.002042 0.014495 -0.009351 0.000000 0.000000 0.000000
# 3 -0.003735 -0.009351 0.015451 0.000000 0.000000 0.000000
# 4 0.000000 0.000000 0.000000 0.057601 0.000000 0.000000
# 5 0.000000 0.000000 0.000000 0.000000 0.040402 0.000000
# 6 0.000000 0.000000 0.000000 0.000000 0.000000 0.041465
#
#
# Mechanical properties :
#
#
# Convention : Reuss Voigt Hill
#
# Bulk Modulus (GPa) = 54.24099 68.48031 61.36065
# Shear Modulus (GPa) = 22.26545 24.31983 23.29264
#
# Velocity S-wave (km/s) = 3.42895 3.58365 3.50716
# Velocity P-wave (km/s) = 6.65733 7.29972 6.98591
#
# Compressibility (1/GPa) = 0.01843624
#
# Stress axis : x y z
#
# Youngs Moduli (GPa) = 53.34028 68.99041 64.72168
#
# Poissons Ratio (x) = 0.14091 0.24175
# Poissons Ratio (y) = 0.10895 0.60520
# Poissons Ratio (z) = 0.19924 0.64511
#
# Static dielectric constant tensor:
#      x y z
#    x 1.651440 0.000000 0.000000 
#    y 0.000000 1.856880 0.000000 
#    z 0.000000 0.000000 1.613900 
# 
# From -- ./inp_files/27034.got.cif
#   From: 2010.05.17/outbox.cif.g08.bks.cpg/sg51_14_cif.got.tgz:27034.got - 2010.06.03 11:52:47.
