data_PCOD9405983
_publ_section_title
;
Structure prediction by ZEFSAII (Michael W. Deem and Ramdas Pophale) SiO2 
 PCOD9405983
Probable space group: P M M A
;
_chemical_formula_sum "Si O2"
_cell_formula_units_Z 56
_cell_length_a 9.000376
_cell_length_b 19.429257
_cell_length_c 16.330041
_cell_angle_alpha 90.000000
_cell_angle_beta 90.000000
_cell_angle_gamma 90.000000
_cell_volume 2855.644368
_symmetry_space_group_name_H-M "P M M A"
_symmetry_group_IT_number 51
_symmetry_cell_setting 'orthorhombic'
loop_
_space_group_symop_operation_xyz
x,y,z
1/2-x,-y,z
1/2+x,-y,-z
-x,y,-z
-x,-y,-z
1/2+x,y,-z
1/2-x,y,z
x,-y,z
loop_
_atom_site_type_symbol
_atom_site_label
_atom_site_fract_x
_atom_site_fract_y
_atom_site_fract_z
Si Si1 0.927430 0.577318 0.589914
Si Si2 0.924415 0.917693 0.243780
Si Si3 0.573603 0.290076 0.833583
Si Si4 0.427397 0.422457 0.910075
Si Si5 0.573069 0.289677 0.335354
Si Si6 0.572543 0.851512 0.415414
Si Si7 0.574239 0.851140 0.914965
O O1 0.750000 0.586343 0.583876
O O2 0.956250 0.500000 0.622502
O O3 0.000000 0.580727 0.500000
O O4 0.998710 0.638305 0.641494
O O5 0.750000 0.897728 0.236482
O O6 0.977724 0.889308 0.331986
O O7 0.009119 0.888411 0.165067
O O8 0.934238 0.000000 0.244305
O O9 0.750000 0.297582 0.821618
O O10 0.501501 0.362233 0.858403
O O11 0.495643 0.266137 0.750388
O O12 0.548513 0.230569 0.900367
O O13 0.250000 0.412249 0.915728
O O14 0.453897 0.500000 0.877654
O O15 0.500000 0.419441 0.000000
O O16 0.750000 0.297412 0.328433
O O17 0.541955 0.229627 0.400693
O O18 0.500000 0.874980 0.500000
O O19 0.750000 0.860664 0.421179
O O20 0.750000 0.862751 0.918952
O O21 0.500000 0.873082 0.000000
#
# Coordination Sequence:
#
# PCOD9405983 Si02
#       7
#     8   8   8   8   8   8   8
#     4  10  21  37  56  80 113 153 200 254 308 367
#     4  10  22  43  68  94 128 166 205 252 305 364
#     4  11  23  38  59  87 118 157 203 255 310 365
#     4  10  21  37  57  82 114 154 200 251 306 365
#     4  11  22  37  59  85 117 158 202 255 310 363
#     4  10  22  39  62  93 126 164 206 251 304 362
#     4  11  24  41  65  95 127 165 208 255 308 368
#
# _framework density 19.610284
#
# number of rings (size 3 to 8) (size 9 to 14) (size 15 to 20)
#    0.000    1.571    1.429    3.000    0.000    8.857 
#    0.000    0.000    0.000    0.000    0.000    0.000 
#    0.000    0.000    0.000    0.000    0.000    0.000 
#
# Total GULP energy -312896.010029 kJ/mol
# GULP energy per Si atom -5587.428751 kJ/mol
# Density = 1.956565 g / cm^3
# Si number density = 19.610284 Si / 1000 Ang^3
#
#
#
# Elastic Constant Matrix: (Units=GPa)
#
#
# Indices 1 2 3 4 5 6 
#
# 1 74.2028 50.2137 56.8203 0.0000 0.0000 0.0000
# 2 50.2137 66.7984 44.8611 0.0000 0.0000 0.0000
# 3 56.8203 44.8611 143.5824 0.0000 0.0000 0.0000
# 4 0.0000 0.0000 0.0000 18.2552 0.0000 0.0000
# 5 0.0000 0.0000 0.0000 0.0000 38.9656 0.0000
# 6 0.0000 0.0000 0.0000 0.0000 0.0000 19.4576
#
#
#
# Elastic Compliance Matrix: (Units=1/GPa)
#
#
# Indices 1 2 3 4 5 6 
#
# 1 0.031492 -0.019368 -0.006411 0.000000 0.000000 0.000000
# 2 -0.019368 0.030857 -0.001977 0.000000 0.000000 0.000000
# 3 -0.006411 -0.001977 0.010119 0.000000 0.000000 0.000000
# 4 0.000000 0.000000 0.000000 0.054779 0.000000 0.000000
# 5 0.000000 0.000000 0.000000 0.000000 0.025664 0.000000
# 6 0.000000 0.000000 0.000000 0.000000 0.000000 0.051394
#
#
# Mechanical properties :
#
#
# Convention : Reuss Voigt Hill
#
# Bulk Modulus (GPa) = 58.97070 65.37486 62.17278
# Shear Modulus (GPa) = 18.83465 24.18158 21.50811
#
# Velocity S-wave (km/s) = 3.10247 3.51537 3.31536
# Velocity P-wave (km/s) = 6.55518 7.06304 6.81384
#
# Compressibility (1/GPa) = 0.01695757
#
# Stress axis : x y z
#
# Youngs Moduli (GPa) = 31.75393 32.40765 98.82068
#
# Poissons Ratio (x) = 0.62766 0.63356
# Poissons Ratio (y) = 0.61500 0.19533
# Poissons Ratio (z) = 0.20358 0.06406
#
# Static dielectric constant tensor:
#      x y z
#    x 1.652390 0.000000 0.000000 
#    y 0.000000 1.691330 0.000000 
#    z 0.000000 0.000000 1.757290 
# 
# From -- ./inp_files/21718.got.cif
#   From: 2010.05.17/outbox.cif.g08.bks.cpg/sg51_11_cif.got.tgz:21718.got - 2010.06.03 11:52:47.
