data_PCOD9405197
_publ_section_title
;
Structure prediction by ZEFSAII (Michael W. Deem and Ramdas Pophale) SiO2 
 PCOD9405197
Probable space group: P M M A
;
_chemical_formula_sum "Si O2"
_cell_formula_units_Z 64
_cell_length_a 29.981787
_cell_length_b 12.458750
_cell_length_c 9.139199
_cell_angle_alpha 90.000000
_cell_angle_beta 90.000000
_cell_angle_gamma 90.000000
_cell_volume 3413.816079
_symmetry_space_group_name_H-M "P M M A"
_symmetry_group_IT_number 51
_symmetry_cell_setting 'orthorhombic'
loop_
_space_group_symop_operation_xyz
x,y,z
1/2-x,-y,z
1/2+x,-y,-z
-x,y,-z
-x,-y,-z
1/2+x,y,-z
1/2-x,y,z
x,-y,z
loop_
_atom_site_type_symbol
_atom_site_label
_atom_site_fract_x
_atom_site_fract_y
_atom_site_fract_z
Si Si1 0.090214 0.116901 0.861481
Si Si2 0.975871 0.799971 0.355911
Si Si3 0.697701 0.124170 0.454513
Si Si4 0.907304 0.375753 0.445503
Si Si5 0.447985 0.875944 0.168752
Si Si6 0.660916 0.286027 0.214909
Si Si7 0.862570 0.235722 0.697293
Si Si8 0.697708 0.626296 0.919498
O O1 0.063758 0.128361 0.709755
O O2 0.125773 0.210213 0.868487
O O3 0.111308 0.000000 0.874323
O O4 0.055734 0.127985 0.994132
O O5 0.951298 0.688879 0.394424
O O6 0.000000 0.842883 0.500000
O O7 0.014694 0.799058 0.235966
O O8 0.750000 0.128945 0.489969
O O9 0.687989 0.205027 0.320129
O O10 0.668683 0.165363 0.590881
O O11 0.686388 0.000000 0.418886
O O12 0.916261 0.500000 0.468804
O O13 0.869049 0.359978 0.321409
O O14 0.888442 0.318453 0.590550
O O15 0.399932 0.838881 0.228508
O O16 0.457659 0.000000 0.210266
O O17 0.688237 0.346570 0.090089
O O18 0.833081 0.300686 0.814937
O O19 0.750000 0.645850 0.888279
O O20 0.688414 0.500000 0.894333
#
# Coordination Sequence:
#
# PCOD9405197 Si02
#       8
#     8   8   8   8   8   8   8   8
#     4  10  21  37  59  83 118 155 187 232 285 350
#     4  11  22  38  56  89 114 151 192 243 285 338
#     4  10  21  37  58  87 122 157 193 239 296 357
#     4  10  22  40  61  83 114 157 198 242 293 346
#     4  11  22  38  58  83 117 153 190 232 293 353
#     4  10  20  38  62  85 120 150 198 239 296 349
#     4  11  21  40  59  86 116 158 195 245 289 354
#     4  11  23  39  62  90 118 152 198 251 301 349
#
# _framework density 18.747347999999999
#
# number of rings (size 3 to 8) (size 9 to 14) (size 15 to 20)
#    0.000    1.500    2.500    3.000    0.000    2.250 
#    0.000    0.000    0.000   10.500    0.000    0.000 
#    0.000    0.000    0.000    0.000    0.000    0.000 
#
# Total GULP energy -357246.290918 kJ/mol
# GULP energy per Si atom -5581.973296 kJ/mol
# Density = 1.870468 g / cm^3
# Si number density = 18.747348 Si / 1000 Ang^3
#
#
#
# Elastic Constant Matrix: (Units=GPa)
#
#
# Indices 1 2 3 4 5 6 
#
# 1 82.1972 33.6499 22.7752 0.0000 0.0000 0.0000
# 2 33.6499 78.3678 36.4009 0.0000 0.0000 0.0000
# 3 22.7752 36.4009 74.2160 0.0000 0.0000 0.0000
# 4 0.0000 0.0000 0.0000 14.7043 0.0000 0.0000
# 5 0.0000 0.0000 0.0000 0.0000 30.7610 0.0000
# 6 0.0000 0.0000 0.0000 0.0000 0.0000 -28.6171
#
#
#
# Elastic Compliance Matrix: (Units=1/GPa)
#
#
# Indices 1 2 3 4 5 6 
#
# 1 0.014957 -0.005556 -0.001865 0.000000 0.000000 0.000000
# 2 -0.005556 0.018589 -0.007412 0.000000 0.000000 0.000000
# 3 -0.001865 -0.007412 0.017682 0.000000 0.000000 0.000000
# 4 0.000000 0.000000 0.000000 0.068007 0.000000 0.000000
# 5 0.000000 0.000000 0.000000 0.000000 0.032509 0.000000
# 6 0.000000 0.000000 0.000000 0.000000 0.000000 -0.034944
#
#
# Mechanical properties :
#
#
# Convention : Reuss Voigt Hill
#
# Bulk Modulus (GPa) = 46.37907 46.71479 46.54693
# Shear Modulus (GPa) = 32.54063 12.83329 22.68696
#
# Velocity S-wave (km/s) = 4.17075 2.61921 3.48248
# Velocity P-wave (km/s) = 6.92721 5.84116 6.40724
#
# Compressibility (1/GPa) = 0.02156145
#
# Stress axis : x y z
#
# Youngs Moduli (GPa) = 66.85754 53.79520 56.55467
#
# Poissons Ratio (x) = 0.29890 0.10547
# Poissons Ratio (y) = 0.37147 0.41920
# Poissons Ratio (z) = 0.12468 0.39875
#
# Static dielectric constant tensor:
#      x y z
#    x 1.650190 0.000000 0.000000 
#    y 0.000000 1.614880 0.000000 
#    z 0.000000 0.000000 1.659320 
# 
# From -- ./inp_files/13164.got.cif
#   From: 2010.05.17/outbox.cif.g08.bks.cpg/sg51_7_cif.got.tgz:13164.got - 2010.06.03 11:52:47.
