data_PCOD9405235
_publ_section_title
;
Structure prediction by ZEFSAII (Michael W. Deem and Ramdas Pophale) SiO2 
 PCOD9405235
Probable space group: P M M A
;
_chemical_formula_sum "Si O2"
_cell_formula_units_Z 64
_cell_length_a 9.048898
_cell_length_b 25.563793
_cell_length_c 14.898564
_cell_angle_alpha 90.000000
_cell_angle_beta 90.000000
_cell_angle_gamma 90.000000
_cell_volume 3446.397733
_symmetry_space_group_name_H-M "P M M A"
_symmetry_group_IT_number 51
_symmetry_cell_setting 'orthorhombic'
loop_
_space_group_symop_operation_xyz
x,y,z
1/2-x,-y,z
1/2+x,-y,-z
-x,y,-z
-x,-y,-z
1/2+x,y,-z
1/2-x,y,z
x,-y,z
loop_
_atom_site_type_symbol
_atom_site_label
_atom_site_fract_x
_atom_site_fract_y
_atom_site_fract_z
Si Si1 0.072885 0.651597 0.098246
Si Si2 0.419581 0.936202 0.409784
Si Si3 0.926235 0.403968 0.408359
Si Si4 0.926089 0.279958 0.408870
Si Si5 0.425932 0.439339 0.789635
Si Si6 0.927977 0.060509 0.224675
Si Si7 0.573353 0.848186 0.095837
Si Si8 0.927927 0.254811 0.210376
O O1 0.250000 0.653185 0.091658
O O2 0.017249 0.598865 0.146793
O O3 0.011977 0.699037 0.159082
O O4 0.000000 0.655479 0.000000
O O5 0.500000 0.917902 0.500000
O O6 0.250000 0.919341 0.408073
O O7 0.503550 0.921547 0.318997
O O8 0.421273 0.000000 0.412120
O O9 0.750000 0.409390 0.417471
O O10 0.961216 0.342008 0.399912
O O11 0.969440 0.430535 0.314657
O O12 0.000000 0.423664 0.500000
O O13 0.750000 0.275405 0.418164
O O14 0.970302 0.253713 0.315179
O O15 0.000000 0.260203 0.500000
O O16 0.250000 0.426375 0.796225
O O17 0.444803 0.500000 0.813104
O O18 0.750000 0.062772 0.232171
O O19 0.975272 0.098712 0.145192
O O20 0.969846 0.000000 0.208969
O O21 0.750000 0.850466 0.084303
O O22 0.541399 0.799370 0.160504
O O23 0.500000 0.841135 0.000000
O O24 0.750000 0.264933 0.206439
#
# Coordination Sequence:
#
# PCOD9405235 Si02
#       8
#     8   8   8   8   8   8   8   8
#     4  12  25  40  61  85 110 142 185 233 285 339
#     4   9  16  27  47  76 107 142 184 228 273 322
#     4   9  17  31  52  80 112 147 184 222 269 321
#     4   9  17  31  54  81 112 144 177 220 268 323
#     4  10  21  39  60  82 113 151 189 231 279 330
#     4   9  18  34  54  78 111 150 189 229 278 337
#     4  10  22  38  58  82 110 145 185 233 286 335
#     4  10  20  39  62  84 113 146 184 229 278 331
#
# _framework density 18.570114
#
# number of rings (size 3 to 8) (size 9 to 14) (size 15 to 20)
#    0.000    2.250    1.250    1.875    0.000    5.500 
#    0.000    0.625    0.000    1.500    0.000    0.000 
#    0.000    0.000    0.000    0.000    0.000    0.000 
#
# Total GULP energy -357239.168397 kJ/mol
# GULP energy per Si atom -5581.862006 kJ/mol
# Density = 1.852785 g / cm^3
# Si number density = 18.570114 Si / 1000 Ang^3
#
#
#
# Elastic Constant Matrix: (Units=GPa)
#
#
# Indices 1 2 3 4 5 6 
#
# 1 48.9817 43.5777 57.8912 0.0000 0.0000 0.0000
# 2 43.5777 70.3156 69.3320 0.0000 0.0000 0.0000
# 3 57.8912 69.3320 168.2743 0.0000 0.0000 0.0000
# 4 0.0000 0.0000 0.0000 -28.0083 0.0000 0.0000
# 5 0.0000 0.0000 0.0000 0.0000 37.8652 0.0000
# 6 0.0000 0.0000 0.0000 0.0000 0.0000 7.3995
#
#
#
# Elastic Compliance Matrix: (Units=1/GPa)
#
#
# Indices 1 2 3 4 5 6 
#
# 1 0.050644 -0.023928 -0.007564 0.000000 0.000000 0.000000
# 2 -0.023928 0.035258 -0.006295 0.000000 0.000000 0.000000
# 3 -0.007564 -0.006295 0.011139 0.000000 0.000000 0.000000
# 4 0.000000 0.000000 0.000000 -0.035704 0.000000 0.000000
# 5 0.000000 0.000000 0.000000 0.000000 0.026409 0.000000
# 6 0.000000 0.000000 0.000000 0.000000 0.000000 0.135144
#
#
# Mechanical properties :
#
#
# Convention : Reuss Voigt Hill
#
# Bulk Modulus (GPa) = 46.58508 69.90817 58.24662
# Shear Modulus (GPa) = 16.36025 11.23600 13.79813
#
# Velocity S-wave (km/s) = 2.97138 2.46246 2.72881
# Velocity P-wave (km/s) = 6.07558 6.76847 6.43136
#
# Compressibility (1/GPa) = 0.02146610
#
# Stress axis : x y z
#
# Youngs Moduli (GPa) = 19.74577 28.36270 89.77788
#
# Poissons Ratio (x) = 0.67866 0.67910
# Poissons Ratio (y) = 0.47247 0.56514
# Poissons Ratio (z) = 0.14936 0.17854
#
# Static dielectric constant tensor:
#      x y z
#    x 1.623730 0.000000 0.000000 
#    y 0.000000 1.644760 0.000000 
#    z 0.000000 0.000000 1.621350 
# 
# From -- ./inp_files/22380.got.cif
#   From: 2010.05.17/outbox.cif.g08.bks.cpg/sg51_12_cif.got.tgz:22380.got - 2010.06.03 11:52:47.
