data_PCOD9405459
_publ_section_title
;
Structure prediction by ZEFSAII (Michael W. Deem and Ramdas Pophale) SiO2 
 PCOD9405459
Probable space group: P M M A
;
_chemical_formula_sum "Si O2"
_cell_formula_units_Z 48
_cell_length_a 9.519116
_cell_length_b 7.912586
_cell_length_c 32.211424
_cell_angle_alpha 90.000000
_cell_angle_beta 90.000000
_cell_angle_gamma 90.000000
_cell_volume 2426.190998
_symmetry_space_group_name_H-M "P M M A"
_symmetry_group_IT_number 51
_symmetry_cell_setting 'orthorhombic'
loop_
_space_group_symop_operation_xyz
x,y,z
1/2-x,-y,z
1/2+x,-y,-z
-x,y,-z
-x,-y,-z
1/2+x,y,-z
1/2-x,y,z
x,-y,z
loop_
_atom_site_type_symbol
_atom_site_label
_atom_site_fract_x
_atom_site_fract_y
_atom_site_fract_z
Si Si1 0.410832 0.202027 0.801325
Si Si2 0.908881 0.700929 0.289590
Si Si3 0.089416 0.795844 0.120733
Si Si4 0.913782 0.206139 0.539542
Si Si5 0.588964 0.203615 0.630986
Si Si6 0.588595 0.703890 0.039741
O O1 0.250000 0.268717 0.804600
O O2 0.464330 0.236461 0.754839
O O3 0.511608 0.266948 0.837610
O O4 0.402727 0.000000 0.806245
O O5 0.750000 0.769691 0.294003
O O6 0.901887 0.500000 0.286911
O O7 0.998382 0.745735 0.329705
O O8 0.250000 0.733876 0.116995
O O9 0.995033 0.749815 0.081264
O O10 0.095439 0.000000 0.122873
O O11 0.750000 0.251389 0.535833
O O12 0.963650 0.260899 0.585432
O O13 0.000000 0.268362 0.500000
O O14 0.920603 0.000000 0.539026
O O15 0.750000 0.262439 0.635591
O O16 0.591743 0.000000 0.629782
O O17 0.750000 0.765880 0.040008
O O18 0.594231 0.500000 0.037229
O O19 0.500000 0.765573 0.000000
#
# Coordination Sequence:
#
# PCOD9405459 Si02
#       6
#     8   8   8   8   8   8
#     4   9  18  34  54  74 100 135 172 210 253 301
#     4  10  21  35  51  74 103 133 168 210 253 300
#     4  10  21  36  55  81 110 138 170 210 256 305
#     4   8  14  25  42  67  97 125 156 198 246 294
#     4   9  18  32  50  73 101 132 166 205 250 300
#     4  10  21  37  57  80 107 141 179 217 257 301
#
# _framework density 19.784096999999999
#
# number of rings (size 3 to 8) (size 9 to 14) (size 15 to 20)
#    0.000    2.667    0.000    2.500    0.000    5.667 
#    0.000    5.000    0.000    0.500    0.000    0.000 
#    0.000    0.000    0.000    0.000    0.000    0.000 
#
# Total GULP energy -267768.253875 kJ/mol
# GULP energy per Si atom -5578.505289 kJ/mol
# Density = 1.973907 g / cm^3
# Si number density = 19.784097 Si / 1000 Ang^3
#
#
#
# Elastic Constant Matrix: (Units=GPa)
#
#
# Indices 1 2 3 4 5 6 
#
# 1 128.1719 8.6345 120.3704 0.0000 0.0000 0.0000
# 2 8.6345 15.8766 4.8839 0.0000 0.0000 0.0000
# 3 120.3704 4.8839 229.2201 0.0000 0.0000 0.0000
# 4 0.0000 0.0000 0.0000 64.0297 0.0000 0.0000
# 5 0.0000 0.0000 0.0000 0.0000 40.4644 0.0000
# 6 0.0000 0.0000 0.0000 0.0000 0.0000 15.0463
#
#
#
# Elastic Compliance Matrix: (Units=1/GPa)
#
#
# Indices 1 2 3 4 5 6 
#
# 1 0.015968 -0.006145 -0.008254 0.000000 0.000000 0.000000
# 2 -0.006145 0.065766 0.001826 0.000000 0.000000 0.000000
# 3 -0.008254 0.001826 0.008658 0.000000 0.000000 0.000000
# 4 0.000000 0.000000 0.000000 0.015618 0.000000 0.000000
# 5 0.000000 0.000000 0.000000 0.000000 0.024713 0.000000
# 6 0.000000 0.000000 0.000000 0.000000 0.000000 0.066462
#
#
# Mechanical properties :
#
#
# Convention : Reuss Voigt Hill
#
# Bulk Modulus (GPa) = 15.32679 71.22735 43.27707
# Shear Modulus (GPa) = 20.48504 39.86672 30.17588
#
# Velocity S-wave (km/s) = 3.22130 4.49384 3.90969
# Velocity P-wave (km/s) = 4.64753 7.93767 6.50408
#
# Compressibility (1/GPa) = 0.06524525
#
# Stress axis : x y z
#
# Youngs Moduli (GPa) = 62.62584 15.20536 115.49622
#
# Poissons Ratio (x) = 0.09344 0.95334
# Poissons Ratio (y) = 0.38483 -0.21085
# Poissons Ratio (z) = 0.51693 -0.02776
#
# Static dielectric constant tensor:
#      x y z
#    x 1.692100 0.000000 0.000000 
#    y 0.000000 1.721440 0.000000 
#    z 0.000000 0.000000 1.683760 
# 
# From -- ./inp_files/36919.got.cif
#   From: 2010.05.17/outbox.cif.g08.bks.cpg/sg51_19_cif.got.tgz:36919.got - 2010.06.03 11:52:47.
