data_PCOD9405509
_publ_section_title
;
Structure prediction by ZEFSAII (Michael W. Deem and Ramdas Pophale) SiO2 
 PCOD9405509
Probable space group: P M M A
;
_chemical_formula_sum "Si O2"
_cell_formula_units_Z 64
_cell_length_a 15.779364
_cell_length_b 23.697303
_cell_length_c 9.478068
_cell_angle_alpha 90.000000
_cell_angle_beta 90.000000
_cell_angle_gamma 90.000000
_cell_volume 3544.118517
_symmetry_space_group_name_H-M "P M M A"
_symmetry_group_IT_number 51
_symmetry_cell_setting 'orthorhombic'
loop_
_space_group_symop_operation_xyz
x,y,z
1/2-x,-y,z
1/2+x,-y,-z
-x,y,-z
-x,-y,-z
1/2+x,y,-z
1/2-x,y,z
x,-y,z
loop_
_atom_site_type_symbol
_atom_site_label
_atom_site_fract_x
_atom_site_fract_y
_atom_site_fract_z
Si Si1 0.845917 0.567729 0.149277
Si Si2 0.850247 0.240800 0.851970
Si Si3 0.650190 0.061176 0.258375
Si Si4 0.650439 0.373006 0.848023
Si Si5 0.922496 0.157149 0.087396
Si Si6 0.491704 0.567791 0.335048
Si Si7 0.647578 0.933183 0.583055
Si Si8 0.538970 0.172312 0.654257
O O1 0.750000 0.582606 0.197062
O O2 0.848569 0.500000 0.132081
O O3 0.921045 0.583394 0.255307
O O4 0.860426 0.596159 0.998083
O O5 0.750000 0.233327 0.845851
O O6 0.869111 0.306887 0.866934
O O7 0.892165 0.217035 0.709303
O O8 0.884046 0.204585 0.985590
O O9 0.750000 0.055562 0.275705
O O10 0.636528 0.107511 0.140293
O O11 0.621894 0.075476 0.417902
O O12 0.613431 0.000000 0.220201
O O13 0.750000 0.378593 0.807702
O O14 0.587021 0.401021 0.737087
O O15 0.964097 0.179093 0.231795
O O16 0.000000 0.131288 0.000000
O O17 0.500000 0.580791 0.500000
O O18 0.480137 0.500000 0.320301
O O19 0.750000 0.922250 0.600118
O O20 0.587837 0.888443 0.663188
O O21 0.634521 0.000000 0.614975
O O22 0.500000 0.180587 0.500000
#
# Coordination Sequence:
#
# PCOD9405509 Si02
#       8
#     8   8   8   8   8   8   8   8
#     4   9  18  34  58  87 116 150 194 237 276 328
#     4  10  23  42  58  76 108 149 190 231 277 330
#     4   9  17  31  52  76 102 136 177 218 268 336
#     4  10  21  38  60  82 108 150 201 244 279 327
#     4  10  21  35  53  76 106 140 175 222 282 332
#     4  10  21  35  56  89 125 156 183 225 290 345
#     4   9  18  33  55  81 108 141 178 219 275 341
#     4  11  21  35  56  84 110 137 178 230 282 331
#
# _framework density 18.058087
#
# number of rings (size 3 to 8) (size 9 to 14) (size 15 to 20)
#    0.000    2.250    1.250    2.250    0.000    6.750 
#    0.000    3.125    0.000    9.750    0.000    0.000 
#    0.000    0.000    0.000    0.000    0.000    0.000 
#
# Total GULP energy -356651.712272 kJ/mol
# GULP energy per Si atom -5572.683004 kJ/mol
# Density = 1.801699 g / cm^3
# Si number density = 18.058087 Si / 1000 Ang^3
#
#
#
# Elastic Constant Matrix: (Units=GPa)
#
#
# Indices 1 2 3 4 5 6 
#
# 1 89.1268 58.5678 64.2003 0.0000 0.0000 0.0000
# 2 58.5678 61.7621 49.3208 0.0000 0.0000 0.0000
# 3 64.2003 49.3208 103.3709 0.0000 0.0000 0.0000
# 4 0.0000 0.0000 0.0000 7.2377 0.0000 0.0000
# 5 0.0000 0.0000 0.0000 0.0000 22.8938 0.0000
# 6 0.0000 0.0000 0.0000 0.0000 0.0000 -99.7431
#
#
#
# Elastic Compliance Matrix: (Units=1/GPa)
#
#
# Indices 1 2 3 4 5 6 
#
# 1 0.034674 -0.025338 -0.009446 0.000000 0.000000 0.000000
# 2 -0.025338 0.044673 -0.005578 0.000000 0.000000 0.000000
# 3 -0.009446 -0.005578 0.018202 0.000000 0.000000 0.000000
# 4 0.000000 0.000000 0.000000 0.138165 0.000000 0.000000
# 5 0.000000 0.000000 0.000000 0.000000 0.043680 0.000000
# 6 0.000000 0.000000 0.000000 0.000000 0.000000 -0.010026
#
#
# Mechanical properties :
#
#
# Convention : Reuss Voigt Hill
#
# Bulk Modulus (GPa) = 59.43300 66.49307 62.96304
# Shear Modulus (GPa) = 14.05680 -8.44426 2.80627
#
# Velocity S-wave (km/s) = 2.79305 -2.16479 1.24796
# Velocity P-wave (km/s) = 6.58673 5.53654 6.08434
#
# Compressibility (1/GPa) = 0.01682567
#
# Stress axis : x y z
#
# Youngs Moduli (GPa) = 28.83992 22.38488 54.93986
#
# Poissons Ratio (x) = 0.56719 0.51894
# Poissons Ratio (y) = 0.73074 0.30646
# Poissons Ratio (z) = 0.27241 0.12486
#
# Static dielectric constant tensor:
#      x y z
#    x 1.646320 0.000000 0.000000 
#    y 0.000000 1.627020 0.000000 
#    z 0.000000 0.000000 1.609610 
# 
# From -- ./inp_files/8711.got.cif
#   From: 2010.05.17/outbox.cif.g08.bks.cpg/sg51_5_cif.got.tgz:8711.got - 2010.06.03 11:52:47.
