data_PCOD9405267
_publ_section_title
;
Structure prediction by ZEFSAII (Michael W. Deem and Ramdas Pophale) SiO2 
 PCOD9405267
Probable space group: P M M A
;
_chemical_formula_sum "Si O2"
_cell_formula_units_Z 48
_cell_length_a 9.019316
_cell_length_b 17.585811
_cell_length_c 15.310442
_cell_angle_alpha 90.000000
_cell_angle_beta 90.000000
_cell_angle_gamma 90.000000
_cell_volume 2428.419620
_symmetry_space_group_name_H-M "P M M A"
_symmetry_group_IT_number 51
_symmetry_cell_setting 'orthorhombic'
loop_
_space_group_symop_operation_xyz
x,y,z
1/2-x,-y,z
1/2+x,-y,-z
-x,y,-z
-x,-y,-z
1/2+x,y,-z
1/2-x,y,z
x,-y,z
loop_
_atom_site_type_symbol
_atom_site_label
_atom_site_fract_x
_atom_site_fract_y
_atom_site_fract_z
Si Si1 0.083591 0.589861 0.359507
Si Si2 0.430466 0.000000 0.597133
Si Si3 0.919532 0.352540 0.837508
Si Si4 0.930228 0.197297 0.095071
Si Si5 0.929138 0.140676 0.279580
Si Si6 0.924839 0.732871 0.413345
Si Si7 0.924335 0.500000 0.092111
O O1 0.250000 0.594684 0.398207
O O2 0.045951 0.500000 0.353378
O O3 0.092352 0.630363 0.265252
O O4 0.968714 0.644559 0.406799
O O5 0.500000 0.000000 0.500000
O O6 0.475474 0.072369 0.656767
O O7 0.250000 0.000000 0.588505
O O8 0.750000 0.353386 0.872573
O O9 0.002299 0.277849 0.872314
O O10 0.015978 0.424135 0.865023
O O11 0.750000 0.201044 0.088494
O O12 0.971989 0.142154 0.177187
O O13 0.000000 0.179031 0.000000
O O14 0.750000 0.138826 0.278091
O O15 0.973892 0.218365 0.329045
O O16 0.750000 0.740526 0.420430
O O17 0.000000 0.765439 0.500000
O O18 0.750000 0.500000 0.088098
O O19 0.000000 0.500000 0.000000
#
# Coordination Sequence:
#
# PCOD9405267 Si02
#       7
#     8   4   8   8   8   8   4
#     4  10  21  38  58  81 111 149 196 249 302 358
#     4  10  20  40  67  98 130 164 197 244 301 358
#     4  11  21  37  57  81 111 149 197 253 308 360
#     4  11  22  39  59  87 119 158 204 247 295 357
#     4   9  20  38  63  91 125 160 199 243 298 362
#     4  11  22  38  59  87 116 153 199 246 299 362
#     4  12  24  36  52  76 109 150 197 252 310 366
#
# _framework density 19.765941000000002
#
# number of rings (size 3 to 8) (size 9 to 14) (size 15 to 20)
#    0.000    1.500    2.500    3.250    0.000    1.333 
#    0.000    2.917    0.000    0.000    0.000    0.000 
#    0.000    0.000    0.000    0.000    0.000    0.000 
#
# Total GULP energy -267548.993360 kJ/mol
# GULP energy per Si atom -5573.937362 kJ/mol
# Density = 1.972095 g / cm^3
# Si number density = 19.765941 Si / 1000 Ang^3
#
#
#
# Elastic Constant Matrix: (Units=GPa)
#
#
# Indices 1 2 3 4 5 6 
#
# 1 93.6664 31.8379 48.8795 0.0000 0.0000 0.0000
# 2 31.8379 108.3172 52.6009 0.0000 0.0000 0.0000
# 3 48.8795 52.6009 155.5845 0.0000 0.0000 0.0000
# 4 0.0000 0.0000 0.0000 24.9295 0.0000 0.0000
# 5 0.0000 0.0000 0.0000 0.0000 30.8545 0.0000
# 6 0.0000 0.0000 0.0000 0.0000 0.0000 16.3153
#
#
#
# Elastic Compliance Matrix: (Units=1/GPa)
#
#
# Indices 1 2 3 4 5 6 
#
# 1 0.013207 -0.002234 -0.003394 0.000000 0.000000 0.000000
# 2 -0.002234 0.011423 -0.003160 0.000000 0.000000 0.000000
# 3 -0.003394 -0.003160 0.008562 0.000000 0.000000 0.000000
# 4 0.000000 0.000000 0.000000 0.040113 0.000000 0.000000
# 5 0.000000 0.000000 0.000000 0.000000 0.032410 0.000000
# 6 0.000000 0.000000 0.000000 0.000000 0.000000 0.061292
#
#
# Mechanical properties :
#
#
# Convention : Reuss Voigt Hill
#
# Bulk Modulus (GPa) = 64.03605 69.35610 66.69608
# Shear Modulus (GPa) = 26.34506 29.36983 27.85745
#
# Velocity S-wave (km/s) = 3.65478 3.85889 3.75823
# Velocity P-wave (km/s) = 7.09066 7.41752 7.25593
#
# Compressibility (1/GPa) = 0.01561620
#
# Stress axis : x y z
#
# Youngs Moduli (GPa) = 75.72022 87.53943 116.79397
#
# Poissons Ratio (x) = 0.19554 0.39638
# Poissons Ratio (y) = 0.16914 0.36911
# Poissons Ratio (z) = 0.25698 0.27665
#
# Static dielectric constant tensor:
#      x y z
#    x 1.669970 0.000000 0.000000 
#    y 0.000000 1.682630 0.000000 
#    z 0.000000 0.000000 1.752480 
# 
# From -- ./inp_files/21155.got.cif
#   From: 2010.05.17/outbox.cif.g08.bks.cpg/sg51_11_cif.got.tgz:21155.got - 2010.06.03 11:52:47.
