data_PCOD9405506
_publ_section_title
;
Structure prediction by ZEFSAII (Michael W. Deem and Ramdas Pophale) SiO2 
 PCOD9405506
Probable space group: P M M A
;
_chemical_formula_sum "Si O2"
_cell_formula_units_Z 56
_cell_length_a 13.724624
_cell_length_b 23.077215
_cell_length_c 9.142658
_cell_angle_alpha 90.000000
_cell_angle_beta 90.000000
_cell_angle_gamma 90.000000
_cell_volume 2895.718401
_symmetry_space_group_name_H-M "P M M A"
_symmetry_group_IT_number 51
_symmetry_cell_setting 'orthorhombic'
loop_
_space_group_symop_operation_xyz
x,y,z
1/2-x,-y,z
1/2+x,-y,-z
-x,y,-z
-x,-y,-z
1/2+x,y,-z
1/2-x,y,z
x,-y,z
loop_
_atom_site_type_symbol
_atom_site_label
_atom_site_fract_x
_atom_site_fract_y
_atom_site_fract_z
Si Si1 0.139279 0.652091 0.664666
Si Si2 0.476044 0.748105 0.830319
Si Si3 0.979099 0.933942 0.671837
Si Si4 0.863079 0.136256 0.141030
Si Si5 0.636529 0.433467 0.604803
Si Si6 0.466170 0.567533 0.843269
Si Si7 0.861346 0.840066 0.805444
O O1 0.250000 0.674915 0.662065
O O2 0.060459 0.698966 0.719688
O O3 0.121208 0.616738 0.514855
O O4 0.125842 0.602232 0.785533
O O5 0.391526 0.796903 0.830001
O O6 0.570379 0.784619 0.780904
O O7 0.500000 0.730458 0.000000
O O8 0.888458 0.891427 0.696852
O O9 0.000000 0.934366 0.500000
O O10 0.066805 0.904686 0.764536
O O11 0.962914 0.000000 0.720506
O O12 0.750000 0.124743 0.170397
O O13 0.881324 0.132985 0.966646
O O14 0.750000 0.429738 0.653600
O O15 0.623977 0.500000 0.545321
O O16 0.556878 0.426461 0.731286
O O17 0.442820 0.500000 0.855023
O O18 0.500000 0.589310 0.000000
O O19 0.750000 0.822671 0.799223
#
# Coordination Sequence:
#
# PCOD9405506 Si02
#       7
#     8   8   8   8   8   8   8
#     4  11  21  33  54  82 111 146 184 222 272 332
#     4   9  18  35  57  82 112 143 181 229 280 331
#     4  10  21  35  52  79 117 155 186 223 274 330
#     4   9  18  35  59  83 109 145 188 232 278 326
#     4   9  19  37  59  82 111 146 182 224 275 329
#     4  10  21  37  57  81 110 145 184 228 279 331
#     4   9  19  37  61  84 107 143 188 233 280 328
#
# _framework density 19.338898
#
# number of rings (size 3 to 8) (size 9 to 14) (size 15 to 20)
#    0.000    2.429    0.000    3.000    0.000    5.429 
#    0.000   10.714    0.000    7.714    0.000    0.000 
#    0.000    0.000    0.000    0.000    0.000    0.000 
#
# Total GULP energy -312202.312399 kJ/mol
# GULP energy per Si atom -5575.041293 kJ/mol
# Density = 1.929488 g / cm^3
# Si number density = 19.338898 Si / 1000 Ang^3
#
#
#
# Elastic Constant Matrix: (Units=GPa)
#
#
# Indices 1 2 3 4 5 6 
#
# 1 94.2098 31.1514 22.5992 0.0000 0.0000 0.0000
# 2 31.1514 102.3654 40.3732 0.0000 0.0000 0.0000
# 3 22.5992 40.3732 56.2279 0.0000 0.0000 0.0000
# 4 0.0000 0.0000 0.0000 47.3712 0.0000 0.0000
# 5 0.0000 0.0000 0.0000 0.0000 17.4300 0.0000
# 6 0.0000 0.0000 0.0000 0.0000 0.0000 7.5882
#
#
#
# Elastic Compliance Matrix: (Units=1/GPa)
#
#
# Indices 1 2 3 4 5 6 
#
# 1 0.012182 -0.002478 -0.003117 0.000000 0.000000 0.000000
# 2 -0.002478 0.014132 -0.009152 0.000000 0.000000 0.000000
# 3 -0.003117 -0.009152 0.025609 0.000000 0.000000 0.000000
# 4 0.000000 0.000000 0.000000 0.021110 0.000000 0.000000
# 5 0.000000 0.000000 0.000000 0.000000 0.057372 0.000000
# 6 0.000000 0.000000 0.000000 0.000000 0.000000 0.131783
#
#
# Mechanical properties :
#
#
# Convention : Reuss Voigt Hill
#
# Bulk Modulus (GPa) = 44.58304 49.00562 46.79433
# Shear Modulus (GPa) = 16.71361 25.05650 20.88506
#
# Velocity S-wave (km/s) = 2.94300 3.60342 3.28983
# Velocity P-wave (km/s) = 5.88659 6.53516 6.21934
#
# Compressibility (1/GPa) = 0.02243005
#
# Stress axis : x y z
#
# Youngs Moduli (GPa) = 82.09106 70.75964 39.04925
#
# Poissons Ratio (x) = 0.17532 0.12172
# Poissons Ratio (y) = 0.20340 0.35736
# Poissons Ratio (z) = 0.25588 0.64756
#
# Static dielectric constant tensor:
#      x y z
#    x 1.682330 0.000000 0.000000 
#    y 0.000000 1.687430 0.000000 
#    z 0.000000 0.000000 1.688450 
# 
# From -- ./inp_files/8477.got.cif
#   From: 2010.05.17/outbox.cif.g08.bks.cpg/sg51_5_cif.got.tgz:8477.got - 2010.06.03 11:52:47.
