data_PCOD9405681
_publ_section_title
;
Structure prediction by ZEFSAII (Michael W. Deem and Ramdas Pophale) SiO2 
 PCOD9405681
Probable space group: P M M A
;
_chemical_formula_sum "Si O2"
_cell_formula_units_Z 64
_cell_length_a 14.467638
_cell_length_b 8.879956
_cell_length_c 26.491319
_cell_angle_alpha 90.000000
_cell_angle_beta 90.000000
_cell_angle_gamma 90.000000
_cell_volume 3403.392440
_symmetry_space_group_name_H-M "P M M A"
_symmetry_group_IT_number 51
_symmetry_cell_setting 'orthorhombic'
loop_
_space_group_symop_operation_xyz
x,y,z
1/2-x,-y,z
1/2+x,-y,-z
-x,y,-z
-x,-y,-z
1/2+x,y,-z
1/2-x,y,z
x,-y,z
loop_
_atom_site_type_symbol
_atom_site_label
_atom_site_fract_x
_atom_site_fract_y
_atom_site_fract_z
Si Si1 0.854398 0.180879 0.865862
Si Si2 0.359285 0.323364 0.523145
Si Si3 0.965967 0.319716 0.375135
Si Si4 0.141143 0.681533 0.917558
Si Si5 0.856918 0.179402 0.584781
Si Si6 0.539948 0.818205 0.178602
Si Si7 0.857952 0.182102 0.280995
Si Si8 0.862626 0.327209 0.971483
O O1 0.750000 0.237435 0.856375
O O2 0.884772 0.234525 0.921592
O O3 0.932504 0.227857 0.826135
O O4 0.850994 0.000000 0.866042
O O5 0.250000 0.310064 0.534251
O O6 0.379095 0.500000 0.512765
O O7 0.416004 0.276101 0.572199
O O8 0.378462 0.231041 0.472542
O O9 0.965071 0.500000 0.372100
O O10 0.909871 0.250896 0.328802
O O11 0.069873 0.258380 0.378923
O O12 0.250000 0.718702 0.913821
O O13 0.133013 0.500000 0.915916
O O14 0.089683 0.754446 0.870846
O O15 0.106365 0.728784 0.973406
O O16 0.750000 0.222217 0.594510
O O17 0.864935 0.000000 0.588749
O O18 0.591248 0.769357 0.229445
O O19 0.544300 0.000000 0.177030
O O20 0.750000 0.225297 0.280159
O O21 0.862431 0.000000 0.283814
O O22 0.750000 0.329695 0.974500
O O23 0.893696 0.500000 0.964742
#
# Coordination Sequence:
#
# PCOD9405681 Si02
#       8
#     8   8   8   8   8   8   8   8
#     4   9  18  33  52  74 101 133 170 212 257 308
#     4   9  18  33  53  80 115 151 185 223 271 325
#     4  11  22  36  57  83 111 146 187 229 273 321
#     4   9  18  32  50  74 104 136 170 210 259 316
#     4  10  21  36  55  82 116 152 188 225 267 317
#     4  10  21  36  54  76 102 135 176 220 266 313
#     4  10  22  40  59  79 106 138 173 219 273 325
#     4   8  15  29  48  71 101 135 168 205 254 312
#
# _framework density 18.804766000000001
#
# number of rings (size 3 to 8) (size 9 to 14) (size 15 to 20)
#    0.000    2.500    0.000    2.625    0.000    6.750 
#    0.000    5.625    0.000    2.250    0.000    0.000 
#    0.000    0.000    0.000    0.000    0.000    0.000 
#
# Total GULP energy -357230.942698 kJ/mol
# GULP energy per Si atom -5581.733480 kJ/mol
# Density = 1.876197 g / cm^3
# Si number density = 18.804766 Si / 1000 Ang^3
#
#
#
# Elastic Constant Matrix: (Units=GPa)
#
#
# Indices 1 2 3 4 5 6 
#
# 1 138.3576 35.8608 95.7276 0.0000 0.0000 0.0000
# 2 35.8608 12.7237 28.6984 0.0000 0.0000 0.0000
# 3 95.7276 28.6984 103.1075 0.0000 0.0000 0.0000
# 4 0.0000 0.0000 0.0000 36.9782 0.0000 0.0000
# 5 0.0000 0.0000 0.0000 0.0000 35.9647 0.0000
# 6 0.0000 0.0000 0.0000 0.0000 0.0000 19.5745
#
#
#
# Elastic Compliance Matrix: (Units=1/GPa)
#
#
# Indices 1 2 3 4 5 6 
#
# 1 0.031700 -0.061691 -0.012261 0.000000 0.000000 0.000000
# 2 -0.061691 0.331207 -0.034911 0.000000 0.000000 0.000000
# 3 -0.012261 -0.034911 0.030798 0.000000 0.000000 0.000000
# 4 0.000000 0.000000 0.000000 0.027043 0.000000 0.000000
# 5 0.000000 0.000000 0.000000 0.000000 0.027805 0.000000
# 6 0.000000 0.000000 0.000000 0.000000 0.000000 0.051087
#
#
# Mechanical properties :
#
#
# Convention : Reuss Voigt Hill
#
# Bulk Modulus (GPa) = 5.68244 63.86248 34.77246
# Shear Modulus (GPa) = 6.44309 24.76361 15.60335
#
# Velocity S-wave (km/s) = 1.85304 3.63282 2.88367
# Velocity P-wave (km/s) = 2.75802 7.18547 5.44232
#
# Compressibility (1/GPa) = 0.17598079
#
# Stress axis : x y z
#
# Youngs Moduli (GPa) = 31.54551 3.01926 32.46916
#
# Poissons Ratio (x) = 0.18626 0.39809
# Poissons Ratio (y) = 1.94608 1.13352
# Poissons Ratio (z) = 0.38677 0.10540
#
# Static dielectric constant tensor:
#      x y z
#    x 1.694970 0.000000 0.000000 
#    y 0.000000 1.629670 0.000000 
#    z 0.000000 0.000000 1.619240 
# 
# From -- ./inp_files/35878.got.cif
#   From: 2010.05.17/outbox.cif.g08.bks.cpg/sg51_18_cif.got.tgz:35878.got - 2010.06.03 11:52:47.
