data_PCOD9405748
_publ_section_title
;
Structure prediction by ZEFSAII (Michael W. Deem and Ramdas Pophale) SiO2 
 PCOD9405748
Probable space group: P M M A
;
_chemical_formula_sum "Si O2"
_cell_formula_units_Z 64
_cell_length_a 15.651258
_cell_length_b 21.278042
_cell_length_c 9.922367
_cell_angle_alpha 90.000000
_cell_angle_beta 90.000000
_cell_angle_gamma 90.000000
_cell_volume 3304.427278
_symmetry_space_group_name_H-M "P M M A"
_symmetry_group_IT_number 51
_symmetry_cell_setting 'orthorhombic'
loop_
_space_group_symop_operation_xyz
x,y,z
1/2-x,-y,z
1/2+x,-y,-z
-x,y,-z
-x,-y,-z
1/2+x,y,-z
1/2-x,y,z
x,-y,z
loop_
_atom_site_type_symbol
_atom_site_label
_atom_site_fract_x
_atom_site_fract_y
_atom_site_fract_z
Si Si1 0.853048 0.316031 0.245087
Si Si2 0.146704 0.684929 0.068254
Si Si3 0.354380 0.428591 0.565934
Si Si4 0.649761 0.931900 0.811888
Si Si5 0.942375 0.189822 0.871381
Si Si6 0.896578 0.069430 0.497942
Si Si7 0.064727 0.805100 0.622362
Si Si8 0.854323 0.428290 0.742316
O O1 0.750000 0.317038 0.243565
O O2 0.883534 0.377634 0.325806
O O3 0.883125 0.254847 0.326610
O O4 0.881359 0.315243 0.088681
O O5 0.250000 0.685313 0.068395
O O6 0.113973 0.747638 0.141906
O O7 0.117153 0.623696 0.150822
O O8 0.250000 0.428407 0.567422
O O9 0.381696 0.500000 0.596203
O O10 0.380080 0.413305 0.411940
O O11 0.750000 0.933593 0.835835
O O12 0.612240 0.872801 0.888151
O O13 0.635440 0.924278 0.651073
O O14 0.611787 0.000000 0.849061
O O15 0.002782 0.177707 0.744948
O O16 0.000000 0.200032 0.000000
O O17 0.878786 0.133913 0.418123
O O18 0.000000 0.067705 0.500000
O O19 0.867795 0.000000 0.447672
O O20 0.000000 0.789640 0.500000
O O21 0.750000 0.427930 0.743715
O O22 0.880679 0.500000 0.773082
#
# Coordination Sequence:
#
# PCOD9405748 Si02
#       8
#     8   8   8   8   8   8   8   8
#     4  10  21  36  54  80 113 146 183 233 285 331
#     4  10  21  36  55  80 112 150 190 233 281 339
#     4   8  15  29  51  80 110 140 182 235 285 335
#     4  10  21  38  62  91 117 146 192 244 285 333
#     4  12  23  39  58  81 118 156 191 230 284 339
#     4   9  17  34  59  83 111 142 180 229 280 334
#     4  11  22  38  56  83 110 147 190 230 275 338
#     4   8  15  29  51  80 109 139 182 233 282 335
#
# _framework density 19.367954999999998
#
# number of rings (size 3 to 8) (size 9 to 14) (size 15 to 20)
#    0.000    2.250    3.750    1.125    1.750    1.250 
#    0.000    2.500    0.000    1.500    0.000    0.000 
#    0.000    0.000    0.000    0.000    0.000    0.000 
#
# Total GULP energy -356889.272623 kJ/mol
# GULP energy per Si atom -5576.394885 kJ/mol
# Density = 1.932387 g / cm^3
# Si number density = 19.367955 Si / 1000 Ang^3
#
#
#
# Elastic Constant Matrix: (Units=GPa)
#
#
# Indices 1 2 3 4 5 6 
#
# 1 15.4159 12.7748 1.9544 0.0000 0.0000 0.0000
# 2 12.7748 165.8814 40.6740 0.0000 0.0000 0.0000
# 3 1.9544 40.6740 36.9766 0.0000 0.0000 0.0000
# 4 0.0000 0.0000 0.0000 10.5957 0.0000 0.0000
# 5 0.0000 0.0000 0.0000 0.0000 -23.1911 0.0000
# 6 0.0000 0.0000 0.0000 0.0000 0.0000 -194.5888
#
#
#
# Elastic Compliance Matrix: (Units=1/GPa)
#
#
# Indices 1 2 3 4 5 6 
#
# 1 0.069538 -0.006099 0.003034 0.000000 0.000000 0.000000
# 2 -0.006099 0.008790 -0.009346 0.000000 0.000000 0.000000
# 3 0.003034 -0.009346 0.037165 0.000000 0.000000 0.000000
# 4 0.000000 0.000000 0.000000 0.094378 0.000000 0.000000
# 5 0.000000 0.000000 0.000000 0.000000 -0.043120 0.000000
# 6 0.000000 0.000000 0.000000 0.000000 0.000000 -0.005139
#
#
# Mechanical properties :
#
#
# Convention : Reuss Voigt Hill
#
# Bulk Modulus (GPa) = 11.02921 36.56446 23.79684
# Shear Modulus (GPa) = 23.07787 -30.57879 -3.75046
#
# Velocity S-wave (km/s) = 3.45563 -3.97777 -1.39307
# Velocity P-wave (km/s) = 4.65067 1.47546 3.11863
#
# Compressibility (1/GPa) = 0.09066834
#
# Stress axis : x y z
#
# Youngs Moduli (GPa) = 14.38072 113.76790 26.90719
#
# Poissons Ratio (x) = 0.69387 -0.08162
# Poissons Ratio (y) = 0.08771 0.25149
# Poissons Ratio (z) = -0.04362 1.06332
#
# Static dielectric constant tensor:
#      x y z
#    x 1.695770 0.000000 0.000000 
#    y 0.000000 1.720140 0.000000 
#    z 0.000000 0.000000 1.635050 
# 
# From -- ./inp_files/9993.got.cif
#   From: 2010.05.17/outbox.cif.g08.bks.cpg/sg51_5_cif.got.tgz:9993.got - 2010.06.03 11:52:47.
