data_PCOD9405508
_publ_section_title
;
Structure prediction by ZEFSAII (Michael W. Deem and Ramdas Pophale) SiO2 
 PCOD9405508
Probable space group: P M M A
;
_chemical_formula_sum "Si O2"
_cell_formula_units_Z 64
_cell_length_a 14.845095
_cell_length_b 9.017456
_cell_length_c 26.495272
_cell_angle_alpha 90.000000
_cell_angle_beta 90.000000
_cell_angle_gamma 90.000000
_cell_volume 3546.789347
_symmetry_space_group_name_H-M "P M M A"
_symmetry_group_IT_number 51
_symmetry_cell_setting 'orthorhombic'
loop_
_space_group_symop_operation_xyz
x,y,z
1/2-x,-y,z
1/2+x,-y,-z
-x,y,-z
-x,-y,-z
1/2+x,y,-z
1/2-x,y,z
x,-y,z
loop_
_atom_site_type_symbol
_atom_site_label
_atom_site_fract_x
_atom_site_fract_y
_atom_site_fract_z
Si Si1 1.000000 0.176489 0.174883
Si Si2 0.500000 0.822562 0.559246
Si Si3 0.500000 0.323100 0.716302
Si Si4 0.853596 0.328020 0.894564
Si Si5 0.355258 0.321660 0.368843
Si Si6 0.855258 0.678340 0.368843
Si Si7 0.391639 0.171234 0.000000
Si Si8 0.146404 0.328020 0.894564
O O1 0.914966 0.240073 0.144383
O O2 0.000000 0.236046 0.231706
O O3 0.085034 0.240072 0.144383
O O4 1.000000 0.000000 0.173512
O O5 0.500000 0.786880 0.500000
O O6 0.587863 0.755302 0.586789
O O7 0.412137 0.755302 0.586789
O O8 0.500000 0.000000 0.565246
O O9 0.500000 0.500000 0.726321
O O10 0.587829 0.288903 0.682029
O O11 0.412171 0.288903 0.682029
O O12 0.750000 0.323454 0.878484
O O13 0.882222 0.500000 0.897463
O O14 0.861208 0.254720 0.949672
O O15 0.250000 0.278877 0.366600
O O16 0.359568 0.500000 0.375795
O O17 0.750000 0.721123 0.366600
O O18 0.859568 0.500000 0.375795
O O19 0.361208 0.254719 0.949672
O O20 0.361452 0.000000 0.000000
O O21 0.500000 0.171347 0.000000
O O22 0.250000 0.323454 0.878484
O O23 0.117778 0.500000 0.897463
#
# Coordination Sequence:
#
# PCOD9405508 Si02
#       8
#     8   8   8   8   8   8   8   8
#     4  12  25  40  59  86 117 148 184 231 287 338
#     4  10  21  35  52  81 122 161 194 232 281 336
#     4   9  19  37  59  83 113 147 184 232 286 340
#     4  11  24  41  62  86 112 148 191 231 275 332
#     4   9  19  37  61  86 111 146 194 241 284 333
#     4   9  19  37  61  86 111 146 194 241 284 333
#     4  11  22  37  60  89 118 149 180 223 283 339
#     4  11  24  41  62  86 112 148 191 231 275 332
#
# _framework density 18.044488999999999
#
# number of rings (size 3 to 8) (size 9 to 14) (size 15 to 20)
#    0.000    1.750    1.250    3.750    0.000    9.000 
#    0.000    5.000    0.000    0.000    0.000    0.000 
#    0.000    0.000    0.000    0.000    0.000    0.000 
#
# Total GULP energy -357508.243591 kJ/mol
# GULP energy per Si atom -5586.066306 kJ/mol
# Density = 1.800342 g / cm^3
# Si number density = 18.044489 Si / 1000 Ang^3
#
#
#
# Elastic Constant Matrix: (Units=GPa)
#
#
# Indices 1 2 3 4 5 6 
#
# 1 161.6064 67.7826 83.9435 0.0000 0.0000 0.0000
# 2 67.7826 123.3186 95.7498 0.0000 0.0000 0.0000
# 3 83.9435 95.7498 170.6817 0.0000 0.0000 0.0000
# 4 0.0000 0.0000 0.0000 41.6910 0.0000 0.0000
# 5 0.0000 0.0000 0.0000 0.0000 12.3035 0.0000
# 6 0.0000 0.0000 0.0000 0.0000 0.0000 29.1402
#
#
#
# Elastic Compliance Matrix: (Units=1/GPa)
#
#
# Indices 1 2 3 4 5 6 
#
# 1 0.008759 -0.002604 -0.002847 0.000000 0.000000 0.000000
# 2 -0.002604 0.015141 -0.007213 0.000000 0.000000 0.000000
# 3 -0.002847 -0.007213 0.011306 0.000000 0.000000 0.000000
# 4 0.000000 0.000000 0.000000 0.023986 0.000000 0.000000
# 5 0.000000 0.000000 0.000000 0.000000 0.081278 0.000000
# 6 0.000000 0.000000 0.000000 0.000000 0.000000 0.034317
#
#
# Mechanical properties :
#
#
# Convention : Reuss Voigt Hill
#
# Bulk Modulus (GPa) = 101.24301 105.61762 103.43032
# Shear Modulus (GPa) = 24.58133 30.50232 27.54183
#
# Velocity S-wave (km/s) = 3.69489 4.11590 3.91106
# Velocity P-wave (km/s) = 8.62741 9.01368 8.82266
#
# Compressibility (1/GPa) = 0.00987722
#
# Stress axis : x y z
#
# Youngs Moduli (GPa) = 114.17081 66.04610 88.45176
#
# Poissons Ratio (x) = 0.17197 0.25182
# Poissons Ratio (y) = 0.29727 0.63803
# Poissons Ratio (z) = 0.32505 0.47641
#
# Static dielectric constant tensor:
#      x y z
#    x 1.621710 0.000000 0.000000 
#    y 0.000000 1.605260 0.000000 
#    z 0.000000 0.000000 1.580570 
# 
# From -- ./inp_files/35802.got.cif
#   From: 2010.05.17/outbox.cif.g08.bks.cpg/sg51_18_cif.got.tgz:35802.got - 2010.06.03 11:52:47.
