data_PCOD9405587
_publ_section_title
;
Structure prediction by ZEFSAII (Michael W. Deem and Ramdas Pophale) SiO2 
 PCOD9405587
Probable space group: P M M A
;
_chemical_formula_sum "Si O2"
_cell_formula_units_Z 48
_cell_length_a 9.421952
_cell_length_b 7.860738
_cell_length_c 32.299467
_cell_angle_alpha 90.000000
_cell_angle_beta 90.000000
_cell_angle_gamma 90.000000
_cell_volume 2392.211449
_symmetry_space_group_name_H-M "P M M A"
_symmetry_group_IT_number 51
_symmetry_cell_setting 'orthorhombic'
loop_
_space_group_symop_operation_xyz
x,y,z
1/2-x,-y,z
1/2+x,-y,-z
-x,y,-z
-x,-y,-z
1/2+x,y,-z
1/2-x,y,z
x,-y,z
loop_
_atom_site_type_symbol
_atom_site_label
_atom_site_fract_x
_atom_site_fract_y
_atom_site_fract_z
Si Si1 0.412909 0.294162 0.880004
Si Si2 0.089247 0.795317 0.039261
Si Si3 0.913232 0.705961 0.300023
Si Si4 0.589339 0.296519 0.461066
Si Si5 0.910995 0.797403 0.619263
Si Si6 0.577200 0.303156 0.209912
O O1 0.250000 0.236950 0.887038
O O2 0.409538 0.500000 0.877365
O O3 0.510753 0.244967 0.918026
O O4 0.463176 0.229014 0.834763
O O5 0.250000 0.729655 0.038797
O O6 0.095400 0.000000 0.035659
O O7 0.000000 0.730258 0.000000
O O8 0.750000 0.762184 0.307530
O O9 0.909468 0.500000 0.297562
O O10 0.961811 0.771194 0.254654
O O11 0.014184 0.754550 0.337444
O O12 0.500000 0.227947 0.500000
O O13 0.750000 0.228372 0.459623
O O14 0.599775 0.500000 0.466478
O O15 0.505926 0.266667 0.418644
O O16 0.750000 0.729295 0.617276
O O17 0.904569 0.000000 0.615690
O O18 0.750000 0.305108 0.209718
O O19 0.528817 0.500000 0.210044
#
# Coordination Sequence:
#
# PCOD9405587 Si02
#       6
#     8   8   8   8   8   8
#     4   9  17  31  53  79 104 130 162 203 252 304
#     4  10  21  36  52  70  95 130 170 209 250 298
#     4   9  17  32  56  81 102 130 172 217 257 299
#     4  10  21  38  61  86 108 133 169 212 257 306
#     4  11  24  38  51  73 108 146 179 212 254 302
#     4   7  12  26  49  76 103 129 161 204 251 299
#
# _framework density 20.065114999999999
#
# number of rings (size 3 to 8) (size 9 to 14) (size 15 to 20)
#    0.000    2.667    0.000    4.000    0.000    6.667 
#    0.000    1.667    0.000    8.000    0.000    0.000 
#    0.000    0.000    0.000    0.000    0.000    0.000 
#
# Total GULP energy -267721.927182 kJ/mol
# GULP energy per Si atom -5577.540150 kJ/mol
# Density = 2.001945 g / cm^3
# Si number density = 20.065115 Si / 1000 Ang^3
#
#
#
# Elastic Constant Matrix: (Units=GPa)
#
#
# Indices 1 2 3 4 5 6 
#
# 1 153.5941 8.9391 115.3679 0.0000 0.0000 0.0000
# 2 8.9391 21.8182 -0.6347 0.0000 0.0000 0.0000
# 3 115.3679 -0.6347 215.4235 0.0000 0.0000 0.0000
# 4 0.0000 0.0000 0.0000 74.5404 0.0000 0.0000
# 5 0.0000 0.0000 0.0000 0.0000 32.2651 0.0000
# 6 0.0000 0.0000 0.0000 0.0000 0.0000 30.1310
#
#
#
# Elastic Compliance Matrix: (Units=1/GPa)
#
#
# Indices 1 2 3 4 5 6 
#
# 1 0.011381 -0.004841 -0.006109 0.000000 0.000000 0.000000
# 2 -0.004841 0.047896 0.002734 0.000000 0.000000 0.000000
# 3 -0.006109 0.002734 0.007922 0.000000 0.000000 0.000000
# 4 0.000000 0.000000 0.000000 0.013416 0.000000 0.000000
# 5 0.000000 0.000000 0.000000 0.000000 0.030993 0.000000
# 6 0.000000 0.000000 0.000000 0.000000 0.000000 0.033188
#
#
# Mechanical properties :
#
#
# Convention : Reuss Voigt Hill
#
# Bulk Modulus (GPa) = 19.69821 70.90895 45.30358
# Shear Modulus (GPa) = 28.06598 45.19822 36.63210
#
# Velocity S-wave (km/s) = 3.74404 4.75128 4.27741
# Velocity P-wave (km/s) = 5.34124 8.09418 6.85728
#
# Compressibility (1/GPa) = 0.05076604
#
# Stress axis : x y z
#
# Youngs Moduli (GPa) = 87.86338 20.87854 126.23224
#
# Poissons Ratio (x) = 0.10107 0.77120
# Poissons Ratio (y) = 0.42532 -0.34506
# Poissons Ratio (z) = 0.53679 -0.05707
#
# Static dielectric constant tensor:
#      x y z
#    x 1.693660 0.000000 0.000000 
#    y 0.000000 1.737830 0.000000 
#    z 0.000000 0.000000 1.716010 
# 
# From -- ./inp_files/37023.got.cif
#   From: 2010.05.17/outbox.cif.g08.bks.cpg/sg51_19_cif.got.tgz:37023.got - 2010.06.03 11:52:47.
