data_PCOD9405381
_publ_section_title
;
Structure prediction by ZEFSAII (Michael W. Deem and Ramdas Pophale) SiO2 
 PCOD9405381
Probable space group: P M M A
;
_chemical_formula_sum "Si O2"
_cell_formula_units_Z 64
_cell_length_a 23.341743
_cell_length_b 9.485798
_cell_length_c 18.366398
_cell_angle_alpha 90.000000
_cell_angle_beta 90.000000
_cell_angle_gamma 90.000000
_cell_volume 4066.597098
_symmetry_space_group_name_H-M "P M M A"
_symmetry_group_IT_number 51
_symmetry_cell_setting 'orthorhombic'
loop_
_space_group_symop_operation_xyz
x,y,z
1/2-x,-y,z
1/2+x,-y,-z
-x,y,-z
-x,-y,-z
1/2+x,y,-z
1/2-x,y,z
x,-y,z
loop_
_atom_site_type_symbol
_atom_site_label
_atom_site_fract_x
_atom_site_fract_y
_atom_site_fract_z
Si Si1 0.882920 0.833355 0.641841
Si Si2 0.819656 0.838112 0.070925
Si Si3 0.508132 0.333791 0.585708
Si Si4 0.818196 0.669575 0.768632
Si Si5 0.318014 0.836636 0.510016
Si Si6 0.681916 0.830308 0.234881
Si Si7 0.620668 0.333331 0.363762
Si Si8 0.319668 0.662024 0.067417
O O1 0.853800 0.753689 0.709131
O O2 0.842445 0.817353 0.570891
O O3 0.942880 0.761435 0.620641
O O4 0.889355 0.000000 0.656140
O O5 0.750000 0.836734 0.069739
O O6 0.834833 0.788487 0.152248
O O7 0.837755 0.000000 0.063445
O O8 0.840052 0.750121 0.001753
O O9 0.500000 0.299797 0.500000
O O10 0.524021 0.500000 0.589860
O O11 0.447267 0.314332 0.625087
O O12 0.750000 0.696650 0.759884
O O13 0.826047 0.500000 0.761871
O O14 0.835342 0.710867 0.851306
O O15 0.250000 0.815039 0.511261
O O16 0.348738 0.732575 0.565616
O O17 0.329354 0.000000 0.531653
O O18 0.750000 0.802031 0.245060
O O19 0.645634 0.748192 0.294420
O O20 0.674887 0.000000 0.241206
O O21 0.632327 0.500000 0.358675
O O22 0.250000 0.664105 0.066418
O O23 0.337456 0.500000 0.059537
#
# Coordination Sequence:
#
# PCOD9405381 Si02
#       8
#     8   8   8   8   8   8   8   8
#     4  11  22  34  52  75  97 124 165 209 246 288
#     4   8  14  25  42  65  94 130 165 192 228 281
#     4  10  21  39  56  69  92 124 161 208 255 296
#     4   9  18  32  49  71 103 139 167 195 241 295
#     4  10  21  35  49  68  98 130 155 188 240 294
#     4   9  18  32  48  69 102 137 162 192 241 295
#     4  11  22  34  51  73  93 121 164 207 243 285
#     4   8  14  25  42  66  96 130 165 197 231 276
#
# _framework density 15.737975
#
# number of rings (size 3 to 8) (size 9 to 14) (size 15 to 20)
#    0.000    2.500    1.250    3.000    0.000    5.500 
#    0.000    2.500    0.000    0.000    0.000    0.875 
#    0.000    7.000    0.000    0.000    0.000    0.000 
#
# Total GULP energy -356766.044070 kJ/mol
# GULP energy per Si atom -5574.469439 kJ/mol
# Density = 1.570215 g / cm^3
# Si number density = 15.737975 Si / 1000 Ang^3
#
#
#
# Elastic Constant Matrix: (Units=GPa)
#
#
# Indices 1 2 3 4 5 6 
#
# 1 45.4415 37.3626 36.5960 0.0000 0.0000 0.0000
# 2 37.3626 63.8937 68.7586 0.0000 0.0000 0.0000
# 3 36.5960 68.7586 133.3386 0.0000 0.0000 0.0000
# 4 0.0000 0.0000 0.0000 31.3231 0.0000 0.0000
# 5 0.0000 0.0000 0.0000 0.0000 -1.7456 0.0000
# 6 0.0000 0.0000 0.0000 0.0000 0.0000 20.7201
#
#
#
# Elastic Compliance Matrix: (Units=1/GPa)
#
#
# Indices 1 2 3 4 5 6 
#
# 1 0.042783 -0.027820 0.002604 0.000000 0.000000 0.000000
# 2 -0.027820 0.053255 -0.019827 0.000000 0.000000 0.000000
# 3 0.002604 -0.019827 0.017009 0.000000 0.000000 0.000000
# 4 0.000000 0.000000 0.000000 0.031925 0.000000 0.000000
# 5 0.000000 0.000000 0.000000 0.000000 -0.572881 0.000000
# 6 0.000000 0.000000 0.000000 0.000000 0.000000 0.048262
#
#
# Mechanical properties :
#
#
# Convention : Reuss Voigt Hill
#
# Bulk Modulus (GPa) = 43.55053 58.67866 51.11460
# Shear Modulus (GPa) = -17.73645 16.72331 -0.50657
#
# Velocity S-wave (km/s) = -3.36070 3.26330 -0.56796
# Velocity P-wave (km/s) = 3.55995 7.18085 5.66736
#
# Compressibility (1/GPa) = 0.02296183
#
# Stress axis : x y z
#
# Youngs Moduli (GPa) = 23.37351 18.77748 58.79198
#
# Poissons Ratio (x) = 0.52239 -0.15307
# Poissons Ratio (y) = 0.65025 1.16565
# Poissons Ratio (z) = -0.06085 0.37229
#
# Static dielectric constant tensor:
#      x y z
#    x 1.496310 0.000000 0.000000 
#    y 0.000000 1.528240 0.000000 
#    z 0.000000 0.000000 1.527480 
# 
# From -- ./inp_files/30560.got.cif
#   From: 2010.05.17/outbox.cif.g08.bks.cpg/sg51_16_cif.got.tgz:30560.got - 2010.06.03 11:52:47.
