data_PCOD9405982
_publ_section_title
;
Structure prediction by ZEFSAII (Michael W. Deem and Ramdas Pophale) SiO2 
 PCOD9405982
Probable space group: P M M A
;
_chemical_formula_sum "Si O2"
_cell_formula_units_Z 56
_cell_length_a 16.248623
_cell_length_b 8.951405
_cell_length_c 19.980491
_cell_angle_alpha 90.000000
_cell_angle_beta 90.000000
_cell_angle_gamma 90.000000
_cell_volume 2906.122558
_symmetry_space_group_name_H-M "P M M A"
_symmetry_group_IT_number 51
_symmetry_cell_setting 'orthorhombic'
loop_
_space_group_symop_operation_xyz
x,y,z
1/2-x,-y,z
1/2+x,-y,-z
-x,y,-z
-x,-y,-z
1/2+x,y,-z
1/2-x,y,z
x,-y,z
loop_
_atom_site_type_symbol
_atom_site_label
_atom_site_fract_x
_atom_site_fract_y
_atom_site_fract_z
Si Si1 0.585045 0.822626 0.205122
Si Si2 0.840185 0.681569 0.656683
Si Si3 0.503254 0.680255 0.421760
Si Si4 0.590680 0.321468 0.798241
Si Si5 0.158434 0.178999 0.652908
Si Si6 0.349464 0.328529 0.928075
Si Si7 0.650428 0.172473 0.934736
O O1 0.500416 0.736042 0.217742
O O2 0.644248 0.792577 0.268034
O O3 0.620699 0.765539 0.135134
O O4 0.570102 0.000000 0.202106
O O5 0.750000 0.733274 0.633552
O O6 0.840448 0.500000 0.653048
O O7 0.853513 0.720608 0.734580
O O8 0.919384 0.732629 0.614771
O O9 0.500000 0.718660 0.500000
O O10 0.506767 0.500000 0.415887
O O11 0.584080 0.746663 0.387138
O O12 0.591793 0.500000 0.804680
O O13 0.618846 0.248800 0.867433
O O14 0.250000 0.230282 0.633108
O O15 0.154206 0.000000 0.643679
O O16 0.250000 0.327673 0.928291
O O17 0.377507 0.500000 0.922190
O O18 0.377275 0.257777 0.998326
O O19 0.750000 0.176662 0.933766
O O20 0.624249 0.000000 0.937254
#
# Coordination Sequence:
#
# PCOD9405982 Si02
#       7
#     8   8   8   8   8   8   8
#     4  11  22  37  58  83 115 153 198 248 302 356
#     4   9  18  34  57  85 119 157 197 243 297 354
#     4  10  21  38  62  93 126 159 199 246 296 352
#     4  11  21  35  57  82 112 151 199 249 303 357
#     4  10  22  40  62  88 122 164 205 245 297 360
#     4  10  21  37  57  82 112 148 194 246 299 357
#     4  10  21  37  56  80 113 151 193 244 300 358
#
# _framework density 19.269660999999999
#
# number of rings (size 3 to 8) (size 9 to 14) (size 15 to 20)
#    0.000    1.857    1.429    2.571    0.000    5.143 
#    0.000    4.286    0.000    1.286    0.000    0.000 
#    0.000    0.000    0.000    0.000    0.000    0.000 
#
# Total GULP energy -312793.330613 kJ/mol
# GULP energy per Si atom -5585.595190 kJ/mol
# Density = 1.922580 g / cm^3
# Si number density = 19.269661 Si / 1000 Ang^3
#
#
#
# Elastic Constant Matrix: (Units=GPa)
#
#
# Indices 1 2 3 4 5 6 
#
# 1 113.7640 13.2471 57.3259 0.0000 0.0000 0.0000
# 2 13.2471 32.0227 23.5584 0.0000 0.0000 0.0000
# 3 57.3259 23.5584 118.3201 0.0000 0.0000 0.0000
# 4 0.0000 0.0000 0.0000 24.1478 0.0000 0.0000
# 5 0.0000 0.0000 0.0000 0.0000 4.3515 0.0000
# 6 0.0000 0.0000 0.0000 0.0000 0.0000 27.7615
#
#
#
# Elastic Compliance Matrix: (Units=1/GPa)
#
#
# Indices 1 2 3 4 5 6 
#
# 1 0.011646 -0.000781 -0.005487 0.000000 0.000000 0.000000
# 2 -0.000781 0.036639 -0.006917 0.000000 0.000000 0.000000
# 3 -0.005487 -0.006917 0.012487 0.000000 0.000000 0.000000
# 4 0.000000 0.000000 0.000000 0.041412 0.000000 0.000000
# 5 0.000000 0.000000 0.000000 0.000000 0.229807 0.000000
# 6 0.000000 0.000000 0.000000 0.000000 0.000000 0.036021
#
#
# Mechanical properties :
#
#
# Convention : Reuss Voigt Hill
#
# Bulk Modulus (GPa) = 29.06711 50.26331 39.66521
# Shear Modulus (GPa) = 12.31983 22.58384 17.45184
#
# Velocity S-wave (km/s) = 2.53126 3.42715 3.01269
# Velocity P-wave (km/s) = 4.86417 6.46539 5.72108
#
# Compressibility (1/GPa) = 0.03440314
#
# Stress axis : x y z
#
# Youngs Moduli (GPa) = 85.86672 27.29297 80.08180
#
# Poissons Ratio (x) = 0.02132 0.43940
# Poissons Ratio (y) = 0.06707 0.55391
# Poissons Ratio (z) = 0.47114 0.18878
#
# Static dielectric constant tensor:
#      x y z
#    x 1.682760 0.000000 0.000000 
#    y 0.000000 1.648780 0.000000 
#    z 0.000000 0.000000 1.648330 
# 
# From -- ./inp_files/33331.got.cif
#   From: 2010.05.17/outbox.cif.g08.bks.cpg/sg51_17_cif.got.tgz:33331.got - 2010.06.03 11:52:47.
