data_PCOD9405445
_publ_section_title
;
Structure prediction by ZEFSAII (Michael W. Deem and Ramdas Pophale) SiO2 
 PCOD9405445
Probable space group: P M M A
;
_chemical_formula_sum "Si O2"
_cell_formula_units_Z 48
_cell_length_a 7.557392
_cell_length_b 32.445319
_cell_length_c 9.451275
_cell_angle_alpha 90.000000
_cell_angle_beta 90.000000
_cell_angle_gamma 90.000000
_cell_volume 2317.471478
_symmetry_space_group_name_H-M "P M M A"
_symmetry_group_IT_number 51
_symmetry_cell_setting 'orthorhombic'
loop_
_space_group_symop_operation_xyz
x,y,z
1/2-x,-y,z
1/2+x,-y,-z
-x,y,-z
-x,-y,-z
1/2+x,y,-z
1/2-x,y,z
x,-y,z
loop_
_atom_site_type_symbol
_atom_site_label
_atom_site_fract_x
_atom_site_fract_y
_atom_site_fract_z
Si Si1 0.037487 0.375077 0.665877
Si Si2 0.537454 0.294929 0.166102
Si Si3 0.462384 0.546221 0.835551
Si Si4 0.962511 0.784441 0.333930
Si Si5 0.462328 0.124060 0.665500
Si Si6 0.537589 0.954725 0.166262
O O1 0.250000 0.375510 0.682546
O O2 0.970231 0.335222 0.751070
O O3 0.969500 0.417459 0.735444
O O4 0.000000 0.372254 0.500000
O O5 0.750000 0.294624 0.182714
O O6 0.469424 0.252972 0.238629
O O7 0.500000 0.296856 0.000000
O O8 0.250000 0.544691 0.819950
O O9 0.530901 0.500000 0.805610
O O10 0.500000 0.555690 0.000000
O O11 0.750000 0.785544 0.318983
O O12 0.029992 0.830221 0.295242
O O13 0.000000 0.777192 0.500000
O O14 0.500000 0.118371 0.500000
O O15 0.250000 0.124952 0.684611
O O16 0.532695 0.085072 0.751829
O O17 0.750000 0.955280 0.184759
O O18 0.470787 0.000000 0.212609
O O19 0.500000 0.950747 0.000000
#
# Coordination Sequence:
#
# PCOD9405445 Si02
#       6
#     8   8   8   8   8   8
#     4  10  21  35  51  73 100 129 162 200 240 283
#     4  10  21  35  51  73  99 126 159 198 238 282
#     4   9  18  33  52  74 100 129 162 200 240 283
#     4   9  18  33  51  71  96 125 157 193 234 281
#     4   9  18  32  49  70  96 124 155 193 235 279
#     4   9  18  32  48  67  93 124 157 194 235 278
#
# _framework density 20.712229000000001
#
# number of rings (size 3 to 8) (size 9 to 14) (size 15 to 20)
#    0.000    2.667    0.000    1.000    0.000    4.000 
#    0.000    0.000    0.000    0.000    0.000    0.000 
#    0.000    0.000    0.000    0.000    0.000    0.000 
#
# Total GULP energy -267890.830541 kJ/mol
# GULP energy per Si atom -5581.058970 kJ/mol
# Density = 2.066509 g / cm^3
# Si number density = 20.712229 Si / 1000 Ang^3
#
#
#
# Elastic Constant Matrix: (Units=GPa)
#
#
# Indices 1 2 3 4 5 6 
#
# 1 50.4596 12.2479 -6.5745 0.0000 0.0000 0.0000
# 2 12.2479 246.6706 145.7867 0.0000 0.0000 0.0000
# 3 -6.5745 145.7867 130.7205 0.0000 0.0000 0.0000
# 4 0.0000 0.0000 0.0000 43.8819 0.0000 0.0000
# 5 0.0000 0.0000 0.0000 0.0000 27.3736 0.0000
# 6 0.0000 0.0000 0.0000 0.0000 0.0000 -22.6576
#
#
#
# Elastic Compliance Matrix: (Units=1/GPa)
#
#
# Indices 1 2 3 4 5 6 
#
# 1 0.021945 -0.005110 0.006803 0.000000 0.000000 0.000000
# 2 -0.005110 0.013083 -0.014848 0.000000 0.000000 0.000000
# 3 0.006803 -0.014848 0.024552 0.000000 0.000000 0.000000
# 4 0.000000 0.000000 0.000000 0.022788 0.000000 0.000000
# 5 0.000000 0.000000 0.000000 0.000000 0.036532 0.000000
# 6 0.000000 0.000000 0.000000 0.000000 0.000000 -0.044135
#
#
# Mechanical properties :
#
#
# Convention : Reuss Voigt Hill
#
# Bulk Modulus (GPa) = 30.05853 81.19677 55.62765
# Shear Modulus (GPa) = 44.57729 28.14562 36.36145
#
# Velocity S-wave (km/s) = 4.64424 3.69031 4.19448
# Velocity P-wave (km/s) = 6.58047 7.57927 7.09746
#
# Compressibility (1/GPa) = 0.03326843
#
# Stress axis : x y z
#
# Youngs Moduli (GPa) = 45.56925 76.43335 40.73050
#
# Poissons Ratio (x) = 0.39060 -0.27709
# Poissons Ratio (y) = 0.23287 0.60478
# Poissons Ratio (z) = -0.31001 1.13490
#
# Static dielectric constant tensor:
#      x y z
#    x 1.753540 0.000000 0.000000 
#    y 0.000000 1.781140 0.000000 
#    z 0.000000 0.000000 1.665670 
# 
# From -- ./inp_files/5950.got.cif
#   From: 2010.05.17/outbox.cif.g08.bks.cpg/sg51_3_cif.got.tgz:5950.got - 2010.06.03 11:52:47.
