data_PCOD9405471
_publ_section_title
;
Structure prediction by ZEFSAII (Michael W. Deem and Ramdas Pophale) SiO2 
 PCOD9405471
Probable space group: P M M A
;
_chemical_formula_sum "Si O2"
_cell_formula_units_Z 40
_cell_length_a 9.318042
_cell_length_b 9.523076
_cell_length_c 26.141345
_cell_angle_alpha 90.000000
_cell_angle_beta 90.000000
_cell_angle_gamma 90.000000
_cell_volume 2319.689425
_symmetry_space_group_name_H-M "P M M A"
_symmetry_group_IT_number 51
_symmetry_cell_setting 'orthorhombic'
loop_
_space_group_symop_operation_xyz
x,y,z
1/2-x,-y,z
1/2+x,-y,-z
-x,y,-z
-x,-y,-z
1/2+x,y,-z
1/2-x,y,z
x,-y,z
loop_
_atom_site_type_symbol
_atom_site_label
_atom_site_fract_x
_atom_site_fract_y
_atom_site_fract_z
Si Si1 0.919427 0.667615 0.859510
Si Si2 0.577462 0.164540 0.346537
Si Si3 0.421652 0.335308 0.552414
Si Si4 0.077899 0.335454 0.258433
Si Si5 0.081088 0.832130 0.947684
O O1 0.750000 0.698659 0.866536
O O2 0.937614 0.500000 0.866135
O O3 0.957309 0.700573 0.800522
O O4 0.012092 0.751807 0.900115
O O5 0.750000 0.178287 0.341651
O O6 0.535129 0.242242 0.399113
O O7 0.502351 0.239806 0.299014
O O8 0.542140 0.000000 0.348521
O O9 0.500000 0.294824 0.500000
O O10 0.250000 0.322417 0.545699
O O11 0.453622 0.500000 0.562526
O O12 0.250000 0.322026 0.263940
O O13 0.041941 0.500000 0.266548
O O14 0.250000 0.802016 0.952167
O O15 0.063529 0.000000 0.940862
O O16 0.000000 0.792420 0.000000
#
# Coordination Sequence:
#
# PCOD9405471 Si02
#       5
#     8   8   8   8   8
#     4   9  19  36  56  78 104 134 170 213 259 305
#     4  10  21  35  51  75 107 139 171 209 254 305
#     4   9  18  33  52  73  98 131 171 212 254 301
#     4   9  19  36  56  77 102 134 173 214 255 303
#     4  10  21  36  54  77 105 138 175 212 253 304
#
# _framework density 17.243687999999999
#
# number of rings (size 3 to 8) (size 9 to 14) (size 15 to 20)
#    0.000    2.600    0.000    2.400    0.000    6.400 
#    0.000    8.000    0.000    0.000    0.000    0.000 
#    0.000    0.000    0.000    0.000    0.000    0.000 
#
# Total GULP energy -223196.132449 kJ/mol
# GULP energy per Si atom -5579.903311 kJ/mol
# Density = 1.720444 g / cm^3
# Si number density = 17.243688 Si / 1000 Ang^3
#
#
#
# Elastic Constant Matrix: (Units=GPa)
#
#
# Indices 1 2 3 4 5 6 
#
# 1 62.0232 63.0734 90.9883 0.0000 0.0000 0.0000
# 2 63.0734 86.9310 110.2833 0.0000 0.0000 0.0000
# 3 90.9883 110.2833 190.7298 0.0000 0.0000 0.0000
# 4 0.0000 0.0000 0.0000 -292.9451 0.0000 0.0000
# 5 0.0000 0.0000 0.0000 0.0000 40.5523 0.0000
# 6 0.0000 0.0000 0.0000 0.0000 0.0000 29.4429
#
#
#
# Elastic Compliance Matrix: (Units=1/GPa)
#
#
# Indices 1 2 3 4 5 6 
#
# 1 0.071988 -0.032515 -0.015541 0.000000 0.000000 0.000000
# 2 -0.032515 0.057858 -0.017943 0.000000 0.000000 0.000000
# 3 -0.015541 -0.017943 0.023032 0.000000 0.000000 0.000000
# 4 0.000000 0.000000 0.000000 -0.003414 0.000000 0.000000
# 5 0.000000 0.000000 0.000000 0.000000 0.024660 0.000000
# 6 0.000000 0.000000 0.000000 0.000000 0.000000 0.033964
#
#
# Mechanical properties :
#
#
# Convention : Reuss Voigt Hill
#
# Bulk Modulus (GPa) = 47.89519 96.48602 72.19060
# Shear Modulus (GPa) = 14.40729 -39.56739 -12.58005
#
# Velocity S-wave (km/s) = 2.89366 -4.79540 -2.70394
# Velocity P-wave (km/s) = 6.24501 5.04131 5.67516
#
# Compressibility (1/GPa) = 0.02087892
#
# Stress axis : x y z
#
# Youngs Moduli (GPa) = 13.89128 17.28359 43.41796
#
# Poissons Ratio (x) = 0.56198 0.67476
# Poissons Ratio (y) = 0.45168 0.77905
# Poissons Ratio (z) = 0.21588 0.31012
#
# Static dielectric constant tensor:
#      x y z
#    x 1.570800 0.000000 0.000000 
#    y 0.000000 1.569770 0.000000 
#    z 0.000000 0.000000 1.555690 
# 
# From -- ./inp_files/34286.got.cif
#   From: 2010.05.17/outbox.cif.g08.bks.cpg/sg51_18_cif.got.tgz:34286.got - 2010.06.03 11:52:47.
