data_PCOD9405185
_publ_section_title
;
Structure prediction by ZEFSAII (Michael W. Deem and Ramdas Pophale) SiO2 
 PCOD9405185
Probable space group: P M M A
;
_chemical_formula_sum "Si O2"
_cell_formula_units_Z 40
_cell_length_a 15.265705
_cell_length_b 8.636293
_cell_length_c 15.604105
_cell_angle_alpha 90.000000
_cell_angle_beta 90.000000
_cell_angle_gamma 90.000000
_cell_volume 2057.231179
_symmetry_space_group_name_H-M "P M M A"
_symmetry_group_IT_number 51
_symmetry_cell_setting 'orthorhombic'
loop_
_space_group_symop_operation_xyz
x,y,z
1/2-x,-y,z
1/2+x,-y,-z
-x,y,-z
-x,-y,-z
1/2+x,y,-z
1/2-x,y,z
x,-y,z
loop_
_atom_site_type_symbol
_atom_site_label
_atom_site_fract_x
_atom_site_fract_y
_atom_site_fract_z
Si Si1 0.113091 0.684435 0.330766
Si Si2 0.750000 0.811824 0.338631
Si Si3 0.750000 0.683429 0.993458
Si Si4 0.062600 0.186999 0.733947
Si Si5 0.750000 0.813864 0.537276
Si Si6 0.250000 0.815062 0.197685
Si Si7 0.927117 0.186754 0.069499
O O1 0.118790 0.500000 0.330920
O O2 0.165397 0.750684 0.412287
O O3 0.166076 0.750267 0.248702
O O4 0.013553 0.739974 0.323224
O O5 0.660004 0.762209 0.293509
O O6 0.750000 0.766826 0.438252
O O7 0.750000 0.000000 0.335301
O O8 0.750000 0.500000 0.982627
O O9 0.664304 0.737865 0.044010
O O10 0.750000 0.762223 0.900074
O O11 0.047372 0.227732 0.833514
O O12 0.057738 0.000000 0.726283
O O13 0.750000 0.000000 0.542622
O O14 0.250000 0.000000 0.202867
O O15 0.917377 0.000000 0.066068
O O16 0.000000 0.231773 0.000000
#
# Coordination Sequence:
#
# PCOD9405185 Si02
#       7
#     8   4   4   8   4   4   8
#     4  11  22  37  58  87 119 147 181 232 296 354
#     4   9  20  37  60  85 111 150 201 247 280 327
#     4  12  24  36  55  84 120 155 188 237 294 343
#     4  10  20  38  61  85 114 152 196 240 285 335
#     4  10  20  38  61  85 111 146 194 240 283 338
#     4  11  21  37  60  84 112 151 197 240 283 336
#     4  10  21  37  59  85 114 153 200 242 281 335
#
# _framework density 19.443608999999999
#
# number of rings (size 3 to 8) (size 9 to 14) (size 15 to 20)
#    0.000    1.600    0.000    6.900    0.000    5.200 
#    0.000    6.500    0.000    0.000    0.000    0.000 
#    0.000    0.000    0.000    0.000    0.000    0.000 
#
# Total GULP energy -223639.487465 kJ/mol
# GULP energy per Si atom -5590.987187 kJ/mol
# Density = 1.939935 g / cm^3
# Si number density = 19.443609 Si / 1000 Ang^3
#
#
#
# Elastic Constant Matrix: (Units=GPa)
#
#
# Indices 1 2 3 4 5 6 
#
# 1 157.6101 41.7472 52.2330 0.0000 0.0000 0.0000
# 2 41.7472 65.7320 35.7499 0.0000 0.0000 0.0000
# 3 52.2330 35.7499 110.5551 0.0000 0.0000 0.0000
# 4 0.0000 0.0000 0.0000 5.9253 0.0000 0.0000
# 5 0.0000 0.0000 0.0000 0.0000 -64.3736 0.0000
# 6 0.0000 0.0000 0.0000 0.0000 0.0000 -447.6061
#
#
#
# Elastic Compliance Matrix: (Units=1/GPa)
#
#
# Indices 1 2 3 4 5 6 
#
# 1 0.008229 -0.003776 -0.002667 0.000000 0.000000 0.000000
# 2 -0.003776 0.020192 -0.004746 0.000000 0.000000 0.000000
# 3 -0.002667 -0.004746 0.011840 0.000000 0.000000 0.000000
# 4 0.000000 0.000000 0.000000 0.168767 0.000000 0.000000
# 5 0.000000 0.000000 0.000000 0.000000 -0.015534 0.000000
# 6 0.000000 0.000000 0.000000 0.000000 0.000000 -0.002234
#
#
# Mechanical properties :
#
#
# Convention : Reuss Voigt Hill
#
# Bulk Modulus (GPa) = 55.91443 65.92860 60.92151
# Shear Modulus (GPa) = 22.76894 -87.59974 -32.41540
#
# Velocity S-wave (km/s) = 3.42574 -6.71945 -4.08750
# Velocity P-wave (km/s) = 6.66837 5.12056 3.02052
#
# Compressibility (1/GPa) = 0.01788447
#
# Stress axis : x y z
#
# Youngs Moduli (GPa) = 121.52650 49.52374 84.46091
#
# Poissons Ratio (x) = 0.18699 0.22524
# Poissons Ratio (y) = 0.45885 0.40082
# Poissons Ratio (z) = 0.32408 0.23502
#
# Static dielectric constant tensor:
#      x y z
#    x 1.664100 0.000000 0.000000 
#    y 0.000000 1.647640 0.000000 
#    z 0.000000 0.000000 1.658940 
# 
# From -- ./inp_files/23869.got.cif
#   From: 2010.05.17/outbox.cif.g08.bks.cpg/sg51_12_cif.got.tgz:23869.got - 2010.06.03 11:52:47.
