data_PCOD9405059
_publ_section_title
;
Structure prediction by ZEFSAII (Michael W. Deem and Ramdas Pophale) SiO2 
 PCOD9405059
Probable space group: P M M A
;
_chemical_formula_sum "Si O2"
_cell_formula_units_Z 48
_cell_length_a 28.930773
_cell_length_b 9.150254
_cell_length_c 10.146157
_cell_angle_alpha 90.000000
_cell_angle_beta 90.000000
_cell_angle_gamma 90.000000
_cell_volume 2685.930468
_symmetry_space_group_name_H-M "P M M A"
_symmetry_group_IT_number 51
_symmetry_cell_setting 'orthorhombic'
loop_
_space_group_symop_operation_xyz
x,y,z
1/2-x,-y,z
1/2+x,-y,-z
-x,y,-z
-x,-y,-z
1/2+x,y,-z
1/2-x,y,z
x,-y,z
loop_
_atom_site_type_symbol
_atom_site_label
_atom_site_fract_x
_atom_site_fract_y
_atom_site_fract_z
Si Si1 0.872561 0.825842 0.009529
Si Si2 0.037589 0.331638 0.883962
Si Si3 0.024895 0.325047 0.361361
Si Si4 0.804589 0.675881 0.509708
Si Si5 0.694898 0.671831 0.207407
Si Si6 0.377902 0.175829 0.298371
O O1 0.870674 0.782983 0.855399
O O2 0.872015 0.000000 0.015316
O O3 0.919483 0.764721 0.073121
O O4 0.831412 0.761082 0.096668
O O5 0.053042 0.500000 0.864688
O O6 0.010923 0.282464 0.753345
O O7 0.000000 0.329956 0.000000
O O8 0.033648 0.500000 0.348112
O O9 0.072955 0.241107 0.344335
O O10 0.000000 0.299216 0.500000
O O11 0.750000 0.708653 0.528977
O O12 0.809853 0.500000 0.522490
O O13 0.817179 0.714461 0.358123
O O14 0.837457 0.757444 0.611683
O O15 0.750000 0.687812 0.194969
O O16 0.683812 0.500000 0.193063
O O17 0.378337 0.000000 0.308103
#
# Coordination Sequence:
#
# PCOD9405059 Si02
#       6
#     8   8   8   8   8   8
#     4  11  24  38  56  85 121 157 189 230 284 341
#     4  10  20  37  60  83 110 149 194 236 280 331
#     4  10  22  39  59  84 113 148 192 241 286 332
#     4   9  20  40  64  87 112 146 190 240 289 337
#     4   9  20  40  64  88 113 145 190 240 287 339
#     4  11  24  39  56  84 121 157 191 230 282 343
#
# _framework density 17.870902000000001
#
# number of rings (size 3 to 8) (size 9 to 14) (size 15 to 20)
#    0.000    2.000    1.667    2.000    2.333    5.333 
#    0.000    5.000    0.000    0.000    0.000    0.000 
#    0.000    0.000    0.000    0.000    0.000    0.000 
#
# Total GULP energy -268029.842992 kJ/mol
# GULP energy per Si atom -5583.955062 kJ/mol
# Density = 1.783023 g / cm^3
# Si number density = 17.870902 Si / 1000 Ang^3
#
#
#
# Elastic Constant Matrix: (Units=GPa)
#
#
# Indices 1 2 3 4 5 6 
#
# 1 83.1131 52.8756 80.9666 0.0000 0.0000 0.0000
# 2 52.8756 53.0143 60.0466 0.0000 0.0000 0.0000
# 3 80.9666 60.0466 148.0052 0.0000 0.0000 0.0000
# 4 0.0000 0.0000 0.0000 28.9159 0.0000 0.0000
# 5 0.0000 0.0000 0.0000 0.0000 34.2472 0.0000
# 6 0.0000 0.0000 0.0000 0.0000 0.0000 -35.8697
#
#
#
# Elastic Compliance Matrix: (Units=1/GPa)
#
#
# Indices 1 2 3 4 5 6 
#
# 1 0.040286 -0.028158 -0.010615 0.000000 0.000000 0.000000
# 2 -0.028158 0.054581 -0.006740 0.000000 0.000000 0.000000
# 3 -0.010615 -0.006740 0.015298 0.000000 0.000000 0.000000
# 4 0.000000 0.000000 0.000000 0.034583 0.000000 0.000000
# 5 0.000000 0.000000 0.000000 0.000000 0.029199 0.000000
# 6 0.000000 0.000000 0.000000 0.000000 0.000000 -0.027879
#
#
# Mechanical properties :
#
#
# Convention : Reuss Voigt Hill
#
# Bulk Modulus (GPa) = 52.24757 74.65669 63.45213
# Shear Modulus (GPa) = 20.53599 11.47493 16.00546
#
# Velocity S-wave (km/s) = 3.39356 2.53672 2.99593
# Velocity P-wave (km/s) = 6.68241 7.10255 6.89568
#
# Compressibility (1/GPa) = 0.01913964
#
# Stress axis : x y z
#
# Youngs Moduli (GPa) = 24.82230 18.32132 65.36851
#
# Poissons Ratio (x) = 0.51589 0.69388
# Poissons Ratio (y) = 0.69895 0.44058
# Poissons Ratio (z) = 0.26349 0.12349
#
# Static dielectric constant tensor:
#      x y z
#    x 1.581160 0.000000 0.000000 
#    y 0.000000 1.599360 0.000000 
#    z 0.000000 0.000000 1.631310 
# 
# From -- ./inp_files/12805.got.cif
#   From: 2010.05.17/outbox.cif.g08.bks.cpg/sg51_7_cif.got.tgz:12805.got - 2010.06.03 11:52:47.
