data_PCOD9405174
_publ_section_title
;
Structure prediction by ZEFSAII (Michael W. Deem and Ramdas Pophale) SiO2 
 PCOD9405174
Probable space group: P M M A
;
_chemical_formula_sum "Si O2"
_cell_formula_units_Z 48
_cell_length_a 8.523818
_cell_length_b 10.352065
_cell_length_c 28.223705
_cell_angle_alpha 90.000000
_cell_angle_beta 90.000000
_cell_angle_gamma 90.000000
_cell_volume 2490.434835
_symmetry_space_group_name_H-M "P M M A"
_symmetry_group_IT_number 51
_symmetry_cell_setting 'orthorhombic'
loop_
_space_group_symop_operation_xyz
x,y,z
1/2-x,-y,z
1/2+x,-y,-z
-x,y,-z
-x,-y,-z
1/2+x,y,-z
1/2-x,y,z
x,-y,z
loop_
_atom_site_type_symbol
_atom_site_label
_atom_site_fract_x
_atom_site_fract_y
_atom_site_fract_z
Si Si1 0.941077 0.000000 0.698054
Si Si2 0.061961 0.500000 0.729303
Si Si3 0.440998 0.500000 0.620410
Si Si4 0.060410 0.853396 0.127763
Si Si5 0.060350 0.769645 0.233408
Si Si6 0.938519 0.000000 0.588583
Si Si7 0.562147 0.352424 0.052619
Si Si8 0.561804 0.728916 0.448543
O O1 0.991852 0.873362 0.727089
O O2 0.750000 0.000000 0.698107
O O3 0.991612 0.000000 0.643593
O O4 0.250000 0.500000 0.729249
O O5 0.005415 0.500000 0.674614
O O6 0.002250 0.628709 0.754639
O O7 0.250000 0.500000 0.620993
O O8 0.490733 0.626852 0.591412
O O9 0.250000 0.851480 0.126697
O O10 0.011805 0.816460 0.181206
O O11 0.998832 0.749746 0.090507
O O12 0.009195 0.000000 0.116986
O O13 0.250000 0.767243 0.234134
O O14 0.000121 0.128976 0.563749
O O15 0.750000 0.000000 0.587188
O O16 0.750000 0.349662 0.051865
O O17 0.511628 0.500000 0.064210
O O18 0.500000 0.322733 0.000000
O O19 0.500000 0.688806 0.500000
O O20 0.750000 0.730493 0.449434
#
# Coordination Sequence:
#
# PCOD9405174 Si02
#       8
#     4   4   4   8   8   4   8   8
#     4   9  18  36  62  85 112 147 194 244 282 329
#     4  11  23  38  56  84 119 151 188 234 285 346
#     4   9  21  40  60  82 112 149 187 232 289 346
#     4  10  21  38  61  87 117 155 198 241 290 345
#     4  10  20  38  60  85 114 152 195 239 287 338
#     4  11  22  36  57  87 116 149 189 234 283 337
#     4  10  22  40  62  89 121 157 198 244 292 343
#     4  11  22  39  60  83 112 147 187 234 286 343
#
# _framework density 19.273741000000001
#
# number of rings (size 3 to 8) (size 9 to 14) (size 15 to 20)
#    0.000    1.833    0.833    3.000    1.167    2.333 
#    0.000    5.000    0.000    0.000    0.000    0.000 
#    0.000    0.000    0.000    0.000    0.000    0.000 
#
# Total GULP energy -268257.311444 kJ/mol
# GULP energy per Si atom -5588.693988 kJ/mol
# Density = 1.922987 g / cm^3
# Si number density = 19.273741 Si / 1000 Ang^3
#
#
#
# Elastic Constant Matrix: (Units=GPa)
#
#
# Indices 1 2 3 4 5 6 
#
# 1 27.9994 18.7937 20.6911 0.0000 0.0000 0.0000
# 2 18.7937 116.1189 43.8522 0.0000 0.0000 0.0000
# 3 20.6911 43.8522 104.6389 0.0000 0.0000 0.0000
# 4 0.0000 0.0000 0.0000 43.9293 0.0000 0.0000
# 5 0.0000 0.0000 0.0000 0.0000 25.1918 0.0000
# 6 0.0000 0.0000 0.0000 0.0000 0.0000 4.7859
#
#
#
# Elastic Compliance Matrix: (Units=1/GPa)
#
#
# Indices 1 2 3 4 5 6 
#
# 1 0.043745 -0.004530 -0.006751 0.000000 0.000000 0.000000
# 2 -0.004530 0.010700 -0.003588 0.000000 0.000000 0.000000
# 3 -0.006751 -0.003588 0.012396 0.000000 0.000000 0.000000
# 4 0.000000 0.000000 0.000000 0.022764 0.000000 0.000000
# 5 0.000000 0.000000 0.000000 0.000000 0.039696 0.000000
# 6 0.000000 0.000000 0.000000 0.000000 0.000000 0.208945
#
#
# Mechanical properties :
#
#
# Convention : Reuss Voigt Hill
#
# Bulk Modulus (GPa) = 26.95390 46.15899 36.55644
# Shear Modulus (GPa) = 13.14567 25.80942 19.47754
#
# Velocity S-wave (km/s) = 2.61444 3.66334 3.18240
# Velocity P-wave (km/s) = 4.80925 6.47260 5.70190
#
# Compressibility (1/GPa) = 0.03710039
#
# Stress axis : x y z
#
# Youngs Moduli (GPa) = 22.85963 93.45554 80.67412
#
# Poissons Ratio (x) = 0.42339 0.54467
# Poissons Ratio (y) = 0.10356 0.28949
# Poissons Ratio (z) = 0.15434 0.33536
#
# Static dielectric constant tensor:
#      x y z
#    x 1.658090 0.000000 0.000000 
#    y 0.000000 1.645170 0.000000 
#    z 0.000000 0.000000 1.646800 
# 
# From -- ./inp_files/37251.got.cif
#   From: 2010.05.17/outbox.cif.g08.bks.cpg/sg51_19_cif.got.tgz:37251.got - 2010.06.03 11:52:47.
