data_PCOD9405056
_publ_section_title
;
Structure prediction by ZEFSAII (Michael W. Deem and Ramdas Pophale) SiO2 
 PCOD9405056
Probable space group: P M M A
;
_chemical_formula_sum "Si O2"
_cell_formula_units_Z 56
_cell_length_a 19.730440
_cell_length_b 7.723888
_cell_length_c 16.985714
_cell_angle_alpha 90.000000
_cell_angle_beta 90.000000
_cell_angle_gamma 90.000000
_cell_volume 2588.549924
_symmetry_space_group_name_H-M "P M M A"
_symmetry_group_IT_number 51
_symmetry_cell_setting 'orthorhombic'
loop_
_space_group_symop_operation_xyz
x,y,z
1/2-x,-y,z
1/2+x,-y,-z
-x,y,-z
-x,-y,-z
1/2+x,y,-z
1/2-x,y,z
x,-y,z
loop_
_atom_site_type_symbol
_atom_site_label
_atom_site_fract_x
_atom_site_fract_y
_atom_site_fract_z
Si Si1 0.672585 0.208159 0.645704
Si Si2 0.048301 0.288153 0.071389
Si Si3 0.673977 0.707824 0.022830
Si Si4 0.923070 0.298832 0.339886
Si Si5 0.576087 0.200817 0.507475
Si Si6 0.948482 0.708551 0.751826
Si Si7 0.828018 0.793726 0.197545
O O1 0.750000 0.273826 0.648511
O O2 0.628024 0.275892 0.571424
O O3 0.626404 0.247651 0.721662
O O4 0.676954 0.000000 0.638381
O O5 0.045129 0.500000 0.072660
O O6 0.034862 0.228716 0.160116
O O7 0.123231 0.233705 0.044391
O O8 0.000000 0.231655 0.000000
O O9 0.750000 0.778847 0.016803
O O10 0.677389 0.500000 0.017888
O O11 0.646679 0.749417 0.109974
O O12 0.931328 0.500000 0.359407
O O13 0.896346 0.210193 0.418639
O O14 0.873245 0.283062 0.266136
O O15 0.995443 0.226048 0.310245
O O16 0.500000 0.277808 0.500000
O O17 0.567066 0.000000 0.529850
O O18 0.954654 0.500000 0.752845
O O19 0.750000 0.731606 0.201989
O O20 0.828240 0.000000 0.206181
#
# Coordination Sequence:
#
# PCOD9405056 Si02
#       7
#     8   8   8   8   8   8   8
#     4  10  22  40  60  83 113 150 191 234 282 337
#     4   9  17  31  52  78 109 142 182 228 276 328
#     4   9  17  31  52  75 101 137 181 228 277 328
#     4  11  22  35  57  86 115 145 184 231 281 335
#     4  10  20  37  60  82 109 149 190 228 276 335
#     4  10  21  36  57  85 114 148 186 230 280 334
#     4  10  21  36  54  78 110 147 186 229 280 339
#
# _framework density 21.633734
#
# number of rings (size 3 to 8) (size 9 to 14) (size 15 to 20)
#    0.000    2.143    1.429    1.714    0.000    6.000 
#    0.000    3.571    0.000    3.429    0.000    0.000 
#    0.000    0.000    0.000    0.000    0.000    0.000 
#
# Total GULP energy -312686.519941 kJ/mol
# GULP energy per Si atom -5583.687856 kJ/mol
# Density = 2.158449 g / cm^3
# Si number density = 21.633734 Si / 1000 Ang^3
#
#
#
# Elastic Constant Matrix: (Units=GPa)
#
#
# Indices 1 2 3 4 5 6 
#
# 1 87.7018 4.6923 41.1218 0.0000 0.0000 0.0000
# 2 4.6923 40.4872 2.2523 0.0000 0.0000 0.0000
# 3 41.1218 2.2523 118.4624 0.0000 0.0000 0.0000
# 4 0.0000 0.0000 0.0000 32.6878 0.0000 0.0000
# 5 0.0000 0.0000 0.0000 0.0000 34.7652 0.0000
# 6 0.0000 0.0000 0.0000 0.0000 0.0000 13.3456
#
#
#
# Elastic Compliance Matrix: (Units=1/GPa)
#
#
# Indices 1 2 3 4 5 6 
#
# 1 0.013689 -0.001324 -0.004727 0.000000 0.000000 0.000000
# 2 -0.001324 0.024853 -0.000013 0.000000 0.000000 0.000000
# 3 -0.004727 -0.000013 0.010083 0.000000 0.000000 0.000000
# 4 0.000000 0.000000 0.000000 0.030592 0.000000 0.000000
# 5 0.000000 0.000000 0.000000 0.000000 0.028764 0.000000
# 6 0.000000 0.000000 0.000000 0.000000 0.000000 0.074931
#
#
# Mechanical properties :
#
#
# Convention : Reuss Voigt Hill
#
# Bulk Modulus (GPa) = 27.39854 38.08713 32.74284
# Shear Modulus (GPa) = 24.13055 29.39871 26.76463
#
# Velocity S-wave (km/s) = 3.34340 3.69036 3.52116
# Velocity P-wave (km/s) = 5.25325 5.98348 5.63022
#
# Compressibility (1/GPa) = 0.03649830
#
# Stress axis : x y z
#
# Youngs Moduli (GPa) = 73.04909 40.23610 99.18098
#
# Poissons Ratio (x) = 0.05326 0.46881
# Poissons Ratio (y) = 0.09669 0.00130
# Poissons Ratio (z) = 0.34529 0.00053
#
# Static dielectric constant tensor:
#      x y z
#    x 1.815250 0.000000 0.000000 
#    y 0.000000 1.791890 0.000000 
#    z 0.000000 0.000000 1.776980 
# 
# From -- ./inp_files/25730.got.cif
#   From: 2010.05.17/outbox.cif.g08.bks.cpg/sg51_13_cif.got.tgz:25730.got - 2010.06.03 11:52:47.
