data_PCOD9405435
_publ_section_title
;
Structure prediction by ZEFSAII (Michael W. Deem and Ramdas Pophale) SiO2 
 PCOD9405435
Probable space group: P M M A
;
_chemical_formula_sum "Si O2"
_cell_formula_units_Z 44
_cell_length_a 9.626383
_cell_length_b 7.456446
_cell_length_c 31.585848
_cell_angle_alpha 90.000000
_cell_angle_beta 90.000000
_cell_angle_gamma 90.000000
_cell_volume 2267.188108
_symmetry_space_group_name_H-M "P M M A"
_symmetry_group_IT_number 51
_symmetry_cell_setting 'orthorhombic'
loop_
_space_group_symop_operation_xyz
x,y,z
1/2-x,-y,z
1/2+x,-y,-z
-x,y,-z
-x,-y,-z
1/2+x,y,-z
1/2-x,y,z
x,-y,z
loop_
_atom_site_type_symbol
_atom_site_label
_atom_site_fract_x
_atom_site_fract_y
_atom_site_fract_z
Si Si1 0.413269 0.713501 0.885842
Si Si2 0.415065 0.000000 0.956939
Si Si3 0.906906 0.714044 0.805716
Si Si4 0.410868 0.780387 0.540058
Si Si5 0.580822 0.208319 0.367871
Si Si6 0.591807 0.215529 0.275937
O O1 0.250000 0.742590 0.875827
O O2 0.432817 0.500000 0.892427
O O3 0.505725 0.776627 0.846329
O O4 0.446043 0.827492 0.927547
O O5 0.250000 0.000000 0.965789
O O6 0.500000 0.000000 0.000000
O O7 0.750000 0.785360 0.804222
O O8 0.898386 0.500000 0.810476
O O9 0.990812 0.746363 0.762675
O O10 0.500000 0.722148 0.500000
O O11 0.250000 0.728891 0.535023
O O12 0.461787 0.716942 0.586421
O O13 0.413967 0.000000 0.541141
O O14 0.750000 0.211046 0.368155
O O15 0.542123 0.285072 0.322000
O O16 0.536622 0.000000 0.367952
O O17 0.750000 0.279590 0.267716
O O18 0.599968 0.000000 0.279968
#
# Coordination Sequence:
#
# PCOD9405435 Si02
#       6
#     8   4   8   8   8   8
#     4   9  19  37  58  79 107 143 181 221 260 303
#     4  10  22  38  58  86 114 142 180 220 261 310
#     4  10  21  35  50  72 102 133 165 204 252 302
#     4   8  12  18  29  45  68 101 140 179 221 272
#     4   7  11  21  35  52  77 109 145 185 229 280
#     4   9  17  29  47  69  92 123 162 201 243 293
#
# _framework density 19.407298999999998
#
# number of rings (size 3 to 8) (size 9 to 14) (size 15 to 20)
#    0.000    3.273    0.000    2.727    1.273    2.545 
#    0.000    0.909    0.000    3.273    0.000    0.000 
#    0.000    0.727    0.000    1.636    0.000    4.727 
#
# Total GULP energy -245191.147118 kJ/mol
# GULP energy per Si atom -5572.526071 kJ/mol
# Density = 1.936313 g / cm^3
# Si number density = 19.407299 Si / 1000 Ang^3
#
#
#
# Elastic Constant Matrix: (Units=GPa)
#
#
# Indices 1 2 3 4 5 6 
#
# 1 92.1299 23.6406 114.4265 0.0000 0.0000 0.0000
# 2 23.6406 63.3067 33.7048 0.0000 0.0000 0.0000
# 3 114.4265 33.7048 240.0700 0.0000 0.0000 0.0000
# 4 0.0000 0.0000 0.0000 104.6315 0.0000 0.0000
# 5 0.0000 0.0000 0.0000 0.0000 35.8187 0.0000
# 6 0.0000 0.0000 0.0000 0.0000 0.0000 5.9558
#
#
#
# Elastic Compliance Matrix: (Units=1/GPa)
#
#
# Indices 1 2 3 4 5 6 
#
# 1 0.027315 -0.003533 -0.012523 0.000000 0.000000 0.000000
# 2 -0.003533 0.017529 -0.000777 0.000000 0.000000 0.000000
# 3 -0.012523 -0.000777 0.010244 0.000000 0.000000 0.000000
# 4 0.000000 0.000000 0.000000 0.009557 0.000000 0.000000
# 5 0.000000 0.000000 0.000000 0.000000 0.027918 0.000000
# 6 0.000000 0.000000 0.000000 0.000000 0.000000 0.167903
#
#
# Mechanical properties :
#
#
# Convention : Reuss Voigt Hill
#
# Bulk Modulus (GPa) = 46.68277 82.11671 64.39974
# Shear Modulus (GPa) = 16.59623 44.19685 30.39654
#
# Velocity S-wave (km/s) = 2.92747 4.77732 3.96187
# Velocity P-wave (km/s) = 5.96098 8.53431 7.36097
#
# Compressibility (1/GPa) = 0.02142118
#
# Stress axis : x y z
#
# Youngs Moduli (GPa) = 36.61014 57.04800 97.62141
#
# Poissons Ratio (x) = 0.20153 1.22254
# Poissons Ratio (y) = 0.12933 0.07587
# Poissons Ratio (z) = 0.45848 0.04434
#
# Static dielectric constant tensor:
#      x y z
#    x 1.655500 0.000000 0.000000 
#    y 0.000000 1.900690 0.000000 
#    z 0.000000 0.000000 1.684000 
# 
# From -- ./inp_files/36725.got.cif
#   From: 2010.05.17/outbox.cif.g08.bks.cpg/sg51_19_cif.got.tgz:36725.got - 2010.06.03 11:52:47.
