data_PCOD9405551
_publ_section_title
;
Structure prediction by ZEFSAII (Michael W. Deem and Ramdas Pophale) SiO2 
 PCOD9405551
Probable space group: P M M A
;
_chemical_formula_sum "Si O2"
_cell_formula_units_Z 64
_cell_length_a 14.958109
_cell_length_b 23.638035
_cell_length_c 8.872719
_cell_angle_alpha 90.000000
_cell_angle_beta 90.000000
_cell_angle_gamma 90.000000
_cell_volume 3137.218682
_symmetry_space_group_name_H-M "P M M A"
_symmetry_group_IT_number 51
_symmetry_cell_setting 'orthorhombic'
loop_
_space_group_symop_operation_xyz
x,y,z
1/2-x,-y,z
1/2+x,-y,-z
-x,y,-z
-x,-y,-z
1/2+x,y,-z
1/2-x,y,z
x,-y,z
loop_
_atom_site_type_symbol
_atom_site_label
_atom_site_fract_x
_atom_site_fract_y
_atom_site_fract_z
Si Si1 0.523012 0.437939 0.179538
Si Si2 0.106518 0.727759 0.479083
Si Si3 0.852800 0.771786 0.189884
Si Si4 0.646513 0.343510 0.067774
Si Si5 0.350921 0.618337 0.281534
Si Si6 0.025685 0.117696 0.835680
Si Si7 0.399218 0.061757 0.566053
Si Si8 0.348218 0.153587 0.337225
O O1 0.559343 0.500000 0.221096
O O2 0.591031 0.385489 0.175216
O O3 0.435697 0.423855 0.279683
O O4 0.500000 0.441329 0.000000
O O5 0.144087 0.744140 0.643222
O O6 0.136760 0.669779 0.399194
O O7 0.133967 0.781192 0.376671
O O8 0.000000 0.726091 0.500000
O O9 0.750000 0.787160 0.155952
O O10 0.884493 0.720655 0.084031
O O11 0.917540 0.824504 0.170184
O O12 0.750000 0.345847 0.114084
O O13 0.642888 0.359443 0.891685
O O14 0.250000 0.594670 0.300415
O O15 0.084260 0.073767 0.740763
O O16 0.930859 0.131091 0.757961
O O17 0.000000 0.098066 0.000000
O O18 0.500000 0.061455 0.500000
O O19 0.351502 0.114836 0.488161
O O20 0.359333 0.000000 0.536086
O O21 0.250000 0.147675 0.267684
#
# Coordination Sequence:
#
# PCOD9405551 Si02
#       8
#     8   8   8   8   8   8   8   8
#     4   9  18  33  55  82 113 151 194 243 294 356
#     4  12  21  36  57  82 116 151 196 251 303 360
#     4  11  22  37  56  81 118 157 196 246 305 365
#     4   9  20  36  54  82 117 154 197 243 296 358
#     4  10  21  35  55  84 115 151 193 246 303 357
#     4  11  24  38  58  91 126 164 203 255 311 370
#     4   9  19  40  64  87 117 157 205 252 298 352
#     4  11  22  39  60  88 121 160 209 253 300 365
#
# _framework density 20.400234999999999
#
# number of rings (size 3 to 8) (size 9 to 14) (size 15 to 20)
#    0.000    1.750    2.500    2.250    1.750    2.000 
#    0.000    2.500    0.000    3.375    0.000    5.250 
#    0.000    0.000    0.000    0.000    0.000    0.000 
#
# Total GULP energy -357041.962314 kJ/mol
# GULP energy per Si atom -5578.780661 kJ/mol
# Density = 2.035380 g / cm^3
# Si number density = 20.400235 Si / 1000 Ang^3
#
#
#
# Elastic Constant Matrix: (Units=GPa)
#
#
# Indices 1 2 3 4 5 6 
#
# 1 90.7107 22.1956 -12.8972 0.0000 0.0000 0.0000
# 2 22.1956 65.1136 -4.9973 0.0000 0.0000 0.0000
# 3 -12.8972 -4.9973 19.9691 0.0000 0.0000 0.0000
# 4 0.0000 0.0000 0.0000 15.8865 0.0000 0.0000
# 5 0.0000 0.0000 0.0000 0.0000 11.3395 0.0000
# 6 0.0000 0.0000 0.0000 0.0000 0.0000 -20.5300
#
#
#
# Elastic Compliance Matrix: (Units=1/GPa)
#
#
# Indices 1 2 3 4 5 6 
#
# 1 0.013030 -0.003870 0.007447 0.000000 0.000000 0.000000
# 2 -0.003870 0.016808 0.001707 0.000000 0.000000 0.000000
# 3 0.007447 0.001707 0.055314 0.000000 0.000000 0.000000
# 4 0.000000 0.000000 0.000000 0.062947 0.000000 0.000000
# 5 0.000000 0.000000 0.000000 0.000000 0.088187 0.000000
# 6 0.000000 0.000000 0.000000 0.000000 0.000000 -0.048709
#
#
# Mechanical properties :
#
#
# Convention : Reuss Voigt Hill
#
# Bulk Modulus (GPa) = 10.44722 20.48840 15.46781
# Shear Modulus (GPa) = 23.93314 12.77204 18.35259
#
# Velocity S-wave (km/s) = 3.42889 2.50486 3.00263
# Velocity P-wave (km/s) = 4.56164 4.29311 4.42941
#
# Compressibility (1/GPa) = 0.09571922
#
# Stress axis : x y z
#
# Youngs Moduli (GPa) = 76.74719 59.49570 18.07856
#
# Poissons Ratio (x) = 0.23025 -0.13463
# Poissons Ratio (y) = 0.29701 -0.03086
# Poissons Ratio (z) = -0.57153 -0.10154
#
# Static dielectric constant tensor:
#      x y z
#    x 1.732920 0.000000 0.000000 
#    y 0.000000 1.721060 0.000000 
#    z 0.000000 0.000000 1.754990 
# 
# From -- ./inp_files/8680.got.cif
#   From: 2010.05.17/outbox.cif.g08.bks.cpg/sg51_5_cif.got.tgz:8680.got - 2010.06.03 11:52:47.
