data_PCOD9405005
_publ_section_title
;
Structure prediction by ZEFSAII (Michael W. Deem and Ramdas Pophale) SiO2 
 PCOD9405005
Probable space group: P M M A
;
_chemical_formula_sum "Si O2"
_cell_formula_units_Z 48
_cell_length_a 28.817570
_cell_length_b 9.055069
_cell_length_c 10.236242
_cell_angle_alpha 90.000000
_cell_angle_beta 90.000000
_cell_angle_gamma 90.000000
_cell_volume 2671.097036
_symmetry_space_group_name_H-M "P M M A"
_symmetry_group_IT_number 51
_symmetry_cell_setting 'orthorhombic'
loop_
_space_group_symop_operation_xyz
x,y,z
1/2-x,-y,z
1/2+x,-y,-z
-x,y,-z
-x,-y,-z
1/2+x,y,-z
1/2-x,y,z
x,-y,z
loop_
_atom_site_type_symbol
_atom_site_label
_atom_site_fract_x
_atom_site_fract_y
_atom_site_fract_z
Si Si1 0.869555 0.823686 0.010649
Si Si2 0.038706 0.327808 0.887402
Si Si3 0.022132 0.322155 0.361156
Si Si4 0.804009 0.822289 0.492982
Si Si5 0.694467 0.672220 0.219074
Si Si6 0.379739 0.178234 0.291223
O O1 0.868893 0.778324 0.858299
O O2 0.865593 0.000000 0.016647
O O3 0.918012 0.770495 0.072273
O O4 0.829892 0.750159 0.097718
O O5 0.053331 0.500000 0.876544
O O6 0.013847 0.282388 0.753505
O O7 0.000000 0.319272 0.000000
O O8 0.028125 0.500000 0.356624
O O9 0.071603 0.247859 0.335229
O O10 0.000000 0.282075 0.500000
O O11 0.750000 0.782591 0.519301
O O12 0.818508 0.748618 0.356352
O O13 0.838526 0.779365 0.609655
O O14 0.805932 0.000000 0.478895
O O15 0.750000 0.684472 0.207327
O O16 0.681773 0.500000 0.223043
O O17 0.383832 0.000000 0.294048
#
# Coordination Sequence:
#
# PCOD9405005 Si02
#       6
#     8   8   8   8   8   8
#     4  11  23  37  58  87 118 153 190 233 284 338
#     4  10  20  37  58  80 112 153 192 232 280 332
#     4  10  22  38  56  81 112 150 191 234 283 334
#     4   9  19  38  61  84 113 148 186 230 282 338
#     4  10  22  40  61  86 115 148 189 235 283 339
#     4  10  22  38  57  85 116 150 190 233 281 335
#
# _framework density 17.970144000000001
#
# number of rings (size 3 to 8) (size 9 to 14) (size 15 to 20)
#    0.000    2.000    1.667    1.000    2.333    4.333 
#    0.000    1.667    0.000    2.000    0.000    0.000 
#    0.000    0.000    0.000    0.000    0.000    0.000 
#
# Total GULP energy -268034.068701 kJ/mol
# GULP energy per Si atom -5584.043098 kJ/mol
# Density = 1.792924 g / cm^3
# Si number density = 17.970144 Si / 1000 Ang^3
#
#
#
# Elastic Constant Matrix: (Units=GPa)
#
#
# Indices 1 2 3 4 5 6 
#
# 1 79.3900 43.8518 88.6904 0.0000 0.0000 0.0000
# 2 43.8518 42.7580 56.6505 0.0000 0.0000 0.0000
# 3 88.6904 56.6505 198.9840 0.0000 0.0000 0.0000
# 4 0.0000 0.0000 0.0000 8.1846 0.0000 0.0000
# 5 0.0000 0.0000 0.0000 0.0000 36.0358 0.0000
# 6 0.0000 0.0000 0.0000 0.0000 0.0000 33.8728
#
#
#
# Elastic Compliance Matrix: (Units=1/GPa)
#
#
# Indices 1 2 3 4 5 6 
#
# 1 0.037223 -0.026002 -0.009188 0.000000 0.000000 0.000000
# 2 -0.026002 0.055715 -0.004273 0.000000 0.000000 0.000000
# 3 -0.009188 -0.004273 0.010337 0.000000 0.000000 0.000000
# 4 0.000000 0.000000 0.000000 0.122180 0.000000 0.000000
# 5 0.000000 0.000000 0.000000 0.000000 0.027750 0.000000
# 6 0.000000 0.000000 0.000000 0.000000 0.000000 0.029522
#
#
# Mechanical properties :
#
#
# Convention : Reuss Voigt Hill
#
# Bulk Modulus (GPa) = 41.06719 77.72416 59.39567
# Shear Modulus (GPa) = 13.52192 24.41460 18.96826
#
# Velocity S-wave (km/s) = 2.74609 3.68995 3.25244
# Velocity P-wave (km/s) = 5.74084 7.84219 6.87231
#
# Compressibility (1/GPa) = 0.02435034
#
# Stress axis : x y z
#
# Youngs Moduli (GPa) = 26.86523 17.94844 96.73699
#
# Poissons Ratio (x) = 0.46669 0.88884
# Poissons Ratio (y) = 0.69854 0.41333
# Poissons Ratio (z) = 0.24684 0.07669
#
# Static dielectric constant tensor:
#      x y z
#    x 1.591710 0.000000 0.000000 
#    y 0.000000 1.604830 0.000000 
#    z 0.000000 0.000000 1.599660 
# 
# From -- ./inp_files/12749.got.cif
#   From: 2010.05.17/outbox.cif.g08.bks.cpg/sg51_7_cif.got.tgz:12749.got - 2010.06.03 11:52:47.
