data_PCOD9405700
_publ_section_title
;
Structure prediction by ZEFSAII (Michael W. Deem and Ramdas Pophale) SiO2 
 PCOD9405700
Probable space group: P M M A
;
_chemical_formula_sum "Si O2"
_cell_formula_units_Z 48
_cell_length_a 24.313214
_cell_length_b 7.892825
_cell_length_c 11.127429
_cell_angle_alpha 90.000000
_cell_angle_beta 90.000000
_cell_angle_gamma 90.000000
_cell_volume 2135.352994
_symmetry_space_group_name_H-M "P M M A"
_symmetry_group_IT_number 51
_symmetry_cell_setting 'orthorhombic'
loop_
_space_group_symop_operation_xyz
x,y,z
1/2-x,-y,z
1/2+x,-y,-z
-x,y,-z
-x,-y,-z
1/2+x,y,-z
1/2-x,y,z
x,-y,z
loop_
_atom_site_type_symbol
_atom_site_label
_atom_site_fract_x
_atom_site_fract_y
_atom_site_fract_z
Si Si1 0.188354 0.200320 0.821611
Si Si2 0.872074 0.698655 0.939791
Si Si3 0.188024 0.796859 0.302817
Si Si4 0.979102 0.695966 0.815977
Si Si5 0.921414 0.203355 0.571450
Si Si6 0.916132 0.201402 0.307969
O O1 0.250000 0.272229 0.817895
O O2 0.142688 0.273253 0.731326
O O3 0.192683 0.000000 0.796008
O O4 0.160968 0.217554 0.952543
O O5 0.877855 0.500000 0.967945
O O6 0.836320 0.717674 0.818554
O O7 0.933099 0.768030 0.906843
O O8 0.250000 0.740077 0.327860
O O9 0.143596 0.767523 0.407109
O O10 0.188834 0.000000 0.283657
O O11 0.986505 0.500000 0.846281
O O12 0.951260 0.713034 0.684217
O O13 0.039023 0.772293 0.795947
O O14 0.935832 0.264681 0.438260
O O15 0.932710 0.000000 0.581523
O O16 0.910216 0.000000 0.324329
#
# Coordination Sequence:
#
# PCOD9405700 Si02
#       6
#     8   8   8   8   8   8
#     4  10  22  39  57  78 106 140 176 214 258 309
#     4  10  21  36  54  77 105 137 174 218 266 311
#     4   9  17  30  51  78 105 135 173 217 263 310
#     4  10  21  36  55  80 108 137 172 217 265 309
#     4   9  18  33  53  78 108 140 174 213 259 311
#     4  10  21  36  55  79 107 140 175 212 256 309
#
# _framework density 22.478719999999999
#
# number of rings (size 3 to 8) (size 9 to 14) (size 15 to 20)
#    0.000    2.333    0.000    2.000    0.000    9.333 
#    0.000    6.667    0.000    0.000    0.000    4.667 
#    0.000    0.000    0.000    0.000    0.000    0.000 
#
# Total GULP energy -268005.034448 kJ/mol
# GULP energy per Si atom -5583.438218 kJ/mol
# Density = 2.242756 g / cm^3
# Si number density = 22.478720 Si / 1000 Ang^3
#
#
#
# Elastic Constant Matrix: (Units=GPa)
#
#
# Indices 1 2 3 4 5 6 
#
# 1 107.4619 1.5527 34.2393 0.0000 0.0000 0.0000
# 2 1.5527 21.7652 -1.9277 0.0000 0.0000 0.0000
# 3 34.2393 -1.9277 53.8581 0.0000 0.0000 0.0000
# 4 0.0000 0.0000 0.0000 95.3475 0.0000 0.0000
# 5 0.0000 0.0000 0.0000 0.0000 24.4855 0.0000
# 6 0.0000 0.0000 0.0000 0.0000 0.0000 31.8981
#
#
#
# Elastic Compliance Matrix: (Units=1/GPa)
#
#
# Indices 1 2 3 4 5 6 
#
# 1 0.011718 -0.001500 -0.007503 0.000000 0.000000 0.000000
# 2 -0.001500 0.046283 0.002610 0.000000 0.000000 0.000000
# 3 -0.007503 0.002610 0.023431 0.000000 0.000000 0.000000
# 4 0.000000 0.000000 0.000000 0.010488 0.000000 0.000000
# 5 0.000000 0.000000 0.000000 0.000000 0.040840 0.000000
# 6 0.000000 0.000000 0.000000 0.000000 0.000000 0.031350
#
#
# Mechanical properties :
#
#
# Convention : Reuss Voigt Hill
#
# Bulk Modulus (GPa) = 14.56761 27.86818 21.21790
# Shear Modulus (GPa) = 25.02778 40.29430 32.66104
#
# Velocity S-wave (km/s) = 3.34038 4.23845 3.81593
# Velocity P-wave (km/s) = 4.62301 6.03134 5.37352
#
# Compressibility (1/GPa) = 0.06864545
#
# Stress axis : x y z
#
# Youngs Moduli (GPa) = 85.33924 21.60618 42.67901
#
# Poissons Ratio (x) = 0.03242 0.32023
# Poissons Ratio (y) = 0.12805 -0.11141
# Poissons Ratio (z) = 0.64031 -0.05640
#
# Static dielectric constant tensor:
#      x y z
#    x 1.871580 0.000000 0.000000 
#    y 0.000000 1.821550 0.000000 
#    z 0.000000 0.000000 1.822620 
# 
# From -- ./inp_files/18550.got.cif
#   From: 2010.05.17/outbox.cif.g08.bks.cpg/sg51_10_cif.got.tgz:18550.got - 2010.06.03 11:52:47.
