data_PCOD9405233
_publ_section_title
;
Structure prediction by ZEFSAII (Michael W. Deem and Ramdas Pophale) SiO2 
 PCOD9405233
Probable space group: P M M A
;
_chemical_formula_sum "Si O2"
_cell_formula_units_Z 32
_cell_length_a 24.598593
_cell_length_b 7.849858
_cell_length_c 9.063153
_cell_angle_alpha 90.000000
_cell_angle_beta 90.000000
_cell_angle_gamma 90.000000
_cell_volume 1750.053716
_symmetry_space_group_name_H-M "P M M A"
_symmetry_group_IT_number 51
_symmetry_cell_setting 'orthorhombic'
loop_
_space_group_symop_operation_xyz
x,y,z
1/2-x,-y,z
1/2+x,-y,-z
-x,y,-z
-x,-y,-z
1/2+x,y,-z
1/2-x,y,z
x,-y,z
loop_
_atom_site_type_symbol
_atom_site_label
_atom_site_fract_x
_atom_site_fract_y
_atom_site_fract_z
Si Si1 0.250000 0.196783 0.433118
Si Si2 0.860476 0.698192 0.072474
Si Si3 0.862147 0.691348 0.425717
Si Si4 0.558599 0.000000 0.073170
Si Si5 0.750000 0.295363 0.902414
Si Si6 0.940854 0.000000 0.428686
O O1 0.304585 0.280994 0.495570
O O2 0.250000 0.210793 0.256911
O O3 0.250000 0.000000 0.479882
O O4 0.873265 0.500000 0.036958
O O5 0.853230 0.708576 0.249449
O O6 0.907052 0.831916 0.030806
O O7 0.804221 0.746186 0.993483
O O8 0.882011 0.500000 0.455444
O O9 0.905357 0.834464 0.471071
O O10 0.553451 0.000000 0.251000
O O11 0.500000 0.000000 0.000000
O O12 0.750000 0.500000 0.880793
O O13 0.000000 0.000000 0.500000
#
# Coordination Sequence:
#
# PCOD9405233 Si02
#       6
#     4   8   8   4   4   4
#     4  12  23  34  54  88 120 147 180 228 279 332
#     4   9  20  38  60  82 109 145 187 226 270 330
#     4  10  20  39  61  82 111 150 187 227 275 331
#     4  10  22  37  56  81 109 146 186 228 275 322
#     4  10  21  36  54  85 117 144 178 225 280 332
#     4  10  22  39  56  83 113 142 192 234 269 330
#
# _framework density 18.285150999999999
#
# number of rings (size 3 to 8) (size 9 to 14) (size 15 to 20)
#    0.000    2.000    1.250    1.875    1.750    5.000 
#    0.000    0.000    0.000    0.000    0.000    0.000 
#    0.000    0.000    0.000    0.000    0.000    0.000 
#
# Total GULP energy -178700.176790 kJ/mol
# GULP energy per Si atom -5584.380525 kJ/mol
# Density = 1.824353 g / cm^3
# Si number density = 18.285151 Si / 1000 Ang^3
#
#
#
# Elastic Constant Matrix: (Units=GPa)
#
#
# Indices 1 2 3 4 5 6 
#
# 1 179.2168 100.8463 52.3072 0.0000 0.0000 0.0000
# 2 100.8463 140.5253 47.7883 0.0000 0.0000 0.0000
# 3 52.3072 47.7883 27.1569 0.0000 0.0000 0.0000
# 4 0.0000 0.0000 0.0000 21.3127 0.0000 0.0000
# 5 0.0000 0.0000 0.0000 0.0000 39.3381 0.0000
# 6 0.0000 0.0000 0.0000 0.0000 0.0000 14.7224
#
#
#
# Elastic Compliance Matrix: (Units=1/GPa)
#
#
# Indices 1 2 3 4 5 6 
#
# 1 0.012971 -0.002023 -0.021424 0.000000 0.000000 0.000000
# 2 -0.002023 0.018036 -0.027842 0.000000 0.000000 0.000000
# 3 -0.021424 -0.027842 0.127081 0.000000 0.000000 0.000000
# 4 0.000000 0.000000 0.000000 0.046920 0.000000 0.000000
# 5 0.000000 0.000000 0.000000 0.000000 0.025421 0.000000
# 6 0.000000 0.000000 0.000000 0.000000 0.000000 0.067924
#
#
# Mechanical properties :
#
#
# Convention : Reuss Voigt Hill
#
# Bulk Modulus (GPa) = 18.01443 83.19808 50.60625
# Shear Modulus (GPa) = 11.92083 24.80511 18.36297
#
# Velocity S-wave (km/s) = 2.55608 3.68716 3.17244
# Velocity P-wave (km/s) = 4.31100 7.98286 6.41525
#
# Compressibility (1/GPa) = 0.05551105
#
# Stress axis : x y z
#
# Youngs Moduli (GPa) = 77.09488 55.44475 7.86899
#
# Poissons Ratio (x) = 0.11216 0.16858
# Poissons Ratio (y) = 0.15596 0.21909
# Poissons Ratio (z) = 1.65167 1.54368
#
# Static dielectric constant tensor:
#      x y z
#    x 1.575560 0.000000 0.000000 
#    y 0.000000 1.646320 0.000000 
#    z 0.000000 0.000000 1.612570 
# 
# From -- ./inp_files/11375.got.cif
#   From: 2010.05.17/outbox.cif.g08.bks.cpg/sg51_6_cif.got.tgz:11375.got - 2010.06.03 11:52:47.
