data_PCOD9405498
_publ_section_title
;
Structure prediction by ZEFSAII (Michael W. Deem and Ramdas Pophale) SiO2 
 PCOD9405498
Probable space group: P M M A
;
_chemical_formula_sum "Si O2"
_cell_formula_units_Z 48
_cell_length_a 7.731313
_cell_length_b 9.052803
_cell_length_c 35.738935
_cell_angle_alpha 90.000000
_cell_angle_beta 90.000000
_cell_angle_gamma 90.000000
_cell_volume 2501.369973
_symmetry_space_group_name_H-M "P M M A"
_symmetry_group_IT_number 51
_symmetry_cell_setting 'orthorhombic'
loop_
_space_group_symop_operation_xyz
x,y,z
1/2-x,-y,z
1/2+x,-y,-z
-x,y,-z
-x,-y,-z
1/2+x,y,-z
1/2-x,y,z
x,-y,z
loop_
_atom_site_type_symbol
_atom_site_label
_atom_site_fract_x
_atom_site_fract_y
_atom_site_fract_z
Si Si1 0.042368 0.665934 0.385262
Si Si2 0.445277 0.819837 0.958099
Si Si3 0.542321 0.167023 0.309296
Si Si4 0.750000 0.179906 0.903799
Si Si5 0.250000 0.178218 0.183039
Si Si6 0.457952 0.830957 0.458910
Si Si7 0.455662 0.323716 0.767439
O O1 0.250000 0.657601 0.388799
O O2 0.974710 0.500000 0.380387
O O3 0.976064 0.739735 0.423492
O O4 0.006402 0.762385 0.348760
O O5 0.250000 0.772120 0.950303
O O6 0.582220 0.770895 0.927126
O O7 0.447195 0.000000 0.958139
O O8 0.500000 0.774863 0.000000
O O9 0.750000 0.160610 0.308368
O O10 0.491349 0.265507 0.273755
O O11 0.474605 0.000000 0.305801
O O12 0.750000 0.222569 0.860590
O O13 0.750000 0.000000 0.904433
O O14 0.419841 0.243091 0.203261
O O15 0.250000 0.000000 0.185769
O O16 0.500000 0.769638 0.500000
O O17 0.250000 0.836813 0.456172
O O18 0.523633 0.000000 0.457279
O O19 0.250000 0.291094 0.772963
O O20 0.477590 0.500000 0.769465
#
# Coordination Sequence:
#
# PCOD9405498 Si02
#       7
#     8   8   8   4   4   8   8
#     4  10  21  35  52  77 109 142 177 218 264 322
#     4   9  14  22  39  62  95 142 191 235 281 339
#     4  10  21  37  58  84 111 139 175 222 279 338
#     4   9  18  29  41  69 107 147 193 235 283 347
#     4  11  23  37  57  85 121 161 199 241 297 363
#     4   9  18  33  51  71  98 134 176 221 268 319
#     4  10  22  41  63  85 113 150 196 247 295 349
#
# _framework density 19.189484
#
# number of rings (size 3 to 8) (size 9 to 14) (size 15 to 20)
#    0.000    2.333    0.833    1.750    1.167    4.667 
#    0.000    3.333    0.000    0.000    0.000    0.000 
#    0.000    2.667    0.000    0.000    0.000    0.000 
#
# Total GULP energy -267886.353757 kJ/mol
# GULP energy per Si atom -5580.965703 kJ/mol
# Density = 1.914581 g / cm^3
# Si number density = 19.189484 Si / 1000 Ang^3
#
#
#
# Elastic Constant Matrix: (Units=GPa)
#
#
# Indices 1 2 3 4 5 6 
#
# 1 91.7634 36.2036 68.4714 0.0000 0.0000 0.0000
# 2 36.2036 78.6336 59.7916 0.0000 0.0000 0.0000
# 3 68.4714 59.7916 190.3915 0.0000 0.0000 0.0000
# 4 0.0000 0.0000 0.0000 -16.3430 0.0000 0.0000
# 5 0.0000 0.0000 0.0000 0.0000 31.3995 0.0000
# 6 0.0000 0.0000 0.0000 0.0000 0.0000 3.8037
#
#
#
# Elastic Compliance Matrix: (Units=1/GPa)
#
#
# Indices 1 2 3 4 5 6 
#
# 1 0.015741 -0.003866 -0.004447 0.000000 0.000000 0.000000
# 2 -0.003866 0.017656 -0.004155 0.000000 0.000000 0.000000
# 3 -0.004447 -0.004155 0.008156 0.000000 0.000000 0.000000
# 4 0.000000 0.000000 0.000000 -0.061188 0.000000 0.000000
# 5 0.000000 0.000000 0.000000 0.000000 0.031848 0.000000
# 6 0.000000 0.000000 0.000000 0.000000 0.000000 0.262901
#
#
# Mechanical properties :
#
#
# Convention : Reuss Voigt Hill
#
# Bulk Modulus (GPa) = 60.17316 76.63575 68.40446
# Shear Modulus (GPa) = 16.36188 16.86017 16.61102
#
# Velocity S-wave (km/s) = 2.92318 2.96736 2.94535
# Velocity P-wave (km/s) = 6.54360 7.19467 6.87685
#
# Compressibility (1/GPa) = 0.01661870
#
# Stress axis : x y z
#
# Youngs Moduli (GPa) = 63.52830 56.63758 122.60436
#
# Poissons Ratio (x) = 0.21896 0.54521
# Poissons Ratio (y) = 0.24560 0.50936
# Poissons Ratio (z) = 0.28251 0.23530
#
# Static dielectric constant tensor:
#      x y z
#    x 1.685810 0.000000 0.000000 
#    y 0.000000 1.661600 0.000000 
#    z 0.000000 0.000000 1.639230 
# 
# From -- ./inp_files/37081.got.cif
#   From: 2010.05.17/outbox.cif.g08.bks.cpg/sg51_19_cif.got.tgz:37081.got - 2010.06.03 11:52:47.
