data_PCOD9405246
_publ_section_title
;
Structure prediction by ZEFSAII (Michael W. Deem and Ramdas Pophale) SiO2 
 PCOD9405246
Probable space group: P M M A
;
_chemical_formula_sum "Si O2"
_cell_formula_units_Z 40
_cell_length_a 10.596402
_cell_length_b 15.027416
_cell_length_c 13.420248
_cell_angle_alpha 90.000000
_cell_angle_beta 90.000000
_cell_angle_gamma 90.000000
_cell_volume 2136.993870
_symmetry_space_group_name_H-M "P M M A"
_symmetry_group_IT_number 51
_symmetry_cell_setting 'orthorhombic'
loop_
_space_group_symop_operation_xyz
x,y,z
1/2-x,-y,z
1/2+x,-y,-z
-x,y,-z
-x,-y,-z
1/2+x,y,-z
1/2-x,y,z
x,-y,z
loop_
_atom_site_type_symbol
_atom_site_label
_atom_site_fract_x
_atom_site_fract_y
_atom_site_fract_z
Si Si1 0.619734 0.397091 0.542783
Si Si2 0.750000 0.105874 0.137699
Si Si3 0.093618 0.000000 0.401059
Si Si4 0.393724 0.341706 0.237164
Si Si5 0.750000 0.106536 0.910382
Si Si6 0.481441 0.148193 0.236642
Si Si7 0.402182 0.500000 0.088924
O O1 0.500000 0.349390 0.500000
O O2 0.750000 0.353135 0.512695
O O3 0.622547 0.500000 0.508171
O O4 0.609998 0.396485 0.660683
O O5 0.621412 0.128934 0.195921
O O6 0.750000 0.000000 0.128300
O O7 0.750000 0.142888 0.023850
O O8 0.057840 0.085488 0.330464
O O9 0.000000 0.000000 0.500000
O O10 0.250000 0.000000 0.419079
O O11 0.250000 0.312019 0.216499
O O12 0.473030 0.253580 0.255904
O O13 0.429677 0.410859 0.152257
O O14 0.623677 0.131046 0.849338
O O15 0.750000 0.000000 0.915516
O O16 0.250000 0.500000 0.066998
O O17 0.500000 0.500000 0.000000
#
# Coordination Sequence:
#
# PCOD9405246 Si02
#       7
#     8   4   4   8   4   8   4
#     4   9  17  33  58  84 110 144 192 245 299 351
#     4  11  24  38  66  97 127 160 203 268 318 374
#     4  12  26  44  69  95 130 176 213 263 325 394
#     4  10  20  39  65  86 119 170 210 250 304 377
#     4  11  20  40  66  93 121 162 207 252 320 378
#     4  12  22  43  64  92 133 166 211 260 318 388
#     4  10  22  42  63  88 124 170 217 260 313 376
#
# _framework density 18.717881999999999
#
# number of rings (size 3 to 8) (size 9 to 14) (size 15 to 20)
#    0.000    1.400    5.000    0.600    1.400    4.000 
#    3.600    0.000    0.000    0.000    0.000    0.000 
#    0.000    0.000    0.000    0.000    0.000    0.000 
#
# Total GULP energy -222693.344239 kJ/mol
# GULP energy per Si atom -5567.333606 kJ/mol
# Density = 1.867528 g / cm^3
# Si number density = 18.717882 Si / 1000 Ang^3
#
#
#
# Elastic Constant Matrix: (Units=GPa)
#
#
# Indices 1 2 3 4 5 6 
#
# 1 171.4711 35.9685 77.3421 0.0000 0.0000 0.0000
# 2 35.9685 83.6472 22.3281 0.0000 0.0000 0.0000
# 3 77.3421 22.3281 93.6477 0.0000 0.0000 0.0000
# 4 0.0000 0.0000 0.0000 -13.5699 0.0000 0.0000
# 5 0.0000 0.0000 0.0000 0.0000 33.2724 0.0000
# 6 0.0000 0.0000 0.0000 0.0000 0.0000 -108.4396
#
#
#
# Elastic Compliance Matrix: (Units=1/GPa)
#
#
# Indices 1 2 3 4 5 6 
#
# 1 0.009646 -0.002159 -0.007452 0.000000 0.000000 0.000000
# 2 -0.002159 0.013251 -0.001377 0.000000 0.000000 0.000000
# 3 -0.007452 -0.001377 0.017161 0.000000 0.000000 0.000000
# 4 0.000000 0.000000 0.000000 -0.073692 0.000000 0.000000
# 5 0.000000 0.000000 0.000000 0.000000 0.030055 0.000000
# 6 0.000000 0.000000 0.000000 0.000000 0.000000 -0.009222
#
#
# Mechanical properties :
#
#
# Convention : Reuss Voigt Hill
#
# Bulk Modulus (GPa) = 55.29885 68.89371 62.09628
# Shear Modulus (GPa) = 328.96802 -3.53893 162.71455
#
# Velocity S-wave (km/s) = 13.27148 -1.37651 9.33374
# Velocity P-wave (km/s) = 16.26193 5.86173 12.22314
#
# Compressibility (1/GPa) = 0.01808356
#
# Stress axis : x y z
#
# Youngs Moduli (GPa) = 103.67286 75.46812 58.27281
#
# Poissons Ratio (x) = 0.16291 0.43422
# Poissons Ratio (y) = 0.22379 0.08021
# Poissons Ratio (z) = 0.77253 0.10388
#
# Static dielectric constant tensor:
#      x y z
#    x 1.693400 0.000000 0.000000 
#    y 0.000000 1.698420 0.000000 
#    z 0.000000 0.000000 1.662780 
# 
# From -- ./inp_files/20619.got.cif
#   From: 2010.05.17/outbox.cif.g08.bks.cpg/sg51_11_cif.got.tgz:20619.got - 2010.06.03 11:52:47.
