data_PCOD9405229
_publ_section_title
;
Structure prediction by ZEFSAII (Michael W. Deem and Ramdas Pophale) SiO2 
 PCOD9405229
Probable space group: P M M A
;
_chemical_formula_sum "Si O2"
_cell_formula_units_Z 44
_cell_length_a 9.086681
_cell_length_b 7.818347
_cell_length_c 31.505094
_cell_angle_alpha 90.000000
_cell_angle_beta 90.000000
_cell_angle_gamma 90.000000
_cell_volume 2238.210884
_symmetry_space_group_name_H-M "P M M A"
_symmetry_group_IT_number 51
_symmetry_cell_setting 'orthorhombic'
loop_
_space_group_symop_operation_xyz
x,y,z
1/2-x,-y,z
1/2+x,-y,-z
-x,y,-z
-x,-y,-z
1/2+x,y,-z
1/2-x,y,z
x,-y,z
loop_
_atom_site_type_symbol
_atom_site_label
_atom_site_fract_x
_atom_site_fract_y
_atom_site_fract_z
Si Si1 0.427071 0.500000 0.546321
Si Si2 0.082146 0.205834 0.866430
Si Si3 0.572934 0.804825 0.598705
Si Si4 0.078705 0.703072 0.309202
Si Si5 0.417825 0.294141 0.958162
Si Si6 0.581422 0.206508 0.782355
O O1 0.250000 0.500000 0.544021
O O2 0.500000 0.500000 0.500000
O O3 0.486956 0.666384 0.571215
O O4 0.250000 0.270911 0.866237
O O5 0.015079 0.250261 0.912280
O O6 0.000204 0.268504 0.824472
O O7 0.086147 0.000000 0.863966
O O8 0.750000 0.767577 0.597681
O O9 0.522161 0.788326 0.647852
O O10 0.552133 0.000000 0.584312
O O11 0.250000 0.759528 0.305955
O O12 0.075151 0.500000 0.315919
O O13 0.012964 0.743047 0.263070
O O14 0.250000 0.228940 0.958358
O O15 0.413434 0.500000 0.960704
O O16 0.500000 0.230219 0.000000
O O17 0.750000 0.269135 0.783665
O O18 0.583819 0.000000 0.783419
#
# Coordination Sequence:
#
# PCOD9405229 Si02
#       6
#     4   8   8   8   8   8
#     4  12  26  44  66  92 128 166 206 256 305 358
#     4   9  18  32  47  64  91 126 160 199 251 309
#     4  10  20  38  66  95 124 162 206 252 305 361
#     4   9  16  29  53  83 114 146 186 233 279 332
#     4   9  18  32  48  65  86 114 150 193 245 304
#     4   9  17  29  46  71 101 134 173 214 258 311
#
# _framework density 19.658557999999999
#
# number of rings (size 3 to 8) (size 9 to 14) (size 15 to 20)
#    0.000    2.545    0.909    1.364    0.000    4.727 
#    0.000    0.909    0.000    2.182    0.000    0.000 
#    0.000    0.000    0.000    0.000    0.000    0.000 
#
# Total GULP energy -245326.634918 kJ/mol
# GULP energy per Si atom -5575.605339 kJ/mol
# Density = 1.961381 g / cm^3
# Si number density = 19.658558 Si / 1000 Ang^3
#
#
#
# Elastic Constant Matrix: (Units=GPa)
#
#
# Indices 1 2 3 4 5 6 
#
# 1 57.9820 30.9225 64.0074 0.0000 0.0000 0.0000
# 2 30.9225 60.0681 48.2127 0.0000 0.0000 0.0000
# 3 64.0074 48.2127 194.7650 0.0000 0.0000 0.0000
# 4 0.0000 0.0000 0.0000 36.6122 0.0000 0.0000
# 5 0.0000 0.0000 0.0000 0.0000 30.2890 0.0000
# 6 0.0000 0.0000 0.0000 0.0000 0.0000 13.1452
#
#
#
# Elastic Compliance Matrix: (Units=1/GPa)
#
#
# Indices 1 2 3 4 5 6 
#
# 1 0.031033 -0.009721 -0.007792 0.000000 0.000000 0.000000
# 2 -0.009721 0.023821 -0.002702 0.000000 0.000000 0.000000
# 3 -0.007792 -0.002702 0.008364 0.000000 0.000000 0.000000
# 4 0.000000 0.000000 0.000000 0.027313 0.000000 0.000000
# 5 0.000000 0.000000 0.000000 0.000000 0.033015 0.000000
# 6 0.000000 0.000000 0.000000 0.000000 0.000000 0.076073
#
#
# Mechanical properties :
#
#
# Convention : Reuss Voigt Hill
#
# Bulk Modulus (GPa) = 43.88420 66.56669 55.22545
# Shear Modulus (GPa) = 20.19004 27.32077 23.75540
#
# Velocity S-wave (km/s) = 3.20822 3.73200 3.47998
# Velocity P-wave (km/s) = 6.00793 7.24606 6.65585
#
# Compressibility (1/GPa) = 0.02278724
#
# Stress axis : x y z
#
# Youngs Moduli (GPa) = 32.22346 41.98010 119.55873
#
# Poissons Ratio (x) = 0.40810 0.93164
# Poissons Ratio (y) = 0.31325 0.32303
# Poissons Ratio (z) = 0.25110 0.11343
#
# Static dielectric constant tensor:
#      x y z
#    x 1.688930 0.000000 0.000000 
#    y 0.000000 1.695880 0.000000 
#    z 0.000000 0.000000 1.717760 
# 
# From -- ./inp_files/36781.got.cif
#   From: 2010.05.17/outbox.cif.g08.bks.cpg/sg51_19_cif.got.tgz:36781.got - 2010.06.03 11:52:47.
