data_PCOD9405634
_publ_section_title
;
Structure prediction by ZEFSAII (Michael W. Deem and Ramdas Pophale) SiO2 
 PCOD9405634
Probable space group: P M M A
;
_chemical_formula_sum "Si O2"
_cell_formula_units_Z 56
_cell_length_a 14.469459
_cell_length_b 9.328928
_cell_length_c 21.785752
_cell_angle_alpha 90.000000
_cell_angle_beta 90.000000
_cell_angle_gamma 90.000000
_cell_volume 2940.739739
_symmetry_space_group_name_H-M "P M M A"
_symmetry_group_IT_number 51
_symmetry_cell_setting 'orthorhombic'
loop_
_space_group_symop_operation_xyz
x,y,z
1/2-x,-y,z
1/2+x,-y,-z
-x,y,-z
-x,-y,-z
1/2+x,y,-z
1/2-x,y,z
x,-y,z
loop_
_atom_site_type_symbol
_atom_site_label
_atom_site_fract_x
_atom_site_fract_y
_atom_site_fract_z
Si Si1 0.458662 0.827852 0.786012
Si Si2 0.639095 0.334610 0.454820
Si Si3 0.354422 0.174008 0.153360
Si Si4 0.357886 0.671141 0.402636
Si Si5 0.362353 0.835012 0.016452
Si Si6 0.138176 0.334539 0.896188
Si Si7 0.972252 0.171153 0.351753
O O1 0.565836 0.788474 0.799131
O O2 0.398891 0.749100 0.837164
O O3 0.434861 0.791683 0.715970
O O4 0.449724 0.000000 0.793837
O O5 0.750000 0.328471 0.448530
O O6 0.609878 0.500000 0.444758
O O7 0.618549 0.298132 0.525761
O O8 0.590651 0.234660 0.405622
O O9 0.250000 0.225061 0.166289
O O10 0.350043 0.000000 0.150834
O O11 0.385189 0.219155 0.084745
O O12 0.250000 0.705688 0.392983
O O13 0.368790 0.500000 0.394066
O O14 0.427117 0.759593 0.360963
O O15 0.250000 0.836654 0.015692
O O16 0.393791 0.741711 0.959069
O O17 0.392599 0.000000 0.009381
O O18 0.250000 0.329729 0.895884
O O19 0.109345 0.500000 0.894802
O O20 0.978042 0.000000 0.355945
#
# Coordination Sequence:
#
# PCOD9405634 Si02
#       7
#     8   8   8   8   8   8   8
#     4  10  22  37  52  74 105 142 179 211 249 303
#     4   9  19  37  60  82 104 137 180 220 260 310
#     4   8  15  31  55  78  99 129 172 215 252 301
#     4   9  19  37  60  83 106 137 178 218 257 308
#     4   8  14  28  53  79  98 123 164 213 263 310
#     4  10  21  36  53  74 102 135 171 215 265 312
#     4  11  23  35  51  80 114 144 174 215 268 315
#
# _framework density 19.042828
#
# number of rings (size 3 to 8) (size 9 to 14) (size 15 to 20)
#    0.000    2.714    0.000    3.000    0.000    6.571 
#    0.000    9.286    0.000    1.286    0.000    0.000 
#    0.000    0.000    0.000    0.000    0.000    0.000 
#
# Total GULP energy -312519.613718 kJ/mol
# GULP energy per Si atom -5580.707388 kJ/mol
# Density = 1.899949 g / cm^3
# Si number density = 19.042828 Si / 1000 Ang^3
#
#
#
# Elastic Constant Matrix: (Units=GPa)
#
#
# Indices 1 2 3 4 5 6 
#
# 1 22.8059 0.8971 -2.9020 0.0000 0.0000 0.0000
# 2 0.8971 36.5314 26.4741 0.0000 0.0000 0.0000
# 3 -2.9020 26.4741 55.1424 0.0000 0.0000 0.0000
# 4 0.0000 0.0000 0.0000 1699.7195 0.0000 0.0000
# 5 0.0000 0.0000 0.0000 0.0000 13.6912 0.0000
# 6 0.0000 0.0000 0.0000 0.0000 0.0000 17.3143
#
#
#
# Elastic Compliance Matrix: (Units=1/GPa)
#
#
# Indices 1 2 3 4 5 6 
#
# 1 0.044577 -0.004286 0.004404 0.000000 0.000000 0.000000
# 2 -0.004286 0.042392 -0.020578 0.000000 0.000000 0.000000
# 3 0.004404 -0.020578 0.028246 0.000000 0.000000 0.000000
# 4 0.000000 0.000000 0.000000 0.000588 0.000000 0.000000
# 5 0.000000 0.000000 0.000000 0.000000 0.073040 0.000000
# 6 0.000000 0.000000 0.000000 0.000000 0.000000 0.057756
#
#
# Mechanical properties :
#
#
# Convention : Reuss Voigt Hill
#
# Bulk Modulus (GPa) = 13.45992 18.15756 15.80874
# Shear Modulus (GPa) = 16.01104 352.14570 184.07837
#
# Velocity S-wave (km/s) = 2.90279 13.61339 9.84253
# Velocity P-wave (km/s) = 4.28001 16.02046 11.72548
#
# Compressibility (1/GPa) = 0.07429462
#
# Stress axis : x y z
#
# Youngs Moduli (GPa) = 22.43291 23.58949 35.40296
#
# Poissons Ratio (x) = 0.10111 -0.15591
# Poissons Ratio (y) = 0.09615 0.72852
# Poissons Ratio (z) = -0.09879 0.48543
#
# Static dielectric constant tensor:
#      x y z
#    x 1.688720 0.000000 0.000000 
#    y 0.000000 1.630330 0.000000 
#    z 0.000000 0.000000 1.647260 
# 
# From -- ./inp_files/33346.got.cif
#   From: 2010.05.17/outbox.cif.g08.bks.cpg/sg51_17_cif.got.tgz:33346.got - 2010.06.03 11:52:47.
