data_PCOD9405875
_publ_section_title
;
Structure prediction by ZEFSAII (Michael W. Deem and Ramdas Pophale) SiO2 
 PCOD9405875
Probable space group: P M M A
;
_chemical_formula_sum "Si O2"
_cell_formula_units_Z 56
_cell_length_a 21.153582
_cell_length_b 7.747035
_cell_length_c 15.746743
_cell_angle_alpha 90.000000
_cell_angle_beta 90.000000
_cell_angle_gamma 90.000000
_cell_volume 2580.537508
_symmetry_space_group_name_H-M "P M M A"
_symmetry_group_IT_number 51
_symmetry_cell_setting 'orthorhombic'
loop_
_space_group_symop_operation_xyz
x,y,z
1/2-x,-y,z
1/2+x,-y,-z
-x,y,-z
-x,-y,-z
1/2+x,y,-z
1/2-x,y,z
x,-y,z
loop_
_atom_site_type_symbol
_atom_site_label
_atom_site_fract_x
_atom_site_fract_y
_atom_site_fract_z
Si Si1 0.250000 0.201566 0.784450
Si Si2 0.609107 0.200422 0.680043
Si Si3 0.617368 0.790931 0.487752
Si Si4 0.966557 0.706350 0.329149
Si Si5 0.114210 0.698208 0.827577
Si Si6 0.750000 0.797370 0.417343
Si Si7 0.822855 0.296307 0.852163
Si Si8 0.426208 0.711637 0.008716
O O1 0.311805 0.293142 0.816532
O O2 0.250000 0.211422 0.683175
O O3 0.250000 0.000000 0.808666
O O4 0.614729 0.273587 0.584430
O O5 0.534220 0.217010 0.694927
O O6 0.650292 0.277556 0.756274
O O7 0.627345 0.000000 0.676819
O O8 0.561156 0.746484 0.422446
O O9 0.683877 0.725371 0.450377
O O10 0.617107 0.000000 0.490495
O O11 0.972253 0.500000 0.325271
O O12 0.917875 0.771774 0.257155
O O13 0.091868 0.500000 0.832059
O O14 0.099902 0.775138 0.918603
O O15 0.750000 0.000000 0.442424
O O16 0.750000 0.227344 0.860136
O O17 0.818114 0.500000 0.870278
O O18 0.878417 0.228757 0.916022
O O19 0.425802 0.500000 0.014516
O O20 0.500000 0.760933 0.000000
#
# Coordination Sequence:
#
# PCOD9405875 Si02
#       8
#     4   8   8   8   8   4   8   8
#     4  11  21  35  57  84 117 156 190 235 289 343
#     4  11  24  39  61  85 114 158 203 244 291 352
#     4  10  21  38  59  83 114 156 203 241 287 352
#     4  11  22  37  59  89 123 153 189 245 300 348
#     4  10  21  36  60  89 117 151 191 236 288 353
#     4   9  18  35  57  78 109 152 192 237 283 337
#     4  10  22  40  62  88 118 154 200 254 305 351
#     4   9  18  36  63  90 116 151 194 240 294 356
#
# _framework density 21.700906
#
# number of rings (size 3 to 8) (size 9 to 14) (size 15 to 20)
#    0.000    1.857    1.429    2.357    2.000    6.000 
#    0.000    1.071    0.000    1.714    0.000    0.000 
#    0.000    0.000    0.000    0.000    0.000    0.000 
#
# Total GULP energy -312356.659157 kJ/mol
# GULP energy per Si atom -5577.797485 kJ/mol
# Density = 2.165151 g / cm^3
# Si number density = 21.700906 Si / 1000 Ang^3
#
#
#
# Elastic Constant Matrix: (Units=GPa)
#
#
# Indices 1 2 3 4 5 6 
#
# 1 117.9415 0.2121 18.1742 0.0000 0.0000 0.0000
# 2 0.2121 32.2759 18.7007 0.0000 0.0000 0.0000
# 3 18.1742 18.7007 65.3663 0.0000 0.0000 0.0000
# 4 0.0000 0.0000 0.0000 -934.3217 0.0000 0.0000
# 5 0.0000 0.0000 0.0000 0.0000 44.4743 0.0000
# 6 0.0000 0.0000 0.0000 0.0000 0.0000 10.7729
#
#
#
# Elastic Compliance Matrix: (Units=1/GPa)
#
#
# Indices 1 2 3 4 5 6 
#
# 1 0.008931 0.001654 -0.002957 0.000000 0.000000 0.000000
# 2 0.001654 0.037446 -0.011173 0.000000 0.000000 0.000000
# 3 -0.002957 -0.011173 0.019317 0.000000 0.000000 0.000000
# 4 0.000000 0.000000 0.000000 -0.001070 0.000000 0.000000
# 5 0.000000 0.000000 0.000000 0.000000 0.022485 0.000000
# 6 0.000000 0.000000 0.000000 0.000000 0.000000 0.092825
#
#
# Mechanical properties :
#
#
# Convention : Reuss Voigt Hill
#
# Bulk Modulus (GPa) = 24.54363 32.19531 28.36947
# Shear Modulus (GPa) = 22.88695 -163.91512 -70.51408
#
# Velocity S-wave (km/s) = 3.25107 -8.70045 -5.70650
# Velocity P-wave (km/s) = 5.04253 9.27697 5.50614
#
# Compressibility (1/GPa) = 0.04074376
#
# Stress axis : x y z
#
# Youngs Moduli (GPa) = 111.96463 26.70547 51.76826
#
# Poissons Ratio (x) = -0.04418 0.15305
# Poissons Ratio (y) = -0.18523 0.57840
# Poissons Ratio (z) = 0.33103 0.29837
#
# Static dielectric constant tensor:
#      x y z
#    x 1.924610 0.000000 0.000000 
#    y 0.000000 1.834900 0.000000 
#    z 0.000000 0.000000 1.780620 
# 
# From -- ./inp_files/25908.got.cif
#   From: 2010.05.17/outbox.cif.g08.bks.cpg/sg51_13_cif.got.tgz:25908.got - 2010.06.03 11:52:47.
