data_PCOD9405814
_publ_section_title
;
Structure prediction by ZEFSAII (Michael W. Deem and Ramdas Pophale) SiO2 
 PCOD9405814
Probable space group: P M M A
;
_chemical_formula_sum "Si O2"
_cell_formula_units_Z 48
_cell_length_a 8.569894
_cell_length_b 31.738235
_cell_length_c 9.145492
_cell_angle_alpha 90.000000
_cell_angle_beta 90.000000
_cell_angle_gamma 90.000000
_cell_volume 2487.512638
_symmetry_space_group_name_H-M "P M M A"
_symmetry_group_IT_number 51
_symmetry_cell_setting 'orthorhombic'
loop_
_space_group_symop_operation_xyz
x,y,z
1/2-x,-y,z
1/2+x,-y,-z
-x,y,-z
-x,-y,-z
1/2+x,y,-z
1/2-x,y,z
x,-y,z
loop_
_atom_site_type_symbol
_atom_site_label
_atom_site_fract_x
_atom_site_fract_y
_atom_site_fract_z
Si Si1 0.561909 0.000000 0.664536
Si Si2 0.562181 0.752673 0.835106
Si Si3 0.561309 0.584092 0.835408
Si Si4 0.563480 0.165950 0.335149
Si Si5 0.561426 0.500000 0.664539
Si Si6 0.938302 0.331999 0.664488
Si Si7 0.062113 0.084534 0.164932
O O1 0.500000 0.000000 0.500000
O O2 0.512711 0.958045 0.751095
O O3 0.750000 0.000000 0.659480
O O4 0.750000 0.754726 0.836808
O O5 0.496918 0.792655 0.748054
O O6 0.513853 0.709697 0.753131
O O7 0.500000 0.752803 0.000000
O O8 0.750000 0.584218 0.839298
O O9 0.510554 0.541953 0.750490
O O10 0.509575 0.625812 0.748431
O O11 0.500000 0.584368 0.000000
O O12 0.500000 0.165703 0.500000
O O13 0.750000 0.165822 0.337174
O O14 0.502352 0.124929 0.250194
O O15 0.750000 0.500000 0.660513
O O16 0.500000 0.500000 0.500000
O O17 0.750000 0.332483 0.659820
O O18 0.000000 0.331023 0.500000
O O19 0.250000 0.086309 0.163084
O O20 0.000000 0.084155 0.000000
#
# Coordination Sequence:
#
# PCOD9405814 Si02
#       7
#     4   8   8   8   4   8   8
#     4  10  23  40  62  90 122 158 199 244 293 346
#     4  11  23  40  61  87 117 153 194 240 291 347
#     4  10  21  37  56  83 114 148 189 235 283 340
#     4  12  25  42  63  89 120 156 196 243 293 348
#     4  10  21  36  56  82 114 148 189 234 282 338
#     4  10  22  38  58  84 115 149 191 237 287 343
#     4  11  23  41  63  91 123 159 200 244 293 347
#
# _framework density 19.296382999999999
#
# number of rings (size 3 to 8) (size 9 to 14) (size 15 to 20)
#    0.000    1.333    0.000    5.500    0.000    6.667 
#    0.000    0.000    0.000    0.000    0.000    0.000 
#    0.000    0.000    0.000    0.000    0.000    0.000 
#
# Total GULP energy -268542.253775 kJ/mol
# GULP energy per Si atom -5594.630287 kJ/mol
# Density = 1.925246 g / cm^3
# Si number density = 19.296383 Si / 1000 Ang^3
#
#
#
# Elastic Constant Matrix: (Units=GPa)
#
#
# Indices 1 2 3 4 5 6 
#
# 1 60.5334 58.7216 52.2154 0.0000 0.0000 0.0000
# 2 58.7216 244.5835 148.7169 0.0000 0.0000 0.0000
# 3 52.2154 148.7169 243.0193 0.0000 0.0000 0.0000
# 4 0.0000 0.0000 0.0000 46.7656 0.0000 0.0000
# 5 0.0000 0.0000 0.0000 0.0000 44.3123 0.0000
# 6 0.0000 0.0000 0.0000 0.0000 0.0000 -8.6043
#
#
#
# Elastic Compliance Matrix: (Units=1/GPa)
#
#
# Indices 1 2 3 4 5 6 
#
# 1 0.022397 -0.003904 -0.002423 0.000000 0.000000 0.000000
# 2 -0.003904 0.007192 -0.003562 0.000000 0.000000 0.000000
# 3 -0.002423 -0.003562 0.006816 0.000000 0.000000 0.000000
# 4 0.000000 0.000000 0.000000 0.021383 0.000000 0.000000
# 5 0.000000 0.000000 0.000000 0.000000 0.022567 0.000000
# 6 0.000000 0.000000 0.000000 0.000000 0.000000 -0.116222
#
#
# Mechanical properties :
#
#
# Convention : Reuss Voigt Hill
#
# Bulk Modulus (GPa) = 60.14811 118.60489 89.37650
# Shear Modulus (GPa) = -474.11515 35.72687 -219.19414
#
# Velocity S-wave (km/s) = -15.69188 4.30755 -10.66958
# Velocity P-wave (km/s) = 17.23586 9.29184 10.26491
#
# Compressibility (1/GPa) = 0.01662563
#
# Stress axis : x y z
#
# Youngs Moduli (GPa) = 44.64871 139.04547 146.72289
#
# Poissons Ratio (x) = 0.54281 0.35556
# Poissons Ratio (y) = 0.17430 0.52268
# Poissons Ratio (z) = 0.10820 0.49533
#
# Static dielectric constant tensor:
#      x y z
#    x 1.654090 0.000000 0.000000 
#    y 0.000000 1.658420 0.000000 
#    z 0.000000 0.000000 1.612960 
# 
# From -- ./inp_files/6161.got.cif
#   From: 2010.05.17/outbox.cif.g08.bks.cpg/sg51_4_cif.got.tgz:6161.got - 2010.06.03 11:52:47.
