data_PCOD9405943
_publ_section_title
;
Structure prediction by ZEFSAII (Michael W. Deem and Ramdas Pophale) SiO2 
 PCOD9405943
Probable space group: P M M A
;
_chemical_formula_sum "Si O2"
_cell_formula_units_Z 56
_cell_length_a 13.965110
_cell_length_b 9.106331
_cell_length_c 21.758201
_cell_angle_alpha 90.000000
_cell_angle_beta 90.000000
_cell_angle_gamma 90.000000
_cell_volume 2767.010311
_symmetry_space_group_name_H-M "P M M A"
_symmetry_group_IT_number 51
_symmetry_cell_setting 'orthorhombic'
loop_
_space_group_symop_operation_xyz
x,y,z
1/2-x,-y,z
1/2+x,-y,-z
-x,y,-z
-x,-y,-z
1/2+x,y,-z
1/2-x,y,z
x,-y,z
loop_
_atom_site_type_symbol
_atom_site_label
_atom_site_fract_x
_atom_site_fract_y
_atom_site_fract_z
Si Si1 0.132959 0.830380 0.968869
Si Si2 0.863529 0.173492 0.779053
Si Si3 0.355439 0.821871 0.465764
Si Si4 0.031251 0.675538 0.718504
Si Si5 0.054043 0.177067 0.594925
Si Si6 0.133543 0.332269 0.092927
Si Si7 0.863284 0.325745 0.155456
O O1 0.250000 0.824818 0.968650
O O2 0.101219 0.756784 0.905282
O O3 0.105240 0.000000 0.971556
O O4 0.102172 0.745139 0.030124
O O5 0.750000 0.193944 0.769479
O O6 0.888689 0.242665 0.845443
O O7 0.926460 0.255147 0.728396
O O8 0.883507 0.000000 0.778732
O O9 0.250000 0.768607 0.447804
O O10 0.379611 0.785352 0.536657
O O11 0.446103 0.776965 0.424974
O O12 0.354744 0.000000 0.462866
O O13 0.027203 0.500000 0.714239
O O14 0.078315 0.744261 0.658156
O O15 0.087372 0.716123 0.780844
O O16 0.055934 0.000000 0.602293
O O17 0.250000 0.337037 0.090422
O O18 0.099133 0.500000 0.097403
O O19 0.750000 0.297543 0.161082
O O20 0.875992 0.500000 0.146326
#
# Coordination Sequence:
#
# PCOD9405943 Si02
#       7
#     8   8   8   8   8   8   8
#     4   9  16  27  47  75 103 132 172 224 277 324
#     4  10  21  37  56  77 103 138 181 227 272 320
#     4   8  15  31  56  83 109 138 174 216 259 303
#     4  11  23  37  54  78 111 147 180 219 266 317
#     4   9  18  33  54  80 108 139 177 217 256 305
#     4   9  16  28  49  75 103 136 173 217 273 332
#     4   9  19  36  54  72 100 141 184 222 267 324
#
# _framework density 20.238451000000001
#
# number of rings (size 3 to 8) (size 9 to 14) (size 15 to 20)
#    0.000    2.714    0.000    2.571    0.000    6.571 
#    0.000    3.571    0.000    5.143    0.000    0.000 
#    0.000    0.000    0.000    0.000    0.000    0.000 
#
# Total GULP energy -312795.445672 kJ/mol
# GULP energy per Si atom -5585.632958 kJ/mol
# Density = 2.019239 g / cm^3
# Si number density = 20.238451 Si / 1000 Ang^3
#
#
#
# Elastic Constant Matrix: (Units=GPa)
#
#
# Indices 1 2 3 4 5 6 
#
# 1 52.3031 0.2435 -4.2388 0.0000 0.0000 0.0000
# 2 0.2435 47.5891 20.8190 0.0000 0.0000 0.0000
# 3 -4.2388 20.8190 67.5824 0.0000 0.0000 0.0000
# 4 0.0000 0.0000 0.0000 44.3928 0.0000 0.0000
# 5 0.0000 0.0000 0.0000 0.0000 14.5076 0.0000
# 6 0.0000 0.0000 0.0000 0.0000 0.0000 8.6557
#
#
#
# Elastic Compliance Matrix: (Units=1/GPa)
#
#
# Indices 1 2 3 4 5 6 
#
# 1 0.019239 -0.000724 0.001430 0.000000 0.000000 0.000000
# 2 -0.000724 0.024313 -0.007535 0.000000 0.000000 0.000000
# 3 0.001430 -0.007535 0.017208 0.000000 0.000000 0.000000
# 4 0.000000 0.000000 0.000000 0.022526 0.000000 0.000000
# 5 0.000000 0.000000 0.000000 0.000000 0.068930 0.000000
# 6 0.000000 0.000000 0.000000 0.000000 0.000000 0.115530
#
#
# Mechanical properties :
#
#
# Convention : Reuss Voigt Hill
#
# Bulk Modulus (GPa) = 21.23112 22.34690 21.78901
# Shear Modulus (GPa) = 16.82908 23.55462 20.19185
#
# Velocity S-wave (km/s) = 2.88677 3.41523 3.16206
# Velocity P-wave (km/s) = 4.65022 5.15922 4.91132
#
# Compressibility (1/GPa) = 0.04710068
#
# Stress axis : x y z
#
# Youngs Moduli (GPa) = 51.97899 41.12961 58.11359
#
# Poissons Ratio (x) = 0.02977 -0.08308
# Poissons Ratio (y) = 0.03763 0.43790
# Poissons Ratio (z) = -0.07431 0.30992
#
# Static dielectric constant tensor:
#      x y z
#    x 1.784300 0.000000 0.000000 
#    y 0.000000 1.672130 0.000000 
#    z 0.000000 0.000000 1.681390 
# 
# From -- ./inp_files/33296.got.cif
#   From: 2010.05.17/outbox.cif.g08.bks.cpg/sg51_17_cif.got.tgz:33296.got - 2010.06.03 11:52:47.
