data_PCOD9405652
_publ_section_title
;
Structure prediction by ZEFSAII (Michael W. Deem and Ramdas Pophale) SiO2 
 PCOD9405652
Probable space group: P M M A
;
_chemical_formula_sum "Si O2"
_cell_formula_units_Z 56
_cell_length_a 19.636603
_cell_length_b 8.300617
_cell_length_c 18.474918
_cell_angle_alpha 90.000000
_cell_angle_beta 90.000000
_cell_angle_gamma 90.000000
_cell_volume 3011.336269
_symmetry_space_group_name_H-M "P M M A"
_symmetry_group_IT_number 51
_symmetry_cell_setting 'orthorhombic'
loop_
_space_group_symop_operation_xyz
x,y,z
1/2-x,-y,z
1/2+x,-y,-z
-x,y,-z
-x,-y,-z
1/2+x,y,-z
1/2-x,y,z
x,-y,z
loop_
_atom_site_type_symbol
_atom_site_label
_atom_site_fract_x
_atom_site_fract_y
_atom_site_fract_z
Si Si1 0.167184 0.813981 0.474436
Si Si2 0.827986 0.305302 0.089058
Si Si3 0.328367 0.804924 0.316781
Si Si4 0.571794 0.807202 0.966042
Si Si5 0.671329 0.804807 0.367601
Si Si6 0.565504 0.307276 0.802413
Si Si7 0.587534 0.694669 0.229761
O O1 0.250000 0.817305 0.474234
O O2 0.148071 0.743199 0.396373
O O3 0.148569 0.743498 0.552688
O O4 0.143517 0.000000 0.474597
O O5 0.750000 0.249165 0.090371
O O6 0.827661 0.500000 0.090152
O O7 0.868855 0.249733 0.160267
O O8 0.868025 0.250276 0.018113
O O9 0.250000 0.752969 0.304609
O O10 0.377914 0.753239 0.253223
O O11 0.327596 0.000000 0.320691
O O12 0.578946 0.747397 0.884296
O O13 0.570467 0.000000 0.965562
O O14 0.500000 0.748208 0.000000
O O15 0.750000 0.753616 0.354802
O O16 0.623313 0.750524 0.303052
O O17 0.671777 0.000000 0.370796
O O18 0.564998 0.500000 0.801006
O O19 0.490191 0.249099 0.779012
O O20 0.587431 0.500000 0.228956
#
# Coordination Sequence:
#
# PCOD9405652 Si02
#       7
#     8   8   8   8   8   8   8
#     4   7  12  27  51  77 105 139 178 221 272 322
#     4  10  21  38  60  83 109 144 183 222 266 319
#     4   9  18  35  59  83 108 139 179 230 279 321
#     4  11  23  39  60  83 107 138 178 224 272 321
#     4   9  17  30  52  81 109 140 182 228 270 317
#     4  11  23  38  58  80 108 146 183 219 265 323
#     4  10  21  36  53  76 110 149 183 217 263 318
#
# _framework density 18.596395999999999
#
# number of rings (size 3 to 8) (size 9 to 14) (size 15 to 20)
#    0.000    2.429    1.429    3.000    0.000    4.286 
#    0.000    1.429    0.000    6.857    0.000    0.000 
#    0.000    0.000    0.000    0.000    0.000    0.000 
#
# Total GULP energy -312337.575894 kJ/mol
# GULP energy per Si atom -5577.456712 kJ/mol
# Density = 1.855407 g / cm^3
# Si number density = 18.596396 Si / 1000 Ang^3
#
#
#
# Elastic Constant Matrix: (Units=GPa)
#
#
# Indices 1 2 3 4 5 6 
#
# 1 132.8887 20.2485 107.9852 0.0000 0.0000 0.0000
# 2 20.2485 11.7538 18.7857 0.0000 0.0000 0.0000
# 3 107.9852 18.7857 222.6414 0.0000 0.0000 0.0000
# 4 0.0000 0.0000 0.0000 43.1022 0.0000 0.0000
# 5 0.0000 0.0000 0.0000 0.0000 18.0937 0.0000
# 6 0.0000 0.0000 0.0000 0.0000 0.0000 20.5892
#
#
#
# Elastic Compliance Matrix: (Units=1/GPa)
#
#
# Indices 1 2 3 4 5 6 
#
# 1 0.014638 -0.016032 -0.005747 0.000000 0.000000 0.000000
# 2 -0.016032 0.115900 -0.002003 0.000000 0.000000 0.000000
# 3 -0.005747 -0.002003 0.007448 0.000000 0.000000 0.000000
# 4 0.000000 0.000000 0.000000 0.023201 0.000000 0.000000
# 5 0.000000 0.000000 0.000000 0.000000 0.055268 0.000000
# 6 0.000000 0.000000 0.000000 0.000000 0.000000 0.048569
#
#
# Mechanical properties :
#
#
# Convention : Reuss Voigt Hill
#
# Bulk Modulus (GPa) = 11.05939 73.48030 42.26984
# Shear Modulus (GPa) = 14.58884 31.04132 22.81508
#
# Velocity S-wave (km/s) = 2.80393 4.09003 3.50645
# Velocity P-wave (km/s) = 4.05495 7.86787 6.25884
#
# Compressibility (1/GPa) = 0.09042091
#
# Stress axis : x y z
#
# Youngs Moduli (GPa) = 68.31604 8.62816 134.26547
#
# Poissons Ratio (x) = 0.13833 0.77161
# Poissons Ratio (y) = 1.09524 0.26899
# Poissons Ratio (z) = 0.39261 0.01729
#
# Static dielectric constant tensor:
#      x y z
#    x 1.625660 0.000000 0.000000 
#    y 0.000000 1.653930 0.000000 
#    z 0.000000 0.000000 1.642170 
# 
# From -- ./inp_files/25675.got.cif
#   From: 2010.05.17/outbox.cif.g08.bks.cpg/sg51_13_cif.got.tgz:25675.got - 2010.06.03 11:52:47.
