data_PCOD9405542
_publ_section_title
;
Structure prediction by ZEFSAII (Michael W. Deem and Ramdas Pophale) SiO2 
 PCOD9405542
Probable space group: P M M A
;
_chemical_formula_sum "Si O2"
_cell_formula_units_Z 48
_cell_length_a 16.569445
_cell_length_b 7.539258
_cell_length_c 17.226256
_cell_angle_alpha 90.000000
_cell_angle_beta 90.000000
_cell_angle_gamma 90.000000
_cell_volume 2151.926651
_symmetry_space_group_name_H-M "P M M A"
_symmetry_group_IT_number 51
_symmetry_cell_setting 'orthorhombic'
loop_
_space_group_symop_operation_xyz
x,y,z
1/2-x,-y,z
1/2+x,-y,-z
-x,y,-z
-x,-y,-z
1/2+x,y,-z
1/2-x,y,z
x,-y,z
loop_
_atom_site_type_symbol
_atom_site_label
_atom_site_fract_x
_atom_site_fract_y
_atom_site_fract_z
Si Si1 0.081285 0.717498 0.045614
Si Si2 0.250000 0.284177 0.966816
Si Si3 0.086869 0.204833 0.700304
Si Si4 0.156956 0.789272 0.543812
Si Si5 0.250000 0.714149 0.787178
Si Si6 0.928649 0.298090 0.779218
Si Si7 0.657484 0.713799 0.626770
O O1 0.079564 0.500000 0.045237
O O2 0.079102 0.779488 0.135066
O O3 0.166037 0.772386 0.006812
O O4 0.000000 0.773300 0.000000
O O5 0.250000 0.500000 0.969555
O O6 0.250000 0.231749 0.876892
O O7 0.102325 0.280090 0.614036
O O8 0.171875 0.216397 0.743267
O O9 0.021108 0.300964 0.752389
O O10 0.060882 0.000000 0.694636
O O11 0.250000 0.719161 0.547189
O O12 0.123067 0.762533 0.457483
O O13 0.162720 0.000000 0.557008
O O14 0.250000 0.500000 0.783622
O O15 0.897588 0.500000 0.786432
O O16 0.883842 0.217170 0.704716
O O17 0.750000 0.774345 0.625914
O O18 0.655728 0.500000 0.629549
#
# Coordination Sequence:
#
# PCOD9405542 Si02
#       7
#     8   4   8   8   4   8   8
#     4   9  17  31  52  80 114 145 182 232 281 335
#     4   9  18  31  55  86 111 144 184 229 287 341
#     4  11  22  37  56  80 113 149 187 226 275 334
#     4   9  18  35  55  75 103 143 189 227 266 326
#     4  11  21  35  59  88 113 138 182 233 283 335
#     4  10  21  35  54  82 114 145 185 234 280 328
#     4   9  19  34  53  79 111 145 183 231 285 330
#
# _framework density 22.305593999999999
#
# number of rings (size 3 to 8) (size 9 to 14) (size 15 to 20)
#    0.000    2.333    0.833    1.750    1.167    5.333 
#    0.000    3.333    0.000    5.500    0.000    0.000 
#    0.000    0.000    0.000    0.000    0.000    0.000 
#
# Total GULP energy -268030.294194 kJ/mol
# GULP energy per Si atom -5583.964462 kJ/mol
# Density = 2.225483 g / cm^3
# Si number density = 22.305594 Si / 1000 Ang^3
#
#
#
# Elastic Constant Matrix: (Units=GPa)
#
#
# Indices 1 2 3 4 5 6 
#
# 1 99.7349 -7.2053 75.3451 0.0000 0.0000 0.0000
# 2 -7.2053 62.0296 2.2921 0.0000 0.0000 0.0000
# 3 75.3451 2.2921 221.2872 0.0000 0.0000 0.0000
# 4 0.0000 0.0000 0.0000 28.0702 0.0000 0.0000
# 5 0.0000 0.0000 0.0000 0.0000 33.1489 0.0000
# 6 0.0000 0.0000 0.0000 0.0000 0.0000 6.0963
#
#
#
# Elastic Compliance Matrix: (Units=1/GPa)
#
#
# Indices 1 2 3 4 5 6 
#
# 1 0.013689 0.001763 -0.004679 0.000000 0.000000 0.000000
# 2 0.001763 0.016355 -0.000770 0.000000 0.000000 0.000000
# 3 -0.004679 -0.000770 0.006120 0.000000 0.000000 0.000000
# 4 0.000000 0.000000 0.000000 0.035625 0.000000 0.000000
# 5 0.000000 0.000000 0.000000 0.000000 0.030167 0.000000
# 6 0.000000 0.000000 0.000000 0.000000 0.000000 0.164035
#
#
# Mechanical properties :
#
#
# Convention : Reuss Voigt Hill
#
# Bulk Modulus (GPa) = 34.73199 58.21284 46.47242
# Shear Modulus (GPa) = 17.67037 34.30439 25.98738
#
# Velocity S-wave (km/s) = 2.81765 3.92590 3.41700
# Velocity P-wave (km/s) = 5.11765 6.83409 6.03718
#
# Compressibility (1/GPa) = 0.02879190
#
# Stress axis : x y z
#
# Youngs Moduli (GPa) = 73.05252 61.14507 163.39469
#
# Poissons Ratio (x) = -0.10780 0.76454
# Poissons Ratio (y) = -0.12879 0.12576
# Poissons Ratio (z) = 0.34182 0.04706
#
# Static dielectric constant tensor:
#      x y z
#    x 1.841600 0.000000 0.000000 
#    y 0.000000 1.846820 0.000000 
#    z 0.000000 0.000000 1.810270 
# 
# From -- ./inp_files/24981.got.cif
#   From: 2010.05.17/outbox.cif.g08.bks.cpg/sg51_13_cif.got.tgz:24981.got - 2010.06.03 11:52:47.
