data_PCOD9405962
_publ_section_title
;
Structure prediction by ZEFSAII (Michael W. Deem and Ramdas Pophale) SiO2 
 PCOD9405962
Probable space group: P M M A
;
_chemical_formula_sum "Si O2"
_cell_formula_units_Z 40
_cell_length_a 8.878893
_cell_length_b 14.537335
_cell_length_c 15.827766
_cell_angle_alpha 90.000000
_cell_angle_beta 90.000000
_cell_angle_gamma 90.000000
_cell_volume 2042.975892
_symmetry_space_group_name_H-M "P M M A"
_symmetry_group_IT_number 51
_symmetry_cell_setting 'orthorhombic'
loop_
_space_group_symop_operation_xyz
x,y,z
1/2-x,-y,z
1/2+x,-y,-z
-x,y,-z
-x,-y,-z
1/2+x,y,-z
1/2-x,y,z
x,-y,z
loop_
_atom_site_type_symbol
_atom_site_label
_atom_site_fract_x
_atom_site_fract_y
_atom_site_fract_z
Si Si1 0.430250 0.608680 0.407667
Si Si2 0.079432 0.390100 0.084873
Si Si3 0.917985 0.108910 0.580512
Si Si4 0.569229 0.698433 0.241511
Si Si5 0.570271 0.899434 0.240932
O O1 0.500000 0.628704 0.500000
O O2 0.250000 0.619550 0.410792
O O3 0.462529 0.500000 0.389839
O O4 0.497434 0.669399 0.331292
O O5 0.250000 0.354578 0.092980
O O6 0.088283 0.500000 0.076417
O O7 0.985722 0.369012 0.168562
O O8 0.000000 0.353831 0.000000
O O9 0.750000 0.146504 0.595902
O O10 0.000000 0.151399 0.500000
O O11 0.024368 0.111086 0.661228
O O12 0.898906 0.000000 0.563229
O O13 0.750000 0.697551 0.250586
O O14 0.520367 0.800159 0.207856
O O15 0.750000 0.903284 0.232219
O O16 0.509856 0.000000 0.212244
#
# Coordination Sequence:
#
# PCOD9405962 Si02
#       5
#     8   8   8   8   8
#     4  10  21  37  56  79 110 148 188 230 276 329
#     4  10  21  38  61  89 119 147 175 214 267 326
#     4   9  16  26  42  63  87 120 165 217 270 318
#     4  11  22  35  56  84 112 146 186 228 275 327
#     4   9  19  35  51  69  98 137 180 224 269 316
#
# _framework density 19.579281999999999
#
# number of rings (size 3 to 8) (size 9 to 14) (size 15 to 20)
#    0.000    2.200    0.000    3.000    0.000    9.600 
#    0.000    0.000    0.000    0.600    0.000    0.000 
#    0.000    0.000    0.000    0.000    0.000    0.000 
#
# Total GULP energy -222930.251664 kJ/mol
# GULP energy per Si atom -5573.256292 kJ/mol
# Density = 1.953472 g / cm^3
# Si number density = 19.579282 Si / 1000 Ang^3
#
#
#
# Elastic Constant Matrix: (Units=GPa)
#
#
# Indices 1 2 3 4 5 6 
#
# 1 41.5681 27.5475 25.6533 0.0000 0.0000 0.0000
# 2 27.5475 85.1540 12.4978 0.0000 0.0000 0.0000
# 3 25.6533 12.4978 72.8066 0.0000 0.0000 0.0000
# 4 0.0000 0.0000 0.0000 -37.9410 0.0000 0.0000
# 5 0.0000 0.0000 0.0000 0.0000 23.1002 0.0000
# 6 0.0000 0.0000 0.0000 0.0000 0.0000 13.1619
#
#
#
# Elastic Compliance Matrix: (Units=1/GPa)
#
#
# Indices 1 2 3 4 5 6 
#
# 1 0.038349 -0.010692 -0.011677 0.000000 0.000000 0.000000
# 2 -0.010692 0.015028 0.001188 0.000000 0.000000 0.000000
# 3 -0.011677 0.001188 0.017645 0.000000 0.000000 0.000000
# 4 0.000000 0.000000 0.000000 -0.026357 0.000000 0.000000
# 5 0.000000 0.000000 0.000000 0.000000 0.043290 0.000000
# 6 0.000000 0.000000 0.000000 0.000000 0.000000 0.075977
#
#
# Mechanical properties :
#
#
# Convention : Reuss Voigt Hill
#
# Bulk Modulus (GPa) = 34.89201 36.76954 35.83078
# Shear Modulus (GPa) = 23.16446 8.58623 15.87534
#
# Velocity S-wave (km/s) = 3.44337 2.09640 2.85059
# Velocity P-wave (km/s) = 5.80247 4.96794 5.40135
#
# Compressibility (1/GPa) = 0.02865985
#
# Stress axis : x y z
#
# Youngs Moduli (GPa) = 26.07643 66.54223 56.67195
#
# Poissons Ratio (x) = 0.71148 0.66174
# Poissons Ratio (y) = 0.27881 -0.06731
# Poissons Ratio (z) = 0.30449 -0.07903
#
# Static dielectric constant tensor:
#      x y z
#    x 1.690300 0.000000 0.000000 
#    y 0.000000 1.791960 0.000000 
#    z 0.000000 0.000000 1.631460 
# 
# From -- ./inp_files/20483.got.cif
#   From: 2010.05.17/outbox.cif.g08.bks.cpg/sg51_11_cif.got.tgz:20483.got - 2010.06.03 11:52:47.
