data_PCOD9405612
_publ_section_title
;
Structure prediction by ZEFSAII (Michael W. Deem and Ramdas Pophale) SiO2 
 PCOD9405612
Probable space group: P M M A
;
_chemical_formula_sum "Si O2"
_cell_formula_units_Z 56
_cell_length_a 8.093513
_cell_length_b 20.573108
_cell_length_c 16.278060
_cell_angle_alpha 90.000000
_cell_angle_beta 90.000000
_cell_angle_gamma 90.000000
_cell_volume 2710.438887
_symmetry_space_group_name_H-M "P M M A"
_symmetry_group_IT_number 51
_symmetry_cell_setting 'orthorhombic'
loop_
_space_group_symop_operation_xyz
x,y,z
1/2-x,-y,z
1/2+x,-y,-z
-x,y,-z
-x,-y,-z
1/2+x,y,-z
1/2-x,y,z
x,-y,z
loop_
_atom_site_type_symbol
_atom_site_label
_atom_site_fract_x
_atom_site_fract_y
_atom_site_fract_z
Si Si1 0.945942 0.429225 0.215154
Si Si2 0.438831 0.571147 0.394523
Si Si3 0.054780 0.180245 0.723311
Si Si4 0.552215 0.672721 0.085484
Si Si5 0.054884 0.718255 0.589205
Si Si6 0.550626 0.178954 0.090237
Si Si7 0.052301 0.924295 0.407590
O O1 0.750000 0.419906 0.236537
O O2 0.956921 0.500000 0.173970
O O3 0.004630 0.371057 0.159408
O O4 0.050977 0.430379 0.296692
O O5 0.250000 0.572586 0.424097
O O6 0.514388 0.500000 0.417384
O O7 0.517179 0.641107 0.412781
O O8 0.250000 0.193494 0.735045
O O9 0.987497 0.242598 0.669748
O O10 0.994524 0.161206 0.815929
O O11 0.028280 0.120861 0.661039
O O12 0.750000 0.675624 0.089734
O O13 0.490495 0.746164 0.087697
O O14 0.500000 0.642159 0.000000
O O15 0.250000 0.725848 0.592912
O O16 0.000000 0.744949 0.500000
O O17 0.750000 0.175320 0.089491
O O18 0.500000 0.150193 0.000000
O O19 0.250000 0.918637 0.401119
O O20 0.000000 0.905865 0.500000
O O21 0.005799 0.000000 0.396263
#
# Coordination Sequence:
#
# PCOD9405612 Si02
#       7
#     8   8   8   8   8   8   8
#     4   9  17  30  47  65  88 122 163 209 265 327
#     4  10  21  36  53  73  97 130 176 226 274 327
#     4  10  21  37  59  86 116 150 188 232 280 329
#     4   9  17  29  44  64  92 125 163 209 264 326
#     4  11  23  38  56  80 110 143 181 227 279 334
#     4   9  18  33  52  76 106 140 180 225 273 325
#     4  10  21  37  59  89 124 160 195 229 269 323
#
# _framework density 20.660862000000002
#
# number of rings (size 3 to 8) (size 9 to 14) (size 15 to 20)
#    0.000    2.286    0.000    2.571    0.000    8.000 
#    0.000    2.857    0.000    0.429    0.000    0.000 
#    0.000    0.000    0.000    0.000    0.000    0.143 
#
# Total GULP energy -311824.144250 kJ/mol
# GULP energy per Si atom -5568.288290 kJ/mol
# Density = 2.061384 g / cm^3
# Si number density = 20.660862 Si / 1000 Ang^3
#
#
#
# Elastic Constant Matrix: (Units=GPa)
#
#
# Indices 1 2 3 4 5 6 
#
# 1 16.8559 2.7541 8.9950 0.0000 0.0000 0.0000
# 2 2.7541 60.6815 44.7734 0.0000 0.0000 0.0000
# 3 8.9950 44.7734 170.0850 0.0000 0.0000 0.0000
# 4 0.0000 0.0000 0.0000 22.5331 0.0000 0.0000
# 5 0.0000 0.0000 0.0000 0.0000 28.2403 0.0000
# 6 0.0000 0.0000 0.0000 0.0000 0.0000 17.0932
#
#
#
# Elastic Compliance Matrix: (Units=1/GPa)
#
#
# Indices 1 2 3 4 5 6 
#
# 1 0.061061 -0.000482 -0.003102 0.000000 0.000000 0.000000
# 2 -0.000482 0.020456 -0.005359 0.000000 0.000000 0.000000
# 3 -0.003102 -0.005359 0.007454 0.000000 0.000000 0.000000
# 4 0.000000 0.000000 0.000000 0.044379 0.000000 0.000000
# 5 0.000000 0.000000 0.000000 0.000000 0.035410 0.000000
# 6 0.000000 0.000000 0.000000 0.000000 0.000000 0.058503
#
#
# Mechanical properties :
#
#
# Convention : Reuss Voigt Hill
#
# Bulk Modulus (GPa) = 14.06811 40.07417 27.07114
# Shear Modulus (GPa) = 18.59809 26.31331 22.45570
#
# Velocity S-wave (km/s) = 3.00352 3.57260 3.30035
# Velocity P-wave (km/s) = 4.34189 6.03790 5.25872
#
# Compressibility (1/GPa) = 0.07108278
#
# Stress axis : x y z
#
# Youngs Moduli (GPa) = 16.37718 48.88612 134.15142
#
# Poissons Ratio (x) = 0.02358 0.41617
# Poissons Ratio (y) = 0.00790 0.71896
# Poissons Ratio (z) = 0.05081 0.26199
#
# Static dielectric constant tensor:
#      x y z
#    x 1.748700 0.000000 0.000000 
#    y 0.000000 1.755880 0.000000 
#    z 0.000000 0.000000 1.811180 
# 
# From -- ./inp_files/21792.got.cif
#   From: 2010.05.17/outbox.cif.g08.bks.cpg/sg51_11_cif.got.tgz:21792.got - 2010.06.03 11:52:47.
