data_PCOD9405620
_publ_section_title
;
Structure prediction by ZEFSAII (Michael W. Deem and Ramdas Pophale) SiO2 
 PCOD9405620
Probable space group: P M M A
;
_chemical_formula_sum "Si O2"
_cell_formula_units_Z 64
_cell_length_a 8.837586
_cell_length_b 20.422352
_cell_length_c 18.293743
_cell_angle_alpha 90.000000
_cell_angle_beta 90.000000
_cell_angle_gamma 90.000000
_cell_volume 3301.733256
_symmetry_space_group_name_H-M "P M M A"
_symmetry_group_IT_number 51
_symmetry_cell_setting 'orthorhombic'
loop_
_space_group_symop_operation_xyz
x,y,z
1/2-x,-y,z
1/2+x,-y,-z
-x,y,-z
-x,-y,-z
1/2+x,y,-z
1/2-x,y,z
x,-y,z
loop_
_atom_site_type_symbol
_atom_site_label
_atom_site_fract_x
_atom_site_fract_y
_atom_site_fract_z
Si Si1 0.430414 0.601780 0.075376
Si Si2 0.925886 0.884662 0.924491
Si Si3 0.430507 0.710139 0.714845
Si Si4 0.067199 0.214287 0.424259
Si Si5 0.569550 0.925582 0.626089
Si Si6 0.072879 0.258481 0.133031
Si Si7 0.416809 0.077504 0.775606
Si Si8 0.932788 0.572124 0.759220
O O1 0.250000 0.595609 0.069007
O O2 0.472804 0.678056 0.087026
O O3 0.473214 0.572378 0.154158
O O4 0.500000 0.577036 0.000000
O O5 0.750000 0.903193 0.922033
O O6 0.938409 0.806353 0.914716
O O7 0.012659 0.910124 0.853974
O O8 0.000000 0.906031 0.000000
O O9 0.250000 0.711241 0.708449
O O10 0.505292 0.746567 0.645928
O O11 0.481188 0.744163 0.791316
O O12 0.489973 0.635136 0.722848
O O13 0.250000 0.216542 0.424416
O O14 0.016717 0.137669 0.418530
O O15 0.000000 0.240978 0.500000
O O16 0.750000 0.929105 0.619548
O O17 0.526255 0.905856 0.708934
O O18 0.510890 0.000000 0.609759
O O19 0.250000 0.267236 0.153557
O O20 0.250000 0.108118 0.767679
O O21 0.400465 0.000000 0.769123
O O22 0.750000 0.580064 0.755074
O O23 0.971725 0.500000 0.729328
#
# Coordination Sequence:
#
# PCOD9405620 Si02
#       8
#     8   8   8   8   8   8   8   8
#     4   9  17  29  46  71 105 142 179 221 270 322
#     4  11  22  34  50  71  97 131 173 226 283 334
#     4  11  22  36  58  86 114 145 184 230 276 326
#     4  11  23  39  60  87 120 153 184 220 266 322
#     4   9  19  37  60  85 114 149 186 224 269 321
#     4   9  19  35  52  72 101 138 179 221 270 327
#     4  10  21  36  53  73  98 131 174 222 269 322
#     4   9  19  37  58  79 108 149 193 235 283 337
#
# _framework density 19.383756999999999
#
# number of rings (size 3 to 8) (size 9 to 14) (size 15 to 20)
#    0.000    2.125    0.000    4.125    0.000    8.750 
#    0.000    0.000    0.000    0.375    0.000    0.000 
#    0.000    0.000    0.000    0.000    0.000    0.000 
#
# Total GULP energy -357086.286622 kJ/mol
# GULP energy per Si atom -5579.473228 kJ/mol
# Density = 1.933964 g / cm^3
# Si number density = 19.383757 Si / 1000 Ang^3
#
#
#
# Elastic Constant Matrix: (Units=GPa)
#
#
# Indices 1 2 3 4 5 6 
#
# 1 41.7468 25.3084 22.5960 0.0000 0.0000 0.0000
# 2 25.3084 61.6433 37.9970 0.0000 0.0000 0.0000
# 3 22.5960 37.9970 103.3761 0.0000 0.0000 0.0000
# 4 0.0000 0.0000 0.0000 -2.0713 0.0000 0.0000
# 5 0.0000 0.0000 0.0000 0.0000 28.2644 0.0000
# 6 0.0000 0.0000 0.0000 0.0000 0.0000 10.8151
#
#
#
# Elastic Compliance Matrix: (Units=1/GPa)
#
#
# Indices 1 2 3 4 5 6 
#
# 1 0.032527 -0.011600 -0.002846 0.000000 0.000000 0.000000
# 2 -0.011600 0.025111 -0.006694 0.000000 0.000000 0.000000
# 3 -0.002846 -0.006694 0.012756 0.000000 0.000000 0.000000
# 4 0.000000 0.000000 0.000000 -0.482786 0.000000 0.000000
# 5 0.000000 0.000000 0.000000 0.000000 0.035380 0.000000
# 6 0.000000 0.000000 0.000000 0.000000 0.000000 0.092463
#
#
# Mechanical properties :
#
#
# Convention : Reuss Voigt Hill
#
# Bulk Modulus (GPa) = 35.57028 42.06325 38.81677
# Shear Modulus (GPa) = -21.46877 15.45928 -3.00475
#
# Velocity S-wave (km/s) = -3.33162 2.82714 -1.24640
# Velocity P-wave (km/s) = 1.89494 5.69248 4.24235
#
# Compressibility (1/GPa) = 0.02811336
#
# Stress axis : x y z
#
# Youngs Moduli (GPa) = 30.74394 39.82265 78.39383
#
# Poissons Ratio (x) = 0.46194 0.22311
# Poissons Ratio (y) = 0.35663 0.52480
# Poissons Ratio (z) = 0.08750 0.26659
#
# Static dielectric constant tensor:
#      x y z
#    x 1.673510 0.000000 0.000000 
#    y 0.000000 1.738760 0.000000 
#    z 0.000000 0.000000 1.644780 
# 
# From -- ./inp_files/22195.got.cif
#   From: 2010.05.17/outbox.cif.g08.bks.cpg/sg51_12_cif.got.tgz:22195.got - 2010.06.03 11:52:47.
