data_PCOD9405944
_publ_section_title
;
Structure prediction by ZEFSAII (Michael W. Deem and Ramdas Pophale) SiO2 
 PCOD9405944
Probable space group: P M M A
;
_chemical_formula_sum "Si O2"
_cell_formula_units_Z 44
_cell_length_a 9.347274
_cell_length_b 7.991005
_cell_length_c 30.695262
_cell_angle_alpha 90.000000
_cell_angle_beta 90.000000
_cell_angle_gamma 90.000000
_cell_volume 2292.755377
_symmetry_space_group_name_H-M "P M M A"
_symmetry_group_IT_number 51
_symmetry_cell_setting 'orthorhombic'
loop_
_space_group_symop_operation_xyz
x,y,z
1/2-x,-y,z
1/2+x,-y,-z
-x,y,-z
-x,-y,-z
1/2+x,y,-z
1/2-x,y,z
x,-y,z
loop_
_atom_site_type_symbol
_atom_site_label
_atom_site_fract_x
_atom_site_fract_y
_atom_site_fract_z
Si Si1 0.910905 0.700824 0.699361
Si Si2 0.575739 0.000000 0.452952
Si Si3 0.088264 0.301801 0.134692
Si Si4 0.090362 0.198160 0.781741
Si Si5 0.578485 0.699364 0.597591
Si Si6 0.087171 0.799399 0.041340
O O1 0.750000 0.764303 0.708045
O O2 0.907642 0.500000 0.703241
O O3 0.945877 0.735461 0.648969
O O4 0.017641 0.766377 0.735477
O O5 0.500000 0.000000 0.500000
O O6 0.515606 0.167556 0.428970
O O7 0.750000 0.000000 0.454978
O O8 0.250000 0.231524 0.138776
O O9 0.097673 0.500000 0.130625
O O10 0.024629 0.237210 0.089107
O O11 0.001490 0.263442 0.177978
O O12 0.250000 0.270068 0.782711
O O13 0.098151 0.000000 0.787010
O O14 0.750000 0.722575 0.589355
O O15 0.548030 0.500000 0.589736
O O16 0.250000 0.733579 0.040888
O O17 0.094033 0.000000 0.037165
O O18 0.000000 0.733840 0.000000
#
# Coordination Sequence:
#
# PCOD9405944 Si02
#       6
#     8   4   8   8   8   8
#     4   9  19  37  61  87 114 149 192 235 284 345
#     4  12  26  42  64  94 130 170 214 262 313 372
#     4  10  21  37  56  77 103 138 182 227 271 327
#     4  11  24  37  51  78 114 148 185 229 279 334
#     4   9  20  41  67  94 126 164 209 261 314 370
#     4   9  18  33  53  76 102 133 170 215 267 325
#
# _framework density 19.190882999999999
#
# number of rings (size 3 to 8) (size 9 to 14) (size 15 to 20)
#    0.000    2.182    0.000    3.545    1.273    7.636 
#    0.000    3.636    0.000    0.000    0.000    0.000 
#    0.000    0.000    0.000    0.000    0.000    0.000 
#
# Total GULP energy -245472.575791 kJ/mol
# GULP energy per Si atom -5578.922177 kJ/mol
# Density = 1.914720 g / cm^3
# Si number density = 19.190883 Si / 1000 Ang^3
#
#
#
# Elastic Constant Matrix: (Units=GPa)
#
#
# Indices 1 2 3 4 5 6 
#
# 1 104.0209 38.4627 80.4332 0.0000 0.0000 0.0000
# 2 38.4627 57.1542 44.8950 0.0000 0.0000 0.0000
# 3 80.4332 44.8950 112.2936 0.0000 0.0000 0.0000
# 4 0.0000 0.0000 0.0000 47.5692 0.0000 0.0000
# 5 0.0000 0.0000 0.0000 0.0000 33.7393 0.0000
# 6 0.0000 0.0000 0.0000 0.0000 0.0000 25.2884
#
#
#
# Elastic Compliance Matrix: (Units=1/GPa)
#
#
# Indices 1 2 3 4 5 6 
#
# 1 0.022029 -0.003543 -0.014362 0.000000 0.000000 0.000000
# 2 -0.003543 0.026077 -0.007888 0.000000 0.000000 0.000000
# 3 -0.014362 -0.007888 0.022346 0.000000 0.000000 0.000000
# 4 0.000000 0.000000 0.000000 0.021022 0.000000 0.000000
# 5 0.000000 0.000000 0.000000 0.000000 0.029639 0.000000
# 6 0.000000 0.000000 0.000000 0.000000 0.000000 0.039544
#
#
# Mechanical properties :
#
#
# Convention : Reuss Voigt Hill
#
# Bulk Modulus (GPa) = 53.00620 66.78338 59.89479
# Shear Modulus (GPa) = 22.87996 28.63122 25.75559
#
# Velocity S-wave (km/s) = 3.45662 3.86673 3.66741
# Velocity P-wave (km/s) = 6.60389 7.40341 7.01505
#
# Compressibility (1/GPa) = 0.01886572
#
# Stress axis : x y z
#
# Youngs Moduli (GPa) = 45.39434 38.34850 44.75031
#
# Poissons Ratio (x) = 0.13587 0.64273
# Poissons Ratio (y) = 0.16083 0.35298
# Poissons Ratio (z) = 0.65198 0.30248
#
# Static dielectric constant tensor:
#      x y z
#    x 1.689160 0.000000 0.000000 
#    y 0.000000 1.676670 0.000000 
#    z 0.000000 0.000000 1.662950 
# 
# From -- ./inp_files/36793.got.cif
#   From: 2010.05.17/outbox.cif.g08.bks.cpg/sg51_19_cif.got.tgz:36793.got - 2010.06.03 11:52:47.
