data_PCOD9405196
_publ_section_title
;
Structure prediction by ZEFSAII (Michael W. Deem and Ramdas Pophale) SiO2 
 PCOD9405196
Probable space group: P M M A
;
_chemical_formula_sum "Si O2"
_cell_formula_units_Z 48
_cell_length_a 8.965786
_cell_length_b 16.957403
_cell_length_c 16.165085
_cell_angle_alpha 90.000000
_cell_angle_beta 90.000000
_cell_angle_gamma 90.000000
_cell_volume 2457.682079
_symmetry_space_group_name_H-M "P M M A"
_symmetry_group_IT_number 51
_symmetry_cell_setting 'orthorhombic'
loop_
_space_group_symop_operation_xyz
x,y,z
1/2-x,-y,z
1/2+x,-y,-z
-x,y,-z
-x,-y,-z
1/2+x,y,-z
1/2-x,y,z
x,-y,z
loop_
_atom_site_type_symbol
_atom_site_label
_atom_site_fract_x
_atom_site_fract_y
_atom_site_fract_z
Si Si1 0.073032 0.323702 0.414073
Si Si2 0.426220 0.829115 0.653101
Si Si3 0.073842 0.157779 0.845910
Si Si4 0.929455 0.675467 0.085174
Si Si5 0.572733 0.000000 0.909399
Si Si6 0.425347 0.594186 0.743178
Si Si7 0.070749 0.000000 0.589861
O O1 0.250000 0.328348 0.419824
O O2 0.000000 0.351445 0.500000
O O3 0.020026 0.233925 0.397663
O O4 0.013610 0.371510 0.334739
O O5 0.250000 0.819753 0.632953
O O6 0.443683 0.815832 0.750860
O O7 0.471398 0.919050 0.634980
O O8 0.250000 0.141080 0.858794
O O9 0.029962 0.232559 0.901219
O O10 0.983565 0.079000 0.864380
O O11 0.750000 0.670525 0.079891
O O12 0.975144 0.629418 0.168437
O O13 0.000000 0.646048 0.000000
O O14 0.750000 0.000000 0.915637
O O15 0.500000 0.000000 0.000000
O O16 0.250000 0.616151 0.732911
O O17 0.436439 0.500000 0.745261
O O18 0.000000 0.000000 0.500000
O O19 0.250000 0.000000 0.584210
#
# Coordination Sequence:
#
# PCOD9405196 Si02
#       7
#     8   8   8   8   4   8   4
#     4  12  25  41  65  95 129 167 209 256 311 372
#     4  10  20  39  63  87 119 162 210 255 309 367
#     4  10  20  38  62  85 117 160 208 258 313 367
#     4  10  21  38  63  94 126 164 205 251 307 371
#     4  12  25  38  54  82 120 160 213 263 310 367
#     4  10  22  44  70  94 124 163 207 256 312 373
#     4  10  21  34  54  82 116 158 203 253 301 355
#
# _framework density 19.530598000000001
#
# number of rings (size 3 to 8) (size 9 to 14) (size 15 to 20)
#    0.000    1.500    1.667    3.750    0.000    7.667 
#    0.000    0.833    0.000    0.000    0.000    0.000 
#    0.000    0.000    0.000    0.000    0.000    0.000 
#
# Total GULP energy -268315.142157 kJ/mol
# GULP energy per Si atom -5589.898795 kJ/mol
# Density = 1.948615 g / cm^3
# Si number density = 19.530598 Si / 1000 Ang^3
#
#
#
# Elastic Constant Matrix: (Units=GPa)
#
#
# Indices 1 2 3 4 5 6 
#
# 1 83.7456 42.4659 63.7399 0.0000 0.0000 0.0000
# 2 42.4659 76.5619 51.3632 0.0000 0.0000 0.0000
# 3 63.7399 51.3632 148.5336 0.0000 0.0000 0.0000
# 4 0.0000 0.0000 0.0000 6.7616 0.0000 0.0000
# 5 0.0000 0.0000 0.0000 0.0000 35.8256 0.0000
# 6 0.0000 0.0000 0.0000 0.0000 0.0000 19.4419
#
#
#
# Elastic Compliance Matrix: (Units=1/GPa)
#
#
# Indices 1 2 3 4 5 6 
#
# 1 0.020285 -0.007046 -0.006268 0.000000 0.000000 0.000000
# 2 -0.007046 0.019454 -0.003704 0.000000 0.000000 0.000000
# 3 -0.006268 -0.003704 0.010703 0.000000 0.000000 0.000000
# 4 0.000000 0.000000 0.000000 0.147894 0.000000 0.000000
# 5 0.000000 0.000000 0.000000 0.000000 0.027913 0.000000
# 6 0.000000 0.000000 0.000000 0.000000 0.000000 0.051435
#
#
# Mechanical properties :
#
#
# Convention : Reuss Voigt Hill
#
# Bulk Modulus (GPa) = 60.95248 69.33098 65.14173
# Shear Modulus (GPa) = 15.76352 22.49063 19.12708
#
# Velocity S-wave (km/s) = 2.84407 3.39714 3.13283
# Velocity P-wave (km/s) = 6.48548 7.13885 6.81999
#
# Compressibility (1/GPa) = 0.01640622
#
# Stress axis : x y z
#
# Youngs Moduli (GPa) = 49.29854 51.40305 93.43113
#
# Poissons Ratio (x) = 0.36218 0.58564
# Poissons Ratio (y) = 0.34735 0.34604
# Poissons Ratio (z) = 0.30901 0.19038
#
# Static dielectric constant tensor:
#      x y z
#    x 1.656690 0.000000 0.000000 
#    y 0.000000 1.695270 0.000000 
#    z 0.000000 0.000000 1.669780 
# 
# From -- ./inp_files/21157.got.cif
#   From: 2010.05.17/outbox.cif.g08.bks.cpg/sg51_11_cif.got.tgz:21157.got - 2010.06.03 11:52:47.
