data_PCOD9405569
_publ_section_title
;
Structure prediction by ZEFSAII (Michael W. Deem and Ramdas Pophale) SiO2 
 PCOD9405569
Probable space group: P M M A
;
_chemical_formula_sum "Si O2"
_cell_formula_units_Z 36
_cell_length_a 8.679287
_cell_length_b 24.202465
_cell_length_c 9.564639
_cell_angle_alpha 90.000000
_cell_angle_beta 90.000000
_cell_angle_gamma 90.000000
_cell_volume 2009.149406
_symmetry_space_group_name_H-M "P M M A"
_symmetry_group_IT_number 51
_symmetry_cell_setting 'orthorhombic'
loop_
_space_group_symop_operation_xyz
x,y,z
1/2-x,-y,z
1/2+x,-y,-z
-x,y,-z
-x,-y,-z
1/2+x,y,-z
1/2-x,y,z
x,-y,z
loop_
_atom_site_type_symbol
_atom_site_label
_atom_site_fract_x
_atom_site_fract_y
_atom_site_fract_z
Si Si1 0.435661 0.396331 0.157086
Si Si2 0.065466 0.937010 0.343844
Si Si3 0.936576 0.500000 0.656157
Si Si4 0.433503 0.160611 0.842843
Si Si5 0.565214 0.274228 0.842036
O O1 0.250000 0.398196 0.146729
O O2 0.486528 0.445726 0.257455
O O3 0.476218 0.335070 0.214407
O O4 0.500000 0.402834 0.000000
O O5 0.250000 0.930919 0.345877
O O6 0.000000 0.930565 0.500000
O O7 0.992138 0.891192 0.245069
O O8 0.029450 0.000000 0.298094
O O9 0.750000 0.500000 0.651188
O O10 0.000000 0.500000 0.500000
O O11 0.250000 0.161855 0.849383
O O12 0.493937 0.218692 0.778738
O O13 0.500000 0.156526 0.000000
O O14 0.750000 0.268912 0.844709
O O15 0.500000 0.275516 0.000000
#
# Coordination Sequence:
#
# PCOD9405569 Si02
#       5
#     8   8   4   8   8
#     4   9  18  32  53  77 101 130 169 213 254 303
#     4  10  21  38  58  79 105 138 175 215 259 309
#     4  10  21  36  50  72 104 136 169 208 256 304
#     4  11  21  34  54  80 109 140 174 215 261 308
#     4   9  16  29  49  74 103 133 166 210 259 305
#
# _framework density 17.918030999999999
#
# number of rings (size 3 to 8) (size 9 to 14) (size 15 to 20)
#    0.000    2.222    0.000    5.000    0.000    3.556 
#    0.000    1.111    0.000    2.667    0.000    0.000 
#    0.000    0.000    0.000    0.000    0.000    0.000 
#
# Total GULP energy -200774.734160 kJ/mol
# GULP energy per Si atom -5577.075949 kJ/mol
# Density = 1.787725 g / cm^3
# Si number density = 17.918031 Si / 1000 Ang^3
#
#
#
# Elastic Constant Matrix: (Units=GPa)
#
#
# Indices 1 2 3 4 5 6 
#
# 1 83.6859 75.0716 31.4526 0.0000 0.0000 0.0000
# 2 75.0716 218.7703 86.8000 0.0000 0.0000 0.0000
# 3 31.4526 86.8000 68.6370 0.0000 0.0000 0.0000
# 4 0.0000 0.0000 0.0000 -22.3637 0.0000 0.0000
# 5 0.0000 0.0000 0.0000 0.0000 28.2882 0.0000
# 6 0.0000 0.0000 0.0000 0.0000 0.0000 -91.5406
#
#
#
# Elastic Compliance Matrix: (Units=1/GPa)
#
#
# Indices 1 2 3 4 5 6 
#
# 1 0.017288 -0.005598 -0.000843 0.000000 0.000000 0.000000
# 2 -0.005598 0.010987 -0.011329 0.000000 0.000000 0.000000
# 3 -0.000843 -0.011329 0.029283 0.000000 0.000000 0.000000
# 4 0.000000 0.000000 0.000000 -0.044715 0.000000 0.000000
# 5 0.000000 0.000000 0.000000 0.000000 0.035350 0.000000
# 6 0.000000 0.000000 0.000000 0.000000 0.000000 -0.010924
#
#
# Mechanical properties :
#
#
# Convention : Reuss Voigt Hill
#
# Bulk Modulus (GPa) = 45.41769 84.19353 64.80561
# Shear Modulus (GPa) = 62.38485 -5.27198 28.55644
#
# Velocity S-wave (km/s) = 5.90698 -1.71717 3.99648
# Velocity P-wave (km/s) = 8.48090 6.56952 7.58565
#
# Compressibility (1/GPa) = 0.02201785
#
# Stress axis : x y z
#
# Youngs Moduli (GPa) = 57.84358 91.01700 34.14996
#
# Poissons Ratio (x) = 0.50952 0.02878
# Poissons Ratio (y) = 0.32381 0.38689
# Poissons Ratio (z) = 0.04875 1.03114
#
# Static dielectric constant tensor:
#      x y z
#    x 1.598290 0.000000 0.000000 
#    y 0.000000 1.663360 0.000000 
#    z 0.000000 0.000000 1.608600 
# 
# From -- ./inp_files/5195.got.cif
#   From: 2010.05.17/outbox.cif.g08.bks.cpg/sg51_3_cif.got.tgz:5195.got - 2010.06.03 11:52:47.
