data_PCOD9405773
_publ_section_title
;
Structure prediction by ZEFSAII (Michael W. Deem and Ramdas Pophale) SiO2 
 PCOD9405773
Probable space group: P M M A
;
_chemical_formula_sum "Si O2"
_cell_formula_units_Z 40
_cell_length_a 9.432612
_cell_length_b 8.076394
_cell_length_c 26.503285
_cell_angle_alpha 90.000000
_cell_angle_beta 90.000000
_cell_angle_gamma 90.000000
_cell_volume 2019.059767
_symmetry_space_group_name_H-M "P M M A"
_symmetry_group_IT_number 51
_symmetry_cell_setting 'orthorhombic'
loop_
_space_group_symop_operation_xyz
x,y,z
1/2-x,-y,z
1/2+x,-y,-z
-x,y,-z
-x,-y,-z
1/2+x,y,-z
1/2-x,y,z
x,-y,z
loop_
_atom_site_type_symbol
_atom_site_label
_atom_site_fract_x
_atom_site_fract_y
_atom_site_fract_z
Si Si1 0.587098 0.800267 0.756102
Si Si2 0.912056 0.799792 0.147203
Si Si3 0.587357 0.300048 0.951151
Si Si4 0.587698 0.302326 0.644256
Si Si5 0.589404 0.800947 0.452227
O O1 0.750000 0.741985 0.763132
O O2 0.487297 0.741257 0.801319
O O3 0.539844 0.748522 0.700277
O O4 0.589121 0.000000 0.757663
O O5 0.750000 0.740432 0.142826
O O6 0.005384 0.749177 0.099375
O O7 0.908739 0.000000 0.148814
O O8 0.750000 0.240035 0.951312
O O9 0.591376 0.500000 0.953375
O O10 0.500000 0.240741 0.000000
O O11 0.750000 0.239750 0.637882
O O12 0.590709 0.500000 0.641764
O O13 0.489376 0.238258 0.599734
O O14 0.500000 0.737170 0.500000
O O15 0.750000 0.736573 0.452726
O O16 0.596039 0.000000 0.456801
#
# Coordination Sequence:
#
# PCOD9405773 Si02
#       5
#     8   8   8   8   8
#     4   9  18  34  55  77 105 143 183 222 264 312
#     4  10  21  36  55  81 111 142 178 221 268 317
#     4  10  21  37  57  80 107 141 180 221 267 320
#     4  10  21  36  55  81 112 144 178 218 266 319
#     4  10  21  37  58  82 107 139 180 223 267 317
#
# _framework density 19.811202999999999
#
# number of rings (size 3 to 8) (size 9 to 14) (size 15 to 20)
#    0.000    2.200    0.000    2.400    0.000    7.200 
#    0.000    4.000    0.000    0.000    0.000    0.000 
#    0.000    0.000    0.000    0.000    0.000    0.000 
#
# Total GULP energy -223419.610976 kJ/mol
# GULP energy per Si atom -5585.490274 kJ/mol
# Density = 1.976611 g / cm^3
# Si number density = 19.811203 Si / 1000 Ang^3
#
#
#
# Elastic Constant Matrix: (Units=GPa)
#
#
# Indices 1 2 3 4 5 6 
#
# 1 182.7529 13.6192 141.6179 0.0000 0.0000 0.0000
# 2 13.6192 9.2317 5.8221 0.0000 0.0000 0.0000
# 3 141.6179 5.8221 207.8471 0.0000 0.0000 0.0000
# 4 0.0000 0.0000 0.0000 50.3259 0.0000 0.0000
# 5 0.0000 0.0000 0.0000 0.0000 42.2392 0.0000
# 6 0.0000 0.0000 0.0000 0.0000 0.0000 15.7943
#
#
#
# Elastic Compliance Matrix: (Units=1/GPa)
#
#
# Indices 1 2 3 4 5 6 
#
# 1 0.013160 -0.014007 -0.008574 0.000000 0.000000 0.000000
# 2 -0.014007 0.125179 0.006037 0.000000 0.000000 0.000000
# 3 -0.008574 0.006037 0.010484 0.000000 0.000000 0.000000
# 4 0.000000 0.000000 0.000000 0.019870 0.000000 0.000000
# 5 0.000000 0.000000 0.000000 0.000000 0.023675 0.000000
# 6 0.000000 0.000000 0.000000 0.000000 0.000000 0.063314
#
#
# Mechanical properties :
#
#
# Convention : Reuss Voigt Hill
#
# Bulk Modulus (GPa) = 8.64041 80.21666 44.42854
# Shear Modulus (GPa) = 15.27422 37.59005 26.43213
#
# Velocity S-wave (km/s) = 2.77968 4.36066 3.65663
# Velocity P-wave (km/s) = 3.83054 8.11987 6.34843
#
# Compressibility (1/GPa) = 0.11573523
#
# Stress axis : x y z
#
# Youngs Moduli (GPa) = 75.98712 7.98856 95.38050
#
# Poissons Ratio (x) = 0.11190 0.81783
# Poissons Ratio (y) = 1.06436 -0.57585
# Poissons Ratio (z) = 0.65154 -0.04823
#
# Static dielectric constant tensor:
#      x y z
#    x 1.696460 0.000000 0.000000 
#    y 0.000000 1.708260 0.000000 
#    z 0.000000 0.000000 1.653240 
# 
# From -- ./inp_files/34298.got.cif
#   From: 2010.05.17/outbox.cif.g08.bks.cpg/sg51_18_cif.got.tgz:34298.got - 2010.06.03 11:52:47.
