data_PCOD9405268
_publ_section_title
;
Structure prediction by ZEFSAII (Michael W. Deem and Ramdas Pophale) SiO2 
 PCOD9405268
Probable space group: P M M A
;
_chemical_formula_sum "Si O2"
_cell_formula_units_Z 38
_cell_length_a 15.371773
_cell_length_b 11.151192
_cell_length_c 11.519674
_cell_angle_alpha 90.000000
_cell_angle_beta 90.000000
_cell_angle_gamma 90.000000
_cell_volume 1974.628700
_symmetry_space_group_name_H-M "P M M A"
_symmetry_group_IT_number 51
_symmetry_cell_setting 'orthorhombic'
loop_
_space_group_symop_operation_xyz
x,y,z
1/2-x,-y,z
1/2+x,-y,-z
-x,y,-z
-x,-y,-z
1/2+x,y,-z
1/2-x,y,z
x,-y,z
loop_
_atom_site_type_symbol
_atom_site_label
_atom_site_fract_x
_atom_site_fract_y
_atom_site_fract_z
Si Si1 0.566565 0.000000 0.109543
Si Si2 0.750000 0.749234 0.851231
Si Si3 0.085379 0.748378 0.770235
Si Si4 0.853834 0.361533 0.460759
Si Si5 0.250000 0.360432 0.901895
Si Si6 0.750000 0.000000 0.979758
Si Si7 0.906516 0.638317 0.720001
O O1 0.558909 0.119478 0.187293
O O2 0.500000 0.000000 0.000000
O O3 0.663800 0.000000 0.057548
O O4 0.834756 0.722702 0.776232
O O5 0.750000 0.881803 0.902043
O O6 0.750000 0.660230 0.961076
O O7 0.119463 0.731113 0.638723
O O8 0.164031 0.701045 0.849628
O O9 0.999613 0.666664 0.774446
O O10 0.750000 0.353522 0.483023
O O11 0.870864 0.500000 0.421225
O O12 0.904395 0.343413 0.581092
O O13 0.250000 0.500000 0.870359
O O14 0.881831 0.500000 0.739604
#
# Coordination Sequence:
#
# PCOD9405268 Si02
#       7
#     4   4   8   8   4   2   8
#     4  12  26  48  66  90 131 182 227 268 318 387
#     4  12  24  43  64  94 131 174 225 260 326 405
#     4  12  24  41  68  96 128 176 226 267 323 391
#     4  10  20  40  68  98 135 170 207 266 340 400
#     4  12  24  39  64 100 133 161 215 285 330 387
#     4  12  24  48  66  82 128 184 220 260 322 378
#     4  11  23  41  67 100 136 171 208 270 341 399
#
# _framework density 19.244123999999999
#
# number of rings (size 3 to 8) (size 9 to 14) (size 15 to 20)
#    0.000    0.632    4.211    4.737    0.000    1.684 
#    0.000    5.263    0.000    0.000    0.000    0.000 
#    0.000    0.000    0.000    0.000    0.000    0.000 
#
# Total GULP energy -212491.836436 kJ/mol
# GULP energy per Si atom -5591.890433 kJ/mol
# Density = 1.920032 g / cm^3
# Si number density = 19.244124 Si / 1000 Ang^3
#
#
#
# Elastic Constant Matrix: (Units=GPa)
#
#
# Indices 1 2 3 4 5 6 
#
# 1 87.3407 -2.3075 18.9668 0.0000 0.0000 0.0000
# 2 -2.3075 92.4316 40.2113 0.0000 0.0000 0.0000
# 3 18.9668 40.2113 89.3987 0.0000 0.0000 0.0000
# 4 0.0000 0.0000 0.0000 33.7742 0.0000 0.0000
# 5 0.0000 0.0000 0.0000 0.0000 13.2377 0.0000
# 6 0.0000 0.0000 0.0000 0.0000 0.0000 24.8449
#
#
#
# Elastic Compliance Matrix: (Units=1/GPa)
#
#
# Indices 1 2 3 4 5 6 
#
# 1 0.012234 0.001784 -0.003398 0.000000 0.000000 0.000000
# 2 0.001784 0.013711 -0.006546 0.000000 0.000000 0.000000
# 3 -0.003398 -0.006546 0.014851 0.000000 0.000000 0.000000
# 4 0.000000 0.000000 0.000000 0.029608 0.000000 0.000000
# 5 0.000000 0.000000 0.000000 0.000000 0.075542 0.000000
# 6 0.000000 0.000000 0.000000 0.000000 0.000000 0.040250
#
#
# Mechanical properties :
#
#
# Convention : Reuss Voigt Hill
#
# Bulk Modulus (GPa) = 40.85534 42.54580 41.70057
# Shear Modulus (GPa) = 23.73329 28.52473 26.12901
#
# Velocity S-wave (km/s) = 3.51561 3.85419 3.68878
# Velocity P-wave (km/s) = 6.14455 6.47787 6.31341
#
# Compressibility (1/GPa) = 0.02447660
#
# Stress axis : x y z
#
# Youngs Moduli (GPa) = 81.73650 72.93457 67.33580
#
# Poissons Ratio (x) = -0.13009 0.22880
# Poissons Ratio (y) = -0.14579 0.44075
# Poissons Ratio (z) = 0.27774 0.47740
#
# Static dielectric constant tensor:
#      x y z
#    x 1.686040 0.000000 0.000000 
#    y 0.000000 1.637400 0.000000 
#    z 0.000000 0.000000 1.653250 
# 
# From -- ./inp_files/16262.got.cif
#   From: 2010.05.17/outbox.cif.g08.bks.cpg/sg51_9_cif.got.tgz:16262.got - 2010.06.03 11:52:47.
