data_PCOD9405501
_publ_section_title
;
Structure prediction by ZEFSAII (Michael W. Deem and Ramdas Pophale) SiO2 
 PCOD9405501
Probable space group: P M M A
;
_chemical_formula_sum "Si O2"
_cell_formula_units_Z 48
_cell_length_a 19.173870
_cell_length_b 9.014385
_cell_length_c 15.619917
_cell_angle_alpha 90.000000
_cell_angle_beta 90.000000
_cell_angle_gamma 90.000000
_cell_volume 2699.756547
_symmetry_space_group_name_H-M "P M M A"
_symmetry_group_IT_number 51
_symmetry_cell_setting 'orthorhombic'
loop_
_space_group_symop_operation_xyz
x,y,z
1/2-x,-y,z
1/2+x,-y,-z
-x,y,-z
-x,-y,-z
1/2+x,y,-z
1/2-x,y,z
x,-y,z
loop_
_atom_site_type_symbol
_atom_site_label
_atom_site_fract_x
_atom_site_fract_y
_atom_site_fract_z
Si Si1 0.830693 0.678385 0.846696
Si Si2 0.919178 0.821129 0.996420
Si Si3 0.831990 0.677721 0.648972
Si Si4 0.668349 0.177348 0.163133
Si Si5 0.918219 0.177431 0.497996
Si Si6 0.831934 0.322778 0.345143
O O1 0.750000 0.720987 0.863156
O O2 0.834856 0.500000 0.853619
O O3 0.880816 0.753118 0.914778
O O4 0.847019 0.716576 0.747931
O O5 0.915652 0.000000 0.990843
O O6 0.878936 0.776875 0.083168
O O7 0.000000 0.777239 0.000000
O O8 0.750000 0.709159 0.632919
O O9 0.841038 0.500000 0.639220
O O10 0.880084 0.762330 0.582516
O O11 0.750000 0.205796 0.143514
O O12 0.650932 0.260319 0.251060
O O13 0.660438 0.000000 0.176040
O O14 0.879804 0.249393 0.416825
O O15 0.000000 0.216341 0.500000
O O16 0.912007 0.000000 0.493420
O O17 0.750000 0.287593 0.361624
O O18 0.839427 0.500000 0.346968
#
# Coordination Sequence:
#
# PCOD9405501 Si02
#       6
#     8   8   8   8   8   8
#     4   9  19  36  57  80 106 137 175 221 268 312
#     4  10  21  35  52  78 112 146 178 216 263 314
#     4   9  19  37  59  82 108 138 175 220 267 314
#     4   9  18  34  55  77 104 140 179 219 263 310
#     4  11  24  38  53  78 111 144 177 215 261 314
#     4  10  21  37  58  82 105 134 176 223 268 315
#
# _framework density 17.77938
#
# number of rings (size 3 to 8) (size 9 to 14) (size 15 to 20)
#    0.000    2.333    0.000    3.000    0.000    8.667 
#    0.000    8.333    0.000    0.000    0.000    0.000 
#    0.000    0.000    0.000    0.000    0.000    0.000 
#
# Total GULP energy -268011.530193 kJ/mol
# GULP energy per Si atom -5583.573546 kJ/mol
# Density = 1.773891 g / cm^3
# Si number density = 17.779380 Si / 1000 Ang^3
#
#
#
# Elastic Constant Matrix: (Units=GPa)
#
#
# Indices 1 2 3 4 5 6 
#
# 1 140.0436 64.6132 134.4978 0.0000 0.0000 0.0000
# 2 64.6132 40.1423 66.4735 0.0000 0.0000 0.0000
# 3 134.4978 66.4735 171.6261 0.0000 0.0000 0.0000
# 4 0.0000 0.0000 0.0000 37.8523 0.0000 0.0000
# 5 0.0000 0.0000 0.0000 0.0000 -17.5811 0.0000
# 6 0.0000 0.0000 0.0000 0.0000 0.0000 24.2257
#
#
#
# Elastic Compliance Matrix: (Units=1/GPa)
#
#
# Indices 1 2 3 4 5 6 
#
# 1 0.042099 -0.036613 -0.018811 0.000000 0.000000 0.000000
# 2 -0.036613 0.101305 -0.010545 0.000000 0.000000 0.000000
# 3 -0.018811 -0.010545 0.024652 0.000000 0.000000 0.000000
# 4 0.000000 0.000000 0.000000 0.026419 0.000000 0.000000
# 5 0.000000 0.000000 0.000000 0.000000 -0.056879 0.000000
# 6 0.000000 0.000000 0.000000 0.000000 0.000000 0.041278
#
#
# Mechanical properties :
#
#
# Convention : Reuss Voigt Hill
#
# Bulk Modulus (GPa) = 27.68602 98.10901 62.89752
# Shear Modulus (GPa) = 15.48702 14.64787 15.06744
#
# Velocity S-wave (km/s) = 2.95459 2.87342 2.91429
# Velocity P-wave (km/s) = 5.21970 8.14309 6.83941
#
# Compressibility (1/GPa) = 0.03611931
#
# Stress axis : x y z
#
# Youngs Moduli (GPa) = 23.75350 9.87117 40.56422
#
# Poissons Ratio (x) = 0.36141 0.76305
# Poissons Ratio (y) = 0.86968 0.42774
# Poissons Ratio (z) = 0.44682 0.10409
#
# Static dielectric constant tensor:
#      x y z
#    x 1.586960 0.000000 0.000000 
#    y 0.000000 1.592110 0.000000 
#    z 0.000000 0.000000 1.578990 
# 
# From -- ./inp_files/24735.got.cif
#   From: 2010.05.17/outbox.cif.g08.bks.cpg/sg51_13_cif.got.tgz:24735.got - 2010.06.03 11:52:47.
