data_PCOD9405061
_publ_section_title
;
Structure prediction by ZEFSAII (Michael W. Deem and Ramdas Pophale) SiO2 
 PCOD9405061
Probable space group: P M M A
;
_chemical_formula_sum "Si O2"
_cell_formula_units_Z 40
_cell_length_a 15.392620
_cell_length_b 8.055635
_cell_length_c 15.796693
_cell_angle_alpha 90.000000
_cell_angle_beta 90.000000
_cell_angle_gamma 90.000000
_cell_volume 1958.747730
_symmetry_space_group_name_H-M "P M M A"
_symmetry_group_IT_number 51
_symmetry_cell_setting 'orthorhombic'
loop_
_space_group_symop_operation_xyz
x,y,z
1/2-x,-y,z
1/2+x,-y,-z
-x,y,-z
-x,-y,-z
1/2+x,y,-z
1/2-x,y,z
x,-y,z
loop_
_atom_site_type_symbol
_atom_site_label
_atom_site_fract_x
_atom_site_fract_y
_atom_site_fract_z
Si Si1 0.750000 0.694153 0.499188
Si Si2 0.750000 0.799683 0.692058
Si Si3 0.389689 0.201939 0.167364
Si Si4 0.750000 0.694998 0.162451
Si Si5 0.750000 0.798354 0.968034
Si Si6 0.934093 0.197910 0.429511
Si Si7 0.567033 0.800320 0.238784
O O1 0.750000 0.500000 0.479540
O O2 0.750000 0.721218 0.600088
O O3 0.663623 0.773197 0.460280
O O4 0.833473 0.755292 0.749170
O O5 0.750000 0.000000 0.681507
O O6 0.334449 0.256798 0.085951
O O7 0.488062 0.260285 0.179523
O O8 0.389972 0.000000 0.163296
O O9 0.750000 0.500000 0.174374
O O10 0.662255 0.762378 0.204592
O O11 0.750000 0.737206 0.063203
O O12 0.750000 0.000000 0.969547
O O13 0.945367 0.264300 0.334485
O O14 0.000000 0.267051 0.500000
O O15 0.949861 0.000000 0.424718
O O16 0.559459 0.000000 0.241896
#
# Coordination Sequence:
#
# PCOD9405061 Si02
#       7
#     4   4   8   4   4   8   8
#     4  12  24  34  49  78 118 157 188 225 276 333
#     4   9  16  33  59  85 112 142 181 228 277 330
#     4   8  16  33  62  91 109 131 174 232 283 327
#     4  12  26  40  53  76 114 155 190 223 264 319
#     4   9  18  37  63  89 112 136 171 220 277 334
#     4  10  21  38  61  85 109 143 190 239 281 326
#     4  10  20  37  60  84 108 140 183 229 277 325
#
# _framework density 20.421211
#
# number of rings (size 3 to 8) (size 9 to 14) (size 15 to 20)
#    0.000    2.200    0.000    4.800    0.000    7.600 
#    0.000   10.000    0.000    0.000    0.000    0.000 
#    0.000    0.000    0.000    0.000    0.000    0.000 
#
# Total GULP energy -223378.896373 kJ/mol
# GULP energy per Si atom -5584.472409 kJ/mol
# Density = 2.037473 g / cm^3
# Si number density = 20.421211 Si / 1000 Ang^3
#
#
#
# Elastic Constant Matrix: (Units=GPa)
#
#
# Indices 1 2 3 4 5 6 
#
# 1 171.2454 -1.8923 64.0162 0.0000 0.0000 0.0000
# 2 -1.8923 11.1149 3.8500 0.0000 0.0000 0.0000
# 3 64.0162 3.8500 124.2597 0.0000 0.0000 0.0000
# 4 0.0000 0.0000 0.0000 -28.3988 0.0000 0.0000
# 5 0.0000 0.0000 0.0000 0.0000 1.9156 0.0000
# 6 0.0000 0.0000 0.0000 0.0000 0.0000 -373.9490
#
#
#
# Elastic Compliance Matrix: (Units=1/GPa)
#
#
# Indices 1 2 3 4 5 6 
#
# 1 0.007305 0.002575 -0.003843 0.000000 0.000000 0.000000
# 2 0.002575 0.091853 -0.004172 0.000000 0.000000 0.000000
# 3 -0.003843 -0.004172 0.010157 0.000000 0.000000 0.000000
# 4 0.000000 0.000000 0.000000 -0.035213 0.000000 0.000000
# 5 0.000000 0.000000 0.000000 0.000000 0.522027 0.000000
# 6 0.000000 0.000000 0.000000 0.000000 0.000000 -0.002674
#
#
# Mechanical properties :
#
#
# Convention : Reuss Voigt Hill
#
# Bulk Modulus (GPa) = 10.15916 48.72977 29.44446
# Shear Modulus (GPa) = 7.84748 -64.04338 -28.09795
#
# Velocity S-wave (km/s) = 1.96243 -5.60618 -3.71336
# Velocity P-wave (km/s) = 3.18127 4.24165 1.98382
#
# Compressibility (1/GPa) = 0.09843337
#
# Stress axis : x y z
#
# Youngs Moduli (GPa) = 136.89935 10.88693 98.45656
#
# Poissons Ratio (x) = -0.02803 0.37837
# Poissons Ratio (y) = -0.35248 0.41080
# Poissons Ratio (z) = 0.52610 0.04542
#
# Static dielectric constant tensor:
#      x y z
#    x 1.737040 0.000000 0.000000 
#    y 0.000000 1.717340 0.000000 
#    z 0.000000 0.000000 1.709470 
# 
# From -- ./inp_files/23858.got.cif
#   From: 2010.05.17/outbox.cif.g08.bks.cpg/sg51_12_cif.got.tgz:23858.got - 2010.06.03 11:52:47.
