data_PCOD9405830
_publ_section_title
;
Structure prediction by ZEFSAII (Michael W. Deem and Ramdas Pophale) SiO2 
 PCOD9405830
Probable space group: P M M A
;
_chemical_formula_sum "Si O2"
_cell_formula_units_Z 44
_cell_length_a 8.847415
_cell_length_b 15.742709
_cell_length_c 17.614019
_cell_angle_alpha 90.000000
_cell_angle_beta 90.000000
_cell_angle_gamma 90.000000
_cell_volume 2453.320722
_symmetry_space_group_name_H-M "P M M A"
_symmetry_group_IT_number 51
_symmetry_cell_setting 'orthorhombic'
loop_
_space_group_symop_operation_xyz
x,y,z
1/2-x,-y,z
1/2+x,-y,-z
-x,y,-z
-x,-y,-z
1/2+x,y,-z
1/2-x,y,z
x,-y,z
loop_
_atom_site_type_symbol
_atom_site_label
_atom_site_fract_x
_atom_site_fract_y
_atom_site_fract_z
Si Si1 0.069480 0.404178 0.416365
Si Si2 0.575923 0.266305 0.307646
Si Si3 0.931806 0.095606 0.236380
Si Si4 0.575060 0.327072 0.133650
Si Si5 0.069563 0.155410 0.078806
Si Si6 0.430182 0.500000 0.083617
O O1 0.250000 0.401896 0.421500
O O2 0.025388 0.500000 0.389474
O O3 0.000000 0.393405 0.500000
O O4 0.013763 0.329587 0.361601
O O5 0.750000 0.263263 0.334158
O O6 0.519118 0.169786 0.294376
O O7 0.574483 0.303087 0.222244
O O8 0.750000 0.106670 0.225824
O O9 0.008433 0.109080 0.154365
O O10 0.960235 0.000000 0.263145
O O11 0.750000 0.331466 0.107968
O O12 0.489242 0.252057 0.089745
O O13 0.492414 0.415681 0.122945
O O14 0.250000 0.152171 0.075986
O O15 0.000000 0.122040 0.000000
O O16 0.250000 0.500000 0.081253
O O17 0.500000 0.500000 0.000000
#
# Coordination Sequence:
#
# PCOD9405830 Si02
#       6
#     8   8   8   8   8   4
#     4  10  21  36  56  84 116 149 181 217 260 312
#     4   9  19  35  57  82 109 142 176 217 268 320
#     4   9  19  37  58  80 107 141 182 226 275 331
#     4  10  21  37  53  73 101 138 181 223 272 326
#     4  11  21  34  52  74 102 137 178 228 282 332
#     4  12  24  36  50  70  99 136 181 230 276 322
#
# _framework density 17.934875000000002
#
# number of rings (size 3 to 8) (size 9 to 14) (size 15 to 20)
#    0.000    2.000    0.000    5.182    1.273    5.455 
#    0.000    0.000    0.000    0.545    0.000    0.000 
#    0.000    0.000    0.000    0.000    0.000    0.000 
#
# Total GULP energy -245627.173244 kJ/mol
# GULP energy per Si atom -5582.435756 kJ/mol
# Density = 1.789405 g / cm^3
# Si number density = 17.934875 Si / 1000 Ang^3
#
#
#
# Elastic Constant Matrix: (Units=GPa)
#
#
# Indices 1 2 3 4 5 6 
#
# 1 94.9551 50.8181 32.3099 0.0000 0.0000 0.0000
# 2 50.8181 149.9776 50.3682 0.0000 0.0000 0.0000
# 3 32.3099 50.3682 63.4604 0.0000 0.0000 0.0000
# 4 0.0000 0.0000 0.0000 10.5128 0.0000 0.0000
# 5 0.0000 0.0000 0.0000 0.0000 31.5616 0.0000
# 6 0.0000 0.0000 0.0000 0.0000 0.0000 23.4840
#
#
#
# Elastic Compliance Matrix: (Units=1/GPa)
#
#
# Indices 1 2 3 4 5 6 
#
# 1 0.013747 -0.003146 -0.004502 0.000000 0.000000 0.000000
# 2 -0.003146 0.009811 -0.006185 0.000000 0.000000 0.000000
# 3 -0.004502 -0.006185 0.022959 0.000000 0.000000 0.000000
# 4 0.000000 0.000000 0.000000 0.095122 0.000000 0.000000
# 5 0.000000 0.000000 0.000000 0.000000 0.031684 0.000000
# 6 0.000000 0.000000 0.000000 0.000000 0.000000 0.042582
#
#
# Mechanical properties :
#
#
# Convention : Reuss Voigt Hill
#
# Bulk Modulus (GPa) = 53.04889 63.93173 58.49031
# Shear Modulus (GPa) = 20.01161 24.77147 22.39154
#
# Velocity S-wave (km/s) = 3.34397 3.72047 3.53723
# Velocity P-wave (km/s) = 6.67476 7.36069 7.02610
#
# Compressibility (1/GPa) = 0.01885054
#
# Stress axis : x y z
#
# Youngs Moduli (GPa) = 72.74384 101.92816 43.55574
#
# Poissons Ratio (x) = 0.32067 0.19609
# Poissons Ratio (y) = 0.22885 0.26940
# Poissons Ratio (z) = 0.32750 0.63043
#
# Static dielectric constant tensor:
#      x y z
#    x 1.604500 0.000000 0.000000 
#    y 0.000000 1.634690 0.000000 
#    z 0.000000 0.000000 1.570250 
# 
# From -- ./inp_files/27351.got.cif
#   From: 2010.05.17/outbox.cif.g08.bks.cpg/sg51_14_cif.got.tgz:27351.got - 2010.06.03 11:52:47.
