data_PCOD9405444
_publ_section_title
;
Structure prediction by ZEFSAII (Michael W. Deem and Ramdas Pophale) SiO2 
 PCOD9405444
Probable space group: P M M A
;
_chemical_formula_sum "Si O2"
_cell_formula_units_Z 64
_cell_length_a 8.969360
_cell_length_b 14.183534
_cell_length_c 26.813463
_cell_angle_alpha 90.000000
_cell_angle_beta 90.000000
_cell_angle_gamma 90.000000
_cell_volume 3411.134289
_symmetry_space_group_name_H-M "P M M A"
_symmetry_group_IT_number 51
_symmetry_cell_setting 'orthorhombic'
loop_
_space_group_symop_operation_xyz
x,y,z
1/2-x,-y,z
1/2+x,-y,-z
-x,y,-z
-x,-y,-z
1/2+x,y,-z
1/2-x,y,z
x,-y,z
loop_
_atom_site_type_symbol
_atom_site_label
_atom_site_fract_x
_atom_site_fract_y
_atom_site_fract_z
Si Si1 0.429714 0.203313 0.949209
Si Si2 0.920000 0.614331 0.208658
Si Si3 0.926116 0.610953 0.689059
Si Si4 0.423421 0.113440 0.844664
Si Si5 0.073330 0.112410 0.447062
Si Si6 0.427183 0.786270 0.647069
Si Si7 0.431258 0.393288 0.902746
Si Si8 0.075683 0.886028 0.258341
O O1 0.250000 0.197822 0.952431
O O2 0.475466 0.151235 0.898215
O O3 0.475439 0.312623 0.941040
O O4 0.500000 0.165947 0.000000
O O5 0.750000 0.648033 0.217345
O O6 0.912965 0.500000 0.206903
O O7 0.972551 0.640007 0.153234
O O8 0.024575 0.638158 0.254703
O O9 0.750000 0.624498 0.683036
O O10 0.960040 0.500000 0.682373
O O11 0.016353 0.679218 0.652997
O O12 0.250000 0.141946 0.838856
O O13 0.512463 0.144288 0.795568
O O14 0.429258 0.000000 0.846138
O O15 0.750000 0.130542 0.551898
O O16 0.997864 0.166424 0.401566
O O17 0.000000 0.137727 0.500000
O O18 0.051528 0.000000 0.439819
O O19 0.250000 0.790845 0.645270
O O20 0.486817 0.840736 0.696035
O O21 0.250000 0.396731 0.902048
O O22 0.484845 0.500000 0.912139
O O23 0.250000 0.862165 0.262762
O O24 0.061664 0.000000 0.261103
#
# Coordination Sequence:
#
# PCOD9405444 Si02
#       8
#     8   8   8   8   8   8   8   8
#     4  10  21  35  51  72  97 128 170 217 268 325
#     4   8  14  27  48  72  97 130 174 219 266 327
#     4  10  21  36  53  78 115 154 193 241 292 338
#     4   9  19  36  55  75 101 134 173 218 269 330
#     4  10  21  39  63  91 125 162 201 246 293 341
#     4  12  24  36  57  87 120 160 202 240 282 337
#     4   8  15  29  49  71  96 127 164 208 260 321
#     4  10  21  37  57  84 117 148 180 225 284 346
#
# _framework density 18.762086
#
# number of rings (size 3 to 8) (size 9 to 14) (size 15 to 20)
#    0.000    2.375    0.000    3.375    1.750    4.750 
#    0.000    0.625    0.000    1.125    0.000    0.000 
#    0.000    0.000    0.000    0.000    0.000    0.000 
#
# Total GULP energy -357364.432779 kJ/mol
# GULP energy per Si atom -5583.819262 kJ/mol
# Density = 1.871938 g / cm^3
# Si number density = 18.762086 Si / 1000 Ang^3
#
#
#
# Elastic Constant Matrix: (Units=GPa)
#
#
# Indices 1 2 3 4 5 6 
#
# 1 88.5911 44.1789 72.6467 0.0000 0.0000 0.0000
# 2 44.1789 59.9313 58.4682 0.0000 0.0000 0.0000
# 3 72.6467 58.4682 157.3134 0.0000 0.0000 0.0000
# 4 0.0000 0.0000 0.0000 31.2200 0.0000 0.0000
# 5 0.0000 0.0000 0.0000 0.0000 32.3130 0.0000
# 6 0.0000 0.0000 0.0000 0.0000 0.0000 20.6031
#
#
#
# Elastic Compliance Matrix: (Units=1/GPa)
#
#
# Indices 1 2 3 4 5 6 
#
# 1 0.021134 -0.009504 -0.006227 0.000000 0.000000 0.000000
# 2 -0.009504 0.030451 -0.006929 0.000000 0.000000 0.000000
# 3 -0.006227 -0.006929 0.011808 0.000000 0.000000 0.000000
# 4 0.000000 0.000000 0.000000 0.032031 0.000000 0.000000
# 5 0.000000 0.000000 0.000000 0.000000 0.030947 0.000000
# 6 0.000000 0.000000 0.000000 0.000000 0.000000 0.048536
#
#
# Mechanical properties :
#
#
# Convention : Reuss Voigt Hill
#
# Bulk Modulus (GPa) = 55.33142 72.93594 64.13368
# Shear Modulus (GPa) = 22.09932 25.53000 23.81466
#
# Velocity S-wave (km/s) = 3.43574 3.69280 3.56658
# Velocity P-wave (km/s) = 6.73009 7.55916 7.15664
#
# Compressibility (1/GPa) = 0.01807291
#
# Stress axis : x y z
#
# Youngs Moduli (GPa) = 47.31806 32.83926 84.69026
#
# Poissons Ratio (x) = 0.31209 0.52738
# Poissons Ratio (y) = 0.44969 0.58682
# Poissons Ratio (z) = 0.29466 0.22754
#
# Static dielectric constant tensor:
#      x y z
#    x 1.627340 0.000000 0.000000 
#    y 0.000000 1.693260 0.000000 
#    z 0.000000 0.000000 1.624330 
# 
# From -- ./inp_files/35020.got.cif
#   From: 2010.05.17/outbox.cif.g08.bks.cpg/sg51_18_cif.got.tgz:35020.got - 2010.06.03 11:52:47.
