data_PCOD9405608
_publ_section_title
;
Structure prediction by ZEFSAII (Michael W. Deem and Ramdas Pophale) SiO2 
 PCOD9405608
Probable space group: P M M A
;
_chemical_formula_sum "Si O2"
_cell_formula_units_Z 40
_cell_length_a 9.602540
_cell_length_b 14.542571
_cell_length_c 15.254063
_cell_angle_alpha 90.000000
_cell_angle_beta 90.000000
_cell_angle_gamma 90.000000
_cell_volume 2130.163081
_symmetry_space_group_name_H-M "P M M A"
_symmetry_group_IT_number 51
_symmetry_cell_setting 'orthorhombic'
loop_
_space_group_symop_operation_xyz
x,y,z
1/2-x,-y,z
1/2+x,-y,-z
-x,y,-z
-x,-y,-z
1/2+x,y,-z
1/2-x,y,z
x,-y,z
loop_
_atom_site_type_symbol
_atom_site_label
_atom_site_fract_x
_atom_site_fract_y
_atom_site_fract_z
Si Si1 0.909018 0.387664 0.916558
Si Si2 0.909437 0.887573 0.082742
Si Si3 0.083612 0.261915 0.589365
Si Si4 0.580540 0.104991 0.276566
Si Si5 0.590679 0.389736 0.249406
O O1 0.750000 0.355655 0.921194
O O2 0.906137 0.500000 0.917611
O O3 0.986556 0.360876 0.827284
O O4 0.000000 0.359257 0.000000
O O5 0.750000 0.856431 0.073262
O O6 0.963942 0.862133 0.179566
O O7 0.907457 0.000000 0.083491
O O8 0.000000 0.858457 0.000000
O O9 0.250000 0.257634 0.572633
O O10 0.040803 0.171667 0.644825
O O11 0.058089 0.344836 0.657360
O O12 0.000000 0.270521 0.500000
O O13 0.750000 0.104714 0.272881
O O14 0.534692 0.000000 0.290158
O O15 0.750000 0.362271 0.226405
O O16 0.586896 0.500000 0.255455
#
# Coordination Sequence:
#
# PCOD9405608 Si02
#       5
#     8   8   8   8   8
#     4   9  16  27  47  75 104 134 167 202 241 287
#     4   8  13  23  42  67  93 121 151 182 220 269
#     4  10  21  36  53  72  95 124 161 207 255 299
#     4   8  15  30  51  72  96 128 161 192 235 293
#     4   9  18  33  51  71  98 132 167 202 242 290
#
# _framework density 18.777905000000001
#
# number of rings (size 3 to 8) (size 9 to 14) (size 15 to 20)
#    0.000    3.200    0.000    1.800    0.000    4.000 
#    0.000    2.000    0.000    3.600    0.000    0.000 
#    0.000    0.000    0.000    0.000    0.000    0.000 
#
# Total GULP energy -223114.949546 kJ/mol
# GULP energy per Si atom -5577.873739 kJ/mol
# Density = 1.873517 g / cm^3
# Si number density = 18.777905 Si / 1000 Ang^3
#
#
#
# Elastic Constant Matrix: (Units=GPa)
#
#
# Indices 1 2 3 4 5 6 
#
# 1 97.6712 30.9047 106.6195 0.0000 0.0000 0.0000
# 2 30.9047 51.0423 37.2858 0.0000 0.0000 0.0000
# 3 106.6195 37.2858 193.3785 0.0000 0.0000 0.0000
# 4 0.0000 0.0000 0.0000 33.8989 0.0000 0.0000
# 5 0.0000 0.0000 0.0000 0.0000 40.2906 0.0000
# 6 0.0000 0.0000 0.0000 0.0000 0.0000 6.4585
#
#
#
# Elastic Compliance Matrix: (Units=1/GPa)
#
#
# Indices 1 2 3 4 5 6 
#
# 1 0.027439 -0.006474 -0.013880 0.000000 0.000000 0.000000
# 2 -0.006474 0.024331 -0.001122 0.000000 0.000000 0.000000
# 3 -0.013880 -0.001122 0.013040 0.000000 0.000000 0.000000
# 4 0.000000 0.000000 0.000000 0.029499 0.000000 0.000000
# 5 0.000000 0.000000 0.000000 0.000000 0.024820 0.000000
# 6 0.000000 0.000000 0.000000 0.000000 0.000000 0.154835
#
#
# Mechanical properties :
#
#
# Convention : Reuss Voigt Hill
#
# Bulk Modulus (GPa) = 45.74996 76.85690 61.30343
# Shear Modulus (GPa) = 15.42247 27.28172 21.35210
#
# Velocity S-wave (km/s) = 2.86896 3.81578 3.37573
# Velocity P-wave (km/s) = 5.94905 7.77379 6.92181
#
# Compressibility (1/GPa) = 0.02185794
#
# Stress axis : x y z
#
# Youngs Moduli (GPa) = 36.44503 41.09990 76.68555
#
# Poissons Ratio (x) = 0.26609 1.06440
# Poissons Ratio (y) = 0.23595 0.08603
# Poissons Ratio (z) = 0.50586 0.04611
#
# Static dielectric constant tensor:
#      x y z
#    x 1.633030 0.000000 0.000000 
#    y 0.000000 1.704200 0.000000 
#    z 0.000000 0.000000 1.619150 
# 
# From -- ./inp_files/20499.got.cif
#   From: 2010.05.17/outbox.cif.g08.bks.cpg/sg51_11_cif.got.tgz:20499.got - 2010.06.03 11:52:47.
