data_PCOD9405121
_publ_section_title
;
Structure prediction by ZEFSAII (Michael W. Deem and Ramdas Pophale) SiO2 
 PCOD9405121
Probable space group: P M M A
;
_chemical_formula_sum "Si O2"
_cell_formula_units_Z 38
_cell_length_a 9.748145
_cell_length_b 7.432840
_cell_length_c 27.026190
_cell_angle_alpha 90.000000
_cell_angle_beta 90.000000
_cell_angle_gamma 90.000000
_cell_volume 1958.220489
_symmetry_space_group_name_H-M "P M M A"
_symmetry_group_IT_number 51
_symmetry_cell_setting 'orthorhombic'
loop_
_space_group_symop_operation_xyz
x,y,z
1/2-x,-y,z
1/2+x,-y,-z
-x,y,-z
-x,-y,-z
1/2+x,y,-z
1/2-x,y,z
x,-y,z
loop_
_atom_site_type_symbol
_atom_site_label
_atom_site_fract_x
_atom_site_fract_y
_atom_site_fract_z
Si Si1 0.407676 0.280498 0.253822
Si Si2 0.250000 0.000000 0.012164
Si Si3 0.976508 0.000000 0.076227
Si Si4 0.906669 0.285320 0.344203
Si Si5 0.410302 0.285446 0.840738
Si Si6 0.405730 0.215742 0.544290
O O1 0.250000 0.220365 0.252764
O O2 0.405420 0.500000 0.255005
O O3 0.490897 0.217907 0.302145
O O4 0.492984 0.231660 0.204925
O O5 0.131502 0.000000 0.968311
O O6 0.128449 0.000000 0.054461
O O7 0.949495 0.172726 0.111038
O O8 0.750000 0.214932 0.339815
O O9 0.898218 0.500000 0.337612
O O10 0.956082 0.252886 0.400150
O O11 0.250000 0.252457 0.828597
O O12 0.425845 0.500000 0.849062
O O13 0.500000 0.284679 0.500000
O O14 0.250000 0.285243 0.540869
O O15 0.399630 0.000000 0.539423
#
# Coordination Sequence:
#
# PCOD9405121 Si02
#       6
#     8   2   4   8   8   8
#     4   9  18  32  52  80 111 141 177 226 279 329
#     4  10  24  42  66  86 128 156 196 242 292 322
#     4  11  22  44  62  90 120 162 191 244 286 336
#     4   9  17  31  50  71  99 134 171 215 270 328
#     4  10  20  37  62  88 117 156 198 235 284 347
#     4   9  18  32  48  66  92 129 169 213 263 318
#
# _framework density 19.405373000000001
#
# number of rings (size 3 to 8) (size 9 to 14) (size 15 to 20)
#    0.000    2.526    1.053    0.632    1.474    3.789 
#    1.895    3.158    0.000    0.000    0.000    0.000 
#    0.000    0.000    0.000    0.000    0.000    0.000 
#
# Total GULP energy -211546.669175 kJ/mol
# GULP energy per Si atom -5567.017610 kJ/mol
# Density = 1.936121 g / cm^3
# Si number density = 19.405373 Si / 1000 Ang^3
#
#
#
# Elastic Constant Matrix: (Units=GPa)
#
#
# Indices 1 2 3 4 5 6 
#
# 1 175.1141 28.6386 113.9438 0.0000 0.0000 0.0000
# 2 28.6386 63.5797 29.7523 0.0000 0.0000 0.0000
# 3 113.9438 29.7523 166.3324 0.0000 0.0000 0.0000
# 4 0.0000 0.0000 0.0000 -17.3320 0.0000 0.0000
# 5 0.0000 0.0000 0.0000 0.0000 38.9251 0.0000
# 6 0.0000 0.0000 0.0000 0.0000 0.0000 -48.4173
#
#
#
# Elastic Compliance Matrix: (Units=1/GPa)
#
#
# Indices 1 2 3 4 5 6 
#
# 1 0.010429 -0.001478 -0.006880 0.000000 0.000000 0.000000
# 2 -0.001478 0.017375 -0.002095 0.000000 0.000000 0.000000
# 3 -0.006880 -0.002095 0.011100 0.000000 0.000000 0.000000
# 4 0.000000 0.000000 0.000000 -0.057697 0.000000 0.000000
# 5 0.000000 0.000000 0.000000 0.000000 0.025690 0.000000
# 6 0.000000 0.000000 0.000000 0.000000 0.000000 -0.020654
#
#
# Mechanical properties :
#
#
# Convention : Reuss Voigt Hill
#
# Bulk Modulus (GPa) = 55.56520 83.29951 69.43236
# Shear Modulus (GPa) = 380.28025 10.14793 195.21409
#
# Velocity S-wave (km/s) = 14.01399 2.28928 10.04073
# Velocity P-wave (km/s) = 17.04558 7.07156 13.04912
#
# Compressibility (1/GPa) = 0.01799688
#
# Stress axis : x y z
#
# Youngs Moduli (GPa) = 95.88820 57.55531 90.09252
#
# Poissons Ratio (x) = 0.08507 0.61981
# Poissons Ratio (y) = 0.14173 0.18877
# Poissons Ratio (z) = 0.65968 0.12059
#
# Static dielectric constant tensor:
#      x y z
#    x 1.666620 0.000000 0.000000 
#    y 0.000000 1.723090 0.000000 
#    z 0.000000 0.000000 1.641970 
# 
# From -- ./inp_files/34343.got.cif
#   From: 2010.05.17/outbox.cif.g08.bks.cpg/sg51_18_cif.got.tgz:34343.got - 2010.06.03 11:52:47.
