data_PCOD9405097
_publ_section_title
;
Structure prediction by ZEFSAII (Michael W. Deem and Ramdas Pophale) SiO2 
 PCOD9405097
Probable space group: P M M A
;
_chemical_formula_sum "Si O2"
_cell_formula_units_Z 40
_cell_length_a 23.471418
_cell_length_b 7.665911
_cell_length_c 10.313172
_cell_angle_alpha 90.000000
_cell_angle_beta 90.000000
_cell_angle_gamma 90.000000
_cell_volume 1855.646990
_symmetry_space_group_name_H-M "P M M A"
_symmetry_group_IT_number 51
_symmetry_cell_setting 'orthorhombic'
loop_
_space_group_symop_operation_xyz
x,y,z
1/2-x,-y,z
1/2+x,-y,-z
-x,y,-z
-x,-y,-z
1/2+x,y,-z
1/2-x,y,z
x,-y,z
loop_
_atom_site_type_symbol
_atom_site_label
_atom_site_fract_x
_atom_site_fract_y
_atom_site_fract_z
Si Si1 0.684866 0.710856 0.031772
Si Si2 0.869713 0.706414 0.765381
Si Si3 0.985118 0.703703 0.642280
Si Si4 0.105187 0.793069 0.725232
Si Si5 0.186849 0.789033 0.499132
O O1 0.750000 0.773662 0.047943
O O2 0.687450 0.500000 0.025711
O O3 0.644412 0.758152 0.151173
O O4 0.656904 0.777138 0.897878
O O5 0.878041 0.500000 0.788301
O O6 0.930152 0.780466 0.714773
O O7 0.826976 0.730476 0.645681
O O8 0.971359 0.500000 0.619518
O O9 0.000000 0.780299 0.500000
O O10 0.042084 0.715831 0.727216
O O11 0.138961 0.725305 0.598677
O O12 0.098248 0.000000 0.711498
O O13 0.250000 0.732071 0.539506
O O14 0.185824 0.000000 0.501717
#
# Coordination Sequence:
#
# PCOD9405097 Si02
#       5
#     8   8   8   8   8
#     4  10  22  40  60  84 116 153 194 240 292 348
#     4  10  21  38  61  87 115 150 193 243 292 344
#     4  10  20  37  61  88 119 152 193 243 295 347
#     4  11  23  38  59  85 118 157 196 239 288 346
#     4  10  21  36  55  82 114 149 191 238 289 344
#
# _framework density 21.555824000000001
#
# number of rings (size 3 to 8) (size 9 to 14) (size 15 to 20)
#    0.000    1.800    2.000    1.800    0.000    6.000 
#    0.000    4.000    0.000    0.000    0.000    0.000 
#    0.000    0.000    0.000    0.000    0.000    0.000 
#
# Total GULP energy -223513.748358 kJ/mol
# GULP energy per Si atom -5587.843709 kJ/mol
# Density = 2.150676 g / cm^3
# Si number density = 21.555824 Si / 1000 Ang^3
#
#
#
# Elastic Constant Matrix: (Units=GPa)
#
#
# Indices 1 2 3 4 5 6 
#
# 1 100.2803 6.9081 -15.0120 0.0000 0.0000 0.0000
# 2 6.9081 32.0816 8.3716 0.0000 0.0000 0.0000
# 3 -15.0120 8.3716 52.3309 0.0000 0.0000 0.0000
# 4 0.0000 0.0000 0.0000 13.2683 0.0000 0.0000
# 5 0.0000 0.0000 0.0000 0.0000 37.4490 0.0000
# 6 0.0000 0.0000 0.0000 0.0000 0.0000 10.3599
#
#
#
# Elastic Compliance Matrix: (Units=1/GPa)
#
#
# Indices 1 2 3 4 5 6 
#
# 1 0.010735 -0.003251 0.003600 0.000000 0.000000 0.000000
# 2 -0.003251 0.033513 -0.006294 0.000000 0.000000 0.000000
# 3 0.003600 -0.006294 0.021149 0.000000 0.000000 0.000000
# 4 0.000000 0.000000 0.000000 0.075367 0.000000 0.000000
# 5 0.000000 0.000000 0.000000 0.000000 0.026703 0.000000
# 6 0.000000 0.000000 0.000000 0.000000 0.000000 0.096526
#
#
# Mechanical properties :
#
#
# Convention : Reuss Voigt Hill
#
# Bulk Modulus (GPa) = 18.68942 20.58091 19.63517
# Shear Modulus (GPa) = 17.02312 24.51044 20.76678
#
# Velocity S-wave (km/s) = 2.81325 3.37570 3.10723
# Velocity P-wave (km/s) = 4.38652 4.97617 4.69062
#
# Compressibility (1/GPa) = 0.05350620
#
# Stress axis : x y z
#
# Youngs Moduli (GPa) = 93.15463 29.83927 47.28446
#
# Poissons Ratio (x) = 0.09700 -0.17020
# Poissons Ratio (y) = 0.30283 0.29760
# Poissons Ratio (z) = -0.33531 0.18780
#
# Static dielectric constant tensor:
#      x y z
#    x 1.790030 0.000000 0.000000 
#    y 0.000000 1.794060 0.000000 
#    z 0.000000 0.000000 1.752610 
# 
# From -- ./inp_files/11410.got.cif
#   From: 2010.05.17/outbox.cif.g08.bks.cpg/sg51_6_cif.got.tgz:11410.got - 2010.06.03 11:52:47.
