data_PCOD9405189
_publ_section_title
;
Structure prediction by ZEFSAII (Michael W. Deem and Ramdas Pophale) SiO2 
 PCOD9405189
Probable space group: P M M A
;
_chemical_formula_sum "Si O2"
_cell_formula_units_Z 36
_cell_length_a 9.219428
_cell_length_b 13.636520
_cell_length_c 14.616192
_cell_angle_alpha 90.000000
_cell_angle_beta 90.000000
_cell_angle_gamma 90.000000
_cell_volume 1837.561022
_symmetry_space_group_name_H-M "P M M A"
_symmetry_group_IT_number 51
_symmetry_cell_setting 'orthorhombic'
loop_
_space_group_symop_operation_xyz
x,y,z
1/2-x,-y,z
1/2+x,-y,-z
-x,y,-z
-x,-y,-z
1/2+x,y,-z
1/2-x,y,z
x,-y,z
loop_
_atom_site_type_symbol
_atom_site_label
_atom_site_fract_x
_atom_site_fract_y
_atom_site_fract_z
Si Si1 0.089153 0.115964 0.414716
Si Si2 0.425140 0.500000 0.098918
Si Si3 0.076700 0.891545 0.776696
Si Si4 0.425226 0.677859 0.795612
Si Si5 0.583195 0.383119 0.405874
O O1 0.250000 0.159231 0.406336
O O2 0.000000 0.157345 0.500000
O O3 0.001831 0.117864 0.320663
O O4 0.106609 0.000000 0.434154
O O5 0.250000 0.500000 0.094148
O O6 0.485578 0.595958 0.151105
O O7 0.500000 0.500000 0.000000
O O8 0.250000 0.890945 0.761748
O O9 0.044035 0.789463 0.827781
O O10 0.038622 0.000000 0.815356
O O11 0.250000 0.659699 0.802614
O O12 0.465042 0.668459 0.687778
O O13 0.500000 0.367329 0.500000
O O14 0.750000 0.355339 0.420259
O O15 0.576241 0.500000 0.386630
#
# Coordination Sequence:
#
# PCOD9405189 Si02
#       5
#     8   4   8   8   8
#     4   9  16  26  41  62  95 142 195 248 292 331
#     4  12  26  44  69  96 119 144 183 234 292 354
#     4   9  18  32  52  79 111 150 192 233 283 341
#     4  10  20  38  61  86 121 158 194 241 293 344
#     4   9  17  30  49  74 109 153 196 238 286 337
#
# _framework density 19.591187000000001
#
# number of rings (size 3 to 8) (size 9 to 14) (size 15 to 20)
#    0.000    2.444    1.111    1.667    0.000    5.333 
#    0.000    2.222    0.000    0.667    0.000    0.000 
#    0.000    0.000    0.000    0.000    0.000    0.000 
#
# Total GULP energy -200701.414845 kJ/mol
# GULP energy per Si atom -5575.039301 kJ/mol
# Density = 1.954660 g / cm^3
# Si number density = 19.591187 Si / 1000 Ang^3
#
#
#
# Elastic Constant Matrix: (Units=GPa)
#
#
# Indices 1 2 3 4 5 6 
#
# 1 46.7504 60.0392 33.5748 0.0000 0.0000 0.0000
# 2 60.0392 160.2378 44.0190 0.0000 0.0000 0.0000
# 3 33.5748 44.0190 59.6601 0.0000 0.0000 0.0000
# 4 0.0000 0.0000 0.0000 -0.6501 0.0000 0.0000
# 5 0.0000 0.0000 0.0000 0.0000 24.0882 0.0000
# 6 0.0000 0.0000 0.0000 0.0000 0.0000 10.4482
#
#
#
# Elastic Compliance Matrix: (Units=1/GPa)
#
#
# Indices 1 2 3 4 5 6 
#
# 1 0.055186 -0.015234 -0.019817 0.000000 0.000000 0.000000
# 2 -0.015234 0.012032 -0.000305 0.000000 0.000000 0.000000
# 3 -0.019817 -0.000305 0.028139 0.000000 0.000000 0.000000
# 4 0.000000 0.000000 0.000000 -1.538214 0.000000 0.000000
# 5 0.000000 0.000000 0.000000 0.000000 0.041514 0.000000
# 6 0.000000 0.000000 0.000000 0.000000 0.000000 0.095710
#
#
# Mechanical properties :
#
#
# Convention : Reuss Voigt Hill
#
# Bulk Modulus (GPa) = 40.57416 60.21270 50.39343
# Shear Modulus (GPa) = -4.07596 15.37829 5.65117
#
# Velocity S-wave (km/s) = -1.44396 2.80475 1.70024
# Velocity P-wave (km/s) = 4.23973 6.42574 5.44360
#
# Compressibility (1/GPa) = 0.02464623
#
# Stress axis : x y z
#
# Youngs Moduli (GPa) = 18.12051 83.10961 35.53786
#
# Poissons Ratio (x) = 1.26606 0.70426
# Poissons Ratio (y) = 0.27604 0.01083
# Poissons Ratio (z) = 0.35910 0.02533
#
# Static dielectric constant tensor:
#      x y z
#    x 1.684060 0.000000 0.000000 
#    y 0.000000 1.785900 0.000000 
#    z 0.000000 0.000000 1.637660 
# 
# From -- ./inp_files/20308.got.cif
#   From: 2010.05.17/outbox.cif.g08.bks.cpg/sg51_11_cif.got.tgz:20308.got - 2010.06.03 11:52:47.
