data_PCOD9405033
_publ_section_title
;
Structure prediction by ZEFSAII (Michael W. Deem and Ramdas Pophale) SiO2 
 PCOD9405033
Probable space group: P M M A
;
_chemical_formula_sum "Si O2"
_cell_formula_units_Z 56
_cell_length_a 23.224593
_cell_length_b 8.845977
_cell_length_c 14.682550
_cell_angle_alpha 90.000000
_cell_angle_beta 90.000000
_cell_angle_gamma 90.000000
_cell_volume 3016.444966
_symmetry_space_group_name_H-M "P M M A"
_symmetry_group_IT_number 51
_symmetry_cell_setting 'orthorhombic'
loop_
_space_group_symop_operation_xyz
x,y,z
1/2-x,-y,z
1/2+x,-y,-z
-x,y,-z
-x,-y,-z
1/2+x,y,-z
1/2-x,y,z
x,-y,z
loop_
_atom_site_type_symbol
_atom_site_label
_atom_site_fract_x
_atom_site_fract_y
_atom_site_fract_z
Si Si1 0.020767 0.821296 0.787316
Si Si2 0.034764 0.826500 0.407549
Si Si3 0.250000 0.815855 0.665332
Si Si4 0.596392 0.317595 0.847249
Si Si5 0.250000 0.180202 0.455315
Si Si6 0.814351 0.317969 0.000699
Si Si7 0.854999 0.323139 0.651654
Si Si8 0.347638 0.816947 0.807104
O O1 0.004903 0.803066 0.680836
O O2 0.968640 0.744000 0.842265
O O3 0.085801 0.765680 0.801844
O O4 0.019441 0.000000 0.808069
O O5 0.086529 0.709726 0.402699
O O6 0.000000 0.812908 0.500000
O O7 0.057360 0.000000 0.401630
O O8 0.250000 0.763926 0.560513
O O9 0.306644 0.769589 0.723007
O O10 0.250000 0.000000 0.663759
O O11 0.593674 0.500000 0.846878
O O12 0.629586 0.271023 0.754405
O O13 0.634889 0.268449 0.932709
O O14 0.195189 0.236744 0.399277
O O15 0.250000 0.000000 0.458878
O O16 0.750000 0.283259 0.964813
O O17 0.818140 0.500000 0.009488
O O18 0.821837 0.243796 0.098994
O O19 0.841112 0.500000 0.655329
O O20 0.347588 0.000000 0.807715
#
# Coordination Sequence:
#
# PCOD9405033 Si02
#       8
#     8   8   4   8   4   8   8   8
#     4   9  19  34  55  82 111 142 181 230 276 322
#     4   9  18  33  56  80 107 145 189 229 270 325
#     4   9  20  37  58  79 108 146 187 225 268 329
#     4   9  20  38  59  80 110 149 183 221 276 336
#     4  11  23  37  58  83 110 148 191 227 270 331
#     4  10  21  37  58  82 107 143 187 227 271 327
#     4  10  21  37  56  81 114 146 182 229 278 327
#     4  10  20  37  59  82 110 144 181 226 278 325
#
# _framework density 18.564900000000002
#
# number of rings (size 3 to 8) (size 9 to 14) (size 15 to 20)
#    0.000    2.429    0.714    0.643    3.000    2.571 
#    0.000    4.286    0.000    0.000    0.000    0.000 
#    0.000    0.000    0.000    0.000    0.000    0.000 
#
# Total GULP energy -312318.685212 kJ/mol
# GULP energy per Si atom -5577.119379 kJ/mol
# Density = 1.852264 g / cm^3
# Si number density = 18.564900 Si / 1000 Ang^3
#
#
#
# Elastic Constant Matrix: (Units=GPa)
#
#
# Indices 1 2 3 4 5 6 
#
# 1 133.1977 24.4073 47.8027 0.0000 0.0000 0.0000
# 2 24.4073 13.1008 16.7220 0.0000 0.0000 0.0000
# 3 47.8027 16.7220 45.9468 0.0000 0.0000 0.0000
# 4 0.0000 0.0000 0.0000 23.7192 0.0000 0.0000
# 5 0.0000 0.0000 0.0000 0.0000 20.8297 0.0000
# 6 0.0000 0.0000 0.0000 0.0000 0.0000 40.2629
#
#
#
# Elastic Compliance Matrix: (Units=1/GPa)
#
#
# Indices 1 2 3 4 5 6 
#
# 1 0.013079 -0.013069 -0.008851 0.000000 0.000000 0.000000
# 2 -0.013069 0.155611 -0.043036 0.000000 0.000000 0.000000
# 3 -0.008851 -0.043036 0.046635 0.000000 0.000000 0.000000
# 4 0.000000 0.000000 0.000000 0.042160 0.000000 0.000000
# 5 0.000000 0.000000 0.000000 0.000000 0.048008 0.000000
# 6 0.000000 0.000000 0.000000 0.000000 0.000000 0.024837
#
#
# Mechanical properties :
#
#
# Convention : Reuss Voigt Hill
#
# Bulk Modulus (GPa) = 11.70784 41.12323 26.41554
# Shear Modulus (GPa) = 10.23093 23.84991 17.04042
#
# Velocity S-wave (km/s) = 2.35008 3.58813 3.03295
# Velocity P-wave (km/s) = 3.69918 6.27418 5.15021
#
# Compressibility (1/GPa) = 0.08541283
#
# Stress axis : x y z
#
# Youngs Moduli (GPa) = 76.45949 6.42627 21.44302
#
# Poissons Ratio (x) = 0.08399 0.18978
# Poissons Ratio (y) = 0.99927 0.92283
# Poissons Ratio (z) = 0.67672 0.27656
#
# Static dielectric constant tensor:
#      x y z
#    x 1.664950 0.000000 0.000000 
#    y 0.000000 1.638650 0.000000 
#    z 0.000000 0.000000 1.625810 
# 
# From -- ./inp_files/25806.got.cif
#   From: 2010.05.17/outbox.cif.g08.bks.cpg/sg51_13_cif.got.tgz:25806.got - 2010.06.03 11:52:47.
