data_PCOD9405588
_publ_section_title
;
Structure prediction by ZEFSAII (Michael W. Deem and Ramdas Pophale) SiO2 
 PCOD9405588
Probable space group: P M M A
;
_chemical_formula_sum "Si O2"
_cell_formula_units_Z 48
_cell_length_a 9.402216
_cell_length_b 7.514339
_cell_length_c 32.447519
_cell_angle_alpha 90.000000
_cell_angle_beta 90.000000
_cell_angle_gamma 90.000000
_cell_volume 2292.463889
_symmetry_space_group_name_H-M "P M M A"
_symmetry_group_IT_number 51
_symmetry_cell_setting 'orthorhombic'
loop_
_space_group_symop_operation_xyz
x,y,z
1/2-x,-y,z
1/2+x,-y,-z
-x,y,-z
-x,-y,-z
1/2+x,y,-z
1/2-x,y,z
x,-y,z
loop_
_atom_site_type_symbol
_atom_site_label
_atom_site_fract_x
_atom_site_fract_y
_atom_site_fract_z
Si Si1 0.910715 0.712346 0.800463
Si Si2 0.414956 0.782084 0.540060
Si Si3 0.076744 0.207577 0.629425
Si Si4 0.088573 0.286400 0.878324
Si Si5 0.911901 0.786540 0.960685
Si Si6 0.587255 0.214619 0.280964
O O1 0.750000 0.783468 0.801277
O O2 0.901398 0.500000 0.806334
O O3 0.007319 0.782653 0.837835
O O4 0.986687 0.741457 0.756892
O O5 0.500000 0.723143 0.500000
O O6 0.250000 0.732127 0.536096
O O7 0.468868 0.718885 0.584998
O O8 0.419725 0.000000 0.541024
O O9 0.250000 0.212200 0.629038
O O10 0.036443 0.282651 0.674113
O O11 0.033838 0.000000 0.629461
O O12 0.250000 0.218065 0.881693
O O13 0.097822 0.500000 0.874419
O O14 0.997016 0.249591 0.918906
O O15 0.750000 0.718260 0.959237
O O16 0.903238 0.000000 0.964975
O O17 0.000000 0.718133 0.000000
O O18 0.750000 0.276296 0.273521
O O19 0.593307 0.000000 0.284083
#
# Coordination Sequence:
#
# PCOD9405588 Si02
#       6
#     8   8   8   8   8   8
#     4  10  21  36  52  71  98 130 161 197 243 291
#     4   8  12  18  29  46  71 105 142 177 215 263
#     4   7  11  21  36  54  79 111 145 182 225 272
#     4  10  21  37  57  79 101 129 167 207 245 286
#     4  10  21  37  57  81 109 140 171 203 241 284
#     4   9  17  30  49  71  93 121 159 199 238 283
#
# _framework density 20.938171000000001
#
# number of rings (size 3 to 8) (size 9 to 14) (size 15 to 20)
#    0.000    3.000    0.000    3.500    0.000    4.333 
#    0.000    0.833    0.000    3.000    0.000    0.000 
#    0.000    0.667    0.000    1.500    0.000    4.333 
#
# Total GULP energy -267715.597023 kJ/mol
# GULP energy per Si atom -5577.408271 kJ/mol
# Density = 2.089051 g / cm^3
# Si number density = 20.938171 Si / 1000 Ang^3
#
#
#
# Elastic Constant Matrix: (Units=GPa)
#
#
# Indices 1 2 3 4 5 6 
#
# 1 156.4228 7.7416 123.7018 0.0000 0.0000 0.0000
# 2 7.7416 55.1108 0.8295 0.0000 0.0000 0.0000
# 3 123.7018 0.8295 245.8760 0.0000 0.0000 0.0000
# 4 0.0000 0.0000 0.0000 23.7472 0.0000 0.0000
# 5 0.0000 0.0000 0.0000 0.0000 36.1827 0.0000
# 6 0.0000 0.0000 0.0000 0.0000 0.0000 31.0535
#
#
#
# Elastic Compliance Matrix: (Units=1/GPa)
#
#
# Indices 1 2 3 4 5 6 
#
# 1 0.010728 -0.001426 -0.005393 0.000000 0.000000 0.000000
# 2 -0.001426 0.018336 0.000655 0.000000 0.000000 0.000000
# 3 -0.005393 0.000655 0.006778 0.000000 0.000000 0.000000
# 4 0.000000 0.000000 0.000000 0.042110 0.000000 0.000000
# 5 0.000000 0.000000 0.000000 0.000000 0.027638 0.000000
# 6 0.000000 0.000000 0.000000 0.000000 0.000000 0.032203
#
#
# Mechanical properties :
#
#
# Convention : Reuss Voigt Hill
#
# Bulk Modulus (GPa) = 42.52450 80.21727 61.37088
# Shear Modulus (GPa) = 31.65437 39.87246 35.76342
#
# Velocity S-wave (km/s) = 3.89241 4.36856 4.13734
# Velocity P-wave (km/s) = 6.36826 7.99002 7.22479
#
# Compressibility (1/GPa) = 0.02351586
#
# Stress axis : x y z
#
# Youngs Moduli (GPa) = 93.21417 54.53845 147.53867
#
# Poissons Ratio (x) = 0.07776 0.79560
# Poissons Ratio (y) = 0.13291 -0.09671
# Poissons Ratio (z) = 0.50266 -0.03575
#
# Static dielectric constant tensor:
#      x y z
#    x 1.719930 0.000000 0.000000 
#    y 0.000000 1.822640 0.000000 
#    z 0.000000 0.000000 1.754380 
# 
# From -- ./inp_files/37013.got.cif
#   From: 2010.05.17/outbox.cif.g08.bks.cpg/sg51_19_cif.got.tgz:37013.got - 2010.06.03 11:52:47.
