data_PCOD9405382
_publ_section_title
;
Structure prediction by ZEFSAII (Michael W. Deem and Ramdas Pophale) SiO2 
 PCOD9405382
Probable space group: P M M A
;
_chemical_formula_sum "Si O2"
_cell_formula_units_Z 48
_cell_length_a 7.521873
_cell_length_b 9.769206
_cell_length_c 32.375693
_cell_angle_alpha 90.000000
_cell_angle_beta 90.000000
_cell_angle_gamma 90.000000
_cell_volume 2379.054205
_symmetry_space_group_name_H-M "P M M A"
_symmetry_group_IT_number 51
_symmetry_cell_setting 'orthorhombic'
loop_
_space_group_symop_operation_xyz
x,y,z
1/2-x,-y,z
1/2+x,-y,-z
-x,y,-z
-x,-y,-z
1/2+x,y,-z
1/2-x,y,z
x,-y,z
loop_
_atom_site_type_symbol
_atom_site_label
_atom_site_fract_x
_atom_site_fract_y
_atom_site_fract_z
Si Si1 0.962953 0.844123 0.546060
Si Si2 0.536850 0.655609 0.047019
Si Si3 0.468199 0.341599 0.378605
Si Si4 0.455771 0.333464 0.288602
Si Si5 0.462369 0.154652 0.879456
Si Si6 0.964432 0.656410 0.801389
O O1 0.750000 0.850309 0.550222
O O2 0.028733 0.750623 0.583378
O O3 0.000000 0.790417 0.500000
O O4 0.032045 0.000000 0.548311
O O5 0.750000 0.649176 0.051558
O O6 0.468366 0.500000 0.052530
O O7 0.467265 0.758938 0.081558
O O8 0.500000 0.698468 0.000000
O O9 0.250000 0.339821 0.377558
O O10 0.519732 0.500000 0.384222
O O11 0.530621 0.292635 0.333195
O O12 0.250000 0.287802 0.288500
O O13 0.455804 0.500000 0.289019
O O14 0.532755 0.296938 0.243845
O O15 0.250000 0.144752 0.884885
O O16 0.491984 0.241375 0.838048
O O17 0.532720 0.000000 0.876970
O O18 0.750000 0.649974 0.798200
O O19 0.025859 0.500000 0.809763
#
# Coordination Sequence:
#
# PCOD9405382 Si02
#       6
#     8   8   8   8   8   8
#     4   9  17  28  41  58  81 109 141 175 211 254
#     4   9  18  33  52  72  93 119 154 194 232 271
#     4   8  13  23  41  63  85 109 138 174 217 262
#     4   7  11  22  41  65  90 112 137 176 224 266
#     4  10  21  35  49  68  98 133 163 190 225 272
#     4   9  17  30  50  74  96 120 154 194 233 274
#
# _framework density 20.176083999999999
#
# number of rings (size 3 to 8) (size 9 to 14) (size 15 to 20)
#    0.000    3.333    0.000    2.500    0.000    2.667 
#    0.000    2.500    0.000    4.000    0.000    4.667 
#    0.000    0.000    0.000    0.000    0.000    0.000 
#
# Total GULP energy -267492.871614 kJ/mol
# GULP energy per Si atom -5572.768159 kJ/mol
# Density = 2.013016 g / cm^3
# Si number density = 20.176084 Si / 1000 Ang^3
#
#
#
# Elastic Constant Matrix: (Units=GPa)
#
#
# Indices 1 2 3 4 5 6 
#
# 1 52.0439 5.2684 1.9412 0.0000 0.0000 0.0000
# 2 5.2684 101.7619 123.1993 0.0000 0.0000 0.0000
# 3 1.9412 123.1993 242.1309 0.0000 0.0000 0.0000
# 4 0.0000 0.0000 0.0000 -22.7785 0.0000 0.0000
# 5 0.0000 0.0000 0.0000 0.0000 15.3718 0.0000
# 6 0.0000 0.0000 0.0000 0.0000 0.0000 8.5095
#
#
#
# Elastic Compliance Matrix: (Units=1/GPa)
#
#
# Indices 1 2 3 4 5 6 
#
# 1 0.019395 -0.002125 0.000926 0.000000 0.000000 0.000000
# 2 -0.002125 0.025824 -0.013122 0.000000 0.000000 0.000000
# 3 0.000926 -0.013122 0.010799 0.000000 0.000000 0.000000
# 4 0.000000 0.000000 0.000000 -0.043901 0.000000 0.000000
# 5 0.000000 0.000000 0.000000 0.000000 0.065054 0.000000
# 6 0.000000 0.000000 0.000000 0.000000 0.000000 0.117516
#
#
# Mechanical properties :
#
#
# Convention : Reuss Voigt Hill
#
# Bulk Modulus (GPa) = 36.52940 72.97271 54.75105
# Shear Modulus (GPa) = 21.50951 17.92241 19.71596
#
# Velocity S-wave (km/s) = 3.26864 2.98367 3.12940
# Velocity P-wave (km/s) = 5.69122 6.93658 6.34453
#
# Compressibility (1/GPa) = 0.02737521
#
# Stress axis : x y z
#
# Youngs Moduli (GPa) = 51.55940 38.72439 92.59799
#
# Poissons Ratio (x) = 0.08228 -0.08570
# Poissons Ratio (y) = 0.10955 1.21510
# Poissons Ratio (z) = -0.04772 0.50815
#
# Static dielectric constant tensor:
#      x y z
#    x 1.792660 0.000000 0.000000 
#    y 0.000000 1.688300 0.000000 
#    z 0.000000 0.000000 1.729320 
# 
# From -- ./inp_files/35312.got.cif
#   From: 2010.05.17/outbox.cif.g08.bks.cpg/sg51_18_cif.got.tgz:35312.got - 2010.06.03 11:52:47.
