data_PCOD9405871
_publ_section_title
;
Structure prediction by ZEFSAII (Michael W. Deem and Ramdas Pophale) SiO2 
 PCOD9405871
Probable space group: P M M A
;
_chemical_formula_sum "Si O2"
_cell_formula_units_Z 56
_cell_length_a 22.744937
_cell_length_b 14.180990
_cell_length_c 9.635216
_cell_angle_alpha 90.000000
_cell_angle_beta 90.000000
_cell_angle_gamma 90.000000
_cell_volume 3107.797722
_symmetry_space_group_name_H-M "P M M A"
_symmetry_group_IT_number 51
_symmetry_cell_setting 'orthorhombic'
loop_
_space_group_symop_operation_xyz
x,y,z
1/2-x,-y,z
1/2+x,-y,-z
-x,y,-z
-x,-y,-z
1/2+x,y,-z
1/2-x,y,z
x,-y,z
loop_
_atom_site_type_symbol
_atom_site_label
_atom_site_fract_x
_atom_site_fract_y
_atom_site_fract_z
Si Si1 0.681748 0.888046 0.981256
Si Si2 0.909212 0.610150 0.311544
Si Si3 0.386225 0.245600 0.224851
Si Si4 0.068208 0.610566 0.007869
Si Si5 0.868889 0.111715 0.286034
Si Si6 0.179946 0.728979 0.515927
Si Si7 0.987597 0.788768 0.344449
O O1 0.750000 0.862514 0.971727
O O2 0.659374 0.867524 0.136545
O O3 0.675780 0.000000 0.960359
O O4 0.646190 0.832345 0.866107
O O5 0.921350 0.500000 0.339771
O O6 0.903993 0.621480 0.144983
O O7 0.852436 0.647821 0.393822
O O8 0.961449 0.682224 0.351735
O O9 0.350168 0.268187 0.364476
O O10 0.451292 0.211280 0.265444
O O11 0.396439 0.334603 0.124653
O O12 0.065922 0.500000 0.041695
O O13 0.000000 0.644221 0.000000
O O14 0.836934 0.174184 0.403385
O O15 0.936100 0.147472 0.281670
O O16 0.864954 0.000000 0.312875
O O17 0.250000 0.717840 0.508232
O O18 0.000000 0.821739 0.500000
#
# Coordination Sequence:
#
# PCOD9405871 Si02
#       7
#     8   8   8   8   8   8   8
#     4  10  23  42  62  86 116 157 206 247 290 348
#     4  10  21  39  62  88 118 156 199 241 289 349
#     4  12  22  37  62  89 126 154 191 244 306 350
#     4  10  21  36  59  90 120 151 190 235 289 354
#     4  10  22  40  63  87 116 156 198 244 296 352
#     4  11  24  41  60  86 117 157 205 245 290 347
#     4  11  21  38  56  94 125 153 190 240 302 361
#
# _framework density 18.019190999999999
#
# number of rings (size 3 to 8) (size 9 to 14) (size 15 to 20)
#    0.000    1.429    4.286    2.571    0.000    3.429 
#    0.000    2.143    0.000    3.000    0.000    0.000 
#    0.000    0.000    0.000    0.000    0.000    0.000 
#
# Total GULP energy -312698.865173 kJ/mol
# GULP energy per Si atom -5583.908307 kJ/mol
# Density = 1.797818 g / cm^3
# Si number density = 18.019191 Si / 1000 Ang^3
#
#
#
# Elastic Constant Matrix: (Units=GPa)
#
#
# Indices 1 2 3 4 5 6 
#
# 1 155.0282 45.5973 71.5492 0.0000 0.0000 0.0000
# 2 45.5973 58.7825 37.0845 0.0000 0.0000 0.0000
# 3 71.5492 37.0845 101.4387 0.0000 0.0000 0.0000
# 4 0.0000 0.0000 0.0000 10.0369 0.0000 0.0000
# 5 0.0000 0.0000 0.0000 0.0000 29.5859 0.0000
# 6 0.0000 0.0000 0.0000 0.0000 0.0000 16.6758
#
#
#
# Elastic Compliance Matrix: (Units=1/GPa)
#
#
# Indices 1 2 3 4 5 6 
#
# 1 0.010394 -0.004468 -0.005698 0.000000 0.000000 0.000000
# 2 -0.004468 0.024032 -0.005634 0.000000 0.000000 0.000000
# 3 -0.005698 -0.005634 0.015937 0.000000 0.000000 0.000000
# 4 0.000000 0.000000 0.000000 0.099633 0.000000 0.000000
# 5 0.000000 0.000000 0.000000 0.000000 0.033800 0.000000
# 6 0.000000 0.000000 0.000000 0.000000 0.000000 0.059967
#
#
# Mechanical properties :
#
#
# Convention : Reuss Voigt Hill
#
# Bulk Modulus (GPa) = 53.29712 69.30126 61.29919
# Shear Modulus (GPa) = 17.75447 21.99427 19.87437
#
# Velocity S-wave (km/s) = 3.14237 3.49750 3.32468
# Velocity P-wave (km/s) = 6.54279 7.40630 6.98790
#
# Compressibility (1/GPa) = 0.01876274
#
# Stress axis : x y z
#
# Youngs Moduli (GPa) = 96.20506 41.61068 62.74627
#
# Poissons Ratio (x) = 0.18592 0.35754
# Poissons Ratio (y) = 0.42985 0.35353
# Poissons Ratio (z) = 0.54820 0.23445
#
# Static dielectric constant tensor:
#      x y z
#    x 1.608100 0.000000 0.000000 
#    y 0.000000 1.612640 0.000000 
#    z 0.000000 0.000000 1.607780 
# 
# From -- ./inp_files/10975.got.cif
#   From: 2010.05.17/outbox.cif.g08.bks.cpg/sg51_6_cif.got.tgz:10975.got - 2010.06.03 11:52:47.
