data_PCOD9405947
_publ_section_title
;
Structure prediction by ZEFSAII (Michael W. Deem and Ramdas Pophale) SiO2 
 PCOD9405947
Probable space group: P M M A
;
_chemical_formula_sum "Si O2"
_cell_formula_units_Z 64
_cell_length_a 8.883551
_cell_length_b 14.638785
_cell_length_c 31.965675
_cell_angle_alpha 90.000000
_cell_angle_beta 90.000000
_cell_angle_gamma 90.000000
_cell_volume 4156.956806
_symmetry_space_group_name_H-M "P M M A"
_symmetry_group_IT_number 51
_symmetry_cell_setting 'orthorhombic'
loop_
_space_group_symop_operation_xyz
x,y,z
1/2-x,-y,z
1/2+x,-y,-z
-x,y,-z
-x,-y,-z
1/2+x,y,-z
1/2-x,y,z
x,-y,z
loop_
_atom_site_type_symbol
_atom_site_label
_atom_site_fract_x
_atom_site_fract_y
_atom_site_fract_z
Si Si1 0.566961 0.104876 0.204807
Si Si2 0.430599 0.784595 0.712244
Si Si3 0.429961 0.106854 0.045282
Si Si4 0.930717 0.604602 0.844115
Si Si5 0.930619 0.215869 0.121913
Si Si6 0.430814 0.395573 0.254394
Si Si7 0.067528 0.107153 0.364903
Si Si8 0.424025 0.888996 0.457389
O O1 0.750000 0.103879 0.204864
O O2 0.519896 0.157928 0.246633
O O3 0.520475 0.158177 0.163014
O O4 0.515107 0.000000 0.204765
O O5 0.250000 0.786438 0.710381
O O6 0.488382 0.681956 0.719098
O O7 0.498578 0.832079 0.671446
O O8 0.250000 0.116741 0.043738
O O9 0.499070 0.169612 0.081184
O O10 0.464842 0.000000 0.054438
O O11 0.500000 0.127952 0.000000
O O12 0.750000 0.614454 0.848009
O O13 0.969443 0.500000 0.855223
O O14 0.968213 0.617328 0.794863
O O15 0.013157 0.681336 0.870709
O O16 0.750000 0.213089 0.119462
O O17 0.250000 0.386639 0.258204
O O18 0.470906 0.500000 0.265520
O O19 0.250000 0.112294 0.364277
O O20 0.015300 0.136706 0.411535
O O21 0.027800 0.000000 0.358790
O O22 0.500000 0.856196 0.500000
O O23 0.250000 0.862513 0.458890
O O24 0.430231 0.000000 0.457692
#
# Coordination Sequence:
#
# PCOD9405947 Si02
#       8
#     8   8   8   8   8   8   8   8
#     4   9  18  30  42  62  95 130 160 191 229 272
#     4  11  20  30  45  67  95 127 161 200 240 280
#     4  10  21  37  56  78 103 131 164 200 238 283
#     4   9  18  33  52  73  98 127 160 200 242 285
#     4  11  20  32  52  76 102 131 161 199 242 283
#     4   9  18  33  51  68  90 123 160 199 243 288
#     4   9  18  31  44  61  90 129 166 198 236 285
#     4   8  14  25  41  60  83 113 153 199 242 281
#
# _framework density 15.395877
#
# number of rings (size 3 to 8) (size 9 to 14) (size 15 to 20)
#    0.000    2.500    1.250    3.375    0.000    3.000 
#    0.000    2.500    0.000    3.375    0.000    0.000 
#    0.000    0.500    0.000    1.625    0.000    2.000 
#
# Total GULP energy -356808.530236 kJ/mol
# GULP energy per Si atom -5575.133285 kJ/mol
# Density = 1.536084 g / cm^3
# Si number density = 15.395877 Si / 1000 Ang^3
#
#
#
# Elastic Constant Matrix: (Units=GPa)
#
#
# Indices 1 2 3 4 5 6 
#
# 1 37.0778 41.4181 49.2981 0.0000 0.0000 0.0000
# 2 41.4181 109.3781 80.4913 0.0000 0.0000 0.0000
# 3 49.2981 80.4913 141.7397 0.0000 0.0000 0.0000
# 4 0.0000 0.0000 0.0000 8.4895 0.0000 0.0000
# 5 0.0000 0.0000 0.0000 0.0000 24.1444 0.0000
# 6 0.0000 0.0000 0.0000 0.0000 0.0000 22.2055
#
#
#
# Elastic Compliance Matrix: (Units=1/GPa)
#
#
# Indices 1 2 3 4 5 6 
#
# 1 0.058473 -0.012327 -0.013337 0.000000 0.000000 0.000000
# 2 -0.012327 0.018305 -0.006108 0.000000 0.000000 0.000000
# 3 -0.013337 -0.006108 0.015162 0.000000 0.000000 0.000000
# 4 0.000000 0.000000 0.000000 0.117793 0.000000 0.000000
# 5 0.000000 0.000000 0.000000 0.000000 0.041418 0.000000
# 6 0.000000 0.000000 0.000000 0.000000 0.000000 0.045034
#
#
# Mechanical properties :
#
#
# Convention : Reuss Voigt Hill
#
# Bulk Modulus (GPa) = 35.21509 70.06785 52.64147
# Shear Modulus (GPa) = 13.54298 18.76706 16.15502
#
# Velocity S-wave (km/s) = 2.96911 3.49516 3.24282
# Velocity P-wave (km/s) = 5.88870 7.86751 6.94891
#
# Compressibility (1/GPa) = 0.02839692
#
# Stress axis : x y z
#
# Youngs Moduli (GPa) = 17.10177 54.62926 65.95311
#
# Poissons Ratio (x) = 0.67344 0.87962
# Poissons Ratio (y) = 0.21082 0.40282
# Poissons Ratio (z) = 0.22809 0.33365
#
# Static dielectric constant tensor:
#      x y z
#    x 1.514940 0.000000 0.000000 
#    y 0.000000 1.497080 0.000000 
#    z 0.000000 0.000000 1.504370 
# 
# From -- ./inp_files/37628.got.cif
#   From: 2010.05.17/outbox.cif.g08.bks.cpg/sg51_19_cif.got.tgz:37628.got - 2010.06.03 11:52:47.
