data_PCOD9405151
_publ_section_title
;
Structure prediction by ZEFSAII (Michael W. Deem and Ramdas Pophale) SiO2 
 PCOD9405151
Probable space group: P M M A
;
_chemical_formula_sum "Si O2"
_cell_formula_units_Z 48
_cell_length_a 19.388954
_cell_length_b 18.068925
_cell_length_c 7.663435
_cell_angle_alpha 90.000000
_cell_angle_beta 90.000000
_cell_angle_gamma 90.000000
_cell_volume 2684.789086
_symmetry_space_group_name_H-M "P M M A"
_symmetry_group_IT_number 51
_symmetry_cell_setting 'orthorhombic'
loop_
_space_group_symop_operation_xyz
x,y,z
1/2-x,-y,z
1/2+x,-y,-z
-x,y,-z
-x,-y,-z
1/2+x,y,-z
1/2-x,y,z
x,-y,z
loop_
_atom_site_type_symbol
_atom_site_label
_atom_site_fract_x
_atom_site_fract_y
_atom_site_fract_z
Si Si1 0.922115 0.160179 0.054735
Si Si2 0.422940 0.088479 0.571574
Si Si3 0.331237 0.587852 0.276877
Si Si4 0.829653 0.089143 0.757569
Si Si5 0.580186 0.336751 0.019278
Si Si6 0.829464 0.411232 0.314335
O O1 0.910403 0.131844 0.250327
O O2 0.916433 0.248426 0.039653
O O3 0.869179 0.123560 0.920711
O O4 0.000000 0.138354 0.000000
O O5 0.500000 0.102953 0.500000
O O6 0.369399 0.109312 0.420089
O O7 0.417584 0.000000 0.604020
O O8 0.250000 0.600151 0.240325
O O9 0.344339 0.500000 0.250001
O O10 0.342828 0.604509 0.481428
O O11 0.378237 0.635340 0.149628
O O12 0.750000 0.111865 0.752234
O O13 0.832707 0.000000 0.771666
O O14 0.616978 0.373223 0.185991
O O15 0.500000 0.358072 0.000000
O O16 0.750000 0.389274 0.274692
O O17 0.833140 0.500000 0.292634
#
# Coordination Sequence:
#
# PCOD9405151 Si02
#       6
#     8   8   8   8   8   8
#     4  11  23  39  57  83 118 157 195 230 280 351
#     4  10  20  37  65  88 106 147 201 242 280 339
#     4   9  19  38  62  82 104 143 194 240 280 332
#     4  10  22  39  60  89 119 145 186 246 295 333
#     4  11  24  36  51  84 121 153 181 228 286 339
#     4   9  19  38  62  84 107 144 196 243 280 331
#
# _framework density 17.878499999999999
#
# number of rings (size 3 to 8) (size 9 to 14) (size 15 to 20)
#    0.000    2.000    1.667    2.500    0.000    7.333 
#    0.000    5.000    0.000    0.000    0.000    0.000 
#    0.000    0.000    0.000    0.000    0.000    0.000 
#
# Total GULP energy -268097.754202 kJ/mol
# GULP energy per Si atom -5585.369879 kJ/mol
# Density = 1.783781 g / cm^3
# Si number density = 17.878500 Si / 1000 Ang^3
#
#
#
# Elastic Constant Matrix: (Units=GPa)
#
#
# Indices 1 2 3 4 5 6 
#
# 1 164.1210 64.0200 115.7593 0.0000 0.0000 0.0000
# 2 64.0200 39.7363 67.9956 0.0000 0.0000 0.0000
# 3 115.7593 67.9956 165.0501 0.0000 0.0000 0.0000
# 4 0.0000 0.0000 0.0000 56.0368 0.0000 0.0000
# 5 0.0000 0.0000 0.0000 0.0000 23.8399 0.0000
# 6 0.0000 0.0000 0.0000 0.0000 0.0000 -8.8455
#
#
#
# Elastic Compliance Matrix: (Units=1/GPa)
#
#
# Indices 1 2 3 4 5 6 
#
# 1 0.016615 -0.023144 -0.002119 0.000000 0.000000 0.000000
# 2 -0.023144 0.117531 -0.032187 0.000000 0.000000 0.000000
# 3 -0.002119 -0.032187 0.020805 0.000000 0.000000 0.000000
# 4 0.000000 0.000000 0.000000 0.017845 0.000000 0.000000
# 5 0.000000 0.000000 0.000000 0.000000 0.041946 0.000000
# 6 0.000000 0.000000 0.000000 0.000000 0.000000 -0.113052
#
#
# Mechanical properties :
#
#
# Convention : Reuss Voigt Hill
#
# Bulk Modulus (GPa) = 24.96764 96.05078 60.50921
# Shear Modulus (GPa) = 21.74474 22.28174 22.01324
#
# Velocity S-wave (km/s) = 3.49126 3.53411 3.51275
# Velocity P-wave (km/s) = 5.49976 8.39607 7.09723
#
# Compressibility (1/GPa) = 0.04005184
#
# Stress axis : x y z
#
# Youngs Moduli (GPa) = 60.18504 8.50842 48.06561
#
# Poissons Ratio (x) = 0.19692 0.10185
# Poissons Ratio (y) = 1.39290 1.54709
# Poissons Ratio (z) = 0.12752 0.27386
#
# Static dielectric constant tensor:
#      x y z
#    x 1.596100 0.000000 0.000000 
#    y 0.000000 1.591000 0.000000 
#    z 0.000000 0.000000 1.586090 
# 
# From -- ./inp_files/8214.got.cif
#   From: 2010.05.17/outbox.cif.g08.bks.cpg/sg51_5_cif.got.tgz:8214.got - 2010.06.03 11:52:47.
