data_PCOD9405360
_publ_section_title
;
Structure prediction by ZEFSAII (Michael W. Deem and Ramdas Pophale) SiO2 
 PCOD9405360
Probable space group: P M M A
;
_chemical_formula_sum "Si O2"
_cell_formula_units_Z 56
_cell_length_a 14.474554
_cell_length_b 15.648228
_cell_length_c 12.237218
_cell_angle_alpha 90.000000
_cell_angle_beta 90.000000
_cell_angle_gamma 90.000000
_cell_volume 2771.743597
_symmetry_space_group_name_H-M "P M M A"
_symmetry_group_IT_number 51
_symmetry_cell_setting 'orthorhombic'
loop_
_space_group_symop_operation_xyz
x,y,z
1/2-x,-y,z
1/2+x,-y,-z
-x,y,-z
-x,-y,-z
1/2+x,y,-z
1/2-x,y,z
x,-y,z
loop_
_atom_site_type_symbol
_atom_site_label
_atom_site_fract_x
_atom_site_fract_y
_atom_site_fract_z
Si Si1 0.639982 0.249554 0.456999
Si Si2 0.359713 0.806486 0.309330
Si Si3 0.361913 0.402870 0.699584
Si Si4 0.038466 0.903601 0.662170
Si Si5 0.645063 0.233682 0.931064
Si Si6 0.860286 0.902225 0.105301
Si Si7 0.398192 0.595618 0.950259
O O1 0.750000 0.237320 0.437877
O O2 0.626467 0.255825 0.587104
O O3 0.610112 0.332239 0.388348
O O4 0.585785 0.167224 0.413504
O O5 0.250000 0.828033 0.309305
O O6 0.429553 0.884566 0.328067
O O7 0.389903 0.766968 0.192896
O O8 0.250000 0.400951 0.706753
O O9 0.389187 0.500000 0.670816
O O10 0.397873 0.383853 0.821465
O O11 0.085237 0.894107 0.781478
O O12 0.055588 0.000000 0.623964
O O13 0.750000 0.203225 0.919619
O O14 0.604671 0.166234 0.017110
O O15 0.646105 0.326749 0.984399
O O16 0.750000 0.888312 0.126510
O O17 0.870792 0.000000 0.065272
O O18 0.357323 0.500000 0.961461
O O19 0.500000 0.591828 0.000000
#
# Coordination Sequence:
#
# PCOD9405360 Si02
#       7
#     8   8   8   8   8   8   8
#     4  10  21  39  62  88 118 151 193 248 297 340
#     4  10  24  41  55  79 117 159 201 240 285 348
#     4   9  18  35  62  91 115 146 191 240 292 345
#     4  11  23  38  60  87 113 150 199 246 296 347
#     4  10  21  37  58  82 113 157 193 228 290 352
#     4   9  19  36  59  90 120 144 185 244 298 350
#     4  10  21  34  53  86 121 148 182 231 285 343
#
# _framework density 20.203890000000001
#
# number of rings (size 3 to 8) (size 9 to 14) (size 15 to 20)
#    0.000    2.143    0.000    2.143    4.000    6.000 
#    0.000    5.000    0.000    4.286    0.000    0.000 
#    0.000    0.000    0.000    0.000    0.000    0.000 
#
# Total GULP energy -312479.309843 kJ/mol
# GULP energy per Si atom -5579.987676 kJ/mol
# Density = 2.015790 g / cm^3
# Si number density = 20.203890 Si / 1000 Ang^3
#
#
#
# Elastic Constant Matrix: (Units=GPa)
#
#
# Indices 1 2 3 4 5 6 
#
# 1 71.8448 30.4427 29.9016 0.0000 0.0000 0.0000
# 2 30.4427 105.9510 82.4555 0.0000 0.0000 0.0000
# 3 29.9016 82.4555 138.7594 0.0000 0.0000 0.0000
# 4 0.0000 0.0000 0.0000 -8.4070 0.0000 0.0000
# 5 0.0000 0.0000 0.0000 0.0000 11.9310 0.0000
# 6 0.0000 0.0000 0.0000 0.0000 0.0000 23.9979
#
#
#
# Elastic Compliance Matrix: (Units=1/GPa)
#
#
# Indices 1 2 3 4 5 6 
#
# 1 0.015979 -0.003556 -0.001330 0.000000 0.000000 0.000000
# 2 -0.003556 0.018350 -0.010138 0.000000 0.000000 0.000000
# 3 -0.001330 -0.010138 0.013518 0.000000 0.000000 0.000000
# 4 0.000000 0.000000 0.000000 -0.118948 0.000000 0.000000
# 5 0.000000 0.000000 0.000000 0.000000 0.083815 0.000000
# 6 0.000000 0.000000 0.000000 0.000000 0.000000 0.041670
#
#
# Mechanical properties :
#
#
# Convention : Reuss Voigt Hill
#
# Bulk Modulus (GPa) = 56.18450 66.90610 61.54530
# Shear Modulus (GPa) = 55.33156 17.08807 36.20982
#
# Velocity S-wave (km/s) = 5.23890 2.91139 4.23805
# Velocity P-wave (km/s) = 8.02894 6.67000 7.38081
#
# Compressibility (1/GPa) = 0.01779850
#
# Stress axis : x y z
#
# Youngs Moduli (GPa) = 62.58076 54.49705 73.97797
#
# Poissons Ratio (x) = 0.19379 0.09842
# Poissons Ratio (y) = 0.22254 0.74996
# Poissons Ratio (z) = 0.08325 0.55247
#
# Static dielectric constant tensor:
#      x y z
#    x 1.797280 0.000000 0.000000 
#    y 0.000000 1.696850 0.000000 
#    z 0.000000 0.000000 1.728860 
# 
# From -- ./inp_files/16599.got.cif
#   From: 2010.05.17/outbox.cif.g08.bks.cpg/sg51_9_cif.got.tgz:16599.got - 2010.06.03 11:52:47.
