data_PCOD9405743
_publ_section_title
;
Structure prediction by ZEFSAII (Michael W. Deem and Ramdas Pophale) SiO2 
 PCOD9405743
Probable space group: P M M A
;
_chemical_formula_sum "Si O2"
_cell_formula_units_Z 64
_cell_length_a 18.636173
_cell_length_b 21.002527
_cell_length_c 9.006805
_cell_angle_alpha 90.000000
_cell_angle_beta 90.000000
_cell_angle_gamma 90.000000
_cell_volume 3525.324062
_symmetry_space_group_name_H-M "P M M A"
_symmetry_group_IT_number 51
_symmetry_cell_setting 'orthorhombic'
loop_
_space_group_symop_operation_xyz
x,y,z
1/2-x,-y,z
1/2+x,-y,-z
-x,y,-z
-x,-y,-z
1/2+x,y,-z
1/2-x,y,z
x,-y,z
loop_
_atom_site_type_symbol
_atom_site_label
_atom_site_fract_x
_atom_site_fract_y
_atom_site_fract_z
Si Si1 0.164439 0.071956 0.420954
Si Si2 0.415997 0.426711 0.033623
Si Si3 0.665492 0.427401 0.658668
Si Si4 0.164503 0.926165 0.069064
Si Si5 0.168393 0.304538 0.538989
Si Si6 0.167749 0.688435 0.895845
Si Si7 0.422480 0.812107 0.923522
Si Si8 0.922274 0.816736 0.431939
O O1 0.250000 0.075570 0.441116
O O2 0.126227 0.124311 0.518814
O O3 0.141307 0.000000 0.458309
O O4 0.150576 0.082053 0.245368
O O5 0.401529 0.500000 0.990546
O O6 0.389248 0.420385 0.204034
O O7 0.500000 0.414645 0.000000
O O8 0.369194 0.376248 0.945701
O O9 0.750000 0.421692 0.706629
O O10 0.657610 0.500000 0.600272
O O11 0.652165 0.371402 0.540742
O O12 0.250000 0.917189 0.044880
O O13 0.119277 0.874490 0.980225
O O14 0.147666 0.000000 0.031392
O O15 0.250000 0.286297 0.495790
O O16 0.167210 0.310630 0.716974
O O17 0.113957 0.247710 0.505143
O O18 0.250000 0.691901 0.946463
O O19 0.123747 0.748747 0.956983
O O20 0.428272 0.813922 0.745523
O O21 0.500000 0.808609 0.000000
O O22 0.000000 0.824665 0.500000
#
# Coordination Sequence:
#
# PCOD9405743 Si02
#       8
#     8   8   8   8   8   8   8   8
#     4   9  19  37  60  84 110 141 179 224 272 323
#     4  10  21  36  54  79 111 145 181 221 265 317
#     4   9  18  34  56  81 108 140 180 223 267 319
#     4   9  19  37  60  85 112 143 182 226 272 326
#     4   9  20  37  56  80 108 138 176 224 273 321
#     4  10  21  37  57  81 108 139 179 226 273 322
#     4  11  23  38  56  80 113 148 183 226 275 327
#     4  11  23  37  55  80 110 145 184 225 269 323
#
# _framework density 18.154358999999999
#
# number of rings (size 3 to 8) (size 9 to 14) (size 15 to 20)
#    0.000    2.250    0.000    3.000    0.000    7.750 
#    0.000    3.750    0.000    2.625    0.000    0.000 
#    0.000    0.000    0.000    0.000    0.000    0.000 
#
# Total GULP energy -357117.638278 kJ/mol
# GULP energy per Si atom -5579.963098 kJ/mol
# Density = 1.811304 g / cm^3
# Si number density = 18.154359 Si / 1000 Ang^3
#
#
#
# Elastic Constant Matrix: (Units=GPa)
#
#
# Indices 1 2 3 4 5 6 
#
# 1 94.7436 74.8833 45.3978 0.0000 0.0000 0.0000
# 2 74.8833 112.0108 49.1905 0.0000 0.0000 0.0000
# 3 45.3978 49.1905 38.3049 0.0000 0.0000 0.0000
# 4 0.0000 0.0000 0.0000 45.7125 0.0000 0.0000
# 5 0.0000 0.0000 0.0000 0.0000 23.4970 0.0000
# 6 0.0000 0.0000 0.0000 0.0000 0.0000 15.9791
#
#
#
# Elastic Compliance Matrix: (Units=1/GPa)
#
#
# Indices 1 2 3 4 5 6 
#
# 1 0.028322 -0.009617 -0.021217 0.000000 0.000000 0.000000
# 2 -0.009617 0.023740 -0.019089 0.000000 0.000000 0.000000
# 3 -0.021217 -0.019089 0.075766 0.000000 0.000000 0.000000
# 4 0.000000 0.000000 0.000000 0.021876 0.000000 0.000000
# 5 0.000000 0.000000 0.000000 0.000000 0.042559 0.000000
# 6 0.000000 0.000000 0.000000 0.000000 0.000000 0.062582
#
#
# Mechanical properties :
#
#
# Convention : Reuss Voigt Hill
#
# Bulk Modulus (GPa) = 35.73649 64.88918 50.31283
# Shear Modulus (GPa) = 13.73565 22.07690 17.90627
#
# Velocity S-wave (km/s) = 2.75363 3.49100 3.14400
# Velocity P-wave (km/s) = 5.46237 7.21596 6.39951
#
# Compressibility (1/GPa) = 0.02798260
#
# Stress axis : x y z
#
# Youngs Moduli (GPa) = 35.30819 42.12301 13.19861
#
# Poissons Ratio (x) = 0.40509 0.28003
# Poissons Ratio (y) = 0.33955 0.25195
# Poissons Ratio (z) = 0.74912 0.80408
#
# Static dielectric constant tensor:
#      x y z
#    x 1.608600 0.000000 0.000000 
#    y 0.000000 1.606810 0.000000 
#    z 0.000000 0.000000 1.611180 
# 
# From -- ./inp_files/10007.got.cif
#   From: 2010.05.17/outbox.cif.g08.bks.cpg/sg51_6_cif.got.tgz:10007.got - 2010.06.03 11:52:47.
