data_PCOD9405272
_publ_section_title
;
Structure prediction by ZEFSAII (Michael W. Deem and Ramdas Pophale) SiO2 
 PCOD9405272
Probable space group: P M M A
;
_chemical_formula_sum "Si O2"
_cell_formula_units_Z 38
_cell_length_a 9.067365
_cell_length_b 10.788549
_cell_length_c 18.346697
_cell_angle_alpha 90.000000
_cell_angle_beta 90.000000
_cell_angle_gamma 90.000000
_cell_volume 1794.741996
_symmetry_space_group_name_H-M "P M M A"
_symmetry_group_IT_number 51
_symmetry_cell_setting 'orthorhombic'
loop_
_space_group_symop_operation_xyz
x,y,z
1/2-x,-y,z
1/2+x,-y,-z
-x,y,-z
-x,-y,-z
1/2+x,y,-z
1/2-x,y,z
x,-y,z
loop_
_atom_site_type_symbol
_atom_site_label
_atom_site_fract_x
_atom_site_fract_y
_atom_site_fract_z
Si Si1 0.750000 0.643272 0.557503
Si Si2 0.071725 0.500000 0.919911
Si Si3 0.572329 0.709463 0.819368
Si Si4 0.917725 0.145914 0.071587
Si Si5 0.026207 0.769871 0.339318
Si Si6 0.250000 0.145947 0.567212
Si Si7 0.250000 0.000000 0.319931
O O1 0.750000 0.500000 0.531749
O O2 0.890031 0.672881 0.608435
O O3 0.750000 0.754272 0.498261
O O4 0.250000 0.500000 0.923699
O O5 0.006459 0.386151 0.873405
O O6 0.000000 0.500000 0.000000
O O7 0.750000 0.694953 0.816634
O O8 0.521677 0.835515 0.858499
O O9 0.505612 0.705130 0.738713
O O10 0.750000 0.195244 0.079852
O O11 0.902607 0.000000 0.059992
O O12 0.000000 0.197860 0.000000
O O13 0.888731 0.822608 0.382876
O O14 0.125336 0.889695 0.322845
O O15 0.250000 0.000000 0.542995
#
# Coordination Sequence:
#
# PCOD9405272 Si02
#       7
#     4   4   8   8   8   4   2
#     4  11  27  52  76 105 147 198 252 307 374 461
#     4  12  28  50  74 104 141 186 245 301 363 436
#     4  12  25  43  71  99 135 189 231 294 353 423
#     4  10  22  39  61  95 136 177 225 278 341 412
#     4  11  26  44  75 106 151 190 248 300 371 448
#     4  12  27  45  77 114 150 196 246 319 380 448
#     4  10  20  48  66 110 142 198 236 290 362 442
#
# _framework density 21.172958999999999
#
# number of rings (size 3 to 8) (size 9 to 14) (size 15 to 20)
#    0.000    0.842    3.158    3.474    8.842    3.789 
#    0.000    0.000    0.000    0.000    0.000    0.000 
#    0.000    0.000    0.000    0.000    0.000    0.000 
#
# Total GULP energy -211676.317609 kJ/mol
# GULP energy per Si atom -5570.429411 kJ/mol
# Density = 2.112477 g / cm^3
# Si number density = 21.172959 Si / 1000 Ang^3
#
#
#
# Elastic Constant Matrix: (Units=GPa)
#
#
# Indices 1 2 3 4 5 6 
#
# 1 56.0511 33.8205 42.0135 0.0000 0.0000 0.0000
# 2 33.8205 120.2517 51.0293 0.0000 0.0000 0.0000
# 3 42.0135 51.0293 172.0332 0.0000 0.0000 0.0000
# 4 0.0000 0.0000 0.0000 16.8278 0.0000 0.0000
# 5 0.0000 0.0000 0.0000 0.0000 -51.9108 0.0000
# 6 0.0000 0.0000 0.0000 0.0000 0.0000 20.9263
#
#
#
# Elastic Compliance Matrix: (Units=1/GPa)
#
#
# Indices 1 2 3 4 5 6 
#
# 1 0.024125 -0.004902 -0.004438 0.000000 0.000000 0.000000
# 2 -0.004902 0.010509 -0.001920 0.000000 0.000000 0.000000
# 3 -0.004438 -0.001920 0.007466 0.000000 0.000000 0.000000
# 4 0.000000 0.000000 0.000000 0.059425 0.000000 0.000000
# 5 0.000000 0.000000 0.000000 0.000000 -0.019264 0.000000
# 6 0.000000 0.000000 0.000000 0.000000 0.000000 0.047787
#
#
# Mechanical properties :
#
#
# Convention : Reuss Voigt Hill
#
# Bulk Modulus (GPa) = 51.07033 66.89586 58.98310
# Shear Modulus (GPa) = 31.42764 11.93349 21.68057
#
# Velocity S-wave (km/s) = 3.85688 2.37664 3.20343
# Velocity P-wave (km/s) = 6.63377 6.26057 6.44987
#
# Compressibility (1/GPa) = 0.01958084
#
# Stress axis : x y z
#
# Youngs Moduli (GPa) = 41.45084 95.15295 133.93739
#
# Poissons Ratio (x) = 0.46643 0.59437
# Poissons Ratio (y) = 0.20319 0.25719
# Poissons Ratio (z) = 0.18395 0.18271
#
# Static dielectric constant tensor:
#      x y z
#    x 1.799740 0.000000 0.000000 
#    y 0.000000 1.963430 0.000000 
#    z 0.000000 0.000000 1.765560 
# 
# From -- ./inp_files/27123.got.cif
#   From: 2010.05.17/outbox.cif.g08.bks.cpg/sg51_14_cif.got.tgz:27123.got - 2010.06.03 11:52:47.
