data_PCOD9405026
_publ_section_title
;
Structure prediction by ZEFSAII (Michael W. Deem and Ramdas Pophale) SiO2 
 PCOD9405026
Probable space group: P M M A
;
_chemical_formula_sum "Si O2"
_cell_formula_units_Z 48
_cell_length_a 10.088486
_cell_length_b 9.494571
_cell_length_c 30.360882
_cell_angle_alpha 90.000000
_cell_angle_beta 90.000000
_cell_angle_gamma 90.000000
_cell_volume 2908.142786
_symmetry_space_group_name_H-M "P M M A"
_symmetry_group_IT_number 51
_symmetry_cell_setting 'orthorhombic'
loop_
_space_group_symop_operation_xyz
x,y,z
1/2-x,-y,z
1/2+x,-y,-z
-x,y,-z
-x,-y,-z
1/2+x,y,-z
1/2-x,y,z
x,-y,z
loop_
_atom_site_type_symbol
_atom_site_label
_atom_site_fract_x
_atom_site_fract_y
_atom_site_fract_z
Si Si1 0.402787 0.171799 0.038785
Si Si2 0.088597 0.162276 0.136970
Si Si3 0.250000 0.838787 0.462090
Si Si4 0.485242 0.835464 0.596055
Si Si5 0.911654 0.661919 0.778405
Si Si6 0.250000 0.331803 0.551340
Si Si7 0.092376 0.165950 0.307552
O O1 0.250000 0.216229 0.031961
O O2 0.448517 0.213066 0.087972
O O3 0.402159 0.000000 0.039053
O O4 0.500000 0.218496 0.000000
O O5 0.250000 0.161108 0.136969
O O6 0.044159 0.257455 0.177555
O O7 0.046099 0.000000 0.142950
O O8 0.379489 0.823189 0.431855
O O9 0.250000 0.730198 0.501957
O O10 0.250000 0.000000 0.479790
O O11 0.377239 0.732635 0.575887
O O12 0.517612 0.804277 0.646974
O O13 0.442702 0.000000 0.592916
O O14 0.750000 0.664798 0.778818
O O15 0.953508 0.500000 0.778182
O O16 0.951974 0.742556 0.734021
O O17 0.250000 0.500000 0.551383
O O18 0.250000 0.190250 0.314765
O O19 0.077298 0.000000 0.297395
#
# Coordination Sequence:
#
# PCOD9405026 Si02
#       7
#     8   8   4   8   8   4   8
#     4   8  13  21  35  57  83 110 142 183 230 271
#     4   8  13  22  36  55  81 113 148 186 227 271
#     4  10  20  38  62  82 100 128 170 212 249 290
#     4  10  20  37  59  80 101 130 168 209 249 290
#     4   9  16  24  37  62  94 123 149 184 234 284
#     4  12  26  38  50  76 110 142 170 198 241 294
#     4   9  16  29  50  75  98 120 154 200 247 289
#
# _framework density 16.505379000000001
#
# number of rings (size 3 to 8) (size 9 to 14) (size 15 to 20)
#    0.000    2.833    0.833    2.750    0.000    5.333 
#    0.000    0.000    0.000    0.500    2.167    0.000 
#    0.000    0.000    0.000    0.000    0.000    0.000 
#
# Total GULP energy -267465.031421 kJ/mol
# GULP energy per Si atom -5572.188155 kJ/mol
# Density = 1.646781 g / cm^3
# Si number density = 16.505379 Si / 1000 Ang^3
#
#
#
# Elastic Constant Matrix: (Units=GPa)
#
#
# Indices 1 2 3 4 5 6 
#
# 1 46.9040 39.7490 41.9984 0.0000 0.0000 0.0000
# 2 39.7490 91.2904 91.6585 0.0000 0.0000 0.0000
# 3 41.9984 91.6585 172.8327 0.0000 0.0000 0.0000
# 4 0.0000 0.0000 0.0000 -3.8124 0.0000 0.0000
# 5 0.0000 0.0000 0.0000 0.0000 13.1184 0.0000
# 6 0.0000 0.0000 0.0000 0.0000 0.0000 10.2984
#
#
#
# Elastic Compliance Matrix: (Units=1/GPa)
#
#
# Indices 1 2 3 4 5 6 
#
# 1 0.033849 -0.013860 -0.000875 0.000000 0.000000 0.000000
# 2 -0.013860 0.029105 -0.012067 0.000000 0.000000 0.000000
# 3 -0.000875 -0.012067 0.012398 0.000000 0.000000 0.000000
# 4 0.000000 0.000000 0.000000 -0.262302 0.000000 0.000000
# 5 0.000000 0.000000 0.000000 0.000000 0.076229 0.000000
# 6 0.000000 0.000000 0.000000 0.000000 0.000000 0.097103
#
#
# Mechanical properties :
#
#
# Convention : Reuss Voigt Hill
#
# Bulk Modulus (GPa) = 45.98126 73.09321 59.53724
# Shear Modulus (GPa) = 105.85384 13.09562 59.47473
#
# Velocity S-wave (km/s) = 8.01699 2.81982 6.00931
# Velocity P-wave (km/s) = 10.65904 7.41502 9.18143
#
# Compressibility (1/GPa) = 0.02174799
#
# Stress axis : x y z
#
# Youngs Moduli (GPa) = 29.54274 34.35893 80.65713
#
# Poissons Ratio (x) = 0.47621 0.07059
# Poissons Ratio (y) = 0.40945 0.97330
# Poissons Ratio (z) = 0.02585 0.41461
#
# Static dielectric constant tensor:
#      x y z
#    x 1.542950 0.000000 0.000000 
#    y 0.000000 1.544710 0.000000 
#    z 0.000000 0.000000 1.558640 
# 
# From -- ./inp_files/37152.got.cif
#   From: 2010.05.17/outbox.cif.g08.bks.cpg/sg51_19_cif.got.tgz:37152.got - 2010.06.03 11:52:47.
