data_PCOD9405829
_publ_section_title
;
Structure prediction by ZEFSAII (Michael W. Deem and Ramdas Pophale) SiO2 
 PCOD9405829
Probable space group: P M M A
;
_chemical_formula_sum "Si O2"
_cell_formula_units_Z 64
_cell_length_a 8.077355
_cell_length_b 15.209182
_cell_length_c 25.771482
_cell_angle_alpha 90.000000
_cell_angle_beta 90.000000
_cell_angle_gamma 90.000000
_cell_volume 3166.025591
_symmetry_space_group_name_H-M "P M M A"
_symmetry_group_IT_number 51
_symmetry_cell_setting 'orthorhombic'
loop_
_space_group_symop_operation_xyz
x,y,z
1/2-x,-y,z
1/2+x,-y,-z
-x,y,-z
-x,-y,-z
1/2+x,y,-z
1/2-x,y,z
x,-y,z
loop_
_atom_site_type_symbol
_atom_site_label
_atom_site_fract_x
_atom_site_fract_y
_atom_site_fract_z
Si Si1 0.944639 0.404766 0.427111
Si Si2 0.947231 0.228830 0.746992
Si Si3 0.049698 0.210044 0.555446
Si Si4 0.949533 0.404367 0.690549
Si Si5 0.449669 0.099458 0.942356
Si Si6 0.947766 0.247786 0.134594
Si Si7 0.447722 0.399325 0.057727
Si Si8 0.551102 0.100663 0.343511
O O1 0.750000 0.405776 0.440722
O O2 0.018093 0.500000 0.443251
O O3 0.016547 0.310929 0.444206
O O4 0.964217 0.402224 0.365090
O O5 0.750000 0.226225 0.743069
O O6 0.006311 0.321393 0.723043
O O7 0.993515 0.231755 0.807093
O O8 0.011941 0.151169 0.709966
O O9 0.250000 0.213951 0.558274
O O10 0.991221 0.156920 0.606381
O O11 0.000000 0.169895 0.500000
O O12 0.750000 0.398422 0.682563
O O13 0.982456 0.500000 0.714946
O O14 0.250000 0.098163 0.939898
O O15 0.513341 0.168236 0.900827
O O16 0.509867 0.000000 0.933602
O O17 0.500000 0.126451 0.000000
O O18 0.750000 0.244537 0.135264
O O19 0.996162 0.336873 0.104519
O O20 0.250000 0.401405 0.058434
O O21 0.510478 0.500000 0.063283
O O22 0.500000 0.367620 0.000000
O O23 0.750000 0.097232 0.347960
O O24 0.489022 0.000000 0.343951
#
# Coordination Sequence:
#
# PCOD9405829 Si02
#       8
#     8   8   8   8   8   8   8   8
#     4   9  17  31  53  80 110 144 182 223 267 323
#     4  11  23  38  58  85 116 149 189 237 290 346
#     4  10  21  36  56  84 116 148 186 232 285 344
#     4   9  18  33  54  79 107 141 179 220 270 327
#     4   9  19  36  57  81 109 142 180 225 279 336
#     4  11  23  37  57  85 118 155 196 240 289 349
#     4  10  21  38  60  86 120 162 206 253 303 353
#     4  10  22  42  64  83 109 148 192 240 296 354
#
# _framework density 20.214618000000002
#
# number of rings (size 3 to 8) (size 9 to 14) (size 15 to 20)
#    0.000    2.125    1.250    1.500    0.000    6.000 
#    0.000    2.500    0.000    0.000    0.000    0.000 
#    0.000    0.000    0.000    0.000    0.000    0.000 
#
# Total GULP energy -357105.939145 kJ/mol
# GULP energy per Si atom -5579.780299 kJ/mol
# Density = 2.016861 g / cm^3
# Si number density = 20.214618 Si / 1000 Ang^3
#
#
#
# Elastic Constant Matrix: (Units=GPa)
#
#
# Indices 1 2 3 4 5 6 
#
# 1 14.4062 12.1214 1.9603 0.0000 0.0000 0.0000
# 2 12.1214 146.0179 97.6705 0.0000 0.0000 0.0000
# 3 1.9603 97.6705 159.8194 0.0000 0.0000 0.0000
# 4 0.0000 0.0000 0.0000 77.8739 0.0000 0.0000
# 5 0.0000 0.0000 0.0000 0.0000 29.2378 0.0000
# 6 0.0000 0.0000 0.0000 0.0000 0.0000 9.3721
#
#
#
# Elastic Compliance Matrix: (Units=1/GPa)
#
#
# Indices 1 2 3 4 5 6 
#
# 1 0.076923 -0.009733 0.005005 0.000000 0.000000 0.000000
# 2 -0.009733 0.012815 -0.007712 0.000000 0.000000 0.000000
# 3 0.005005 -0.007712 0.010909 0.000000 0.000000 0.000000
# 4 0.000000 0.000000 0.000000 0.012841 0.000000 0.000000
# 5 0.000000 0.000000 0.000000 0.000000 0.034202 0.000000
# 6 0.000000 0.000000 0.000000 0.000000 0.000000 0.106699
#
#
# Mechanical properties :
#
#
# Convention : Reuss Voigt Hill
#
# Bulk Modulus (GPa) = 13.19862 60.41645 36.80753
# Shear Modulus (GPa) = 16.41890 37.19618 26.80754
#
# Velocity S-wave (km/s) = 2.85306 4.29425 3.64558
# Velocity P-wave (km/s) = 4.17093 7.38511 5.99735
#
# Compressibility (1/GPa) = 0.07576551
#
# Stress axis : x y z
#
# Youngs Moduli (GPa) = 12.99999 78.03205 91.66775
#
# Poissons Ratio (x) = 0.75951 -0.45878
# Poissons Ratio (y) = 0.12653 0.70698
# Poissons Ratio (z) = -0.06506 0.60181
#
# Static dielectric constant tensor:
#      x y z
#    x 1.719820 0.000000 0.000000 
#    y 0.000000 1.758070 0.000000 
#    z 0.000000 0.000000 1.724080 
# 
# From -- ./inp_files/34995.got.cif
#   From: 2010.05.17/outbox.cif.g08.bks.cpg/sg51_18_cif.got.tgz:34995.got - 2010.06.03 11:52:47.
