data_PCOD9405901
_publ_section_title
;
Structure prediction by ZEFSAII (Michael W. Deem and Ramdas Pophale) SiO2 
 PCOD9405901
Probable space group: P M M A
;
_chemical_formula_sum "Si O2"
_cell_formula_units_Z 48
_cell_length_a 8.583950
_cell_length_b 16.294449
_cell_length_c 19.690294
_cell_angle_alpha 90.000000
_cell_angle_beta 90.000000
_cell_angle_gamma 90.000000
_cell_volume 2754.095904
_symmetry_space_group_name_H-M "P M M A"
_symmetry_group_IT_number 51
_symmetry_cell_setting 'orthorhombic'
loop_
_space_group_symop_operation_xyz
x,y,z
1/2-x,-y,z
1/2+x,-y,-z
-x,y,-z
-x,-y,-z
1/2+x,y,-z
1/2-x,y,z
x,-y,z
loop_
_atom_site_type_symbol
_atom_site_label
_atom_site_fract_x
_atom_site_fract_y
_atom_site_fract_z
Si Si1 0.438459 0.732651 0.576681
Si Si2 0.562037 0.593500 0.319073
Si Si3 0.063222 0.910464 0.077336
Si Si4 0.436356 0.593750 0.167840
Si Si5 0.438127 0.912176 0.577255
Si Si6 0.435005 0.260350 0.923381
O O1 0.500000 0.723532 0.500000
O O2 0.250000 0.730660 0.573841
O O3 0.490641 0.659942 0.625912
O O4 0.486525 0.822995 0.604532
O O5 0.750000 0.599262 0.312527
O O6 0.524451 0.500000 0.339921
O O7 0.488499 0.607896 0.245394
O O8 0.250000 0.905101 0.075715
O O9 0.996391 0.826222 0.107125
O O10 0.020204 0.000000 0.107521
O O11 0.000000 0.911701 0.000000
O O12 0.250000 0.598496 0.162958
O O13 0.484125 0.500000 0.149968
O O14 0.510342 0.662212 0.120054
O O15 0.500000 0.912522 0.500000
O O16 0.250000 0.912397 0.576147
O O17 0.488723 0.000000 0.608364
O O18 0.250000 0.256850 0.926598
O O19 0.500000 0.267643 0.000000
#
# Coordination Sequence:
#
# PCOD9405901 Si02
#       6
#     8   8   8   8   8   8
#     4   9  17  28  44  68  95 121 152 191 234 278
#     4   9  18  33  50  67  90 122 158 194 236 288
#     4   9  16  27  45  70 101 134 166 201 240 283
#     4  10  21  37  55  73  94 124 164 206 248 298
#     4   8  13  22  37  58  85 116 148 182 221 266
#     4  11  21  33  52  77 105 133 163 202 245 290
#
# _framework density 17.428585999999999
#
# number of rings (size 3 to 8) (size 9 to 14) (size 15 to 20)
#    0.000    2.667    0.000    3.500    0.000    3.333 
#    0.000    0.000    0.000    1.000    0.000    2.333 
#    0.000    0.000    0.000    0.000    0.000    0.000 
#
# Total GULP energy -267280.699553 kJ/mol
# GULP energy per Si atom -5568.347907 kJ/mol
# Density = 1.738892 g / cm^3
# Si number density = 17.428586 Si / 1000 Ang^3
#
#
#
# Elastic Constant Matrix: (Units=GPa)
#
#
# Indices 1 2 3 4 5 6 
#
# 1 50.5292 54.3423 22.4119 0.0000 0.0000 0.0000
# 2 54.3423 208.3171 78.8572 0.0000 0.0000 0.0000
# 3 22.4119 78.8572 44.9820 0.0000 0.0000 0.0000
# 4 0.0000 0.0000 0.0000 -8.5753 0.0000 0.0000
# 5 0.0000 0.0000 0.0000 0.0000 21.2000 0.0000
# 6 0.0000 0.0000 0.0000 0.0000 0.0000 -9.6775
#
#
#
# Elastic Compliance Matrix: (Units=1/GPa)
#
#
# Indices 1 2 3 4 5 6 
#
# 1 0.027678 -0.005946 -0.003367 0.000000 0.000000 0.000000
# 2 -0.005946 0.015548 -0.024294 0.000000 0.000000 0.000000
# 3 -0.003367 -0.024294 0.066499 0.000000 0.000000 0.000000
# 4 0.000000 0.000000 0.000000 -0.116615 0.000000 0.000000
# 5 0.000000 0.000000 0.000000 0.000000 0.047170 0.000000
# 6 0.000000 0.000000 0.000000 0.000000 0.000000 -0.103332
#
#
# Mechanical properties :
#
#
# Convention : Reuss Voigt Hill
#
# Bulk Modulus (GPa) = 23.52361 68.33900 45.93131
# Shear Modulus (GPa) = 272.72590 10.47057 141.59823
#
# Velocity S-wave (km/s) = 12.52285 2.45372 9.02337
# Velocity P-wave (km/s) = 14.92052 6.87922 11.61778
#
# Compressibility (1/GPa) = 0.04251048
#
# Stress axis : x y z
#
# Youngs Moduli (GPa) = 36.12935 64.31759 15.03781
#
# Poissons Ratio (x) = 0.38240 0.05064
# Poissons Ratio (y) = 0.21481 0.36533
# Poissons Ratio (z) = 0.12166 1.56256
#
# Static dielectric constant tensor:
#      x y z
#    x 1.582720 0.000000 0.000000 
#    y 0.000000 1.662760 0.000000 
#    z 0.000000 0.000000 1.547710 
# 
# From -- ./inp_files/31579.got.cif
#   From: 2010.05.17/outbox.cif.g08.bks.cpg/sg51_16_cif.got.tgz:31579.got - 2010.06.03 11:52:47.
