data_PCOD9405398
_publ_section_title
;
Structure prediction by ZEFSAII (Michael W. Deem and Ramdas Pophale) SiO2 
 PCOD9405398
Probable space group: P M M A
;
_chemical_formula_sum "Si O2"
_cell_formula_units_Z 40
_cell_length_a 7.460960
_cell_length_b 27.774560
_cell_length_c 9.015130
_cell_angle_alpha 90.000000
_cell_angle_beta 90.000000
_cell_angle_gamma 90.000000
_cell_volume 1868.159243
_symmetry_space_group_name_H-M "P M M A"
_symmetry_group_IT_number 51
_symmetry_cell_setting 'orthorhombic'
loop_
_space_group_symop_operation_xyz
x,y,z
1/2-x,-y,z
1/2+x,-y,-z
-x,y,-z
-x,-y,-z
1/2+x,y,-z
1/2-x,y,z
x,-y,z
loop_
_atom_site_type_symbol
_atom_site_label
_atom_site_fract_x
_atom_site_fract_y
_atom_site_fract_z
Si Si1 0.964599 0.097499 0.174229
Si Si2 0.535378 0.000000 0.325695
Si Si3 0.964637 0.194893 0.326060
Si Si4 0.464605 0.396498 0.822751
Si Si5 0.964932 0.292057 0.175834
Si Si6 0.964908 0.500000 0.177622
O O1 0.750000 0.097737 0.196570
O O2 0.034754 0.048975 0.251321
O O3 0.034666 0.146949 0.245567
O O4 0.000000 0.096361 0.000000
O O5 0.500000 0.000000 0.500000
O O6 0.750000 0.000000 0.303469
O O7 0.750000 0.195585 0.303238
O O8 0.035270 0.244904 0.258459
O O9 0.000000 0.192128 0.500000
O O10 0.250000 0.396774 0.801739
O O11 0.533540 0.344450 0.770150
O O12 0.533685 0.448222 0.765239
O O13 0.500000 0.396380 0.000000
O O14 0.750000 0.293192 0.194844
O O15 0.000000 0.287666 0.000000
O O16 0.750000 0.500000 0.197301
O O17 0.000000 0.500000 0.000000
#
# Coordination Sequence:
#
# PCOD9405398 Si02
#       6
#     8   4   8   8   8   4
#     4  10  21  36  54  77 102 128 161 198 235 278
#     4  10  21  36  54  78 106 134 165 198 232 274
#     4  10  21  35  50  70  95 123 157 195 234 278
#     4   8  13  21  34  54  81 110 140 176 218 265
#     4   9  17  29  45  66  91 118 150 188 229 275
#     4   8  12  18  30  50  77 108 138 170 214 264
#
# _framework density 21.411452000000001
#
# number of rings (size 3 to 8) (size 9 to 14) (size 15 to 20)
#    0.000    2.800    0.000    1.500    0.000    2.400 
#    0.000    0.000    0.000    0.000    0.000    0.700 
#    0.000    0.000    0.000    0.000    0.000    0.000 
#
# Total GULP energy -223059.015360 kJ/mol
# GULP energy per Si atom -5576.475384 kJ/mol
# Density = 2.136272 g / cm^3
# Si number density = 21.411452 Si / 1000 Ang^3
#
#
#
# Elastic Constant Matrix: (Units=GPa)
#
#
# Indices 1 2 3 4 5 6 
#
# 1 69.2575 16.2576 -12.3666 0.0000 0.0000 0.0000
# 2 16.2576 312.8699 105.4007 0.0000 0.0000 0.0000
# 3 -12.3666 105.4007 95.1299 0.0000 0.0000 0.0000
# 4 0.0000 0.0000 0.0000 -12.2985 0.0000 0.0000
# 5 0.0000 0.0000 0.0000 0.0000 19.6469 0.0000
# 6 0.0000 0.0000 0.0000 0.0000 0.0000 -2.6212
#
#
#
# Elastic Compliance Matrix: (Units=1/GPa)
#
#
# Indices 1 2 3 4 5 6 
#
# 1 0.015855 -0.002422 0.004745 0.000000 0.000000 0.000000
# 2 -0.002422 0.005470 -0.006375 0.000000 0.000000 0.000000
# 3 0.004745 -0.006375 0.018192 0.000000 0.000000 0.000000
# 4 0.000000 0.000000 0.000000 -0.081310 0.000000 0.000000
# 5 0.000000 0.000000 0.000000 0.000000 0.050899 0.000000
# 6 0.000000 0.000000 0.000000 0.000000 0.000000 -0.381508
#
#
# Mechanical properties :
#
#
# Convention : Reuss Voigt Hill
#
# Bulk Modulus (GPa) = 31.83540 77.31562 54.57551
# Shear Modulus (GPa) = -14.13120 25.47648 5.67264
#
# Velocity S-wave (km/s) = -2.57180 3.45317 1.62945
# Velocity P-wave (km/s) = 2.46613 7.21713 5.39300
#
# Compressibility (1/GPa) = 0.03141158
#
# Stress axis : x y z
#
# Youngs Moduli (GPa) = 63.07256 182.82181 54.96821
#
# Poissons Ratio (x) = 0.44286 -0.26082
# Poissons Ratio (y) = 0.15278 0.35044
# Poissons Ratio (z) = -0.29928 1.16554
#
# Static dielectric constant tensor:
#      x y z
#    x 1.770140 0.000000 0.000000 
#    y 0.000000 1.855610 0.000000 
#    z 0.000000 0.000000 1.673480 
# 
# From -- ./inp_files/5515.got.cif
#   From: 2010.05.17/outbox.cif.g08.bks.cpg/sg51_3_cif.got.tgz:5515.got - 2010.06.03 11:52:47.
