data_PCOD9405954
_publ_section_title
;
Structure prediction by ZEFSAII (Michael W. Deem and Ramdas Pophale) SiO2 
 PCOD9405954
Probable space group: P M M A
;
_chemical_formula_sum "Si O2"
_cell_formula_units_Z 64
_cell_length_a 8.958047
_cell_length_b 29.095125
_cell_length_c 14.185180
_cell_angle_alpha 90.000000
_cell_angle_beta 90.000000
_cell_angle_gamma 90.000000
_cell_volume 3697.161442
_symmetry_space_group_name_H-M "P M M A"
_symmetry_group_IT_number 51
_symmetry_cell_setting 'orthorhombic'
loop_
_space_group_symop_operation_xyz
x,y,z
1/2-x,-y,z
1/2+x,-y,-z
-x,y,-z
-x,-y,-z
1/2+x,y,-z
1/2-x,y,z
x,-y,z
loop_
_atom_site_type_symbol
_atom_site_label
_atom_site_fract_x
_atom_site_fract_y
_atom_site_fract_z
Si Si1 0.929617 0.052797 0.101066
Si Si2 0.570641 0.274528 0.289485
Si Si3 0.420793 0.555888 0.904487
Si Si4 0.570278 0.862073 0.226410
Si Si5 0.071870 0.446296 0.292970
Si Si6 0.927870 0.773083 0.101412
Si Si7 0.571315 0.810824 0.602581
Si Si8 0.427654 0.634919 0.598632
O O1 0.750000 0.054868 0.092092
O O2 0.972513 0.089347 0.180761
O O3 0.971566 0.000000 0.122905
O O4 0.000000 0.064884 0.000000
O O5 0.750000 0.266344 0.298008
O O6 0.528828 0.264018 0.181357
O O7 0.487742 0.237595 0.355120
O O8 0.539478 0.325615 0.324787
O O9 0.250000 0.571949 0.898196
O O10 0.417507 0.500000 0.909087
O O11 0.511031 0.567228 0.810342
O O12 0.500000 0.572099 0.000000
O O13 0.750000 0.860961 0.242083
O O14 0.535940 0.822237 0.149637
O O15 0.487531 0.848343 0.322185
O O16 0.250000 0.441920 0.295756
O O17 0.033679 0.500000 0.308312
O O18 0.996341 0.413033 0.367872
O O19 0.750000 0.771179 0.090025
O O20 0.000000 0.767357 0.000000
O O21 0.500000 0.817835 0.500000
O O22 0.750000 0.810846 0.597247
O O23 0.500000 0.648990 0.500000
O O24 0.250000 0.631025 0.588818
#
# Coordination Sequence:
#
# PCOD9405954 Si02
#       8
#     8   8   8   8   8   8   8   8
#     4   9  17  29  47  72 103 140 179 220 266 313
#     4   9  20  38  56  77 106 137 169 207 251 300
#     4   9  16  28  49  76 104 133 165 202 244 288
#     4   9  18  32  48  70 104 140 175 218 263 307
#     4  10  21  37  56  79 107 137 171 211 253 300
#     4   9  17  30  49  74 105 138 169 204 247 296
#     4  11  21  33  53  78 102 130 167 212 261 312
#     4  11  23  39  59  79 102 133 169 210 256 307
#
# _framework density 17.310576999999999
#
# number of rings (size 3 to 8) (size 9 to 14) (size 15 to 20)
#    0.000    2.375    0.000    3.750    0.000    7.000 
#    0.000    0.625    0.000    1.875    0.000    0.000 
#    0.000    0.000    0.000    0.000    0.000    0.000 
#
# Total GULP energy -357080.636618 kJ/mol
# GULP energy per Si atom -5579.384947 kJ/mol
# Density = 1.727118 g / cm^3
# Si number density = 17.310577 Si / 1000 Ang^3
#
#
#
# Elastic Constant Matrix: (Units=GPa)
#
#
# Indices 1 2 3 4 5 6 
#
# 1 60.7335 44.0260 53.7011 0.0000 0.0000 0.0000
# 2 44.0260 76.7834 57.9589 0.0000 0.0000 0.0000
# 3 53.7011 57.9589 139.0319 0.0000 0.0000 0.0000
# 4 0.0000 0.0000 0.0000 19.1638 0.0000 0.0000
# 5 0.0000 0.0000 0.0000 0.0000 35.4478 0.0000
# 6 0.0000 0.0000 0.0000 0.0000 0.0000 14.7216
#
#
#
# Elastic Compliance Matrix: (Units=1/GPa)
#
#
# Indices 1 2 3 4 5 6 
#
# 1 0.032162 -0.013226 -0.006909 0.000000 0.000000 0.000000
# 2 -0.013226 0.024442 -0.005081 0.000000 0.000000 0.000000
# 3 -0.006909 -0.005081 0.011979 0.000000 0.000000 0.000000
# 4 0.000000 0.000000 0.000000 0.052182 0.000000 0.000000
# 5 0.000000 0.000000 0.000000 0.000000 0.028211 0.000000
# 6 0.000000 0.000000 0.000000 0.000000 0.000000 0.067927
#
#
# Mechanical properties :
#
#
# Convention : Reuss Voigt Hill
#
# Bulk Modulus (GPa) = 55.09027 65.32455 60.20741
# Shear Modulus (GPa) = 18.28923 21.92416 20.10670
#
# Velocity S-wave (km/s) = 3.25396 3.56268 3.41181
# Velocity P-wave (km/s) = 6.78317 7.39880 7.09767
#
# Compressibility (1/GPa) = 0.01815202
#
# Stress axis : x y z
#
# Youngs Moduli (GPa) = 31.09275 40.91269 83.47720
#
# Poissons Ratio (x) = 0.54110 0.57675
# Poissons Ratio (y) = 0.41122 0.42414
# Poissons Ratio (z) = 0.21482 0.20787
#
# Static dielectric constant tensor:
#      x y z
#    x 1.579620 0.000000 0.000000 
#    y 0.000000 1.591280 0.000000 
#    z 0.000000 0.000000 1.575070 
# 
# From -- ./inp_files/14867.got.cif
#   From: 2010.05.17/outbox.cif.g08.bks.cpg/sg51_8_cif.got.tgz:14867.got - 2010.06.03 11:52:47.
