data_PCOD9405436
_publ_section_title
;
Structure prediction by ZEFSAII (Michael W. Deem and Ramdas Pophale) SiO2 
 PCOD9405436
Probable space group: P M M A
;
_chemical_formula_sum "Si O2"
_cell_formula_units_Z 40
_cell_length_a 7.569367
_cell_length_b 9.976117
_cell_length_c 26.175439
_cell_angle_alpha 90.000000
_cell_angle_beta 90.000000
_cell_angle_gamma 90.000000
_cell_volume 1976.583067
_symmetry_space_group_name_H-M "P M M A"
_symmetry_group_IT_number 51
_symmetry_cell_setting 'orthorhombic'
loop_
_space_group_symop_operation_xyz
x,y,z
1/2-x,-y,z
1/2+x,-y,-z
-x,y,-z
-x,-y,-z
1/2+x,y,-z
1/2-x,y,z
x,-y,z
loop_
_atom_site_type_symbol
_atom_site_label
_atom_site_fract_x
_atom_site_fract_y
_atom_site_fract_z
Si Si1 0.961958 0.347426 0.557058
Si Si2 0.460084 0.348547 0.854110
Si Si3 0.037888 0.848447 0.941169
Si Si4 0.965726 0.846929 0.645956
Si Si5 0.462925 0.152067 0.238124
O O1 0.750000 0.353250 0.562003
O O2 0.030286 0.500000 0.560412
O O3 0.028863 0.254141 0.602570
O O4 0.000000 0.296054 0.500000
O O5 0.250000 0.359923 0.862206
O O6 0.531307 0.500000 0.850840
O O7 0.531973 0.259954 0.901111
O O8 0.484514 0.262036 0.802965
O O9 0.250000 0.853631 0.935522
O O10 0.970492 0.000000 0.931436
O O11 0.000000 0.814383 0.000000
O O12 0.750000 0.843798 0.645811
O O13 0.021335 0.815377 0.704020
O O14 0.017680 0.000000 0.634892
O O15 0.250000 0.148019 0.238746
O O16 0.523874 0.000000 0.225248
#
# Coordination Sequence:
#
# PCOD9405436 Si02
#       5
#     8   8   8   8   8
#     4   9  17  29  45  65  90 121 154 187 227 276
#     4  10  21  35  50  72 103 135 164 196 239 289
#     4   9  18  33  52  72  95 126 163 200 238 282
#     4   8  15  29  48  69  92 118 151 193 237 278
#     4   9  18  33  53  75  97 124 162 205 245 288
#
# _framework density 20.236943
#
# number of rings (size 3 to 8) (size 9 to 14) (size 15 to 20)
#    0.000    3.000    0.000    1.800    0.000    4.000 
#    0.000    5.000    0.000    3.600    0.000    0.000 
#    0.000    0.000    0.000    0.000    0.000    0.000 
#
# Total GULP energy -223145.469148 kJ/mol
# GULP energy per Si atom -5578.636729 kJ/mol
# Density = 2.019088 g / cm^3
# Si number density = 20.236943 Si / 1000 Ang^3
#
#
#
# Elastic Constant Matrix: (Units=GPa)
#
#
# Indices 1 2 3 4 5 6 
#
# 1 45.9261 6.5776 -0.5268 0.0000 0.0000 0.0000
# 2 6.5776 167.8374 148.7054 0.0000 0.0000 0.0000
# 3 -0.5268 148.7054 178.5591 0.0000 0.0000 0.0000
# 4 0.0000 0.0000 0.0000 253.1683 0.0000 0.0000
# 5 0.0000 0.0000 0.0000 0.0000 22.9635 0.0000
# 6 0.0000 0.0000 0.0000 0.0000 0.0000 12.3464
#
#
#
# Elastic Compliance Matrix: (Units=1/GPa)
#
#
# Indices 1 2 3 4 5 6 
#
# 1 0.022319 -0.003559 0.003030 0.000000 0.000000 0.000000
# 2 -0.003559 0.023298 -0.019413 0.000000 0.000000 0.000000
# 3 0.003030 -0.019413 0.021777 0.000000 0.000000 0.000000
# 4 0.000000 0.000000 0.000000 0.003950 0.000000 0.000000
# 5 0.000000 0.000000 0.000000 0.000000 0.043547 0.000000
# 6 0.000000 0.000000 0.000000 0.000000 0.000000 0.080995
#
#
# Mechanical properties :
#
#
# Convention : Reuss Voigt Hill
#
# Bulk Modulus (GPa) = 36.35249 77.98167 57.16708
# Shear Modulus (GPa) = 20.41316 73.53340 46.97328
#
# Velocity S-wave (km/s) = 3.17946 6.03449 4.82307
# Velocity P-wave (km/s) = 5.61080 9.33656 7.70235
#
# Compressibility (1/GPa) = 0.02750843
#
# Stress axis : x y z
#
# Youngs Moduli (GPa) = 44.80561 42.92235 45.92050
#
# Poissons Ratio (x) = 0.15278 -0.13915
# Poissons Ratio (y) = 0.15948 0.89146
# Poissons Ratio (z) = -0.13577 0.83326
#
# Static dielectric constant tensor:
#      x y z
#    x 1.769770 0.000000 0.000000 
#    y 0.000000 1.713710 0.000000 
#    z 0.000000 0.000000 1.690110 
# 
# From -- ./inp_files/28814.got.cif
#   From: 2010.05.17/outbox.cif.g08.bks.cpg/sg51_15_cif.got.tgz:28814.got - 2010.06.03 11:52:47.
