data_PCOD9405177
_publ_section_title
;
Structure prediction by ZEFSAII (Michael W. Deem and Ramdas Pophale) SiO2 
 PCOD9405177
Probable space group: P M M A
;
_chemical_formula_sum "Si O2"
_cell_formula_units_Z 64
_cell_length_a 24.172790
_cell_length_b 9.064366
_cell_length_c 15.135875
_cell_angle_alpha 90.000000
_cell_angle_beta 90.000000
_cell_angle_gamma 90.000000
_cell_volume 3316.436946
_symmetry_space_group_name_H-M "P M M A"
_symmetry_group_IT_number 51
_symmetry_cell_setting 'orthorhombic'
loop_
_space_group_symop_operation_xyz
x,y,z
1/2-x,-y,z
1/2+x,-y,-z
-x,y,-z
-x,-y,-z
1/2+x,y,-z
1/2-x,y,z
x,-y,z
loop_
_atom_site_type_symbol
_atom_site_label
_atom_site_fract_x
_atom_site_fract_y
_atom_site_fract_z
Si Si1 0.889654 0.323778 0.147492
Si Si2 0.623885 0.823688 0.821318
Si Si3 0.601205 0.676768 0.644224
Si Si4 0.187537 0.674160 0.688132
Si Si5 0.874515 0.174161 0.457880
Si Si6 0.998024 0.824178 0.895250
Si Si7 0.686035 0.177498 0.998558
Si Si8 0.519749 0.666035 0.397839
O O1 0.891092 0.500000 0.138785
O O2 0.855265 0.285778 0.235193
O O3 0.951519 0.260794 0.149775
O O4 0.855960 0.254412 0.065777
O O5 0.631577 0.738489 0.729948
O O6 0.562630 0.787825 0.858702
O O7 0.625941 0.000000 0.805577
O O8 0.667182 0.787752 0.898608
O O9 0.604295 0.500000 0.637548
O O10 0.622033 0.748435 0.553279
O O11 0.535461 0.714795 0.652503
O O12 0.250000 0.697490 0.720170
O O13 0.180818 0.500000 0.668294
O O14 0.175666 0.765943 0.600345
O O15 0.928838 0.225603 0.402663
O O16 0.873954 0.000000 0.468562
O O17 0.006486 0.000000 0.884758
O O18 0.000000 0.791615 0.000000
O O19 0.750000 0.218524 0.014229
O O20 0.680806 0.000000 0.008990
O O21 0.500000 0.655117 0.500000
O O22 0.536355 0.500000 0.369294
#
# Coordination Sequence:
#
# PCOD9405177 Si02
#       8
#     8   8   8   8   8   8   8   8
#     4  11  23  38  61  91 122 154 196 245 298 358
#     4  10  21  37  58  87 123 158 199 249 297 351
#     4  10  21  37  58  83 116 157 197 237 291 352
#     4  10  23  43  62  82 115 157 197 242 299 358
#     4  11  22  36  58  86 114 146 192 243 292 345
#     4  10  20  38  60  85 123 164 199 240 299 361
#     4  10  21  40  64  86 114 156 200 244 296 349
#     4   8  16  32  52  76 108 145 184 227 278 339
#
# _framework density 19.297820000000002
#
# number of rings (size 3 to 8) (size 9 to 14) (size 15 to 20)
#    0.000    2.000    1.250    3.000    1.750    6.000 
#    0.000    0.625    0.000    2.250    0.000    0.000 
#    0.000    0.000    0.000    0.000    0.000    0.000 
#
# Total GULP energy -357493.031124 kJ/mol
# GULP energy per Si atom -5585.828611 kJ/mol
# Density = 1.925390 g / cm^3
# Si number density = 19.297820 Si / 1000 Ang^3
#
#
#
# Elastic Constant Matrix: (Units=GPa)
#
#
# Indices 1 2 3 4 5 6 
#
# 1 58.9546 19.2337 6.9393 0.0000 0.0000 0.0000
# 2 19.2337 40.4202 33.2746 0.0000 0.0000 0.0000
# 3 6.9393 33.2746 77.5729 0.0000 0.0000 0.0000
# 4 0.0000 0.0000 0.0000 25.6430 0.0000 0.0000
# 5 0.0000 0.0000 0.0000 0.0000 26.3614 0.0000
# 6 0.0000 0.0000 0.0000 0.0000 0.0000 16.1225
#
#
#
# Elastic Compliance Matrix: (Units=1/GPa)
#
#
# Indices 1 2 3 4 5 6 
#
# 1 0.020736 -0.012892 0.003675 0.000000 0.000000 0.000000
# 2 -0.012892 0.046261 -0.018690 0.000000 0.000000 0.000000
# 3 0.003675 -0.018690 0.020579 0.000000 0.000000 0.000000
# 4 0.000000 0.000000 0.000000 0.038997 0.000000 0.000000
# 5 0.000000 0.000000 0.000000 0.000000 0.037934 0.000000
# 6 0.000000 0.000000 0.000000 0.000000 0.000000 0.062025
#
#
# Mechanical properties :
#
#
# Convention : Reuss Voigt Hill
#
# Bulk Modulus (GPa) = 31.48486 32.87145 32.17815
# Shear Modulus (GPa) = 17.06869 21.45874 19.26372
#
# Velocity S-wave (km/s) = 2.97726 3.33825 3.16291
# Velocity P-wave (km/s) = 5.30749 5.65060 5.48173
#
# Compressibility (1/GPa) = 0.03176129
#
# Stress axis : x y z
#
# Youngs Moduli (GPa) = 48.22602 21.61652 48.59225
#
# Poissons Ratio (x) = 0.27869 -0.17859
# Poissons Ratio (y) = 0.62175 0.90820
# Poissons Ratio (z) = -0.17724 0.40402
#
# Static dielectric constant tensor:
#      x y z
#    x 1.681040 0.000000 0.000000 
#    y 0.000000 1.647930 0.000000 
#    z 0.000000 0.000000 1.671180 
# 
# From -- ./inp_files/26331.got.cif
#   From: 2010.05.17/outbox.cif.g08.bks.cpg/sg51_14_cif.got.tgz:26331.got - 2010.06.03 11:52:47.
