data_PCOD9405731
_publ_section_title
;
Structure prediction by ZEFSAII (Michael W. Deem and Ramdas Pophale) SiO2 
 PCOD9405731
Probable space group: P M M A
;
_chemical_formula_sum "Si O2"
_cell_formula_units_Z 36
_cell_length_a 9.527469
_cell_length_b 8.016692
_cell_length_c 25.109236
_cell_angle_alpha 90.000000
_cell_angle_beta 90.000000
_cell_angle_gamma 90.000000
_cell_volume 1917.812926
_symmetry_space_group_name_H-M "P M M A"
_symmetry_group_IT_number 51
_symmetry_cell_setting 'orthorhombic'
loop_
_space_group_symop_operation_xyz
x,y,z
1/2-x,-y,z
1/2+x,-y,-z
-x,y,-z
-x,-y,-z
1/2+x,y,-z
1/2-x,y,z
x,-y,z
loop_
_atom_site_type_symbol
_atom_site_label
_atom_site_fract_x
_atom_site_fract_y
_atom_site_fract_z
Si Si1 0.583880 0.812366 0.369420
Si Si2 0.418113 0.500000 0.555199
Si Si3 0.411662 0.701750 0.949321
Si Si4 0.412302 0.198477 0.831703
Si Si5 0.088024 0.696666 0.269107
O O1 0.750000 0.794581 0.356846
O O2 0.547429 0.665382 0.410499
O O3 0.495416 0.789000 0.315811
O O4 0.562054 0.000000 0.390688
O O5 0.250000 0.500000 0.546144
O O6 0.500000 0.500000 0.500000
O O7 0.250000 0.755803 0.954864
O O8 0.414839 0.500000 0.948862
O O9 0.461863 0.761486 0.891549
O O10 0.500000 0.759945 0.000000
O O11 0.250000 0.258559 0.827087
O O12 0.509380 0.275923 0.786609
O O13 0.411750 0.000000 0.824305
O O14 0.250000 0.751083 0.266017
O O15 0.085262 0.500000 0.281654
#
# Coordination Sequence:
#
# PCOD9405731 Si02
#       5
#     8   4   8   8   8
#     4  10  21  39  63  89 118 157 201 240 286 344
#     4  10  22  40  62  90 124 160 199 242 283 334
#     4   9  18  33  52  73  99 135 179 226 276 333
#     4  10  21  36  54  78 108 144 186 229 279 343
#     4  11  23  37  56  84 116 149 188 236 291 344
#
# _framework density 18.771381000000002
#
# number of rings (size 3 to 8) (size 9 to 14) (size 15 to 20)
#    0.000    2.000    1.111    2.000    0.000    8.444 
#    0.000    2.222    0.000    0.000    0.000    0.000 
#    0.000    0.000    0.000    0.000    0.000    0.000 
#
# Total GULP energy -201034.691066 kJ/mol
# GULP energy per Si atom -5584.296974 kJ/mol
# Density = 1.872866 g / cm^3
# Si number density = 18.771381 Si / 1000 Ang^3
#
#
#
# Elastic Constant Matrix: (Units=GPa)
#
#
# Indices 1 2 3 4 5 6 
#
# 1 68.1285 38.4479 73.4166 0.0000 0.0000 0.0000
# 2 38.4479 84.1629 48.3841 0.0000 0.0000 0.0000
# 3 73.4166 48.3841 140.3462 0.0000 0.0000 0.0000
# 4 0.0000 0.0000 0.0000 2.2246 0.0000 0.0000
# 5 0.0000 0.0000 0.0000 0.0000 40.4356 0.0000
# 6 0.0000 0.0000 0.0000 0.0000 0.0000 9.4126
#
#
#
# Elastic Compliance Matrix: (Units=1/GPa)
#
#
# Indices 1 2 3 4 5 6 
#
# 1 0.036811 -0.007166 -0.016786 0.000000 0.000000 0.000000
# 2 -0.007166 0.016214 -0.001841 0.000000 0.000000 0.000000
# 3 -0.016786 -0.001841 0.016541 0.000000 0.000000 0.000000
# 4 0.000000 0.000000 0.000000 0.449525 0.000000 0.000000
# 5 0.000000 0.000000 0.000000 0.000000 0.024731 0.000000
# 6 0.000000 0.000000 0.000000 0.000000 0.000000 0.106240
#
#
# Mechanical properties :
#
#
# Convention : Reuss Voigt Hill
#
# Bulk Modulus (GPa) = 55.61859 68.12609 61.87234
# Shear Modulus (GPa) = 7.06574 19.24049 13.15311
#
# Velocity S-wave (km/s) = 1.94223 3.20502 2.64995
# Velocity P-wave (km/s) = 5.89266 7.07584 6.51118
#
# Compressibility (1/GPa) = 0.01797960
#
# Stress axis : x y z
#
# Youngs Moduli (GPa) = 27.16586 61.67577 60.45745
#
# Poissons Ratio (x) = 0.44200 1.01481
# Poissons Ratio (y) = 0.19468 0.11129
# Poissons Ratio (z) = 0.45599 0.11353
#
# Static dielectric constant tensor:
#      x y z
#    x 1.638090 0.000000 0.000000 
#    y 0.000000 1.671950 0.000000 
#    z 0.000000 0.000000 1.606860 
# 
# From -- ./inp_files/34337.got.cif
#   From: 2010.05.17/outbox.cif.g08.bks.cpg/sg51_18_cif.got.tgz:34337.got - 2010.06.03 11:52:47.
