data_PCOD9405927
_publ_section_title
;
Structure prediction by ZEFSAII (Michael W. Deem and Ramdas Pophale) SiO2 
 PCOD9405927
Probable space group: P M M A
;
_chemical_formula_sum "Si O2"
_cell_formula_units_Z 56
_cell_length_a 14.597403
_cell_length_b 8.671388
_cell_length_c 24.956951
_cell_angle_alpha 90.000000
_cell_angle_beta 90.000000
_cell_angle_gamma 90.000000
_cell_volume 3159.044499
_symmetry_space_group_name_H-M "P M M A"
_symmetry_group_IT_number 51
_symmetry_cell_setting 'orthorhombic'
loop_
_space_group_symop_operation_xyz
x,y,z
1/2-x,-y,z
1/2+x,-y,-z
-x,y,-z
-x,-y,-z
1/2+x,y,-z
1/2-x,y,z
x,-y,z
loop_
_atom_site_type_symbol
_atom_site_label
_atom_site_fract_x
_atom_site_fract_y
_atom_site_fract_z
Si Si1 0.507994 0.685906 0.438755
Si Si2 0.448492 0.314941 0.152307
Si Si3 0.144492 0.314057 0.353302
Si Si4 0.750000 0.687454 0.888193
Si Si5 0.144687 0.813767 0.647281
Si Si6 0.440011 0.184463 0.947589
Si Si7 0.750000 0.314888 0.013237
Si Si8 0.507702 0.184487 0.732338
O O1 0.500000 0.738656 0.500000
O O2 0.516260 0.500000 0.438847
O O3 0.416904 0.726271 0.404986
O O4 0.593194 0.753065 0.405578
O O5 0.449047 0.500000 0.152052
O O6 0.343714 0.262483 0.140502
O O7 0.511207 0.253765 0.104267
O O8 0.484434 0.255280 0.209032
O O9 0.250000 0.267777 0.358435
O O10 0.141204 0.500000 0.347197
O O11 0.094429 0.238699 0.302733
O O12 0.750000 0.500000 0.888015
O O13 0.750000 0.735929 0.950613
O O14 0.250000 0.762088 0.650861
O O15 0.081836 0.765863 0.697995
O O16 0.143918 0.000000 0.645889
O O17 0.339955 0.252064 0.957906
O O18 0.435733 0.000000 0.942874
O O19 0.500000 0.223832 0.000000
O O20 0.750000 0.500000 0.013776
O O21 0.506497 0.000000 0.736136
#
# Coordination Sequence:
#
# PCOD9405927 Si02
#       8
#     8   8   8   4   8   8   4   8
#     4   9  18  32  52  81 113 142 177 224 273 320
#     4  11  22  39  60  84 113 148 187 229 278 336
#     4   9  18  33  52  74 105 145 181 216 266 328
#     4   9  20  35  57  85 111 143 183 224 271 330
#     4   9  19  37  58  77 104 146 189 227 274 327
#     4  11  23  39  59  86 118 150 185 232 286 336
#     4  11  21  39  63  85 111 151 193 228 277 340
#     4  10  21  37  55  79 108 139 180 231 280 326
#
# _framework density 17.726879
#
# number of rings (size 3 to 8) (size 9 to 14) (size 15 to 20)
#    0.000    2.143    1.429    1.500    1.000    2.571 
#    1.286    2.500    0.000    0.000    0.000    0.000 
#    0.000    0.000    0.000    0.000    0.000    0.000 
#
# Total GULP energy -312592.909933 kJ/mol
# GULP energy per Si atom -5582.016249 kJ/mol
# Density = 1.768653 g / cm^3
# Si number density = 17.726879 Si / 1000 Ang^3
#
#
#
# Elastic Constant Matrix: (Units=GPa)
#
#
# Indices 1 2 3 4 5 6 
#
# 1 184.4698 42.5476 96.2385 0.0000 0.0000 0.0000
# 2 42.5476 28.7268 46.2475 0.0000 0.0000 0.0000
# 3 96.2385 46.2475 183.9170 0.0000 0.0000 0.0000
# 4 0.0000 0.0000 0.0000 26.2504 0.0000 0.0000
# 5 0.0000 0.0000 0.0000 0.0000 5.6139 0.0000
# 6 0.0000 0.0000 0.0000 0.0000 0.0000 22.4430
#
#
#
# Elastic Compliance Matrix: (Units=1/GPa)
#
#
# Indices 1 2 3 4 5 6 
#
# 1 0.008740 -0.009379 -0.002215 0.000000 0.000000 0.000000
# 2 -0.009379 0.068552 -0.012331 0.000000 0.000000 0.000000
# 3 -0.002215 -0.012331 0.009697 0.000000 0.000000 0.000000
# 4 0.000000 0.000000 0.000000 0.038095 0.000000 0.000000
# 5 0.000000 0.000000 0.000000 0.000000 0.178130 0.000000
# 6 0.000000 0.000000 0.000000 0.000000 0.000000 0.044557
#
#
# Mechanical properties :
#
#
# Convention : Reuss Voigt Hill
#
# Bulk Modulus (GPa) = 25.54878 85.24231 55.39554
# Shear Modulus (GPa) = 12.23496 25.00013 18.61755
#
# Velocity S-wave (km/s) = 2.63000 3.75946 3.24426
# Velocity P-wave (km/s) = 4.86480 8.18753 6.73431
#
# Compressibility (1/GPa) = 0.03914082
#
# Stress axis : x y z
#
# Youngs Moduli (GPa) = 114.42180 14.58740 103.12666
#
# Poissons Ratio (x) = 0.13681 0.22841
# Poissons Ratio (y) = 1.07312 1.27160
# Poissons Ratio (z) = 0.25343 0.17987
#
# Static dielectric constant tensor:
#      x y z
#    x 1.596580 0.000000 0.000000 
#    y 0.000000 1.601660 0.000000 
#    z 0.000000 0.000000 1.577340 
# 
# From -- ./inp_files/33608.got.cif
#   From: 2010.05.17/outbox.cif.g08.bks.cpg/sg51_17_cif.got.tgz:33608.got - 2010.06.03 11:52:47.
