data_PCOD9405802
_publ_section_title
;
Structure prediction by ZEFSAII (Michael W. Deem and Ramdas Pophale) SiO2 
 PCOD9405802
Probable space group: P M M A
;
_chemical_formula_sum "Si O2"
_cell_formula_units_Z 64
_cell_length_a 27.993021
_cell_length_b 8.931245
_cell_length_c 13.096508
_cell_angle_alpha 90.000000
_cell_angle_beta 90.000000
_cell_angle_gamma 90.000000
_cell_volume 3274.291084
_symmetry_space_group_name_H-M "P M M A"
_symmetry_group_IT_number 51
_symmetry_cell_setting 'orthorhombic'
loop_
_space_group_symop_operation_xyz
x,y,z
1/2-x,-y,z
1/2+x,-y,-z
-x,y,-z
-x,-y,-z
1/2+x,y,-z
1/2-x,y,z
x,-y,z
loop_
_atom_site_type_symbol
_atom_site_label
_atom_site_fract_x
_atom_site_fract_y
_atom_site_fract_z
Si Si1 0.194056 0.320987 0.127248
Si Si2 0.841817 0.322189 0.289984
Si Si3 0.132795 0.679193 0.327618
Si Si4 0.557569 0.320336 0.210285
Si Si5 0.954333 0.177597 0.773272
Si Si6 0.804908 0.821034 0.495123
Si Si7 0.442495 0.670103 0.015685
Si Si8 0.807754 0.828496 0.083361
O O1 0.250000 0.282464 0.142703
O O2 0.191311 0.500000 0.112647
O O3 0.164358 0.281451 0.227633
O O4 0.176211 0.241924 0.024261
O O5 0.834584 0.500000 0.300687
O O6 0.898798 0.292280 0.286186
O O7 0.816932 0.235912 0.381868
O O8 0.822152 0.267459 0.181322
O O9 0.129748 0.500000 0.334137
O O10 0.080821 0.748544 0.308649
O O11 0.159365 0.744271 0.425636
O O12 0.548980 0.500000 0.205201
O O13 0.508280 0.239330 0.235667
O O14 0.574389 0.276142 0.095308
O O15 0.935602 0.230018 0.885089
O O16 0.953800 0.000000 0.766194
O O17 0.750000 0.781320 0.520248
O O18 0.809596 0.000000 0.499927
O O19 0.425253 0.500000 0.035637
O O20 0.500000 0.662522 0.000000
O O21 0.750000 0.829101 0.079615
O O22 0.824235 0.000000 0.093946
#
# Coordination Sequence:
#
# PCOD9405802 Si02
#       8
#     8   8   8   8   8   8   8   8
#     4   9  19  36  58  85 116 152 196 243 294 357
#     4  11  23  39  63  91 118 156 207 252 296 356
#     4  11  23  40  64  89 118 158 206 252 299 358
#     4   9  20  38  58  83 118 160 205 251 299 350
#     4  11  22  35  55  87 124 160 201 248 302 361
#     4  11  25  45  67  92 123 156 195 250 311 365
#     4   8  15  31  53  77 112 158 201 243 291 345
#     4  10  21  36  55  84 123 160 193 239 302 363
#
# _framework density 19.546216999999999
#
# number of rings (size 3 to 8) (size 9 to 14) (size 15 to 20)
#    0.000    2.000    0.000    4.125    1.750    8.000 
#    0.000    1.875    0.000    3.750    0.000    0.000 
#    0.000    0.000    0.000    0.000    0.000    0.000 
#
# Total GULP energy -357686.013052 kJ/mol
# GULP energy per Si atom -5588.843954 kJ/mol
# Density = 1.950173 g / cm^3
# Si number density = 19.546217 Si / 1000 Ang^3
#
#
#
# Elastic Constant Matrix: (Units=GPa)
#
#
# Indices 1 2 3 4 5 6 
#
# 1 44.8568 18.1936 -2.8292 0.0000 0.0000 0.0000
# 2 18.1936 52.1824 9.3253 0.0000 0.0000 0.0000
# 3 -2.8292 9.3253 42.0581 0.0000 0.0000 0.0000
# 4 0.0000 0.0000 0.0000 84.9092 0.0000 0.0000
# 5 0.0000 0.0000 0.0000 0.0000 35.5206 0.0000
# 6 0.0000 0.0000 0.0000 0.0000 0.0000 21.6884
#
#
#
# Elastic Compliance Matrix: (Units=1/GPa)
#
#
# Indices 1 2 3 4 5 6 
#
# 1 0.026597 -0.009989 0.004004 0.000000 0.000000 0.000000
# 2 -0.009989 0.023705 -0.005928 0.000000 0.000000 0.000000
# 3 0.004004 -0.005928 0.025360 0.000000 0.000000 0.000000
# 4 0.000000 0.000000 0.000000 0.011777 0.000000 0.000000
# 5 0.000000 0.000000 0.000000 0.000000 0.028153 0.000000
# 6 0.000000 0.000000 0.000000 0.000000 0.000000 0.046108
#
#
# Mechanical properties :
#
#
# Convention : Reuss Voigt Hill
#
# Bulk Modulus (GPa) = 19.29114 20.94185 20.11649
# Shear Modulus (GPa) = 24.65420 36.05079 30.35250
#
# Velocity S-wave (km/s) = 3.55537 4.29929 3.94491
# Velocity P-wave (km/s) = 5.17157 5.94832 5.57349
#
# Compressibility (1/GPa) = 0.05183727
#
# Stress axis : x y z
#
# Youngs Moduli (GPa) = 37.59821 42.18431 39.43164
#
# Poissons Ratio (x) = 0.42136 -0.15788
# Poissons Ratio (y) = 0.37556 0.23375
# Poissons Ratio (z) = -0.15054 0.25007
#
# Static dielectric constant tensor:
#      x y z
#    x 1.718900 0.000000 0.000000 
#    y 0.000000 1.654190 0.000000 
#    z 0.000000 0.000000 1.659810 
# 
# From -- ./inp_files/19556.got.cif
#   From: 2010.05.17/outbox.cif.g08.bks.cpg/sg51_10_cif.got.tgz:19556.got - 2010.06.03 11:52:47.
