data_PCOD9405258
_publ_section_title
;
Structure prediction by ZEFSAII (Michael W. Deem and Ramdas Pophale) SiO2 
 PCOD9405258
Probable space group: P M M A
;
_chemical_formula_sum "Si O2"
_cell_formula_units_Z 48
_cell_length_a 29.731210
_cell_length_b 8.932007
_cell_length_c 9.992484
_cell_angle_alpha 90.000000
_cell_angle_beta 90.000000
_cell_angle_gamma 90.000000
_cell_volume 2653.597814
_symmetry_space_group_name_H-M "P M M A"
_symmetry_group_IT_number 51
_symmetry_cell_setting 'orthorhombic'
loop_
_space_group_symop_operation_xyz
x,y,z
1/2-x,-y,z
1/2+x,-y,-z
-x,y,-z
-x,-y,-z
1/2+x,y,-z
1/2-x,y,z
x,-y,z
loop_
_atom_site_type_symbol
_atom_site_label
_atom_site_fract_x
_atom_site_fract_y
_atom_site_fract_z
Si Si1 0.878534 0.320047 0.209569
Si Si2 0.026763 0.821901 0.865798
Si Si3 0.470635 0.673544 0.365417
Si Si4 0.802239 0.820145 0.715496
Si Si5 0.697344 0.180472 0.023467
Si Si6 0.874535 0.680479 0.521445
O O1 0.879054 0.500000 0.204906
O O2 0.925303 0.258370 0.150596
O O3 0.836737 0.257541 0.125058
O O4 0.875024 0.273209 0.365799
O O5 0.995207 0.773426 0.743299
O O6 0.034096 0.000000 0.866413
O O7 0.000000 0.779889 0.000000
O O8 0.500000 0.674622 0.500000
O O9 0.468770 0.500000 0.318563
O O10 0.420922 0.725027 0.405907
O O11 0.750000 0.781260 0.693767
O O12 0.833701 0.745349 0.606291
O O13 0.806205 0.000000 0.706827
O O14 0.813641 0.778095 0.869159
O O15 0.750000 0.218063 0.047500
O O16 0.693418 0.000000 0.034054
O O17 0.872988 0.500000 0.522712
#
# Coordination Sequence:
#
# PCOD9405258 Si02
#       6
#     8   8   8   8   8   8
#     4  11  23  40  60  85 118 154 194 237 287 344
#     4  11  25  41  58  86 119 151 193 241 287 340
#     4  10  20  40  62  82 116 155 191 232 283 340
#     4   9  20  39  61  85 115 151 190 234 286 342
#     4   9  20  40  62  85 117 153 190 238 290 339
#     4  10  22  38  58  86 117 151 189 235 286 337
#
# _framework density 18.088649
#
# number of rings (size 3 to 8) (size 9 to 14) (size 15 to 20)
#    0.000    2.000    1.667    2.000    2.333    5.667 
#    0.000    5.000    0.000    0.000    0.000    0.000 
#    0.000    0.000    0.000    0.000    0.000    0.000 
#
# Total GULP energy -268023.619471 kJ/mol
# GULP energy per Si atom -5583.825406 kJ/mol
# Density = 1.804748 g / cm^3
# Si number density = 18.088649 Si / 1000 Ang^3
#
#
#
# Elastic Constant Matrix: (Units=GPa)
#
#
# Indices 1 2 3 4 5 6 
#
# 1 136.4343 44.4026 91.2659 0.0000 0.0000 0.0000
# 2 44.4026 29.8345 44.5087 0.0000 0.0000 0.0000
# 3 91.2659 44.5087 116.1235 0.0000 0.0000 0.0000
# 4 0.0000 0.0000 0.0000 35.3761 0.0000 0.0000
# 5 0.0000 0.0000 0.0000 0.0000 36.0044 0.0000
# 6 0.0000 0.0000 0.0000 0.0000 0.0000 37.6681
#
#
#
# Elastic Compliance Matrix: (Units=1/GPa)
#
#
# Indices 1 2 3 4 5 6 
#
# 1 0.017314 -0.012769 -0.008714 0.000000 0.000000 0.000000
# 2 -0.012769 0.087696 -0.023577 0.000000 0.000000 0.000000
# 3 -0.008714 -0.023577 0.024497 0.000000 0.000000 0.000000
# 4 0.000000 0.000000 0.000000 0.028268 0.000000 0.000000
# 5 0.000000 0.000000 0.000000 0.000000 0.027774 0.000000
# 6 0.000000 0.000000 0.000000 0.000000 0.000000 0.026548
#
#
# Mechanical properties :
#
#
# Convention : Reuss Voigt Hill
#
# Bulk Modulus (GPa) = 25.38891 71.41631 48.40261
# Shear Modulus (GPa) = 15.85564 28.62407 22.23986
#
# Velocity S-wave (km/s) = 2.96387 3.98230 3.51022
# Velocity P-wave (km/s) = 5.07731 7.79178 6.57613
#
# Compressibility (1/GPa) = 0.03938727
#
# Stress axis : x y z
#
# Youngs Moduli (GPa) = 57.75656 11.40301 40.82199
#
# Poissons Ratio (x) = 0.14561 0.35570
# Poissons Ratio (y) = 0.73750 0.96246
# Poissons Ratio (z) = 0.50326 0.26885
#
# Static dielectric constant tensor:
#      x y z
#    x 1.598810 0.000000 0.000000 
#    y 0.000000 1.611000 0.000000 
#    z 0.000000 0.000000 1.597020 
# 
# From -- ./inp_files/12831.got.cif
#   From: 2010.05.17/outbox.cif.g08.bks.cpg/sg51_7_cif.got.tgz:12831.got - 2010.06.03 11:52:47.
