data_PCOD9405937
_publ_section_title
;
Structure prediction by ZEFSAII (Michael W. Deem and Ramdas Pophale) SiO2 
 PCOD9405937
Probable space group: P M M A
;
_chemical_formula_sum "Si O2"
_cell_formula_units_Z 38
_cell_length_a 9.091582
_cell_length_b 15.259164
_cell_length_c 17.507152
_cell_angle_alpha 90.000000
_cell_angle_beta 90.000000
_cell_angle_gamma 90.000000
_cell_volume 2428.766160
_symmetry_space_group_name_H-M "P M M A"
_symmetry_group_IT_number 51
_symmetry_cell_setting 'orthorhombic'
loop_
_space_group_symop_operation_xyz
x,y,z
1/2-x,-y,z
1/2+x,-y,-z
-x,y,-z
-x,-y,-z
1/2+x,y,-z
1/2-x,y,z
x,-y,z
loop_
_atom_site_type_symbol
_atom_site_label
_atom_site_fract_x
_atom_site_fract_y
_atom_site_fract_z
Si Si1 0.080824 0.762108 0.351085
Si Si2 0.918646 0.106021 0.923593
Si Si3 0.576213 0.601442 0.417084
Si Si4 0.573519 0.102735 0.237016
Si Si5 0.250000 0.000000 0.545371
Si Si6 0.500000 0.136129 0.500000
O O1 0.250000 0.750289 0.328318
O O2 0.073506 0.805319 0.434945
O O3 0.996814 0.670245 0.359650
O O4 0.001340 0.830492 0.295117
O O5 0.750000 0.137294 0.917905
O O6 0.011505 0.123199 0.847300
O O7 0.911982 0.000000 0.929408
O O8 0.000000 0.138089 0.000000
O O9 0.500000 0.610433 0.500000
O O10 0.750000 0.619370 0.424724
O O11 0.557302 0.500000 0.393413
O O12 0.750000 0.109734 0.239557
O O13 0.537233 0.000000 0.254791
O O14 0.121609 0.924230 0.540039
#
# Coordination Sequence:
#
# PCOD9405937 Si02
#       6
#     8   8   8   8   2   4
#     4  12  24  35  51  72  98 127 166 207 253 299
#     4   9  16  29  48  69  96 129 168 206 246 291
#     4  10  21  37  56  75  94 120 158 205 255 305
#     4  10  22  34  49  71 100 135 171 210 249 291
#     4  10  24  38  48  62  90 130 178 206 240 286
#     4  11  24  36  49  66  90 132 173 210 243 288
#
# _framework density 15.645803000000001
#
# number of rings (size 3 to 8) (size 9 to 14) (size 15 to 20)
#    0.000    1.684    2.105    2.526    5.895    5.053 
#    0.000    0.000    0.000    0.000    0.000    0.000 
#    0.000    0.842    0.000    3.158    0.000    4.842 
#
# Total GULP energy -211547.939136 kJ/mol
# GULP energy per Si atom -5567.051030 kJ/mol
# Density = 1.561019 g / cm^3
# Si number density = 15.645803 Si / 1000 Ang^3
#
#
#
# Elastic Constant Matrix: (Units=GPa)
#
#
# Indices 1 2 3 4 5 6 
#
# 1 134.9897 64.2354 42.6259 0.0000 0.0000 0.0000
# 2 64.2354 92.2295 46.7628 0.0000 0.0000 0.0000
# 3 42.6259 46.7628 84.0471 0.0000 0.0000 0.0000
# 4 0.0000 0.0000 0.0000 35.7921 0.0000 0.0000
# 5 0.0000 0.0000 0.0000 0.0000 21.9160 0.0000
# 6 0.0000 0.0000 0.0000 0.0000 0.0000 25.7410
#
#
#
# Elastic Compliance Matrix: (Units=1/GPa)
#
#
# Indices 1 2 3 4 5 6 
#
# 1 0.011290 -0.006909 -0.001882 0.000000 0.000000 0.000000
# 2 -0.006909 0.019331 -0.007252 0.000000 0.000000 0.000000
# 3 -0.001882 -0.007252 0.016887 0.000000 0.000000 0.000000
# 4 0.000000 0.000000 0.000000 0.027939 0.000000 0.000000
# 5 0.000000 0.000000 0.000000 0.000000 0.045629 0.000000
# 6 0.000000 0.000000 0.000000 0.000000 0.000000 0.038849
#
#
# Mechanical properties :
#
#
# Convention : Reuss Voigt Hill
#
# Bulk Modulus (GPa) = 64.83623 68.72380 66.78002
# Shear Modulus (GPa) = 25.36132 27.19929 26.28031
#
# Velocity S-wave (km/s) = 4.03049 4.17398 4.10286
# Velocity P-wave (km/s) = 7.94920 8.20059 8.07587
#
# Compressibility (1/GPa) = 0.01542347
#
# Stress axis : x y z
#
# Youngs Moduli (GPa) = 88.57523 51.72985 59.21649
#
# Poissons Ratio (x) = 0.35740 0.11143
# Poissons Ratio (y) = 0.61196 0.42942
# Poissons Ratio (z) = 0.16668 0.37513
#
# Static dielectric constant tensor:
#      x y z
#    x 1.530790 0.000000 0.000000 
#    y 0.000000 1.513280 0.000000 
#    z 0.000000 0.000000 1.519040 
# 
# From -- ./inp_files/27271.got.cif
#   From: 2010.05.17/outbox.cif.g08.bks.cpg/sg51_14_cif.got.tgz:27271.got - 2010.06.03 11:52:47.
