data_PCOD9405104
_publ_section_title
;
Structure prediction by ZEFSAII (Michael W. Deem and Ramdas Pophale) SiO2 
 PCOD9405104
Probable space group: P M M A
;
_chemical_formula_sum "Si O2"
_cell_formula_units_Z 38
_cell_length_a 20.261715
_cell_length_b 7.757544
_cell_length_c 11.901989
_cell_angle_alpha 90.000000
_cell_angle_beta 90.000000
_cell_angle_gamma 90.000000
_cell_volume 1870.768266
_symmetry_space_group_name_H-M "P M M A"
_symmetry_group_IT_number 51
_symmetry_cell_setting 'orthorhombic'
loop_
_space_group_symop_operation_xyz
x,y,z
1/2-x,-y,z
1/2+x,-y,-z
-x,y,-z
-x,-y,-z
1/2+x,y,-z
1/2-x,y,z
x,-y,z
loop_
_atom_site_type_symbol
_atom_site_label
_atom_site_fract_x
_atom_site_fract_y
_atom_site_fract_z
Si Si1 0.646117 0.201694 0.669546
Si Si2 0.750000 0.305813 0.269810
Si Si3 0.503811 0.500000 0.868364
Si Si4 0.134605 0.798023 0.573968
Si Si5 0.250000 0.500000 0.952919
Si Si6 0.159328 0.500000 0.165172
Si Si7 0.988347 0.201444 0.292496
O O1 0.662085 0.269219 0.544165
O O2 0.674978 0.328310 0.763447
O O3 0.565581 0.209917 0.675880
O O4 0.665009 0.000000 0.685273
O O5 0.750000 0.500000 0.316327
O O6 0.685028 0.222489 0.322988
O O7 0.750000 0.339001 0.135310
O O8 0.580941 0.500000 0.841970
O O9 0.475285 0.671634 0.811326
O O10 0.500000 0.500000 0.000000
O O11 0.062215 0.737235 0.611091
O O12 0.126676 0.000000 0.550032
O O13 0.189736 0.500000 0.040741
O O14 0.974038 0.000000 0.267901
#
# Coordination Sequence:
#
# PCOD9405104 Si02
#       7
#     8   4   4   8   2   4   8
#     4   9  19  37  62  94 123 144 184 238 296 359
#     4  10  25  38  57  78 113 156 200 246 276 332
#     4  10  22  33  58  80 115 151 198 243 275 331
#     4  10  20  37  61  89 121 151 187 235 294 355
#     4  10  26  44  58  74 116 160 208 246 280 334
#     4  10  22  40  58  84 111 160 197 237 289 335
#     4   9  19  35  57  90 122 150 180 229 297 354
#
# _framework density 20.31251
#
# number of rings (size 3 to 8) (size 9 to 14) (size 15 to 20)
#    0.316    2.105    0.000    0.947    5.895    3.789 
#    0.000    6.842    0.000    0.000    0.000    0.000 
#    0.000    0.000    0.000    0.000    0.000    0.000 
#
# Total GULP energy -211753.474890 kJ/mol
# GULP energy per Si atom -5572.459866 kJ/mol
# Density = 2.026628 g / cm^3
# Si number density = 20.312510 Si / 1000 Ang^3
#
#
#
# Elastic Constant Matrix: (Units=GPa)
#
#
# Indices 1 2 3 4 5 6 
#
# 1 58.4663 10.6113 11.7111 0.0000 0.0000 0.0000
# 2 10.6113 80.3798 57.3869 0.0000 0.0000 0.0000
# 3 11.7111 57.3869 159.7725 0.0000 0.0000 0.0000
# 4 0.0000 0.0000 0.0000 47.5537 0.0000 0.0000
# 5 0.0000 0.0000 0.0000 0.0000 -786.3535 0.0000
# 6 0.0000 0.0000 0.0000 0.0000 0.0000 13.2118
#
#
#
# Elastic Compliance Matrix: (Units=1/GPa)
#
#
# Indices 1 2 3 4 5 6 
#
# 1 0.017568 -0.001883 -0.000611 0.000000 0.000000 0.000000
# 2 -0.001883 0.016933 -0.005944 0.000000 0.000000 0.000000
# 3 -0.000611 -0.005944 0.008439 0.000000 0.000000 0.000000
# 4 0.000000 0.000000 0.000000 0.021029 0.000000 0.000000
# 5 0.000000 0.000000 0.000000 0.000000 -0.001272 0.000000
# 6 0.000000 0.000000 0.000000 0.000000 0.000000 0.075690
#
#
# Mechanical properties :
#
#
# Convention : Reuss Voigt Hill
#
# Bulk Modulus (GPa) = 38.36778 50.89301 44.63039
# Shear Modulus (GPa) = 30.49689 -130.52362 -50.01336
#
# Velocity S-wave (km/s) = 3.87897 -8.02479 -4.96743
# Velocity P-wave (km/s) = 6.24433 7.79446 3.29863
#
# Compressibility (1/GPa) = 0.02606354
#
# Stress axis : x y z
#
# Youngs Moduli (GPa) = 56.92151 59.05561 118.50176
#
# Poissons Ratio (x) = 0.11118 0.07246
# Poissons Ratio (y) = 0.10716 0.70438
# Poissons Ratio (z) = 0.03481 0.35103
#
# Static dielectric constant tensor:
#      x y z
#    x 1.719930 0.000000 0.000000 
#    y 0.000000 1.722420 0.000000 
#    z 0.000000 0.000000 1.709390 
# 
# From -- ./inp_files/17142.got.cif
#   From: 2010.05.17/outbox.cif.g08.bks.cpg/sg51_9_cif.got.tgz:17142.got - 2010.06.03 11:52:47.
