data_PCOD9405613
_publ_section_title
;
Structure prediction by ZEFSAII (Michael W. Deem and Ramdas Pophale) SiO2 
 PCOD9405613
Probable space group: P M M A
;
_chemical_formula_sum "Si O2"
_cell_formula_units_Z 48
_cell_length_a 10.232321
_cell_length_b 7.933518
_cell_length_c 31.496466
_cell_angle_alpha 90.000000
_cell_angle_beta 90.000000
_cell_angle_gamma 90.000000
_cell_volume 2556.829655
_symmetry_space_group_name_H-M "P M M A"
_symmetry_group_IT_number 51
_symmetry_cell_setting 'orthorhombic'
loop_
_space_group_symop_operation_xyz
x,y,z
1/2-x,-y,z
1/2+x,-y,-z
-x,y,-z
-x,-y,-z
1/2+x,y,-z
1/2-x,y,z
x,-y,z
loop_
_atom_site_type_symbol
_atom_site_label
_atom_site_fract_x
_atom_site_fract_y
_atom_site_fract_z
Si Si1 0.899744 0.206017 0.867907
Si Si2 0.898416 0.700992 0.297897
Si Si3 0.101632 0.797589 0.797294
Si Si4 0.100200 0.205834 0.035739
Si Si5 0.398361 0.200911 0.370313
Si Si6 0.101921 0.702077 0.465390
O O1 0.750000 0.257520 0.859354
O O2 0.934129 0.256915 0.916097
O O3 0.000911 0.266524 0.832527
O O4 0.900763 0.000000 0.867321
O O5 0.750000 0.766134 0.305625
O O6 0.892272 0.500000 0.297220
O O7 0.939293 0.759598 0.250921
O O8 0.000005 0.751538 0.333977
O O9 0.250000 0.732576 0.802908
O O10 0.106441 0.000000 0.801676
O O11 0.250000 0.256756 0.027266
O O12 0.098359 0.000000 0.035227
O O13 0.000000 0.265164 0.000000
O O14 0.250000 0.265173 0.362084
O O15 0.438913 0.263370 0.416985
O O16 0.392306 0.000000 0.372104
O O17 0.250000 0.768631 0.470823
O O18 0.107988 0.500000 0.470579
O O19 0.000000 0.768804 0.500000
#
# Coordination Sequence:
#
# PCOD9405613 Si02
#       6
#     8   8   8   8   8   8
#     4   8  14  24  37  55  81 113 148 185 226 273
#     4  10  21  36  53  73  98 128 162 201 245 293
#     4   9  17  29  45  65  89 117 151 191 233 279
#     4   8  13  20  30  47  74 108 144 180 218 264
#     4  10  21  36  54  77 104 133 166 204 245 289
#     4   9  18  33  52  74 102 135 169 204 241 283
#
# _framework density 18.773249
#
# number of rings (size 3 to 8) (size 9 to 14) (size 15 to 20)
#    0.000    3.000    0.000    2.000    0.000    4.333 
#    0.000    6.667    0.000    0.000    0.000    0.000 
#    0.000    0.667    0.000    1.500    0.000    3.000 
#
# Total GULP energy -267596.819433 kJ/mol
# GULP energy per Si atom -5574.933738 kJ/mol
# Density = 1.873052 g / cm^3
# Si number density = 18.773249 Si / 1000 Ang^3
#
#
#
# Elastic Constant Matrix: (Units=GPa)
#
#
# Indices 1 2 3 4 5 6 
#
# 1 123.4240 5.3579 140.5139 0.0000 0.0000 0.0000
# 2 5.3579 16.2312 1.3020 0.0000 0.0000 0.0000
# 3 140.5139 1.3020 194.4043 0.0000 0.0000 0.0000
# 4 0.0000 0.0000 0.0000 38.8414 0.0000 0.0000
# 5 0.0000 0.0000 0.0000 0.0000 44.3132 0.0000
# 6 0.0000 0.0000 0.0000 0.0000 0.0000 27.4720
#
#
#
# Elastic Compliance Matrix: (Units=1/GPa)
#
#
# Indices 1 2 3 4 5 6 
#
# 1 0.048405 -0.013179 -0.034898 0.000000 0.000000 0.000000
# 2 -0.013179 0.065231 0.009089 0.000000 0.000000 0.000000
# 3 -0.034898 0.009089 0.030307 0.000000 0.000000 0.000000
# 4 0.000000 0.000000 0.000000 0.025746 0.000000 0.000000
# 5 0.000000 0.000000 0.000000 0.000000 0.022567 0.000000
# 6 0.000000 0.000000 0.000000 0.000000 0.000000 0.036401
#
#
# Mechanical properties :
#
#
# Convention : Reuss Voigt Hill
#
# Bulk Modulus (GPa) = 15.15929 69.82299 42.49114
# Shear Modulus (GPa) = 15.21506 34.58437 24.89972
#
# Velocity S-wave (km/s) = 2.84996 4.29676 3.64585
# Velocity P-wave (km/s) = 4.34996 7.86700 6.35657
#
# Compressibility (1/GPa) = 0.06596616
#
# Stress axis : x y z
#
# Youngs Moduli (GPa) = 20.65915 15.33011 32.99541
#
# Poissons Ratio (x) = 0.20203 1.15148
# Poissons Ratio (y) = 0.27226 -0.29989
# Poissons Ratio (z) = 0.72097 -0.13933
#
# Static dielectric constant tensor:
#      x y z
#    x 1.700680 0.000000 0.000000 
#    y 0.000000 1.679640 0.000000 
#    z 0.000000 0.000000 1.623450 
# 
# From -- ./inp_files/37057.got.cif
#   From: 2010.05.17/outbox.cif.g08.bks.cpg/sg51_19_cif.got.tgz:37057.got - 2010.06.03 11:52:47.
