data_PCOD9405481
_publ_section_title
;
Structure prediction by ZEFSAII (Michael W. Deem and Ramdas Pophale) SiO2 
 PCOD9405481
Probable space group: P M M A
;
_chemical_formula_sum "Si O2"
_cell_formula_units_Z 64
_cell_length_a 8.409302
_cell_length_b 20.931940
_cell_length_c 19.168952
_cell_angle_alpha 90.000000
_cell_angle_beta 90.000000
_cell_angle_gamma 90.000000
_cell_volume 3374.176532
_symmetry_space_group_name_H-M "P M M A"
_symmetry_group_IT_number 51
_symmetry_cell_setting 'orthorhombic'
loop_
_space_group_symop_operation_xyz
x,y,z
1/2-x,-y,z
1/2+x,-y,-z
-x,y,-z
-x,-y,-z
1/2+x,y,-z
1/2-x,y,z
x,-y,z
loop_
_atom_site_type_symbol
_atom_site_label
_atom_site_fract_x
_atom_site_fract_y
_atom_site_fract_z
Si Si1 0.557680 0.689294 0.827447
Si Si2 0.559527 0.426754 0.577355
Si Si3 0.057875 0.927464 0.171161
Si Si4 0.442092 0.072661 0.673092
Si Si5 0.057853 0.190628 0.078814
Si Si6 0.942104 0.572766 0.922480
Si Si7 0.940139 0.311837 0.330223
Si Si8 0.942330 0.809703 0.420982
O O1 0.750000 0.689196 0.826339
O O2 0.505499 0.749620 0.873887
O O3 0.504143 0.624428 0.865994
O O4 0.498923 0.693551 0.748720
O O5 0.500000 0.408764 0.500000
O O6 0.750000 0.425681 0.577377
O O7 0.506814 0.500000 0.590695
O O8 0.497521 0.376836 0.633589
O O9 0.250000 0.927085 0.171762
O O10 0.003429 0.874844 0.115837
O O11 0.000052 0.911272 0.249023
O O12 0.004830 0.000000 0.155313
O O13 0.250000 0.072926 0.673658
O O14 0.496252 0.125694 0.618107
O O15 0.494987 0.000000 0.657111
O O16 0.250000 0.190672 0.078296
O O17 0.000000 0.196122 0.000000
O O18 0.750000 0.573005 0.923083
O O19 0.995232 0.500000 0.907879
O O20 0.000000 0.590204 0.000000
O O21 0.750000 0.310892 0.330377
O O22 0.996759 0.251691 0.376558
O O23 0.750000 0.809593 0.421124
O O24 0.000000 0.806605 0.500000
#
# Coordination Sequence:
#
# PCOD9405481 Si02
#       8
#     8   8   8   8   8   8   8   8
#     4  10  21  36  53  75 104 137 174 216 262 311
#     4  10  21  38  60  84 111 143 178 218 264 314
#     4   9  18  33  52  75 103 134 170 212 259 313
#     4   9  18  34  55  78 105 137 174 216 261 311
#     4  10  21  35  52  75 103 136 174 218 266 316
#     4   9  18  33  53  76 102 132 166 205 250 301
#     4  11  23  37  55  80 109 141 179 222 266 316
#     4  10  22  37  53  77 107 138 174 217 263 311
#
# _framework density 18.967590999999999
#
# number of rings (size 3 to 8) (size 9 to 14) (size 15 to 20)
#    0.000    2.250    0.000    2.250    0.000    5.750 
#    0.000    1.250    0.000    0.000    0.000    0.000 
#    0.000    0.000    0.000    0.000    0.000    0.000 
#
# Total GULP energy -357371.198204 kJ/mol
# GULP energy per Si atom -5583.924972 kJ/mol
# Density = 1.892442 g / cm^3
# Si number density = 18.967591 Si / 1000 Ang^3
#
#
#
# Elastic Constant Matrix: (Units=GPa)
#
#
# Indices 1 2 3 4 5 6 
#
# 1 7.0775 23.7436 21.5542 0.0000 0.0000 0.0000
# 2 23.7436 135.3343 128.8055 0.0000 0.0000 0.0000
# 3 21.5542 128.8055 196.2790 0.0000 0.0000 0.0000
# 4 0.0000 0.0000 0.0000 43.5873 0.0000 0.0000
# 5 0.0000 0.0000 0.0000 0.0000 37.2123 0.0000
# 6 0.0000 0.0000 0.0000 0.0000 0.0000 -8.2894
#
#
#
# Elastic Compliance Matrix: (Units=1/GPa)
#
#
# Indices 1 2 3 4 5 6 
#
# 1 0.345181 -0.065214 0.004890 0.000000 0.000000 0.000000
# 2 -0.065214 0.032003 -0.013840 0.000000 0.000000 0.000000
# 3 0.004890 -0.013840 0.013640 0.000000 0.000000 0.000000
# 4 0.000000 0.000000 0.000000 0.022942 0.000000 0.000000
# 5 0.000000 0.000000 0.000000 0.000000 0.026873 0.000000
# 6 0.000000 0.000000 0.000000 0.000000 0.000000 -0.120635
#
#
# Mechanical properties :
#
#
# Convention : Reuss Voigt Hill
#
# Bulk Modulus (GPa) = 4.12379 76.32194 40.22286
# Shear Modulus (GPa) = 9.10476 25.47452 17.28964
#
# Velocity S-wave (km/s) = 2.19330 3.66875 3.02244
# Velocity P-wave (km/s) = 2.93137 7.63359 5.78207
#
# Compressibility (1/GPa) = 0.24249554
#
# Stress axis : x y z
#
# Youngs Moduli (GPa) = 2.89703 31.24710 73.31304
#
# Poissons Ratio (x) = 2.03776 -0.35852
# Poissons Ratio (y) = 0.18893 1.01466
# Poissons Ratio (z) = -0.01417 0.43246
#
# Static dielectric constant tensor:
#      x y z
#    x 1.650790 0.000000 0.000000 
#    y 0.000000 1.677070 0.000000 
#    z 0.000000 0.000000 1.603190 
# 
# From -- ./inp_files/28477.got.cif
#   From: 2010.05.17/outbox.cif.g08.bks.cpg/sg51_15_cif.got.tgz:28477.got - 2010.06.03 11:52:47.
