data_PCOD9405595
_publ_section_title
;
Structure prediction by ZEFSAII (Michael W. Deem and Ramdas Pophale) SiO2 
 PCOD9405595
Probable space group: P M M A
;
_chemical_formula_sum "Si O2"
_cell_formula_units_Z 36
_cell_length_a 8.593000
_cell_length_b 15.906585
_cell_length_c 14.859407
_cell_angle_alpha 90.000000
_cell_angle_beta 90.000000
_cell_angle_gamma 90.000000
_cell_volume 2031.062279
_symmetry_space_group_name_H-M "P M M A"
_symmetry_group_IT_number 51
_symmetry_cell_setting 'orthorhombic'
loop_
_space_group_symop_operation_xyz
x,y,z
1/2-x,-y,z
1/2+x,-y,-z
-x,y,-z
-x,-y,-z
1/2+x,y,-z
1/2-x,y,z
x,-y,z
loop_
_atom_site_type_symbol
_atom_site_label
_atom_site_fract_x
_atom_site_fract_y
_atom_site_fract_z
Si Si1 0.062284 0.815700 0.399283
Si Si2 0.936314 0.596123 0.099746
Si Si3 0.436764 0.747809 0.215521
Si Si4 0.437278 0.000000 0.398490
Si Si5 0.062908 0.095320 0.898173
O O1 0.250000 0.815509 0.405406
O O2 0.014201 0.753140 0.320232
O O3 0.011883 0.908945 0.364193
O O4 0.000000 0.801689 0.500000
O O5 0.750000 0.600554 0.097685
O O6 0.982219 0.500000 0.122402
O O7 0.000864 0.664987 0.167478
O O8 0.000000 0.614386 0.000000
O O9 0.250000 0.748763 0.212030
O O10 0.496585 0.830343 0.162967
O O11 0.500000 0.000000 0.500000
O O12 0.250000 0.000000 0.396763
O O13 0.250000 0.100365 0.899416
O O14 0.018609 0.000000 0.868355
O O15 0.000000 0.105554 0.000000
#
# Coordination Sequence:
#
# PCOD9405595 Si02
#       5
#     8   8   8   4   8
#     4   9  19  33  51  74 103 140 179 222 268 311
#     4  10  21  38  60  84 110 139 173 218 269 321
#     4  11  22  34  54  81 109 142 177 219 269 322
#     4   8  14  28  46  66  93 128 171 214 255 300
#     4  10  21  36  52  73 104 143 183 221 261 311
#
# _framework density 17.724715
#
# number of rings (size 3 to 8) (size 9 to 14) (size 15 to 20)
#    0.000    2.222    0.000    2.667    1.556    4.444 
#    0.000    0.000    0.000    0.667    0.000    0.000 
#    0.000    0.000    0.000    0.000    0.000    0.000 
#
# Total GULP energy -200792.512909 kJ/mol
# GULP energy per Si atom -5577.569803 kJ/mol
# Density = 1.768437 g / cm^3
# Si number density = 17.724715 Si / 1000 Ang^3
#
#
#
# Elastic Constant Matrix: (Units=GPa)
#
#
# Indices 1 2 3 4 5 6 
#
# 1 41.5898 38.9253 34.1955 0.0000 0.0000 0.0000
# 2 38.9253 121.8249 102.1232 0.0000 0.0000 0.0000
# 3 34.1955 102.1232 131.6945 0.0000 0.0000 0.0000
# 4 0.0000 0.0000 0.0000 26.4005 0.0000 0.0000
# 5 0.0000 0.0000 0.0000 0.0000 23.2718 0.0000
# 6 0.0000 0.0000 0.0000 0.0000 0.0000 19.1929
#
#
#
# Elastic Compliance Matrix: (Units=1/GPa)
#
#
# Indices 1 2 3 4 5 6 
#
# 1 0.034365 -0.010002 -0.001167 0.000000 0.000000 0.000000
# 2 -0.010002 0.026367 -0.017849 0.000000 0.000000 0.000000
# 3 -0.001167 -0.017849 0.021738 0.000000 0.000000 0.000000
# 4 0.000000 0.000000 0.000000 0.037878 0.000000 0.000000
# 5 0.000000 0.000000 0.000000 0.000000 0.042971 0.000000
# 6 0.000000 0.000000 0.000000 0.000000 0.000000 0.052103
#
#
# Mechanical properties :
#
#
# Convention : Reuss Voigt Hill
#
# Bulk Modulus (GPa) = 40.92809 71.73302 56.33055
# Shear Modulus (GPa) = 17.75552 21.76404 19.75978
#
# Velocity S-wave (km/s) = 3.16846 3.50793 3.34251
# Velocity P-wave (km/s) = 6.04372 7.54758 6.83712
#
# Compressibility (1/GPa) = 0.02443310
#
# Stress axis : x y z
#
# Youngs Moduli (GPa) = 29.09928 37.92604 46.00274
#
# Poissons Ratio (x) = 0.37933 0.05369
# Poissons Ratio (y) = 0.29105 0.82112
# Poissons Ratio (z) = 0.03396 0.67696
#
# Static dielectric constant tensor:
#      x y z
#    x 1.600720 0.000000 0.000000 
#    y 0.000000 1.617520 0.000000 
#    z 0.000000 0.000000 1.590800 
# 
# From -- ./inp_files/20306.got.cif
#   From: 2010.05.17/outbox.cif.g08.bks.cpg/sg51_11_cif.got.tgz:20306.got - 2010.06.03 11:52:47.
