data_PCOD9405249
_publ_section_title
;
Structure prediction by ZEFSAII (Michael W. Deem and Ramdas Pophale) SiO2 
 PCOD9405249
Probable space group: P M M A
;
_chemical_formula_sum "Si O2"
_cell_formula_units_Z 48
_cell_length_a 15.987456
_cell_length_b 9.304397
_cell_length_c 16.858112
_cell_angle_alpha 90.000000
_cell_angle_beta 90.000000
_cell_angle_gamma 90.000000
_cell_volume 2507.705484
_symmetry_space_group_name_H-M "P M M A"
_symmetry_group_IT_number 51
_symmetry_cell_setting 'orthorhombic'
loop_
_space_group_symop_operation_xyz
x,y,z
1/2-x,-y,z
1/2+x,-y,-z
-x,y,-z
-x,-y,-z
1/2+x,y,-z
1/2-x,y,z
x,-y,z
loop_
_atom_site_type_symbol
_atom_site_label
_atom_site_fract_x
_atom_site_fract_y
_atom_site_fract_z
Si Si1 0.652923 0.665912 0.794438
Si Si2 0.929194 0.169945 0.655264
Si Si3 0.401910 0.667379 0.667329
Si Si4 0.250000 0.332088 0.788412
Si Si5 0.750000 0.827576 0.046843
Si Si6 0.092037 0.328364 0.033486
Si Si7 0.847920 0.332156 0.513810
O O1 0.750000 0.678340 0.818365
O O2 0.638586 0.500000 0.770001
O O3 0.633091 0.767903 0.721460
O O4 0.597704 0.696313 0.871967
O O5 0.903645 0.235345 0.570473
O O6 0.019866 0.230013 0.678276
O O7 0.927342 0.000000 0.652810
O O8 0.428846 0.500000 0.671702
O O9 0.330634 0.688923 0.732661
O O10 0.365300 0.690482 0.579119
O O11 0.250000 0.500000 0.815039
O O12 0.250000 0.227254 0.862642
O O13 0.750000 0.000000 0.040738
O O14 0.666730 0.760601 0.006689
O O15 0.106731 0.500000 0.020603
O O16 0.000000 0.293811 0.000000
O O17 0.750000 0.306072 0.529799
O O18 0.865706 0.500000 0.531032
#
# Coordination Sequence:
#
# PCOD9405249 Si02
#       7
#     8   8   8   4   4   8   8
#     4  10  21  41  66  91 120 157 208 261 306 353
#     4  12  26  38  55  89 130 165 199 240 302 376
#     4  10  21  41  66  90 115 153 207 262 306 348
#     4  10  22  42  68  91 116 155 208 259 304 357
#     4  12  26  42  64  97 138 171 200 249 320 391
#     4  10  22  43  71  98 123 162 217 269 312 366
#     4  10  20  39  65  90 116 153 206 259 303 349
#
# _framework density 19.141003999999999
#
# number of rings (size 3 to 8) (size 9 to 14) (size 15 to 20)
#    0.000    1.500    1.667    3.250    2.333    7.000 
#    0.000    0.000    0.000    0.000    0.000    0.000 
#    0.000    0.000    0.000    0.000    0.000    0.000 
#
# Total GULP energy -268354.602229 kJ/mol
# GULP energy per Si atom -5590.720880 kJ/mol
# Density = 1.909744 g / cm^3
# Si number density = 19.141004 Si / 1000 Ang^3
#
#
#
# Elastic Constant Matrix: (Units=GPa)
#
#
# Indices 1 2 3 4 5 6 
#
# 1 69.5965 40.9842 14.3833 0.0000 0.0000 0.0000
# 2 40.9842 78.9273 43.5905 0.0000 0.0000 0.0000
# 3 14.3833 43.5905 65.8635 0.0000 0.0000 0.0000
# 4 0.0000 0.0000 0.0000 -24.1041 0.0000 0.0000
# 5 0.0000 0.0000 0.0000 0.0000 -66.4363 0.0000
# 6 0.0000 0.0000 0.0000 0.0000 0.0000 -5.7592
#
#
#
# Elastic Compliance Matrix: (Units=1/GPa)
#
#
# Indices 1 2 3 4 5 6 
#
# 1 0.021420 -0.013459 0.004230 0.000000 0.000000 0.000000
# 2 -0.013459 0.028425 -0.015874 0.000000 0.000000 0.000000
# 3 0.004230 -0.015874 0.024765 0.000000 0.000000 0.000000
# 4 0.000000 0.000000 0.000000 -0.041487 0.000000 0.000000
# 5 0.000000 0.000000 0.000000 0.000000 -0.015052 0.000000
# 6 0.000000 0.000000 0.000000 0.000000 0.000000 -0.173636
#
#
# Mechanical properties :
#
#
# Convention : Reuss Voigt Hill
#
# Bulk Modulus (GPa) = 40.97537 45.81150 43.39344
# Shear Modulus (GPa) = -51.42750 -11.56462 -31.49606
#
# Velocity S-wave (km/s) = -5.18903 -2.46067 -4.06085
# Velocity P-wave (km/s) = 3.80103 3.98904 0.85576
#
# Compressibility (1/GPa) = 0.02440490
#
# Stress axis : x y z
#
# Youngs Moduli (GPa) = 46.68542 35.17996 40.37974
#
# Poissons Ratio (x) = 0.47347 -0.17079
# Poissons Ratio (y) = 0.62832 0.64097
# Poissons Ratio (z) = -0.19746 0.55843
#
# Static dielectric constant tensor:
#      x y z
#    x 1.670690 0.000000 0.000000 
#    y 0.000000 1.634930 0.000000 
#    z 0.000000 0.000000 1.654330 
# 
# From -- ./inp_files/29527.got.cif
#   From: 2010.05.17/outbox.cif.g08.bks.cpg/sg51_15_cif.got.tgz:29527.got - 2010.06.03 11:52:47.
