data_PCOD9405610
_publ_section_title
;
Structure prediction by ZEFSAII (Michael W. Deem and Ramdas Pophale) SiO2 
 PCOD9405610
Probable space group: P M M A
;
_chemical_formula_sum "Si O2"
_cell_formula_units_Z 44
_cell_length_a 9.444634
_cell_length_b 7.719594
_cell_length_c 31.582611
_cell_angle_alpha 90.000000
_cell_angle_beta 90.000000
_cell_angle_gamma 90.000000
_cell_volume 2302.648373
_symmetry_space_group_name_H-M "P M M A"
_symmetry_group_IT_number 51
_symmetry_cell_setting 'orthorhombic'
loop_
_space_group_symop_operation_xyz
x,y,z
1/2-x,-y,z
1/2+x,-y,-z
-x,y,-z
-x,-y,-z
1/2+x,y,-z
1/2-x,y,z
x,-y,z
loop_
_atom_site_type_symbol
_atom_site_label
_atom_site_fract_x
_atom_site_fract_y
_atom_site_fract_z
Si Si1 0.419025 0.703679 0.389177
Si Si2 0.588681 0.293260 0.306417
Si Si3 0.585858 0.209195 0.122361
Si Si4 0.914054 0.792021 0.214784
Si Si5 0.909594 0.293155 0.960532
Si Si6 0.580120 0.000000 0.544259
O O1 0.250000 0.715281 0.382549
O O2 0.452609 0.500000 0.397243
O O3 0.498273 0.764300 0.346601
O O4 0.455871 0.830272 0.427789
O O5 0.750000 0.222330 0.307675
O O6 0.597883 0.500000 0.309908
O O7 0.523199 0.257764 0.260090
O O8 0.750000 0.266382 0.117325
O O9 0.531196 0.267262 0.168883
O O10 0.490836 0.264520 0.083313
O O11 0.588034 0.000000 0.122630
O O12 0.750000 0.731755 0.216086
O O13 0.913331 0.000000 0.213771
O O14 0.750000 0.222792 0.959613
O O15 0.899319 0.500000 0.966493
O O16 0.000000 0.222701 0.000000
O O17 0.500000 0.000000 0.500000
O O18 0.750000 0.000000 0.537637
#
# Coordination Sequence:
#
# PCOD9405610 Si02
#       6
#     8   8   8   8   8   4
#     4   9  19  36  54  74 106 142 172 212 264 313
#     4   9  17  29  48  76 104 132 172 214 249 293
#     4   9  18  33  52  74 101 132 166 203 248 302
#     4   8  15  28  46  70 100 132 164 202 247 293
#     4  10  21  36  53  73  96 124 162 207 254 305
#     4  10  22  38  56  80 106 136 178 218 261 318
#
# _framework density 19.108432000000001
#
# number of rings (size 3 to 8) (size 9 to 14) (size 15 to 20)
#    0.000    2.909    0.000    1.636    1.273    3.636 
#    0.000    2.727    0.000    3.273    0.000    0.000 
#    0.000    0.000    0.000    0.000    0.000    0.000 
#
# Total GULP energy -245170.712178 kJ/mol
# GULP energy per Si atom -5572.061640 kJ/mol
# Density = 1.906494 g / cm^3
# Si number density = 19.108432 Si / 1000 Ang^3
#
#
#
# Elastic Constant Matrix: (Units=GPa)
#
#
# Indices 1 2 3 4 5 6 
#
# 1 68.9072 24.3027 85.7912 0.0000 0.0000 0.0000
# 2 24.3027 46.6383 40.1505 0.0000 0.0000 0.0000
# 3 85.7912 40.1505 227.2748 0.0000 0.0000 0.0000
# 4 0.0000 0.0000 0.0000 33.7995 0.0000 0.0000
# 5 0.0000 0.0000 0.0000 0.0000 29.9628 0.0000
# 6 0.0000 0.0000 0.0000 0.0000 0.0000 14.6021
#
#
#
# Elastic Compliance Matrix: (Units=1/GPa)
#
#
# Indices 1 2 3 4 5 6 
#
# 1 0.029064 -0.006722 -0.009783 0.000000 0.000000 0.000000
# 2 -0.006722 0.026842 -0.002204 0.000000 0.000000 0.000000
# 3 -0.009783 -0.002204 0.008482 0.000000 0.000000 0.000000
# 4 0.000000 0.000000 0.000000 0.029586 0.000000 0.000000
# 5 0.000000 0.000000 0.000000 0.000000 0.033375 0.000000
# 6 0.000000 0.000000 0.000000 0.000000 0.000000 0.068484
#
#
# Mechanical properties :
#
#
# Convention : Reuss Voigt Hill
#
# Bulk Modulus (GPa) = 37.08082 71.47881 54.27982
# Shear Modulus (GPa) = 20.64049 28.51127 24.57588
#
# Velocity S-wave (km/s) = 3.29017 3.86693 3.59015
# Velocity P-wave (km/s) = 5.82076 7.57798 6.75674
#
# Compressibility (1/GPa) = 0.02696812
#
# Stress axis : x y z
#
# Youngs Moduli (GPa) = 34.40731 37.25460 117.89148
#
# Poissons Ratio (x) = 0.25044 1.15337
# Poissons Ratio (y) = 0.23130 0.25989
# Poissons Ratio (z) = 0.33662 0.08213
#
# Static dielectric constant tensor:
#      x y z
#    x 1.659020 0.000000 0.000000 
#    y 0.000000 1.695550 0.000000 
#    z 0.000000 0.000000 1.670120 
# 
# From -- ./inp_files/36761.got.cif
#   From: 2010.05.17/outbox.cif.g08.bks.cpg/sg51_19_cif.got.tgz:36761.got - 2010.06.03 11:52:47.
