data_PCOD9405211
_publ_section_title
;
Structure prediction by ZEFSAII (Michael W. Deem and Ramdas Pophale) SiO2 
 PCOD9405211
Probable space group: P M M A
;
_chemical_formula_sum "Si O2"
_cell_formula_units_Z 36
_cell_length_a 8.656961
_cell_length_b 13.881352
_cell_length_c 14.510805
_cell_angle_alpha 90.000000
_cell_angle_beta 90.000000
_cell_angle_gamma 90.000000
_cell_volume 1743.768122
_symmetry_space_group_name_H-M "P M M A"
_symmetry_group_IT_number 51
_symmetry_cell_setting 'orthorhombic'
loop_
_space_group_symop_operation_xyz
x,y,z
1/2-x,-y,z
1/2+x,-y,-z
-x,y,-z
-x,-y,-z
1/2+x,y,-z
1/2-x,y,z
x,-y,z
loop_
_atom_site_type_symbol
_atom_site_label
_atom_site_fract_x
_atom_site_fract_y
_atom_site_fract_z
Si Si1 0.426946 0.202953 0.404758
Si Si2 0.079381 0.608997 0.618675
Si Si3 0.565417 0.000000 0.897589
Si Si4 0.936331 0.188536 0.200690
Si Si5 0.928233 0.604867 0.158892
O O1 0.500000 0.164391 0.500000
O O2 0.250000 0.173833 0.397377
O O3 0.445634 0.319237 0.410287
O O4 0.513392 0.182810 0.308318
O O5 0.250000 0.649009 0.594570
O O6 0.068012 0.500000 0.586241
O O7 0.076684 0.602292 0.729667
O O8 0.502474 0.905024 0.847660
O O9 0.750000 0.000000 0.897258
O O10 0.500000 0.000000 0.000000
O O11 0.750000 0.191193 0.197520
O O12 0.994386 0.286899 0.148344
O O13 0.750000 0.605713 0.125622
O O14 0.996398 0.500000 0.129161
#
# Coordination Sequence:
#
# PCOD9405211 Si02
#       5
#     8   8   4   8   8
#     4  11  21  33  50  76 113 158 204 249 297 352
#     4   8  14  26  43  65  99 147 202 255 301 345
#     4  12  26  46  71  98 123 150 190 242 300 358
#     4  10  20  38  63  91 123 159 200 248 301 356
#     4   7  11  23  48  81 115 152 192 234 285 345
#
# _framework density 20.644946999999998
#
# number of rings (size 3 to 8) (size 9 to 14) (size 15 to 20)
#    0.000    2.667    0.000    6.333    0.000    0.889 
#    0.000    0.556    0.000    2.667    0.000    0.000 
#    0.000    0.000    0.000    0.000    0.000    0.000 
#
# Total GULP energy -200439.698492 kJ/mol
# GULP energy per Si atom -5567.769403 kJ/mol
# Density = 2.059796 g / cm^3
# Si number density = 20.644947 Si / 1000 Ang^3
#
#
#
# Elastic Constant Matrix: (Units=GPa)
#
#
# Indices 1 2 3 4 5 6 
#
# 1 85.3268 38.0103 24.9201 0.0000 0.0000 0.0000
# 2 38.0103 158.1332 54.1356 0.0000 0.0000 0.0000
# 3 24.9201 54.1356 59.7548 0.0000 0.0000 0.0000
# 4 0.0000 0.0000 0.0000 -0.5898 0.0000 0.0000
# 5 0.0000 0.0000 0.0000 0.0000 23.7908 0.0000
# 6 0.0000 0.0000 0.0000 0.0000 0.0000 17.0692
#
#
#
# Elastic Compliance Matrix: (Units=1/GPa)
#
#
# Indices 1 2 3 4 5 6 
#
# 1 0.013746 -0.001945 -0.003971 0.000000 0.000000 0.000000
# 2 -0.001945 0.009442 -0.007743 0.000000 0.000000 0.000000
# 3 -0.003971 -0.007743 0.025406 0.000000 0.000000 0.000000
# 4 0.000000 0.000000 0.000000 -1.695442 0.000000 0.000000
# 5 0.000000 0.000000 0.000000 0.000000 0.042033 0.000000
# 6 0.000000 0.000000 0.000000 0.000000 0.000000 0.058585
#
#
# Mechanical properties :
#
#
# Convention : Reuss Voigt Hill
#
# Bulk Modulus (GPa) = 46.99980 59.70519 53.35249
# Shear Modulus (GPa) = -3.30727 20.46394 8.57834
#
# Velocity S-wave (km/s) = -1.26706 3.15180 2.04064
# Velocity P-wave (km/s) = 4.54693 6.49830 5.60814
#
# Compressibility (1/GPa) = 0.02127669
#
# Stress axis : x y z
#
# Youngs Moduli (GPa) = 72.75056 105.90966 39.36090
#
# Poissons Ratio (x) = 0.20596 0.15629
# Poissons Ratio (y) = 0.14148 0.30477
# Poissons Ratio (z) = 0.28887 0.82007
#
# Static dielectric constant tensor:
#      x y z
#    x 1.765850 0.000000 0.000000 
#    y 0.000000 1.808750 0.000000 
#    z 0.000000 0.000000 1.735710 
# 
# From -- ./inp_files/20321.got.cif
#   From: 2010.05.17/outbox.cif.g08.bks.cpg/sg51_11_cif.got.tgz:20321.got - 2010.06.03 11:52:47.
