data_PCOD9405129
_publ_section_title
;
Structure prediction by ZEFSAII (Michael W. Deem and Ramdas Pophale) SiO2 
 PCOD9405129
Probable space group: P M M A
;
_chemical_formula_sum "Si O2"
_cell_formula_units_Z 64
_cell_length_a 19.714801
_cell_length_b 17.125427
_cell_length_c 9.558437
_cell_angle_alpha 90.000000
_cell_angle_beta 90.000000
_cell_angle_gamma 90.000000
_cell_volume 3227.161417
_symmetry_space_group_name_H-M "P M M A"
_symmetry_group_IT_number 51
_symmetry_cell_setting 'orthorhombic'
loop_
_space_group_symop_operation_xyz
x,y,z
1/2-x,-y,z
1/2+x,-y,-z
-x,y,-z
-x,-y,-z
1/2+x,y,-z
1/2-x,y,z
x,-y,z
loop_
_atom_site_type_symbol
_atom_site_label
_atom_site_fract_x
_atom_site_fract_y
_atom_site_fract_z
Si Si1 0.032299 0.300743 0.154223
Si Si2 0.172208 0.702602 0.501676
Si Si3 0.941861 0.086647 0.114871
Si Si4 0.172419 0.207984 0.785524
Si Si5 0.678011 0.272145 0.921932
Si Si6 0.443511 0.412431 0.381502
Si Si7 0.528100 0.856610 0.654998
Si Si8 0.323313 0.851487 0.297079
O O1 0.112077 0.313339 0.130248
O O2 0.016195 0.373702 0.251189
O O3 0.024364 0.223159 0.250730
O O4 0.000000 0.293644 0.000000
O O5 0.250000 0.672861 0.521177
O O6 0.150386 0.746513 0.645584
O O7 0.117880 0.641249 0.442242
O O8 0.176492 0.773065 0.390558
O O9 0.880152 0.144375 0.153758
O O10 0.981311 0.084666 0.261164
O O11 0.918433 0.000000 0.072203
O O12 0.000000 0.110884 0.000000
O O13 0.250000 0.177869 0.761784
O O14 0.176570 0.268922 0.912113
O O15 0.750000 0.304312 0.872643
O O16 0.673778 0.183411 0.860168
O O17 0.500000 0.415893 0.500000
O O18 0.419417 0.500000 0.348819
O O19 0.500000 0.842166 0.500000
O O20 0.605269 0.888223 0.661910
O O21 0.250000 0.891191 0.317108
#
# Coordination Sequence:
#
# PCOD9405129 Si02
#       8
#     8   8   8   8   8   8   8   8
#     4  11  22  34  59  87 113 157 201 248 298 355
#     4  10  20  37  62  90 115 149 201 252 299 358
#     4  11  24  39  56  86 126 162 205 253 306 376
#     4  10  21  36  60  90 119 156 203 254 308 363
#     4   9  17  31  52  83 111 136 186 245 289 341
#     4  11  25  41  57  85 123 162 201 245 303 370
#     4  11  20  34  59  86 115 155 199 252 310 361
#     4   9  17  30  52  82 111 140 186 242 293 348
#
# _framework density 19.831671
#
# number of rings (size 3 to 8) (size 9 to 14) (size 15 to 20)
#    0.000    1.750    2.500    3.750    3.500    1.000 
#    0.000    0.000    0.000    1.125    0.000    0.000 
#    0.000    0.000    0.000    0.000    0.000    0.000 
#
# Total GULP energy -356390.907324 kJ/mol
# GULP energy per Si atom -5568.607927 kJ/mol
# Density = 1.978653 g / cm^3
# Si number density = 19.831671 Si / 1000 Ang^3
#
#
#
# Elastic Constant Matrix: (Units=GPa)
#
#
# Indices 1 2 3 4 5 6 
#
# 1 88.4762 8.5462 23.3284 0.0000 0.0000 0.0000
# 2 8.5462 62.1258 28.1650 0.0000 0.0000 0.0000
# 3 23.3284 28.1650 146.7331 0.0000 0.0000 0.0000
# 4 0.0000 0.0000 0.0000 7.6883 0.0000 0.0000
# 5 0.0000 0.0000 0.0000 0.0000 27.8160 0.0000
# 6 0.0000 0.0000 0.0000 0.0000 0.0000 21.4092
#
#
#
# Elastic Compliance Matrix: (Units=1/GPa)
#
#
# Indices 1 2 3 4 5 6 
#
# 1 0.011838 -0.000849 -0.001719 0.000000 0.000000 0.000000
# 2 -0.000849 0.017691 -0.003261 0.000000 0.000000 0.000000
# 3 -0.001719 -0.003261 0.007714 0.000000 0.000000 0.000000
# 4 0.000000 0.000000 0.000000 0.130068 0.000000 0.000000
# 5 0.000000 0.000000 0.000000 0.000000 0.035951 0.000000
# 6 0.000000 0.000000 0.000000 0.000000 0.000000 0.046709
#
#
# Mechanical properties :
#
#
# Convention : Reuss Voigt Hill
#
# Bulk Modulus (GPa) = 39.08451 46.37936 42.73194
# Shear Modulus (GPa) = 18.50773 27.20240 22.85507
#
# Velocity S-wave (km/s) = 3.05821 3.70762 3.39846
# Velocity P-wave (km/s) = 5.67637 6.46265 6.08223
#
# Compressibility (1/GPa) = 0.02558558
#
# Stress axis : x y z
#
# Youngs Moduli (GPa) = 84.47548 56.52441 129.62934
#
# Poissons Ratio (x) = 0.04800 0.22284
# Poissons Ratio (y) = 0.07173 0.42270
# Poissons Ratio (z) = 0.14522 0.18432
#
# Static dielectric constant tensor:
#      x y z
#    x 1.797430 0.000000 0.000000 
#    y 0.000000 1.706260 0.000000 
#    z 0.000000 0.000000 1.745710 
# 
# From -- ./inp_files/11209.got.cif
#   From: 2010.05.17/outbox.cif.g08.bks.cpg/sg51_6_cif.got.tgz:11209.got - 2010.06.03 11:52:47.
