data_PCOD9405142
_publ_section_title
;
Structure prediction by ZEFSAII (Michael W. Deem and Ramdas Pophale) SiO2 
 PCOD9405142
Probable space group: P M M A
;
_chemical_formula_sum "Si O2"
_cell_formula_units_Z 44
_cell_length_a 9.209293
_cell_length_b 8.024001
_cell_length_c 30.200938
_cell_angle_alpha 90.000000
_cell_angle_beta 90.000000
_cell_angle_gamma 90.000000
_cell_volume 2231.709676
_symmetry_space_group_name_H-M "P M M A"
_symmetry_group_IT_number 51
_symmetry_cell_setting 'orthorhombic'
loop_
_space_group_symop_operation_xyz
x,y,z
1/2-x,-y,z
1/2+x,-y,-z
-x,y,-z
-x,-y,-z
1/2+x,y,-z
1/2-x,y,z
x,-y,z
loop_
_atom_site_type_symbol
_atom_site_label
_atom_site_fract_x
_atom_site_fract_y
_atom_site_fract_z
Si Si1 0.916732 0.695671 0.306065
Si Si2 0.924266 0.809832 0.403152
Si Si3 0.574329 0.500000 0.548079
Si Si4 0.084760 0.201086 0.043456
Si Si5 0.914946 0.198897 0.780558
Si Si6 0.414975 0.699392 0.868417
O O1 0.750000 0.737183 0.293980
O O2 0.922265 0.500000 0.317475
O O3 0.954522 0.794260 0.350588
O O4 0.016287 0.729408 0.264096
O O5 0.750000 0.779282 0.408790
O O6 0.015002 0.666074 0.427325
O O7 0.954820 0.000000 0.417801
O O8 0.750000 0.500000 0.545982
O O9 0.500000 0.500000 0.500000
O O10 0.250000 0.263156 0.043993
O O11 0.002915 0.246042 0.088391
O O12 0.089466 0.000000 0.040886
O O13 0.000000 0.262462 0.000000
O O14 0.750000 0.258969 0.786486
O O15 0.008047 0.243250 0.823561
O O16 0.913190 0.000000 0.776177
O O17 0.250000 0.763635 0.870565
O O18 0.410692 0.500000 0.867781
#
# Coordination Sequence:
#
# PCOD9405142 Si02
#       6
#     8   8   4   8   8   8
#     4  10  20  37  63  92 124 162 206 253 304 367
#     4  10  21  41  69  98 131 172 219 271 327 388
#     4  12  26  44  68  96 134 176 220 274 329 388
#     4  10  21  38  61  87 113 144 184 230 284 346
#     4  11  24  39  56  83 119 157 199 247 299 358
#     4  11  24  40  58  82 112 148 192 240 293 352
#
# _framework density 19.715826
#
# number of rings (size 3 to 8) (size 9 to 14) (size 15 to 20)
#    0.000    1.455    0.909    4.091    0.000   11.273 
#    0.000    0.000    0.000    0.000    0.000    0.000 
#    0.000    0.000    0.000    0.000    0.000    0.000 
#
# Total GULP energy -245968.657000 kJ/mol
# GULP energy per Si atom -5590.196750 kJ/mol
# Density = 1.967095 g / cm^3
# Si number density = 19.715826 Si / 1000 Ang^3
#
#
#
# Elastic Constant Matrix: (Units=GPa)
#
#
# Indices 1 2 3 4 5 6 
#
# 1 156.8889 49.3282 84.5600 0.0000 0.0000 0.0000
# 2 49.3282 80.3203 40.6104 0.0000 0.0000 0.0000
# 3 84.5600 40.6104 123.9234 0.0000 0.0000 0.0000
# 4 0.0000 0.0000 0.0000 30.8444 0.0000 0.0000
# 5 0.0000 0.0000 0.0000 0.0000 38.7662 0.0000
# 6 0.0000 0.0000 0.0000 0.0000 0.0000 25.7148
#
#
#
# Elastic Compliance Matrix: (Units=1/GPa)
#
#
# Indices 1 2 3 4 5 6 
#
# 1 0.010844 -0.003498 -0.006253 0.000000 0.000000 0.000000
# 2 -0.003498 0.016051 -0.002873 0.000000 0.000000 0.000000
# 3 -0.006253 -0.002873 0.013278 0.000000 0.000000 0.000000
# 4 0.000000 0.000000 0.000000 0.032421 0.000000 0.000000
# 5 0.000000 0.000000 0.000000 0.000000 0.025796 0.000000
# 6 0.000000 0.000000 0.000000 0.000000 0.000000 0.038888
#
#
# Mechanical properties :
#
#
# Convention : Reuss Voigt Hill
#
# Bulk Modulus (GPa) = 67.00451 78.90332 72.95392
# Shear Modulus (GPa) = 29.85045 31.50735 30.67890
#
# Velocity S-wave (km/s) = 3.89528 4.00193 3.94897
# Velocity P-wave (km/s) = 7.36817 7.83971 7.60759
#
# Compressibility (1/GPa) = 0.01492437
#
# Stress axis : x y z
#
# Youngs Moduli (GPa) = 92.21524 62.30067 75.31285
#
# Poissons Ratio (x) = 0.21794 0.47095
# Poissons Ratio (y) = 0.32259 0.21638
# Poissons Ratio (z) = 0.57664 0.17899
#
# Static dielectric constant tensor:
#      x y z
#    x 1.685760 0.000000 0.000000 
#    y 0.000000 1.703470 0.000000 
#    z 0.000000 0.000000 1.655010 
# 
# From -- ./inp_files/36788.got.cif
#   From: 2010.05.17/outbox.cif.g08.bks.cpg/sg51_19_cif.got.tgz:36788.got - 2010.06.03 11:52:47.
