data_PCOD9405303
_publ_section_title
;
Structure prediction by ZEFSAII (Michael W. Deem and Ramdas Pophale) SiO2 
 PCOD9405303
Probable space group: P M M A
;
_chemical_formula_sum "Si O2"
_cell_formula_units_Z 64
_cell_length_a 7.604685
_cell_length_b 15.467582
_cell_length_c 28.779361
_cell_angle_alpha 90.000000
_cell_angle_beta 90.000000
_cell_angle_gamma 90.000000
_cell_volume 3385.203673
_symmetry_space_group_name_H-M "P M M A"
_symmetry_group_IT_number 51
_symmetry_cell_setting 'orthorhombic'
loop_
_space_group_symop_operation_xyz
x,y,z
1/2-x,-y,z
1/2+x,-y,-z
-x,y,-z
-x,-y,-z
1/2+x,y,-z
1/2-x,y,z
x,-y,z
loop_
_atom_site_type_symbol
_atom_site_label
_atom_site_fract_x
_atom_site_fract_y
_atom_site_fract_z
Si Si1 0.537894 0.097264 0.181877
Si Si2 0.042083 0.901296 0.651444
Si Si3 0.541638 0.098285 0.549856
Si Si4 0.955511 0.094429 0.925895
Si Si5 0.461186 0.278614 0.050383
Si Si6 0.037261 0.401886 0.132088
Si Si7 0.043242 0.403662 0.760655
Si Si8 0.033749 0.780571 0.734658
O O1 0.750000 0.101383 0.178562
O O2 0.466202 0.106713 0.129901
O O3 0.479929 0.169139 0.218426
O O4 0.492517 0.000000 0.198493
O O5 0.250000 0.908660 0.660015
O O6 0.973443 0.837208 0.690835
O O7 0.019687 0.865647 0.599157
O O8 0.969595 0.000000 0.653322
O O9 0.500000 0.139931 0.500000
O O10 0.750000 0.092799 0.552692
O O11 0.465837 0.000000 0.548163
O O12 0.750000 0.090838 0.938724
O O13 0.034149 0.180906 0.947529
O O14 0.033884 0.000000 0.936901
O O15 0.250000 0.273752 0.055414
O O16 0.526733 0.334800 0.093600
O O17 0.500000 0.317203 0.000000
O O18 0.250000 0.398293 0.133568
O O19 0.986712 0.500000 0.119548
O O20 0.972699 0.385540 0.184203
O O21 0.250000 0.408503 0.749510
O O22 0.967469 0.500000 0.752244
O O23 0.971834 0.318558 0.735354
O O24 0.250000 0.779187 0.734699
#
# Coordination Sequence:
#
# PCOD9405303 Si02
#       8
#     8   8   8   8   8   8   8   8
#     4   9  16  26  42  63  83 106 139 172 199 235
#     4   9  16  26  40  58  83 117 152 181 212 250
#     4   9  16  26  40  58  82 114 152 190 222 252
#     4   9  18  32  46  60  81 107 133 163 199 237
#     4  10  21  34  47  64  84 105 130 161 199 243
#     4   9  18  33  50  66  85 107 130 160 201 247
#     4   9  17  29  46  67  87 109 140 173 202 239
#     4   9  16  26  41  61  87 115 140 171 210 247
#
# _framework density 18.905805000000001
#
# number of rings (size 3 to 8) (size 9 to 14) (size 15 to 20)
#    0.000    2.875    0.000    1.500    0.000    4.500 
#    0.000    1.250    0.000    3.000    0.000    0.000 
#    0.000    0.500    0.000    0.875    0.000    1.250 
#
# Total GULP energy -356851.549470 kJ/mol
# GULP energy per Si atom -5575.805460 kJ/mol
# Density = 1.886277 g / cm^3
# Si number density = 18.905805 Si / 1000 Ang^3
#
#
#
# Elastic Constant Matrix: (Units=GPa)
#
#
# Indices 1 2 3 4 5 6 
#
# 1 41.2125 8.2433 -5.5044 0.0000 0.0000 0.0000
# 2 8.2433 103.4541 51.4836 0.0000 0.0000 0.0000
# 3 -5.5044 51.4836 68.2614 0.0000 0.0000 0.0000
# 4 0.0000 0.0000 0.0000 12.9911 0.0000 0.0000
# 5 0.0000 0.0000 0.0000 0.0000 15.4444 0.0000
# 6 0.0000 0.0000 0.0000 0.0000 0.0000 -0.3684
#
#
#
# Elastic Compliance Matrix: (Units=1/GPa)
#
#
# Indices 1 2 3 4 5 6 
#
# 1 0.026048 -0.004996 0.005868 0.000000 0.000000 0.000000
# 2 -0.004996 0.016432 -0.012796 0.000000 0.000000 0.000000
# 3 0.005868 -0.012796 0.024774 0.000000 0.000000 0.000000
# 4 0.000000 0.000000 0.000000 0.076976 0.000000 0.000000
# 5 0.000000 0.000000 0.000000 0.000000 0.064748 0.000000
# 6 0.000000 0.000000 0.000000 0.000000 0.000000 -2.714476
#
#
# Mechanical properties :
#
#
# Convention : Reuss Voigt Hill
#
# Bulk Modulus (GPa) = 23.03825 35.70810 29.37318
# Shear Modulus (GPa) = -2.02660 16.19379 7.08359
#
# Velocity S-wave (km/s) = -1.03647 2.92986 1.93776
# Velocity P-wave (km/s) = 3.28328 5.51125 4.53617
#
# Compressibility (1/GPa) = 0.04340607
#
# Stress axis : x y z
#
# Youngs Moduli (GPa) = 38.39136 60.85618 40.36520
#
# Poissons Ratio (x) = 0.30403 -0.23687
# Poissons Ratio (y) = 0.19180 0.51652
# Poissons Ratio (z) = -0.22529 0.77873
#
# Static dielectric constant tensor:
#      x y z
#    x 1.692090 0.000000 0.000000 
#    y 0.000000 1.689790 0.000000 
#    z 0.000000 0.000000 1.651690 
# 
# From -- ./inp_files/37540.got.cif
#   From: 2010.05.17/outbox.cif.g08.bks.cpg/sg51_19_cif.got.tgz:37540.got - 2010.06.03 11:52:47.
