data_PCOD9405497
_publ_section_title
;
Structure prediction by ZEFSAII (Michael W. Deem and Ramdas Pophale) SiO2 
 PCOD9405497
Probable space group: P M M A
;
_chemical_formula_sum "Si O2"
_cell_formula_units_Z 48
_cell_length_a 30.804237
_cell_length_b 8.565150
_cell_length_c 9.872273
_cell_angle_alpha 90.000000
_cell_angle_beta 90.000000
_cell_angle_gamma 90.000000
_cell_volume 2604.729242
_symmetry_space_group_name_H-M "P M M A"
_symmetry_group_IT_number 51
_symmetry_cell_setting 'orthorhombic'
loop_
_space_group_symop_operation_xyz
x,y,z
1/2-x,-y,z
1/2+x,-y,-z
-x,y,-z
-x,-y,-z
1/2+x,y,-z
1/2-x,y,z
x,-y,z
loop_
_atom_site_type_symbol
_atom_site_label
_atom_site_fract_x
_atom_site_fract_y
_atom_site_fract_z
Si Si1 0.998636 0.311230 0.344709
Si Si2 0.825674 0.311360 0.852328
Si Si3 0.324271 0.186911 0.850924
Si Si4 0.250000 0.312855 0.658748
Si Si5 0.750000 0.309495 0.651753
Si Si6 0.074540 0.688534 0.144321
Si Si7 0.424712 0.813224 0.847655
O O1 0.998405 0.500000 0.345259
O O2 0.040717 0.260064 0.258551
O O3 0.000000 0.257413 0.500000
O O4 0.956312 0.253995 0.265514
O O5 0.824564 0.500000 0.858710
O O6 0.792469 0.260444 0.736127
O O7 0.875654 0.263489 0.827218
O O8 0.812346 0.247255 0.999179
O O9 0.291992 0.254372 0.739855
O O10 0.374418 0.234159 0.826493
O O11 0.321815 0.000000 0.849985
O O12 0.250000 0.500000 0.658636
O O13 0.250000 0.256865 0.503322
O O14 0.750000 0.500000 0.649982
O O15 0.073586 0.500000 0.138175
O O16 0.062217 0.752371 0.996524
O O17 0.426836 0.000000 0.847130
#
# Coordination Sequence:
#
# PCOD9405497 Si02
#       7
#     8   8   8   4   4   8   8
#     4  10  21  35  52  77 108 141 176 216 264 314
#     4   9  17  33  56  79 103 134 175 219 260 305
#     4  10  21  37  55  78 107 137 173 217 262 309
#     4  11  22  35  54  80 108 141 176 211 258 312
#     4   9  19  33  52  80 108 133 168 213 256 304
#     4   9  18  33  54  78 104 136 174 217 262 307
#     4  10  21  36  55  78 104 137 176 218 263 310
#
# _framework density 18.428018999999999
#
# number of rings (size 3 to 8) (size 9 to 14) (size 15 to 20)
#    0.000    2.333    0.000    2.250    0.000    7.000 
#    0.000    5.000    0.000    4.000    0.000    0.000 
#    0.000    0.000    0.000    0.000    0.000    0.000 
#
# Total GULP energy -267983.272126 kJ/mol
# GULP energy per Si atom -5582.984836 kJ/mol
# Density = 1.838608 g / cm^3
# Si number density = 18.428019 Si / 1000 Ang^3
#
#
#
# Elastic Constant Matrix: (Units=GPa)
#
#
# Indices 1 2 3 4 5 6 
#
# 1 119.4575 24.7530 124.0812 0.0000 0.0000 0.0000
# 2 24.7530 12.5071 30.0768 0.0000 0.0000 0.0000
# 3 124.0812 30.0768 207.2322 0.0000 0.0000 0.0000
# 4 0.0000 0.0000 0.0000 -22.6088 0.0000 0.0000
# 5 0.0000 0.0000 0.0000 0.0000 -7.0909 0.0000
# 6 0.0000 0.0000 0.0000 0.0000 0.0000 23.9453
#
#
#
# Elastic Compliance Matrix: (Units=1/GPa)
#
#
# Indices 1 2 3 4 5 6 
#
# 1 0.025267 -0.020930 -0.012091 0.000000 0.000000 0.000000
# 2 -0.020930 0.140160 -0.007810 0.000000 0.000000 0.000000
# 3 -0.012091 -0.007810 0.013199 0.000000 0.000000 0.000000
# 4 0.000000 0.000000 0.000000 -0.044231 0.000000 0.000000
# 5 0.000000 0.000000 0.000000 0.000000 -0.141027 0.000000
# 6 0.000000 0.000000 0.000000 0.000000 0.000000 0.041762
#
#
# Mechanical properties :
#
#
# Convention : Reuss Voigt Hill
#
# Bulk Modulus (GPa) = 10.31326 77.44653 43.87989
# Shear Modulus (GPa) = 33.53121 9.53484 21.53303
#
# Velocity S-wave (km/s) = 4.27028 2.27713 3.42203
# Velocity P-wave (km/s) = 5.47013 7.00225 6.28307
#
# Compressibility (1/GPa) = 0.09696254
#
# Stress axis : x y z
#
# Youngs Moduli (GPa) = 39.57659 7.13472 75.76507
#
# Poissons Ratio (x) = 0.14933 0.91609
# Poissons Ratio (y) = 0.82836 0.59172
# Poissons Ratio (z) = 0.47853 0.05572
#
# Static dielectric constant tensor:
#      x y z
#    x 1.640450 0.000000 0.000000 
#    y 0.000000 1.623880 0.000000 
#    z 0.000000 0.000000 1.599700 
# 
# From -- ./inp_files/12889.got.cif
#   From: 2010.05.17/outbox.cif.g08.bks.cpg/sg51_7_cif.got.tgz:12889.got - 2010.06.03 11:52:47.
