data_PCOD9405074
_publ_section_title
;
Structure prediction by ZEFSAII (Michael W. Deem and Ramdas Pophale) SiO2 
 PCOD9405074
Probable space group: P M M A
;
_chemical_formula_sum "Si O2"
_cell_formula_units_Z 48
_cell_length_a 15.418641
_cell_length_b 10.520577
_cell_length_c 13.843747
_cell_angle_alpha 90.000000
_cell_angle_beta 90.000000
_cell_angle_gamma 90.000000
_cell_volume 2245.635730
_symmetry_space_group_name_H-M "P M M A"
_symmetry_group_IT_number 51
_symmetry_cell_setting 'orthorhombic'
loop_
_space_group_symop_operation_xyz
x,y,z
1/2-x,-y,z
1/2+x,-y,-z
-x,y,-z
-x,-y,-z
1/2+x,y,-z
1/2-x,y,z
x,-y,z
loop_
_atom_site_type_symbol
_atom_site_label
_atom_site_fract_x
_atom_site_fract_y
_atom_site_fract_z
Si Si1 0.854834 0.272300 0.389429
Si Si2 0.099409 0.000000 0.528785
Si Si3 0.144168 0.500000 0.472580
Si Si4 0.855066 0.356412 0.176674
Si Si5 0.648817 0.000000 0.689669
Si Si6 0.648881 0.229809 0.811034
Si Si7 0.601900 0.857872 0.021544
Si Si8 0.356437 0.500000 0.248277
O O1 0.750000 0.277365 0.389358
O O2 0.879969 0.128712 0.414269
O O3 0.884453 0.373871 0.470128
O O4 0.884692 0.317701 0.284080
O O5 0.146684 0.000000 0.425066
O O6 0.000000 0.000000 0.500000
O O7 0.250000 0.500000 0.473601
O O8 0.118972 0.500000 0.360902
O O9 0.750000 0.358933 0.178222
O O10 0.884270 0.500000 0.152752
O O11 0.880904 0.249566 0.100277
O O12 0.609074 0.873939 0.738069
O O13 0.750000 0.000000 0.719562
O O14 0.750000 0.242833 0.783341
O O15 0.644163 0.178646 0.919326
O O16 0.611013 0.370541 0.800555
O O17 0.630231 0.000000 0.051786
O O18 0.500000 0.861864 0.000000
O O19 0.250000 0.500000 0.241988
#
# Coordination Sequence:
#
# PCOD9405074 Si02
#       8
#     8   4   4   8   4   8   8   4
#     4  10  20  39  65  92 121 156 204 260 308 355
#     4  12  26  38  57  88 129 170 205 244 294 364
#     4   9  16  34  64  91 120 150 193 253 308 353
#     4  10  22  41  67  96 121 154 205 264 315 361
#     4  10  20  38  62  84 112 152 200 248 294 346
#     4  10  20  37  60  87 118 148 194 251 297 348
#     4  11  25  42  61  86 123 165 200 243 305 374
#     4   9  18  30  54  89 115 146 185 235 296 349
#
# _framework density 21.374794999999999
#
# number of rings (size 3 to 8) (size 9 to 14) (size 15 to 20)
#    0.000    1.833    1.667    2.250    2.333    5.333 
#    0.000    0.417    0.000    0.000    0.000    0.000 
#    0.000    0.000    0.000    0.000    0.000    0.000 
#
# Total GULP energy -268203.115058 kJ/mol
# GULP energy per Si atom -5587.564897 kJ/mol
# Density = 2.132614 g / cm^3
# Si number density = 21.374795 Si / 1000 Ang^3
#
#
#
# Elastic Constant Matrix: (Units=GPa)
#
#
# Indices 1 2 3 4 5 6 
#
# 1 15.6993 9.6338 -9.5069 0.0000 0.0000 0.0000
# 2 9.6338 229.2006 66.5617 0.0000 0.0000 0.0000
# 3 -9.5069 66.5617 69.1337 0.0000 0.0000 0.0000
# 4 0.0000 0.0000 0.0000 46.4893 0.0000 0.0000
# 5 0.0000 0.0000 0.0000 0.0000 -37.1023 0.0000
# 6 0.0000 0.0000 0.0000 0.0000 0.0000 1.9828
#
#
#
# Elastic Compliance Matrix: (Units=1/GPa)
#
#
# Indices 1 2 3 4 5 6 
#
# 1 0.081604 -0.009285 0.020161 0.000000 0.000000 0.000000
# 2 -0.009285 0.007113 -0.008125 0.000000 0.000000 0.000000
# 3 0.020161 -0.008125 0.025060 0.000000 0.000000 0.000000
# 4 0.000000 0.000000 0.000000 0.021510 0.000000 0.000000
# 5 0.000000 0.000000 0.000000 0.000000 -0.026952 0.000000
# 6 0.000000 0.000000 0.000000 0.000000 0.000000 0.504346
#
#
# Mechanical properties :
#
#
# Convention : Reuss Voigt Hill
#
# Bulk Modulus (GPa) = 8.38368 49.71231 29.04800
# Shear Modulus (GPa) = 7.72872 18.76362 13.24617
#
# Velocity S-wave (km/s) = 1.90359 2.96605 2.49210
# Velocity P-wave (km/s) = 2.96012 5.91928 4.67975
#
# Compressibility (1/GPa) = 0.11927931
#
# Stress axis : x y z
#
# Youngs Moduli (GPa) = 12.25431 140.59086 39.90428
#
# Poissons Ratio (x) = 1.30539 -0.80452
# Poissons Ratio (y) = 0.11378 0.32422
# Poissons Ratio (z) = -0.24706 1.14231
#
# Static dielectric constant tensor:
#      x y z
#    x 1.764830 0.000000 0.000000 
#    y 0.000000 1.803700 0.000000 
#    z 0.000000 0.000000 1.730790 
# 
# From -- ./inp_files/25042.got.cif
#   From: 2010.05.17/outbox.cif.g08.bks.cpg/sg51_13_cif.got.tgz:25042.got - 2010.06.03 11:52:47.
