data_PCOD9405079
_publ_section_title
;
Structure prediction by ZEFSAII (Michael W. Deem and Ramdas Pophale) SiO2 
 PCOD9405079
Probable space group: P M M A
;
_chemical_formula_sum "Si O2"
_cell_formula_units_Z 56
_cell_length_a 17.292232
_cell_length_b 7.847360
_cell_length_c 20.283049
_cell_angle_alpha 90.000000
_cell_angle_beta 90.000000
_cell_angle_gamma 90.000000
_cell_volume 2752.376682
_symmetry_space_group_name_H-M "P M M A"
_symmetry_group_IT_number 51
_symmetry_cell_setting 'orthorhombic'
loop_
_space_group_symop_operation_xyz
x,y,z
1/2-x,-y,z
1/2+x,-y,-z
-x,y,-z
-x,-y,-z
1/2+x,y,-z
1/2-x,y,z
x,-y,z
loop_
_atom_site_type_symbol
_atom_site_label
_atom_site_fract_x
_atom_site_fract_y
_atom_site_fract_z
Si Si1 0.569240 0.702435 0.651897
Si Si2 0.894979 0.204673 0.378791
Si Si3 0.571681 0.291631 0.911526
Si Si4 0.100423 0.295530 0.941493
Si Si5 0.339399 0.291030 0.219383
Si Si6 0.750000 0.209380 0.291626
Si Si7 0.750000 0.798171 0.142119
Si Si8 0.338541 0.205220 0.479654
O O1 0.571573 0.500000 0.656500
O O2 0.480058 0.753938 0.646511
O O3 0.613088 0.769391 0.716756
O O4 0.613955 0.752383 0.585504
O O5 0.826473 0.264934 0.330935
O O6 0.879122 0.268002 0.453218
O O7 0.889166 0.000000 0.381131
O O8 0.572784 0.500000 0.910570
O O9 0.481758 0.237084 0.911672
O O10 0.619386 0.234779 0.848115
O O11 0.605502 0.236631 0.982419
O O12 0.095893 0.500000 0.944404
O O13 0.173685 0.250768 0.898016
O O14 0.250000 0.238392 0.222462
O O15 0.339997 0.500000 0.219425
O O16 0.750000 0.271405 0.216526
O O17 0.750000 0.000000 0.291611
O O18 0.750000 0.000000 0.148193
O O19 0.250000 0.267868 0.476101
O O20 0.335399 0.000000 0.483873
#
# Coordination Sequence:
#
# PCOD9405079 Si02
#       8
#     8   8   8   8   8   4   4   8
#     4  11  23  35  52  83 119 148 174 217 281 339
#     4  10  20  39  62  80 101 140 192 234 266 316
#     4   8  16  32  55  82 108 136 182 232 271 311
#     4   9  18  34  57  84 108 139 184 232 269 314
#     4   9  18  32  51  77 110 145 177 216 268 322
#     4   9  20  39  59  79 106 143 186 228 275 329
#     4  11  23  35  53  83 118 149 176 216 281 343
#     4  10  20  37  61  83 104 139 188 234 267 310
#
# _framework density 20.346050999999999
#
# number of rings (size 3 to 8) (size 9 to 14) (size 15 to 20)
#    0.000    2.429    0.714    2.357    3.000    3.143 
#    0.000    2.500    0.000    1.714    0.000    0.000 
#    0.000    0.000    0.000    0.000    0.000    0.000 
#
# Total GULP energy -312694.500403 kJ/mol
# GULP energy per Si atom -5583.830364 kJ/mol
# Density = 2.029974 g / cm^3
# Si number density = 20.346051 Si / 1000 Ang^3
#
#
#
# Elastic Constant Matrix: (Units=GPa)
#
#
# Indices 1 2 3 4 5 6 
#
# 1 210.0679 6.4934 154.8623 0.0000 0.0000 0.0000
# 2 6.4934 22.3444 10.5877 0.0000 0.0000 0.0000
# 3 154.8623 10.5877 223.6313 0.0000 0.0000 0.0000
# 4 0.0000 0.0000 0.0000 17.2214 0.0000 0.0000
# 5 0.0000 0.0000 0.0000 0.0000 16.3028 0.0000
# 6 0.0000 0.0000 0.0000 0.0000 0.0000 15.3979
#
#
#
# Elastic Compliance Matrix: (Units=1/GPa)
#
#
# Indices 1 2 3 4 5 6 
#
# 1 0.009728 0.000373 -0.006754 0.000000 0.000000 0.000000
# 2 0.000373 0.045795 -0.002427 0.000000 0.000000 0.000000
# 3 -0.006754 -0.002427 0.009264 0.000000 0.000000 0.000000
# 4 0.000000 0.000000 0.000000 0.058067 0.000000 0.000000
# 5 0.000000 0.000000 0.000000 0.000000 0.061339 0.000000
# 6 0.000000 0.000000 0.000000 0.000000 0.000000 0.064944
#
#
# Mechanical properties :
#
#
# Convention : Reuss Voigt Hill
#
# Bulk Modulus (GPa) = 21.19899 88.88113 55.04006
# Shear Modulus (GPa) = 17.70056 28.72442 23.21249
#
# Velocity S-wave (km/s) = 2.95273 3.76146 3.38136
# Velocity P-wave (km/s) = 4.69752 7.91482 6.50811
#
# Compressibility (1/GPa) = 0.04717206
#
# Stress axis : x y z
#
# Youngs Moduli (GPa) = 102.79516 21.83627 107.94700
#
# Poissons Ratio (x) = -0.00815 0.72910
# Poissons Ratio (y) = -0.03839 0.26196
# Poissons Ratio (z) = 0.69431 0.05299
#
# Static dielectric constant tensor:
#      x y z
#    x 1.961310 0.000000 0.000000 
#    y 0.000000 1.758860 0.000000 
#    z 0.000000 0.000000 1.713380 
# 
# From -- ./inp_files/33584.got.cif
#   From: 2010.05.17/outbox.cif.g08.bks.cpg/sg51_17_cif.got.tgz:33584.got - 2010.06.03 11:52:47.
