data_PCOD9405916
_publ_section_title
;
Structure prediction by ZEFSAII (Michael W. Deem and Ramdas Pophale) SiO2 
 PCOD9405916
Probable space group: P M M A
;
_chemical_formula_sum "Si O2"
_cell_formula_units_Z 56
_cell_length_a 14.534691
_cell_length_b 8.921239
_cell_length_c 21.820202
_cell_angle_alpha 90.000000
_cell_angle_beta 90.000000
_cell_angle_gamma 90.000000
_cell_volume 2829.370000
_symmetry_space_group_name_H-M "P M M A"
_symmetry_group_IT_number 51
_symmetry_cell_setting 'orthorhombic'
loop_
_space_group_symop_operation_xyz
x,y,z
1/2-x,-y,z
1/2+x,-y,-z
-x,y,-z
-x,-y,-z
1/2+x,y,-z
1/2-x,y,z
x,-y,z
loop_
_atom_site_type_symbol
_atom_site_label
_atom_site_fract_x
_atom_site_fract_y
_atom_site_fract_z
Si Si1 0.857661 0.822046 0.095126
Si Si2 0.972647 0.678793 0.845220
Si Si3 0.026720 0.820952 0.280888
Si Si4 0.142122 0.677506 0.660423
Si Si5 0.859419 0.324445 0.965608
Si Si6 0.637951 0.171848 0.467330
Si Si7 0.143853 0.817452 0.398468
O O1 0.750000 0.785732 0.104772
O O2 0.924805 0.736131 0.140680
O O3 0.869736 0.000000 0.101229
O O4 0.881811 0.769815 0.026050
O O5 0.970657 0.500000 0.839905
O O6 0.938681 0.751988 0.782480
O O7 0.912622 0.722392 0.904604
O O8 0.923531 0.764923 0.293549
O O9 0.085512 0.770212 0.339958
O O10 0.029629 0.000000 0.277800
O O11 0.250000 0.713069 0.669221
O O12 0.129744 0.500000 0.667055
O O13 0.116323 0.729519 0.591536
O O14 0.750000 0.313020 0.955244
O O15 0.881076 0.500000 0.977995
O O16 0.750000 0.166778 0.471650
O O17 0.606870 0.227129 0.534288
O O18 0.606122 0.000000 0.456973
O O19 0.250000 0.769063 0.392179
O O20 0.143792 0.000000 0.399995
#
# Coordination Sequence:
#
# PCOD9405916 Si02
#       7
#     8   8   8   8   8   8   8
#     4  10  21  37  59  87 114 140 176 223 270 314
#     4  11  23  38  56  79 111 149 184 219 263 316
#     4  11  23  37  55  79 107 143 185 224 264 315
#     4  10  21  37  55  76 106 141 177 222 274 325
#     4   9  19  37  60  85 113 145 179 215 261 317
#     4   8  14  29  55  81 103 132 173 220 269 321
#     4   8  16  33  56  81 108 138 175 220 269 321
#
# _framework density 19.792390999999999
#
# number of rings (size 3 to 8) (size 9 to 14) (size 15 to 20)
#    0.000    2.429    0.000    3.000    0.000    6.286 
#    0.000    4.286    0.000    3.000    0.000    0.000 
#    0.000    0.000    0.000    0.000    0.000    0.000 
#
# Total GULP energy -312781.158220 kJ/mol
# GULP energy per Si atom -5585.377825 kJ/mol
# Density = 1.974734 g / cm^3
# Si number density = 19.792391 Si / 1000 Ang^3
#
#
#
# Elastic Constant Matrix: (Units=GPa)
#
#
# Indices 1 2 3 4 5 6 
#
# 1 40.8007 10.8142 14.3444 0.0000 0.0000 0.0000
# 2 10.8142 25.0952 9.6724 0.0000 0.0000 0.0000
# 3 14.3444 9.6724 63.0540 0.0000 0.0000 0.0000
# 4 0.0000 0.0000 0.0000 46.1677 0.0000 0.0000
# 5 0.0000 0.0000 0.0000 0.0000 20.5635 0.0000
# 6 0.0000 0.0000 0.0000 0.0000 0.0000 15.0102
#
#
#
# Elastic Compliance Matrix: (Units=1/GPa)
#
#
# Indices 1 2 3 4 5 6 
#
# 1 0.029074 -0.010607 -0.004987 0.000000 0.000000 0.000000
# 2 -0.010607 0.046222 -0.004677 0.000000 0.000000 0.000000
# 3 -0.004987 -0.004677 0.017711 0.000000 0.000000 0.000000
# 4 0.000000 0.000000 0.000000 0.021660 0.000000 0.000000
# 5 0.000000 0.000000 0.000000 0.000000 0.048630 0.000000
# 6 0.000000 0.000000 0.000000 0.000000 0.000000 0.066621
#
#
# Mechanical properties :
#
#
# Convention : Reuss Voigt Hill
#
# Bulk Modulus (GPa) = 19.06032 22.06797 20.56414
# Shear Modulus (GPa) = 17.36419 22.62288 19.99353
#
# Velocity S-wave (km/s) = 2.96517 3.38451 3.18175
# Velocity P-wave (km/s) = 4.62320 5.14268 4.88984
#
# Compressibility (1/GPa) = 0.05246501
#
# Stress axis : x y z
#
# Youngs Moduli (GPa) = 34.39501 21.63483 56.46060
#
# Poissons Ratio (x) = 0.22947 0.28158
# Poissons Ratio (y) = 0.36481 0.26409
# Poissons Ratio (z) = 0.17153 0.10120
#
# Static dielectric constant tensor:
#      x y z
#    x 1.721590 0.000000 0.000000 
#    y 0.000000 1.657880 0.000000 
#    z 0.000000 0.000000 1.694150 
# 
# From -- ./inp_files/33390.got.cif
#   From: 2010.05.17/outbox.cif.g08.bks.cpg/sg51_17_cif.got.tgz:33390.got - 2010.06.03 11:52:47.
