data_PCOD9405320
_publ_section_title
;
Structure prediction by ZEFSAII (Michael W. Deem and Ramdas Pophale) SiO2 
 PCOD9405320
Probable space group: P M M A
;
_chemical_formula_sum "Si O2"
_cell_formula_units_Z 40
_cell_length_a 7.565367
_cell_length_b 27.052926
_cell_length_c 9.252155
_cell_angle_alpha 90.000000
_cell_angle_beta 90.000000
_cell_angle_gamma 90.000000
_cell_volume 1893.595205
_symmetry_space_group_name_H-M "P M M A"
_symmetry_group_IT_number 51
_symmetry_cell_setting 'orthorhombic'
loop_
_space_group_symop_operation_xyz
x,y,z
1/2-x,-y,z
1/2+x,-y,-z
-x,y,-z
-x,-y,-z
1/2+x,y,-z
1/2-x,y,z
x,-y,z
loop_
_atom_site_type_symbol
_atom_site_label
_atom_site_fract_x
_atom_site_fract_y
_atom_site_fract_z
Si Si1 0.462282 0.598405 0.669962
Si Si2 0.962261 0.793528 0.330351
Si Si3 0.537897 0.096885 0.330694
Si Si4 0.462311 0.500000 0.829869
Si Si5 0.962302 0.303511 0.169290
Si Si6 0.037776 0.000000 0.831405
O O1 0.500000 0.596892 0.500000
O O2 0.250000 0.598612 0.686696
O O3 0.529833 0.549538 0.751669
O O4 0.529866 0.648660 0.744018
O O5 0.750000 0.794836 0.314195
O O6 0.030005 0.848346 0.290310
O O7 0.030769 0.747810 0.236692
O O8 0.000000 0.785422 0.500000
O O9 0.500000 0.089622 0.500000
O O10 0.750000 0.098127 0.312569
O O11 0.468591 0.050189 0.242045
O O12 0.250000 0.500000 0.813356
O O13 0.500000 0.500000 0.000000
O O14 0.750000 0.302849 0.186924
O O15 0.000000 0.307569 0.000000
O O16 0.250000 0.000000 0.810314
O O17 0.000000 0.000000 0.000000
#
# Coordination Sequence:
#
# PCOD9405320 Si02
#       6
#     8   8   8   4   8   4
#     4  10  21  36  54  77 103 132 169 209 247 292
#     4   9  18  33  52  74  99 127 162 203 245 291
#     4   9  18  33  52  73  97 126 162 203 244 289
#     4  10  21  36  54  78 106 134 167 206 248 296
#     4  10  21  35  51  74 103 133 166 204 246 293
#     4  10  21  34  48  70 100 130 161 200 244 290
#
# _framework density 21.123839
#
# number of rings (size 3 to 8) (size 9 to 14) (size 15 to 20)
#    0.000    2.400    0.000    1.800    0.000    4.000 
#    0.000    0.000    0.000    0.000    0.000    0.000 
#    0.000    0.000    0.000    0.000    0.000    0.000 
#
# Total GULP energy -223410.826419 kJ/mol
# GULP energy per Si atom -5585.270660 kJ/mol
# Density = 2.107576 g / cm^3
# Si number density = 21.123839 Si / 1000 Ang^3
#
#
#
# Elastic Constant Matrix: (Units=GPa)
#
#
# Indices 1 2 3 4 5 6 
#
# 1 50.2383 14.1268 -10.1566 0.0000 0.0000 0.0000
# 2 14.1268 265.2916 152.5829 0.0000 0.0000 0.0000
# 3 -10.1566 152.5829 161.1971 0.0000 0.0000 0.0000
# 4 0.0000 0.0000 0.0000 2095.4562 0.0000 0.0000
# 5 0.0000 0.0000 0.0000 0.0000 30.6929 0.0000
# 6 0.0000 0.0000 0.0000 0.0000 0.0000 -23.4162
#
#
#
# Elastic Compliance Matrix: (Units=1/GPa)
#
#
# Indices 1 2 3 4 5 6 
#
# 1 0.022254 -0.004371 0.005540 0.000000 0.000000 0.000000
# 2 -0.004371 0.009133 -0.008920 0.000000 0.000000 0.000000
# 3 0.005540 -0.008920 0.014996 0.000000 0.000000 0.000000
# 4 0.000000 0.000000 0.000000 0.000477 0.000000 0.000000
# 5 0.000000 0.000000 0.000000 0.000000 0.032581 0.000000
# 6 0.000000 0.000000 0.000000 0.000000 0.000000 -0.042706
#
#
# Mechanical properties :
#
#
# Convention : Reuss Voigt Hill
#
# Bulk Modulus (GPa) = 32.38335 87.75924 60.07129
# Shear Modulus (GPa) = 79.95999 441.89152 260.92575
#
# Velocity S-wave (km/s) = 6.15915 14.47912 11.12610
# Velocity P-wave (km/s) = 8.12057 17.92099 13.91233
#
# Compressibility (1/GPa) = 0.03088007
#
# Stress axis : x y z
#
# Youngs Moduli (GPa) = 44.93511 109.49888 66.68495
#
# Poissons Ratio (x) = 0.47866 -0.36943
# Poissons Ratio (y) = 0.19643 0.59482
# Poissons Ratio (z) = -0.24894 0.97672
#
# Static dielectric constant tensor:
#      x y z
#    x 1.770330 0.000000 0.000000 
#    y 0.000000 1.789990 0.000000 
#    z 0.000000 0.000000 1.675730 
# 
# From -- ./inp_files/5591.got.cif
#   From: 2010.05.17/outbox.cif.g08.bks.cpg/sg51_3_cif.got.tgz:5591.got - 2010.06.03 11:52:47.
