data_PCOD9405988
_publ_section_title
;
Structure prediction by ZEFSAII (Michael W. Deem and Ramdas Pophale) SiO2 
 PCOD9405988
Probable space group: P M M A
;
_chemical_formula_sum "Si O2"
_cell_formula_units_Z 64
_cell_length_a 8.920714
_cell_length_b 14.235413
_cell_length_c 26.700747
_cell_angle_alpha 90.000000
_cell_angle_beta 90.000000
_cell_angle_gamma 90.000000
_cell_volume 3390.729144
_symmetry_space_group_name_H-M "P M M A"
_symmetry_group_IT_number 51
_symmetry_cell_setting 'orthorhombic'
loop_
_space_group_symop_operation_xyz
x,y,z
1/2-x,-y,z
1/2+x,-y,-z
-x,y,-z
-x,-y,-z
1/2+x,y,-z
1/2-x,y,z
x,-y,z
loop_
_atom_site_type_symbol
_atom_site_label
_atom_site_fract_x
_atom_site_fract_y
_atom_site_fract_z
Si Si1 0.571352 0.110460 0.807788
Si Si2 0.928611 0.284385 0.147713
Si Si3 0.071344 0.889465 0.402728
Si Si4 0.072181 0.611916 0.053504
Si Si5 0.429264 0.284005 0.550816
Si Si6 0.071796 0.388334 0.652817
Si Si7 0.426004 0.386591 0.242608
Si Si8 0.079052 0.886240 0.702737
O O1 0.750000 0.122513 0.808918
O O2 0.491809 0.179072 0.846584
O O3 0.508630 0.138636 0.753048
O O4 0.538136 0.000000 0.815493
O O5 0.750000 0.284606 0.146803
O O6 0.994871 0.333422 0.098645
O O7 0.987081 0.340274 0.196603
O O8 0.250000 0.876394 0.404297
O O9 0.989579 0.821411 0.441229
O O10 0.007502 0.862433 0.347963
O O11 0.039588 0.000000 0.410900
O O12 0.250000 0.629935 0.052973
O O13 0.050145 0.500000 0.061094
O O14 0.000000 0.636400 0.000000
O O15 0.500000 0.323418 0.500000
O O16 0.250000 0.285077 0.547434
O O17 0.474937 0.339489 0.601139
O O18 0.250000 0.373073 0.659241
O O19 0.046695 0.500000 0.648071
O O20 0.988855 0.356094 0.703226
O O21 0.250000 0.364204 0.238606
O O22 0.442797 0.500000 0.239764
O O23 0.250000 0.850180 0.702587
O O24 0.086826 0.000000 0.703006
#
# Coordination Sequence:
#
# PCOD9405988 Si02
#       8
#     8   8   8   8   8   8   8   8
#     4  10  21  37  56  80 114 156 201 248 295 344
#     4  12  24  36  57  88 123 163 203 245 295 350
#     4  10  21  37  57  80 108 144 183 225 277 336
#     4  10  21  39  63  91 125 163 205 252 299 350
#     4  11  24  40  59  82 108 139 181 231 283 342
#     4   9  20  40  62  83 110 144 181 226 283 346
#     4  10  21  37  58  86 119 153 190 235 288 348
#     4   9  17  31  52  78 108 142 182 227 277 337
#
# _framework density 18.874995999999999
#
# number of rings (size 3 to 8) (size 9 to 14) (size 15 to 20)
#    0.000    1.875    0.000    3.750    1.750    7.500 
#    0.000    0.000    0.000    0.375    0.000    0.000 
#    0.000    0.000    0.000    0.000    0.000    0.000 
#
# Total GULP energy -357769.605158 kJ/mol
# GULP energy per Si atom -5590.150081 kJ/mol
# Density = 1.883204 g / cm^3
# Si number density = 18.874996 Si / 1000 Ang^3
#
#
#
# Elastic Constant Matrix: (Units=GPa)
#
#
# Indices 1 2 3 4 5 6 
#
# 1 105.3039 52.7003 74.2672 0.0000 0.0000 0.0000
# 2 52.7003 74.8004 68.0290 0.0000 0.0000 0.0000
# 3 74.2672 68.0290 155.3817 0.0000 0.0000 0.0000
# 4 0.0000 0.0000 0.0000 27.5798 0.0000 0.0000
# 5 0.0000 0.0000 0.0000 0.0000 37.7678 0.0000
# 6 0.0000 0.0000 0.0000 0.0000 0.0000 23.5637
#
#
#
# Elastic Compliance Matrix: (Units=1/GPa)
#
#
# Indices 1 2 3 4 5 6 
#
# 1 0.016459 -0.007380 -0.004636 0.000000 0.000000 0.000000
# 2 -0.007380 0.025524 -0.007647 0.000000 0.000000 0.000000
# 3 -0.004636 -0.007647 0.012000 0.000000 0.000000 0.000000
# 4 0.000000 0.000000 0.000000 0.036258 0.000000 0.000000
# 5 0.000000 0.000000 0.000000 0.000000 0.026478 0.000000
# 6 0.000000 0.000000 0.000000 0.000000 0.000000 0.042438
#
#
# Mechanical properties :
#
#
# Convention : Reuss Voigt Hill
#
# Bulk Modulus (GPa) = 68.23120 80.60876 74.41998
# Shear Modulus (GPa) = 24.58595 27.14822 25.86709
#
# Velocity S-wave (km/s) = 3.61302 3.79663 3.70596
# Velocity P-wave (km/s) = 7.32344 7.87518 7.60432
#
# Compressibility (1/GPa) = 0.01465605
#
# Stress axis : x y z
#
# Youngs Moduli (GPa) = 60.75607 39.17958 83.33616
#
# Poissons Ratio (x) = 0.28915 0.38633
# Poissons Ratio (y) = 0.44839 0.63729
# Poissons Ratio (z) = 0.28165 0.29961
#
# Static dielectric constant tensor:
#      x y z
#    x 1.626670 0.000000 0.000000 
#    y 0.000000 1.688680 0.000000 
#    z 0.000000 0.000000 1.628010 
# 
# From -- ./inp_files/35036.got.cif
#   From: 2010.05.17/outbox.cif.g08.bks.cpg/sg51_18_cif.got.tgz:35036.got - 2010.06.03 11:52:47.
