data_PCOD9405095
_publ_section_title
;
Structure prediction by ZEFSAII (Michael W. Deem and Ramdas Pophale) SiO2 
 PCOD9405095
Probable space group: P M M A
;
_chemical_formula_sum "Si O2"
_cell_formula_units_Z 36
_cell_length_a 14.746303
_cell_length_b 14.101026
_cell_length_c 7.860899
_cell_angle_alpha 90.000000
_cell_angle_beta 90.000000
_cell_angle_gamma 90.000000
_cell_volume 1634.579632
_symmetry_space_group_name_H-M "P M M A"
_symmetry_group_IT_number 51
_symmetry_cell_setting 'orthorhombic'
loop_
_space_group_symop_operation_xyz
x,y,z
1/2-x,-y,z
1/2+x,-y,-z
-x,y,-z
-x,-y,-z
1/2+x,y,-z
1/2-x,y,z
x,-y,z
loop_
_atom_site_type_symbol
_atom_site_label
_atom_site_fract_x
_atom_site_fract_y
_atom_site_fract_z
Si Si1 0.140021 0.000000 0.315396
Si Si2 0.395321 0.793913 0.957606
Si Si3 0.148116 0.602225 0.760092
Si Si4 0.147767 0.796745 0.345953
Si Si5 0.641243 0.000000 0.074328
Si Si6 0.000000 0.658824 0.500000
O O1 0.117098 0.098304 0.403462
O O2 0.250000 0.000000 0.302290
O O3 0.103971 0.000000 0.121292
O O4 0.361251 0.699891 0.863914
O O5 0.385202 0.894987 0.860076
O O6 0.500000 0.780474 0.000000
O O7 0.347648 0.802099 0.140891
O O8 0.250000 0.603536 0.684066
O O9 0.141825 0.500000 0.855241
O O10 0.065827 0.603961 0.627360
O O11 0.250000 0.776880 0.409361
O O12 0.071661 0.723167 0.397836
O O13 0.750000 0.000000 0.074076
#
# Coordination Sequence:
#
# PCOD9405095 Si02
#       6
#     4   8   8   8   4   4
#     4   7  14  30  53  83 117 159 199 235 293 358
#     4  11  20  39  64  96 124 158 210 254 304 365
#     4  11  25  45  66  89 122 161 203 258 314 362
#     4  10  20  37  61  87 123 164 201 248 304 363
#     4   9  17  31  59  92 126 161 197 249 307 361
#     4  12  23  41  60  90 120 157 210 252 303 374
#
# _framework density 22.024014000000001
#
# number of rings (size 3 to 8) (size 9 to 14) (size 15 to 20)
#    0.000    1.778    2.222    4.667    0.000    0.889 
#    0.000    1.111    0.000    5.333    0.000    0.000 
#    0.000    0.000    0.000    0.000    0.000    0.000 
#
# Total GULP energy -200757.852707 kJ/mol
# GULP energy per Si atom -5576.607020 kJ/mol
# Density = 2.197389 g / cm^3
# Si number density = 22.024014 Si / 1000 Ang^3
#
#
#
# Elastic Constant Matrix: (Units=GPa)
#
#
# Indices 1 2 3 4 5 6 
#
# 1 150.3188 53.5574 9.1548 0.0000 0.0000 0.0000
# 2 53.5574 213.6026 40.4809 0.0000 0.0000 0.0000
# 3 9.1548 40.4809 32.0058 0.0000 0.0000 0.0000
# 4 0.0000 0.0000 0.0000 19.9102 0.0000 0.0000
# 5 0.0000 0.0000 0.0000 0.0000 -2.3817 0.0000
# 6 0.0000 0.0000 0.0000 0.0000 0.0000 37.0162
#
#
#
# Elastic Compliance Matrix: (Units=1/GPa)
#
#
# Indices 1 2 3 4 5 6 
#
# 1 0.007307 -0.001889 0.000299 0.000000 0.000000 0.000000
# 2 -0.001889 0.006646 -0.007865 0.000000 0.000000 0.000000
# 3 0.000299 -0.007865 0.041107 0.000000 0.000000 0.000000
# 4 0.000000 0.000000 0.000000 0.050226 0.000000 0.000000
# 5 0.000000 0.000000 0.000000 0.000000 -0.419876 0.000000
# 6 0.000000 0.000000 0.000000 0.000000 0.000000 0.027015
#
#
# Mechanical properties :
#
#
# Convention : Reuss Voigt Hill
#
# Bulk Modulus (GPa) = 27.66297 66.92370 47.29334
# Shear Modulus (GPa) = -19.48448 30.42455 5.47004
#
# Velocity S-wave (km/s) = -2.97761 3.72079 1.57768
# Velocity P-wave (km/s) = 0.87529 6.99369 4.98386
#
# Compressibility (1/GPa) = 0.03614940
#
# Stress axis : x y z
#
# Youngs Moduli (GPa) = 136.84944 150.47165 24.32680
#
# Poissons Ratio (x) = 0.28421 -0.00727
# Poissons Ratio (y) = 0.25848 0.19134
# Poissons Ratio (z) = -0.04089 1.18350
#
# Static dielectric constant tensor:
#      x y z
#    x 1.791800 0.000000 0.000000 
#    y 0.000000 1.880710 0.000000 
#    z 0.000000 0.000000 1.839610 
# 
# From -- ./inp_files/7866.got.cif
#   From: 2010.05.17/outbox.cif.g08.bks.cpg/sg51_4_cif.got.tgz:7866.got - 2010.06.03 11:52:47.
