data_PCOD9405493
_publ_section_title
;
Structure prediction by ZEFSAII (Michael W. Deem and Ramdas Pophale) SiO2 
 PCOD9405493
Probable space group: P M M A
;
_chemical_formula_sum "Si O2"
_cell_formula_units_Z 56
_cell_length_a 19.063999
_cell_length_b 9.508385
_cell_length_c 18.229667
_cell_angle_alpha 90.000000
_cell_angle_beta 90.000000
_cell_angle_gamma 90.000000
_cell_volume 3304.452400
_symmetry_space_group_name_H-M "P M M A"
_symmetry_group_IT_number 51
_symmetry_cell_setting 'orthorhombic'
loop_
_space_group_symop_operation_xyz
x,y,z
1/2-x,-y,z
1/2+x,-y,-z
-x,y,-z
-x,-y,-z
1/2+x,y,-z
1/2-x,y,z
x,-y,z
loop_
_atom_site_type_symbol
_atom_site_label
_atom_site_fract_x
_atom_site_fract_y
_atom_site_fract_z
Si Si1 0.334159 0.835307 0.207431
Si Si2 0.167579 0.168052 0.793797
Si Si3 0.667141 0.333355 0.645247
Si Si4 0.913539 0.666738 0.917993
Si Si5 0.580905 0.333764 0.085956
Si Si6 0.417580 0.668280 0.502178
Si Si7 0.332812 0.168208 0.625339
O O1 0.250000 0.824020 0.198674
O O2 0.352100 0.757175 0.283553
O O3 0.371771 0.758159 0.140298
O O4 0.352569 0.000000 0.210538
O O5 0.250000 0.199845 0.804496
O O6 0.121357 0.247111 0.853073
O O7 0.149565 0.205679 0.709626
O O8 0.159148 0.000000 0.800829
O O9 0.750000 0.310273 0.629177
O O10 0.658315 0.500000 0.660979
O O11 0.620640 0.297392 0.574630
O O12 0.899003 0.500000 0.908123
O O13 0.997117 0.686743 0.908310
O O14 0.897302 0.703870 0.002660
O O15 0.594224 0.500000 0.095208
O O16 0.500000 0.702302 0.500000
O O17 0.410632 0.500000 0.512967
O O18 0.379097 0.749058 0.567417
O O19 0.250000 0.198096 0.614160
O O20 0.341906 0.000000 0.617343
#
# Coordination Sequence:
#
# PCOD9405493 Si02
#       7
#     8   8   8   8   8   8   8
#     4  10  21  35  52  77 104 130 168 214 254 298
#     4   9  19  35  53  76 107 138 167 205 255 304
#     4   9  18  34  54  73  98 135 172 205 249 302
#     4   9  19  36  54  73 102 137 170 208 256 304
#     4   9  19  35  54  76 101 133 174 213 249 297
#     4  10  21  35  52  78 108 134 165 208 255 301
#     4   9  19  36  55  74 100 136 173 207 249 301
#
# _framework density 16.946833000000002
#
# number of rings (size 3 to 8) (size 9 to 14) (size 15 to 20)
#    0.000    2.714    0.000    2.571    0.000    6.286 
#    0.000   11.429    0.000    0.000    0.000    0.000 
#    0.000    0.000    0.000    0.000    0.000    0.000 
#
# Total GULP energy -312383.692680 kJ/mol
# GULP energy per Si atom -5578.280226 kJ/mol
# Density = 1.690826 g / cm^3
# Si number density = 16.946833 Si / 1000 Ang^3
#
#
#
# Elastic Constant Matrix: (Units=GPa)
#
#
# Indices 1 2 3 4 5 6 
#
# 1 72.8745 63.7443 101.8820 0.0000 0.0000 0.0000
# 2 63.7443 69.6388 100.0646 0.0000 0.0000 0.0000
# 3 101.8820 100.0646 185.8219 0.0000 0.0000 0.0000
# 4 0.0000 0.0000 0.0000 25.7142 0.0000 0.0000
# 5 0.0000 0.0000 0.0000 0.0000 98.8491 0.0000
# 6 0.0000 0.0000 0.0000 0.0000 0.0000 30.8568
#
#
#
# Elastic Compliance Matrix: (Units=1/GPa)
#
#
# Indices 1 2 3 4 5 6 
#
# 1 0.083275 -0.046945 -0.020378 0.000000 0.000000 0.000000
# 2 -0.046945 0.089939 -0.022693 0.000000 0.000000 0.000000
# 3 -0.020378 -0.022693 0.028775 0.000000 0.000000 0.000000
# 4 0.000000 0.000000 0.000000 0.038889 0.000000 0.000000
# 5 0.000000 0.000000 0.000000 0.000000 0.010116 0.000000
# 6 0.000000 0.000000 0.000000 0.000000 0.000000 0.032408
#
#
# Mechanical properties :
#
#
# Convention : Reuss Voigt Hill
#
# Bulk Modulus (GPa) = 45.54459 95.52412 70.53436
# Shear Modulus (GPa) = 10.62125 35.26030 22.94077
#
# Velocity S-wave (km/s) = 2.50619 4.56635 3.68325
# Velocity P-wave (km/s) = 5.94205 9.18104 7.73303
#
# Compressibility (1/GPa) = 0.02195650
#
# Stress axis : x y z
#
# Youngs Moduli (GPa) = 12.00834 11.11861 34.75263
#
# Poissons Ratio (x) = 0.52196 0.70820
# Poissons Ratio (y) = 0.56373 0.78865
# Poissons Ratio (z) = 0.24471 0.25232
#
# Static dielectric constant tensor:
#      x y z
#    x 1.556480 0.000000 0.000000 
#    y 0.000000 1.556120 0.000000 
#    z 0.000000 0.000000 1.548590 
# 
# From -- ./inp_files/25700.got.cif
#   From: 2010.05.17/outbox.cif.g08.bks.cpg/sg51_13_cif.got.tgz:25700.got - 2010.06.03 11:52:47.
