data_PCOD9405818
_publ_section_title
;
Structure prediction by ZEFSAII (Michael W. Deem and Ramdas Pophale) SiO2 
 PCOD9405818
Probable space group: P M M A
;
_chemical_formula_sum "Si O2"
_cell_formula_units_Z 48
_cell_length_a 10.022003
_cell_length_b 9.216277
_cell_length_c 29.659801
_cell_angle_alpha 90.000000
_cell_angle_beta 90.000000
_cell_angle_gamma 90.000000
_cell_volume 2739.544003
_symmetry_space_group_name_H-M "P M M A"
_symmetry_group_IT_number 51
_symmetry_cell_setting 'orthorhombic'
loop_
_space_group_symop_operation_xyz
x,y,z
1/2-x,-y,z
1/2+x,-y,-z
-x,y,-z
-x,-y,-z
1/2+x,y,-z
1/2-x,y,z
x,-y,z
loop_
_atom_site_type_symbol
_atom_site_label
_atom_site_fract_x
_atom_site_fract_y
_atom_site_fract_z
Si Si1 0.407043 0.326319 0.042252
Si Si2 0.088047 0.166390 0.133991
Si Si3 0.250000 0.830950 0.441902
Si Si4 0.462638 0.828638 0.598206
Si Si5 0.908229 0.673017 0.774069
Si Si6 0.250000 0.327423 0.536646
Si Si7 0.904565 0.173398 0.297708
O O1 0.250000 0.293667 0.033653
O O2 0.416748 0.500000 0.049406
O O3 0.450932 0.244418 0.087590
O O4 0.500000 0.287721 0.000000
O O5 0.250000 0.165425 0.133793
O O6 0.049289 0.254590 0.178575
O O7 0.042022 0.000000 0.135971
O O8 0.382231 0.807829 0.412669
O O9 0.250000 0.732308 0.485980
O O10 0.250000 0.000000 0.456821
O O11 0.376523 0.736174 0.563445
O O12 0.428868 0.791308 0.649708
O O13 0.430747 0.000000 0.592012
O O14 0.750000 0.703599 0.767364
O O15 0.924306 0.500000 0.776253
O O16 0.995257 0.741092 0.734299
O O17 0.250000 0.500000 0.537164
O O18 0.750000 0.204650 0.286774
O O19 0.926022 0.000000 0.292609
#
# Coordination Sequence:
#
# PCOD9405818 Si02
#       7
#     8   8   4   8   8   4   8
#     4   9  17  30  49  73 103 139 177 218 267 324
#     4   9  17  31  52  77 104 138 181 227 271 315
#     4  10  22  38  62  88 110 142 186 230 269 316
#     4  10  21  40  62  84 110 144 185 226 269 322
#     4  10  21  36  56  83 112 143 180 223 273 329
#     4  12  24  38  58  84 116 152 182 218 271 326
#     4  10  21  38  60  83 109 141 180 225 272 323
#
# _framework density 17.521163999999999
#
# number of rings (size 3 to 8) (size 9 to 14) (size 15 to 20)
#    0.000    2.167    0.833    2.250    1.167    7.000 
#    0.000    0.833    0.000    3.000    0.000    0.000 
#    0.000    0.000    0.000    0.000    0.000    0.000 
#
# Total GULP energy -267933.728451 kJ/mol
# GULP energy per Si atom -5581.952676 kJ/mol
# Density = 1.748129 g / cm^3
# Si number density = 17.521164 Si / 1000 Ang^3
#
#
#
# Elastic Constant Matrix: (Units=GPa)
#
#
# Indices 1 2 3 4 5 6 
#
# 1 80.0384 49.3643 48.1409 0.0000 0.0000 0.0000
# 2 49.3643 70.6172 61.1638 0.0000 0.0000 0.0000
# 3 48.1409 61.1638 115.2831 0.0000 0.0000 0.0000
# 4 0.0000 0.0000 0.0000 77.7869 0.0000 0.0000
# 5 0.0000 0.0000 0.0000 0.0000 32.3993 0.0000
# 6 0.0000 0.0000 0.0000 0.0000 0.0000 21.5039
#
#
#
# Elastic Compliance Matrix: (Units=1/GPa)
#
#
# Indices 1 2 3 4 5 6 
#
# 1 0.022190 -0.013851 -0.001918 0.000000 0.000000 0.000000
# 2 -0.013851 0.034846 -0.012704 0.000000 0.000000 0.000000
# 3 -0.001918 -0.012704 0.016215 0.000000 0.000000 0.000000
# 4 0.000000 0.000000 0.000000 0.012856 0.000000 0.000000
# 5 0.000000 0.000000 0.000000 0.000000 0.030865 0.000000
# 6 0.000000 0.000000 0.000000 0.000000 0.000000 0.046503
#
#
# Mechanical properties :
#
#
# Convention : Reuss Voigt Hill
#
# Bulk Modulus (GPa) = 61.32410 64.80853 63.06632
# Shear Modulus (GPa) = 22.13805 33.48934 27.81369
#
# Velocity S-wave (km/s) = 3.55844 4.37666 3.98858
# Velocity P-wave (km/s) = 7.20828 7.91260 7.56864
#
# Compressibility (1/GPa) = 0.01630680
#
# Stress axis : x y z
#
# Youngs Moduli (GPa) = 45.06540 28.69748 61.67041
#
# Poissons Ratio (x) = 0.39748 0.11827
# Poissons Ratio (y) = 0.62418 0.78346
# Poissons Ratio (z) = 0.08643 0.36457
#
# Static dielectric constant tensor:
#      x y z
#    x 1.600640 0.000000 0.000000 
#    y 0.000000 1.586740 0.000000 
#    z 0.000000 0.000000 1.565260 
# 
# From -- ./inp_files/37155.got.cif
#   From: 2010.05.17/outbox.cif.g08.bks.cpg/sg51_19_cif.got.tgz:37155.got - 2010.06.03 11:52:47.
