data_PCOD9405467
_publ_section_title
;
Structure prediction by ZEFSAII (Michael W. Deem and Ramdas Pophale) SiO2 
 PCOD9405467
Probable space group: P M M A
;
_chemical_formula_sum "Si O2"
_cell_formula_units_Z 48
_cell_length_a 14.741396
_cell_length_b 7.917023
_cell_length_c 21.942852
_cell_angle_alpha 90.000000
_cell_angle_beta 90.000000
_cell_angle_gamma 90.000000
_cell_volume 2560.905739
_symmetry_space_group_name_H-M "P M M A"
_symmetry_group_IT_number 51
_symmetry_cell_setting 'orthorhombic'
loop_
_space_group_symop_operation_xyz
x,y,z
1/2-x,-y,z
1/2+x,-y,-z
-x,y,-z
-x,-y,-z
1/2+x,y,-z
1/2-x,y,z
x,-y,z
loop_
_atom_site_type_symbol
_atom_site_label
_atom_site_fract_x
_atom_site_fract_y
_atom_site_fract_z
Si Si1 0.147458 0.703198 0.332943
Si Si2 0.999999 0.797979 0.569129
Si Si3 0.647457 0.703198 0.332945
Si Si4 0.499999 0.296843 0.762185
Si Si5 0.146588 0.206642 0.000000
Si Si6 0.000001 0.203061 0.902798
O O1 0.250000 0.769317 0.334903
O O2 0.152300 0.500000 0.328367
O O3 0.088017 0.742779 0.392522
O O4 0.088192 0.765008 0.275234
O O5 0.000000 0.732642 0.500000
O O6 0.088017 0.742786 0.607477
O O7 0.999995 0.000000 0.567247
O O8 0.750000 0.769315 0.334904
O O9 0.652298 0.500000 0.328371
O O10 0.588193 0.765007 0.275235
O O11 0.499999 0.500000 0.757604
O O12 0.499999 0.252795 0.832752
O O13 0.250000 0.265535 0.000001
O O14 0.088317 0.260110 0.059022
O O15 0.148233 0.000000 0.000000
O O16 0.088318 0.260110 0.940978
O O17 0.000001 0.000000 0.905507
#
# Coordination Sequence:
#
# PCOD9405467 Si02
#       6
#     8   8   8   8   8   8
#     4   9  19  36  55  73  96 131 172 206 238 286
#     4  10  21  35  51  75 106 133 158 198 252 299
#     4   9  19  36  55  73  96 131 172 206 238 286
#     4   9  18  32  49  71 100 127 153 197 251 291
#     4   8  15  29  46  64  90 122 156 196 236 276
#     4   9  17  29  47  69  90 119 160 196 231 285
#
# _framework density 18.743369000000001
#
# number of rings (size 3 to 8) (size 9 to 14) (size 15 to 20)
#    0.000    3.000    0.000    2.500    0.000    6.667 
#    0.000    5.000    0.000    1.000    0.000    0.000 
#    0.000    0.000    0.000    0.000    0.000    0.000 
#
# Total GULP energy -267581.523984 kJ/mol
# GULP energy per Si atom -5574.615083 kJ/mol
# Density = 1.870071 g / cm^3
# Si number density = 18.743369 Si / 1000 Ang^3
#
#
#
# Elastic Constant Matrix: (Units=GPa)
#
#
# Indices 1 2 3 4 5 6 
#
# 1 224.0923 13.0545 119.9931 0.0000 0.0000 0.0000
# 2 13.0545 14.3449 1.4888 0.0000 0.0000 0.0000
# 3 119.9931 1.4888 204.1956 0.0000 0.0000 0.0000
# 4 0.0000 0.0000 0.0000 32.1713 0.0000 0.0000
# 5 0.0000 0.0000 0.0000 0.0000 12.5710 0.0000
# 6 0.0000 0.0000 0.0000 0.0000 0.0000 2.8190
#
#
#
# Elastic Compliance Matrix: (Units=1/GPa)
#
#
# Indices 1 2 3 4 5 6 
#
# 1 0.006982 -0.005932 -0.004059 0.000000 0.000000 0.000000
# 2 -0.005932 0.074805 0.002941 0.000000 0.000000 0.000000
# 3 -0.004059 0.002941 0.007261 0.000000 0.000000 0.000000
# 4 0.000000 0.000000 0.000000 0.031084 0.000000 0.000000
# 5 0.000000 0.000000 0.000000 0.000000 0.079548 0.000000
# 6 0.000000 0.000000 0.000000 0.000000 0.000000 0.354730
#
#
# Mechanical properties :
#
#
# Convention : Reuss Voigt Hill
#
# Bulk Modulus (GPa) = 13.34304 79.07841 46.21073
# Shear Modulus (GPa) = 8.42469 30.05203 19.23836
#
# Velocity S-wave (km/s) = 2.12238 4.00852 3.20724
# Velocity P-wave (km/s) = 3.62495 7.98160 6.19864
#
# Compressibility (1/GPa) = 0.07494544
#
# Stress axis : x y z
#
# Youngs Moduli (GPa) = 143.23074 13.36814 137.71578
#
# Poissons Ratio (x) = 0.07930 0.55905
# Poissons Ratio (y) = 0.84970 -0.40498
# Poissons Ratio (z) = 0.58144 -0.03931
#
# Static dielectric constant tensor:
#      x y z
#    x 1.665340 0.000000 0.000000 
#    y 0.000000 1.672980 0.000000 
#    z 0.000000 0.000000 1.626450 
# 
# From -- ./inp_files/33186.got.cif
#   From: 2010.05.17/outbox.cif.g08.bks.cpg/sg51_17_cif.got.tgz:33186.got - 2010.06.03 11:52:47.
