data_PCOD9405300
_publ_section_title
;
Structure prediction by ZEFSAII (Michael W. Deem and Ramdas Pophale) SiO2 
 PCOD9405300
Probable space group: P M M A
;
_chemical_formula_sum "Si O2"
_cell_formula_units_Z 64
_cell_length_a 19.177276
_cell_length_b 14.046001
_cell_length_c 15.363621
_cell_angle_alpha 90.000000
_cell_angle_beta 90.000000
_cell_angle_gamma 90.000000
_cell_volume 4138.406989
_symmetry_space_group_name_H-M "P M M A"
_symmetry_group_IT_number 51
_symmetry_cell_setting 'orthorhombic'
loop_
_space_group_symop_operation_xyz
x,y,z
1/2-x,-y,z
1/2+x,-y,-z
-x,y,-z
-x,-y,-z
1/2+x,y,-z
1/2-x,y,z
x,-y,z
loop_
_atom_site_type_symbol
_atom_site_label
_atom_site_fract_x
_atom_site_fract_y
_atom_site_fract_z
Si Si1 0.169522 0.696594 0.608253
Si Si2 0.666626 0.611814 0.883063
Si Si3 0.446986 0.109358 0.367640
Si Si4 0.605069 0.109527 0.437932
Si Si5 0.170229 0.613767 0.416226
Si Si6 0.920999 0.704908 0.734217
Si Si7 0.427458 0.385529 0.758404
Si Si8 0.829073 0.615241 0.083964
O O1 0.250000 0.679190 0.631291
O O2 0.153411 0.808824 0.600872
O O3 0.156820 0.653303 0.512534
O O4 0.119251 0.647000 0.677088
O O5 0.750000 0.617280 0.869363
O O6 0.646820 0.500000 0.869265
O O7 0.625827 0.678966 0.817249
O O8 0.653185 0.637684 0.983887
O O9 0.528187 0.120132 0.395287
O O10 0.404975 0.124581 0.458149
O O11 0.427129 0.185568 0.295042
O O12 0.436169 0.000000 0.340801
O O13 0.627609 0.000000 0.424581
O O14 0.250000 0.641015 0.391751
O O15 0.166759 0.500000 0.417763
O O16 0.115634 0.653292 0.347469
O O17 0.997472 0.662602 0.750713
O O18 0.434785 0.500000 0.759158
O O19 0.385628 0.354671 0.845279
O O20 0.750000 0.649098 0.103201
O O21 0.826553 0.500000 0.087723
#
# Coordination Sequence:
#
# PCOD9405300 Si02
#       8
#     8   8   8   8   8   8   8   8
#     4  11  21  33  48  69  98 135 173 208 244 292
#     4   9  18  33  53  75 100 133 167 197 239 296
#     4   9  18  33  53  71  95 129 163 204 256 302
#     4   9  17  34  53  69  91 127 172 215 254 290
#     4  10  21  34  46  65 101 143 170 192 233 292
#     4  12  20  31  51  75 101 126 163 209 247 293
#     4  11  22  32  47  74 103 134 168 205 244 287
#     4   8  16  33  52  69  97 135 168 200 240 285
#
# _framework density 15.464888
#
# number of rings (size 3 to 8) (size 9 to 14) (size 15 to 20)
#    0.000    2.125    2.500    3.750    0.000    3.500 
#    0.000    3.125    0.000    1.500    0.000    2.625 
#    0.000    2.000    0.000    0.000    0.000    0.000 
#
# Total GULP energy -356924.319296 kJ/mol
# GULP energy per Si atom -5576.942489 kJ/mol
# Density = 1.542969 g / cm^3
# Si number density = 15.464888 Si / 1000 Ang^3
#
#
#
# Elastic Constant Matrix: (Units=GPa)
#
#
# Indices 1 2 3 4 5 6 
#
# 1 69.7212 32.9751 60.9947 0.0000 0.0000 0.0000
# 2 32.9751 78.6477 44.3225 0.0000 0.0000 0.0000
# 3 60.9947 44.3225 86.7780 0.0000 0.0000 0.0000
# 4 0.0000 0.0000 0.0000 2.9244 0.0000 0.0000
# 5 0.0000 0.0000 0.0000 0.0000 175.5350 0.0000
# 6 0.0000 0.0000 0.0000 0.0000 0.0000 18.5855
#
#
#
# Elastic Compliance Matrix: (Units=1/GPa)
#
#
# Indices 1 2 3 4 5 6 
#
# 1 0.037327 -0.001214 -0.025617 0.000000 0.000000 0.000000
# 2 -0.001214 0.017894 -0.008286 0.000000 0.000000 0.000000
# 3 -0.025617 -0.008286 0.033761 0.000000 0.000000 0.000000
# 4 0.000000 0.000000 0.000000 0.341949 0.000000 0.000000
# 5 0.000000 0.000000 0.000000 0.000000 0.005697 0.000000
# 6 0.000000 0.000000 0.000000 0.000000 0.000000 0.053805
#
#
# Mechanical properties :
#
#
# Convention : Reuss Voigt Hill
#
# Bulk Modulus (GPa) = 53.33641 56.85905 55.09773
# Shear Modulus (GPa) = 8.81963 45.86595 27.34279
#
# Velocity S-wave (km/s) = 2.39069 5.45184 4.20939
# Velocity P-wave (km/s) = 6.49493 8.74508 7.70261
#
# Compressibility (1/GPa) = 0.01874892
#
# Stress axis : x y z
#
# Youngs Moduli (GPa) = 26.78990 55.88607 29.61968
#
# Poissons Ratio (x) = 0.06785 0.75876
# Poissons Ratio (y) = 0.03252 0.24543
# Poissons Ratio (z) = 0.68627 0.46307
#
# Static dielectric constant tensor:
#      x y z
#    x 1.519100 0.000000 0.000000 
#    y 0.000000 1.500540 0.000000 
#    z 0.000000 0.000000 1.504990 
# 
# From -- ./inp_files/25326.got.cif
#   From: 2010.05.17/outbox.cif.g08.bks.cpg/sg51_13_cif.got.tgz:25326.got - 2010.06.03 11:52:47.
