data_PCOD9405893
_publ_section_title
;
Structure prediction by ZEFSAII (Michael W. Deem and Ramdas Pophale) SiO2 
 PCOD9405893
Probable space group: P M M A
;
_chemical_formula_sum "Si O2"
_cell_formula_units_Z 64
_cell_length_a 19.782315
_cell_length_b 8.946135
_cell_length_c 20.748233
_cell_angle_alpha 90.000000
_cell_angle_beta 90.000000
_cell_angle_gamma 90.000000
_cell_volume 3671.923942
_symmetry_space_group_name_H-M "P M M A"
_symmetry_group_IT_number 51
_symmetry_cell_setting 'orthorhombic'
loop_
_space_group_symop_operation_xyz
x,y,z
1/2-x,-y,z
1/2+x,-y,-z
-x,y,-z
-x,-y,-z
1/2+x,y,-z
1/2-x,y,z
x,-y,z
loop_
_atom_site_type_symbol
_atom_site_label
_atom_site_fract_x
_atom_site_fract_y
_atom_site_fract_z
Si Si1 0.567773 0.679246 0.159699
Si Si2 0.827552 0.178770 0.257503
Si Si3 0.423383 0.318648 0.985597
Si Si4 0.048938 0.179211 0.352472
Si Si5 0.427222 0.179991 0.205650
Si Si6 0.170878 0.680747 0.103960
Si Si7 0.420265 0.325753 0.481984
Si Si8 0.605329 0.821418 0.388430
O O1 0.559938 0.500000 0.161731
O O2 0.621301 0.734633 0.211850
O O3 0.592130 0.722835 0.087936
O O4 0.495698 0.753776 0.174830
O O5 0.750000 0.209531 0.241332
O O6 0.842966 0.217260 0.331855
O O7 0.839953 0.000000 0.251124
O O8 0.423886 0.500000 0.988180
O O9 0.500000 0.268264 0.000000
O O10 0.370850 0.270056 0.040278
O O11 0.072954 0.223539 0.281286
O O12 0.088323 0.249139 0.412753
O O13 0.969627 0.220128 0.361839
O O14 0.052919 0.000000 0.357003
O O15 0.364992 0.245020 0.165294
O O16 0.428778 0.000000 0.202140
O O17 0.250000 0.717562 0.099114
O O18 0.164917 0.500000 0.108968
O O19 0.500000 0.307633 0.500000
O O20 0.405401 0.500000 0.477382
O O21 0.382735 0.253642 0.542757
O O22 0.605371 0.000000 0.397588
#
# Coordination Sequence:
#
# PCOD9405893 Si02
#       8
#     8   8   8   8   8   8   8   8
#     4  11  21  34  57  83 109 141 186 234 276 324
#     4  10  21  37  54  75 109 150 188 227 275 331
#     4   9  17  33  56  81 108 141 181 223 268 324
#     4   9  17  30  49  73 101 137 175 215 263 322
#     4  11  21  35  56  82 113 145 182 225 276 330
#     4  10  21  38  59  82 109 144 185 227 275 329
#     4   9  17  27  43  73 105 130 164 217 271 311
#     4   9  16  30  49  69  99 140 180 214 261 324
#
# _framework density 17.429556000000002
#
# number of rings (size 3 to 8) (size 9 to 14) (size 15 to 20)
#    0.000    2.250    2.500    1.125    0.000    4.000 
#    0.000    3.125    0.000    0.750    0.000    1.750 
#    0.000    0.000    0.000    0.000    0.000    0.000 
#
# Total GULP energy -356927.862804 kJ/mol
# GULP energy per Si atom -5576.997856 kJ/mol
# Density = 1.738989 g / cm^3
# Si number density = 17.429556 Si / 1000 Ang^3
#
#
#
# Elastic Constant Matrix: (Units=GPa)
#
#
# Indices 1 2 3 4 5 6 
#
# 1 85.0331 33.5613 57.6928 0.0000 0.0000 0.0000
# 2 33.5613 24.8227 43.2451 0.0000 0.0000 0.0000
# 3 57.6928 43.2451 156.5238 0.0000 0.0000 0.0000
# 4 0.0000 0.0000 0.0000 29.9965 0.0000 0.0000
# 5 0.0000 0.0000 0.0000 0.0000 21.6844 0.0000
# 6 0.0000 0.0000 0.0000 0.0000 0.0000 16.6990
#
#
#
# Elastic Compliance Matrix: (Units=1/GPa)
#
#
# Indices 1 2 3 4 5 6 
#
# 1 0.025221 -0.034520 0.000241 0.000000 0.000000 0.000000
# 2 -0.034520 0.124919 -0.021789 0.000000 0.000000 0.000000
# 3 0.000241 -0.021789 0.012320 0.000000 0.000000 0.000000
# 4 0.000000 0.000000 0.000000 0.033337 0.000000 0.000000
# 5 0.000000 0.000000 0.000000 0.000000 0.046116 0.000000
# 6 0.000000 0.000000 0.000000 0.000000 0.000000 0.059884
#
#
# Mechanical properties :
#
#
# Convention : Reuss Voigt Hill
#
# Bulk Modulus (GPa) = 19.87148 59.48643 39.67895
# Shear Modulus (GPa) = 11.60878 22.46801 17.03840
#
# Velocity S-wave (km/s) = 2.58357 3.59426 3.12998
# Velocity P-wave (km/s) = 4.50839 7.17138 5.98975
#
# Compressibility (1/GPa) = 0.05032337
#
# Stress axis : x y z
#
# Youngs Moduli (GPa) = 39.64940 8.00518 81.16880
#
# Poissons Ratio (x) = 0.27634 -0.01958
# Poissons Ratio (y) = 1.36870 1.76863
# Poissons Ratio (z) = -0.00956 0.17443
#
# Static dielectric constant tensor:
#      x y z
#    x 1.576820 0.000000 0.000000 
#    y 0.000000 1.586460 0.000000 
#    z 0.000000 0.000000 1.599690 
# 
# From -- ./inp_files/34082.got.cif
#   From: 2010.05.17/outbox.cif.g08.bks.cpg/sg51_18_cif.got.tgz:34082.got - 2010.06.03 11:52:47.
