data_PCOD9405334
_publ_section_title
;
Structure prediction by ZEFSAII (Michael W. Deem and Ramdas Pophale) SiO2 
 PCOD9405334
Probable space group: P M M A
;
_chemical_formula_sum "Si O2"
_cell_formula_units_Z 48
_cell_length_a 15.612947
_cell_length_b 7.457538
_cell_length_c 19.754488
_cell_angle_alpha 90.000000
_cell_angle_beta 90.000000
_cell_angle_gamma 90.000000
_cell_volume 2300.096931
_symmetry_space_group_name_H-M "P M M A"
_symmetry_group_IT_number 51
_symmetry_cell_setting 'orthorhombic'
loop_
_space_group_symop_operation_xyz
x,y,z
1/2-x,-y,z
1/2+x,-y,-z
-x,y,-z
-x,-y,-z
1/2+x,y,-z
1/2-x,y,z
x,-y,z
loop_
_atom_site_type_symbol
_atom_site_label
_atom_site_fract_x
_atom_site_fract_y
_atom_site_fract_z
Si Si1 0.652408 0.783642 0.670206
Si Si2 0.152260 0.781506 0.175898
Si Si3 0.506753 0.711048 0.424469
Si Si4 0.500851 0.219726 0.922171
Si Si5 0.153651 0.213554 0.829898
Si Si6 0.347454 0.284264 0.675140
O O1 0.750000 0.724831 0.655153
O O2 0.630673 0.725521 0.747091
O O3 0.581650 0.726512 0.616598
O O4 0.652911 0.000000 0.670488
O O5 0.250000 0.726506 0.161516
O O6 0.083783 0.722575 0.120592
O O7 0.151439 0.000000 0.176033
O O8 0.500000 0.787457 0.500000
O O9 0.525838 0.500000 0.432132
O O10 0.583579 0.785785 0.378314
O O11 0.416644 0.281408 0.882003
O O12 0.501173 0.000000 0.921837
O O13 0.500000 0.276310 0.000000
O O14 0.250000 0.286571 0.837863
O O15 0.126644 0.241892 0.752157
O O16 0.158467 0.000000 0.840094
O O17 0.250000 0.218521 0.664761
O O18 0.345057 0.500000 0.670302
#
# Coordination Sequence:
#
# PCOD9405334 Si02
#       6
#     8   8   8   8   8   8
#     4   9  18  33  52  72  94 124 162 199 235 278
#     4   8  14  25  41  60  83 114 151 187 222 263
#     4  10  21  34  49  72  99 126 155 190 237 287
#     4   9  16  24  37  61  92 122 148 179 225 275
#     4   9  17  29  46  68  91 116 151 194 233 269
#     4   9  18  33  51  69  91 122 159 195 232 280
#
# _framework density 20.868684999999999
#
# number of rings (size 3 to 8) (size 9 to 14) (size 15 to 20)
#    0.000    3.000    0.000    2.000    0.000    4.000 
#    0.000    5.000    0.000    2.500    0.000    0.000 
#    0.000    2.667    0.000    0.000    0.000    0.000 
#
# Total GULP energy -267923.314828 kJ/mol
# GULP energy per Si atom -5581.735726 kJ/mol
# Density = 2.082119 g / cm^3
# Si number density = 20.868685 Si / 1000 Ang^3
#
#
#
# Elastic Constant Matrix: (Units=GPa)
#
#
# Indices 1 2 3 4 5 6 
#
# 1 144.0524 -1.3069 146.9539 0.0000 0.0000 0.0000
# 2 -1.3069 60.5225 -0.2266 0.0000 0.0000 0.0000
# 3 146.9539 -0.2266 214.6811 0.0000 0.0000 0.0000
# 4 0.0000 0.0000 0.0000 -47.9132 0.0000 0.0000
# 5 0.0000 0.0000 0.0000 0.0000 -16.3607 0.0000
# 6 0.0000 0.0000 0.0000 0.0000 0.0000 62.9959
#
#
#
# Elastic Compliance Matrix: (Units=1/GPa)
#
#
# Indices 1 2 3 4 5 6 
#
# 1 0.023022 0.000438 -0.015758 0.000000 0.000000 0.000000
# 2 0.000438 0.016531 -0.000282 0.000000 0.000000 0.000000
# 3 -0.015758 -0.000282 0.015445 0.000000 0.000000 0.000000
# 4 0.000000 0.000000 0.000000 -0.020871 0.000000 0.000000
# 5 0.000000 0.000000 0.000000 0.000000 -0.061122 0.000000
# 6 0.000000 0.000000 0.000000 0.000000 0.000000 0.015874
#
#
# Mechanical properties :
#
#
# Convention : Reuss Voigt Hill
#
# Bulk Modulus (GPa) = 42.03065 78.89963 60.46514
# Shear Modulus (GPa) = 178.47798 18.00010 98.23904
#
# Velocity S-wave (km/s) = 9.25797 2.94009 6.86856
# Velocity P-wave (km/s) = 11.59587 7.02960 9.58852
#
# Compressibility (1/GPa) = 0.02379216
#
# Stress axis : x y z
#
# Youngs Moduli (GPa) = 43.43728 60.49172 64.74695
#
# Poissons Ratio (x) = -0.02650 1.02031
# Poissons Ratio (y) = -0.01903 0.01829
# Poissons Ratio (z) = 0.68450 0.01708
#
# Static dielectric constant tensor:
#      x y z
#    x 1.736450 0.000000 0.000000 
#    y 0.000000 1.800570 0.000000 
#    z 0.000000 0.000000 1.717560 
# 
# From -- ./inp_files/29441.got.cif
#   From: 2010.05.17/outbox.cif.g08.bks.cpg/sg51_15_cif.got.tgz:29441.got - 2010.06.03 11:52:47.
