data_PCOD9405599
_publ_section_title
;
Structure prediction by ZEFSAII (Michael W. Deem and Ramdas Pophale) SiO2 
 PCOD9405599
Probable space group: P M M A
;
_chemical_formula_sum "Si O2"
_cell_formula_units_Z 40
_cell_length_a 16.898942
_cell_length_b 7.680315
_cell_length_c 12.208256
_cell_angle_alpha 90.000000
_cell_angle_beta 90.000000
_cell_angle_gamma 90.000000
_cell_volume 1584.499752
_symmetry_space_group_name_H-M "P M M A"
_symmetry_group_IT_number 51
_symmetry_cell_setting 'orthorhombic'
loop_
_space_group_symop_operation_xyz
x,y,z
1/2-x,-y,z
1/2+x,-y,-z
-x,y,-z
-x,-y,-z
1/2+x,y,-z
1/2-x,y,z
x,-y,z
loop_
_atom_site_type_symbol
_atom_site_label
_atom_site_fract_x
_atom_site_fract_y
_atom_site_fract_z
Si Si1 0.250000 0.787421 0.201265
Si Si2 0.386055 0.205399 0.036569
Si Si3 0.250000 0.794706 0.448661
Si Si4 0.838100 0.298764 0.205626
Si Si5 0.008161 0.711158 0.225924
Si Si6 0.920088 0.291521 0.555794
O O1 0.175740 0.732843 0.128859
O O2 0.250000 0.718801 0.324765
O O3 0.250000 0.000000 0.205829
O O4 0.467021 0.231208 0.104668
O O5 0.376219 0.000000 0.016230
O O6 0.360549 0.294756 0.923825
O O7 0.335205 0.747251 0.496901
O O8 0.250000 0.000000 0.441053
O O9 0.750000 0.221716 0.222046
O O10 0.833484 0.500000 0.240936
O O11 0.919558 0.225177 0.255491
O O12 0.006662 0.500000 0.225426
O O13 0.069792 0.771934 0.318649
O O14 0.925092 0.500000 0.557538
O O15 0.000000 0.225718 0.500000
#
# Coordination Sequence:
#
# PCOD9405599 Si02
#       6
#     4   8   4   8   8   8
#     4   9  18  31  51  80 111 142 180 227 275 323
#     4  11  20  34  55  81 112 148 188 232 279 329
#     4  11  21  39  65  90 117 152 192 241 299 355
#     4  10  21  36  52  75 110 153 194 230 277 338
#     4  10  21  37  56  81 113 147 187 236 287 340
#     4  10  22  41  63  91 120 151 194 245 297 351
#
# _framework density 25.244561999999998
#
# number of rings (size 3 to 8) (size 9 to 14) (size 15 to 20)
#    0.000    1.800    3.000    1.500    0.000    3.600 
#    1.800    0.000    0.000    0.000    0.000    0.000 
#    0.000    0.000    0.000    0.000    0.000    0.000 
#
# Total GULP energy -223411.943276 kJ/mol
# GULP energy per Si atom -5585.298582 kJ/mol
# Density = 2.518710 g / cm^3
# Si number density = 25.244562 Si / 1000 Ang^3
#
#
#
# Elastic Constant Matrix: (Units=GPa)
#
#
# Indices 1 2 3 4 5 6 
#
# 1 195.5264 -2.1579 16.7020 0.0000 0.0000 0.0000
# 2 -2.1579 57.9425 -3.0567 0.0000 0.0000 0.0000
# 3 16.7020 -3.0567 45.1945 0.0000 0.0000 0.0000
# 4 0.0000 0.0000 0.0000 0.3280 0.0000 0.0000
# 5 0.0000 0.0000 0.0000 0.0000 33.0783 0.0000
# 6 0.0000 0.0000 0.0000 0.0000 0.0000 94.7684
#
#
#
# Elastic Compliance Matrix: (Units=1/GPa)
#
#
# Indices 1 2 3 4 5 6 
#
# 1 0.005282 0.000094 -0.001946 0.000000 0.000000 0.000000
# 2 0.000094 0.017322 0.001137 0.000000 0.000000 0.000000
# 3 -0.001946 0.001137 0.022922 0.000000 0.000000 0.000000
# 4 0.000000 0.000000 0.000000 3.048607 0.000000 0.000000
# 5 0.000000 0.000000 0.000000 0.000000 0.030231 0.000000
# 6 0.000000 0.000000 0.000000 0.000000 0.000000 0.010552
#
#
# Mechanical properties :
#
#
# Convention : Reuss Voigt Hill
#
# Bulk Modulus (GPa) = 22.67743 35.73759 29.20751
# Shear Modulus (GPa) = 1.58678 44.78000 23.18339
#
# Velocity S-wave (km/s) = 0.79368 4.21628 3.03372
# Velocity P-wave (km/s) = 3.13728 6.15548 4.88531
#
# Compressibility (1/GPa) = 0.04409670
#
# Stress axis : x y z
#
# Youngs Moduli (GPa) = 189.33578 57.73021 43.62539
#
# Poissons Ratio (x) = -0.00543 0.08487
# Poissons Ratio (y) = -0.01781 -0.04959
# Poissons Ratio (z) = 0.36835 -0.06563
#
# Static dielectric constant tensor:
#      x y z
#    x 2.121900 0.000000 0.000000 
#    y 0.000000 1.905620 0.000000 
#    z 0.000000 0.000000 2.000740 
# 
# From -- ./inp_files/23760.got.cif
#   From: 2010.05.17/outbox.cif.g08.bks.cpg/sg51_12_cif.got.tgz:23760.got - 2010.06.03 11:52:47.
