data_PCOD9405737
_publ_section_title
;
Structure prediction by ZEFSAII (Michael W. Deem and Ramdas Pophale) SiO2 
 PCOD9405737
Probable space group: P M M A
;
_chemical_formula_sum "Si O2"
_cell_formula_units_Z 48
_cell_length_a 31.518548
_cell_length_b 8.644158
_cell_length_c 9.379111
_cell_angle_alpha 90.000000
_cell_angle_beta 90.000000
_cell_angle_gamma 90.000000
_cell_volume 2555.351068
_symmetry_space_group_name_H-M "P M M A"
_symmetry_group_IT_number 51
_symmetry_cell_setting 'orthorhombic'
loop_
_space_group_symop_operation_xyz
x,y,z
1/2-x,-y,z
1/2+x,-y,-z
-x,y,-z
-x,-y,-z
1/2+x,y,-z
1/2-x,y,z
x,-y,z
loop_
_atom_site_type_symbol
_atom_site_label
_atom_site_fract_x
_atom_site_fract_y
_atom_site_fract_z
Si Si1 0.458439 0.185379 0.411202
Si Si2 0.298174 0.686702 0.402778
Si Si3 0.121232 0.312833 0.584808
Si Si4 0.701461 0.814816 0.912548
Si Si5 0.123671 0.686890 0.912737
Si Si6 0.458865 0.687079 0.091797
O O1 0.500000 0.235197 0.500000
O O2 0.416911 0.247514 0.490958
O O3 0.460356 0.247367 0.250533
O O4 0.457322 0.000000 0.408421
O O5 0.250000 0.733008 0.441575
O O6 0.299076 0.500000 0.392481
O O7 0.333907 0.733995 0.515143
O O8 0.307854 0.754166 0.246848
O O9 0.118970 0.500000 0.581273
O O10 0.118052 0.263083 0.749127
O O11 0.750000 0.767380 0.946771
O O12 0.699525 0.000000 0.912646
O O13 0.667049 0.748218 0.020228
O O14 0.124811 0.500000 0.914226
O O15 0.083786 0.736139 0.009312
O O16 0.458697 0.500000 0.100412
O O17 0.500000 0.733280 0.000000
#
# Coordination Sequence:
#
# PCOD9405737 Si02
#       6
#     8   8   8   8   8   8
#     4  11  24  39  56  81 112 145 181 222 270 322
#     4   9  18  34  56  81 108 139 178 223 268 316
#     4  10  21  37  58  83 110 142 181 223 269 322
#     4  10  21  36  54  78 109 146 185 223 268 322
#     4  10  21  36  56  83 111 141 180 225 272 321
#     4  10  21  38  60  84 110 142 181 224 271 323
#
# _framework density 18.784113000000001
#
# number of rings (size 3 to 8) (size 9 to 14) (size 15 to 20)
#    0.000    2.000    0.000    3.000    0.000   10.667 
#    0.000    1.667    0.000    2.000    0.000    0.000 
#    0.000    0.000    0.000    0.000    0.000    0.000 
#
# Total GULP energy -268160.808248 kJ/mol
# GULP energy per Si atom -5586.683505 kJ/mol
# Density = 1.874136 g / cm^3
# Si number density = 18.784113 Si / 1000 Ang^3
#
#
#
# Elastic Constant Matrix: (Units=GPa)
#
#
# Indices 1 2 3 4 5 6 
#
# 1 146.1068 31.4998 121.7500 0.0000 0.0000 0.0000
# 2 31.4998 9.9218 34.5357 0.0000 0.0000 0.0000
# 3 121.7500 34.5357 196.9359 0.0000 0.0000 0.0000
# 4 0.0000 0.0000 0.0000 -18.7282 0.0000 0.0000
# 5 0.0000 0.0000 0.0000 0.0000 42.2403 0.0000
# 6 0.0000 0.0000 0.0000 0.0000 0.0000 22.7514
#
#
#
# Elastic Compliance Matrix: (Units=1/GPa)
#
#
# Indices 1 2 3 4 5 6 
#
# 1 0.022629 -0.059416 -0.003570 0.000000 0.000000 0.000000
# 2 -0.059416 0.414711 -0.035993 0.000000 0.000000 0.000000
# 3 -0.003570 -0.035993 0.013597 0.000000 0.000000 0.000000
# 4 0.000000 0.000000 0.000000 -0.053395 0.000000 0.000000
# 5 0.000000 0.000000 0.000000 0.000000 0.023674 0.000000
# 6 0.000000 0.000000 0.000000 0.000000 0.000000 0.043953
#
#
# Mechanical properties :
#
#
# Convention : Reuss Voigt Hill
#
# Bulk Modulus (GPa) = 3.95293 80.94840 42.45067
# Shear Modulus (GPa) = 6.68937 20.26463 13.47700
#
# Velocity S-wave (km/s) = 1.88916 3.28810 2.68146
# Velocity P-wave (km/s) = 2.62060 7.58967 5.67761
#
# Compressibility (1/GPa) = 0.25297698
#
# Stress axis : x y z
#
# Youngs Moduli (GPa) = 44.19051 2.41132 73.54516
#
# Poissons Ratio (x) = 0.14327 0.26258
# Poissons Ratio (y) = 2.62563 2.64715
# Poissons Ratio (z) = 0.15778 0.08679
#
# Static dielectric constant tensor:
#      x y z
#    x 1.639620 0.000000 0.000000 
#    y 0.000000 1.636090 0.000000 
#    z 0.000000 0.000000 1.610500 
# 
# From -- ./inp_files/12731.got.cif
#   From: 2010.05.17/outbox.cif.g08.bks.cpg/sg51_7_cif.got.tgz:12731.got - 2010.06.03 11:52:47.
