data_PCOD9405488
_publ_section_title
;
Structure prediction by ZEFSAII (Michael W. Deem and Ramdas Pophale) SiO2 
 PCOD9405488
Probable space group: P M M A
;
_chemical_formula_sum "Si O2"
_cell_formula_units_Z 48
_cell_length_a 8.597618
_cell_length_b 31.503816
_cell_length_c 9.382480
_cell_angle_alpha 90.000000
_cell_angle_beta 90.000000
_cell_angle_gamma 90.000000
_cell_volume 2541.317662
_symmetry_space_group_name_H-M "P M M A"
_symmetry_group_IT_number 51
_symmetry_cell_setting 'orthorhombic'
loop_
_space_group_symop_operation_xyz
x,y,z
1/2-x,-y,z
1/2+x,-y,-z
-x,y,-z
-x,-y,-z
1/2+x,y,-z
1/2-x,y,z
x,-y,z
loop_
_atom_site_type_symbol
_atom_site_label
_atom_site_fract_x
_atom_site_fract_y
_atom_site_fract_z
Si Si1 0.062011 0.628277 0.659209
Si Si2 0.562166 0.792895 0.339927
Si Si3 0.436382 0.950996 0.342610
Si Si4 0.437895 0.710457 0.839874
Si Si5 0.562153 0.451937 0.158481
Si Si6 0.936496 0.874976 0.158886
O O1 0.250000 0.628356 0.654792
O O2 0.012476 0.667909 0.757049
O O3 0.010224 0.584294 0.732484
O O4 0.000000 0.632551 0.500000
O O5 0.500000 0.791698 0.500000
O O6 0.750000 0.792679 0.345193
O O7 0.511896 0.751713 0.249844
O O8 0.512553 0.835521 0.257717
O O9 0.500000 0.940380 0.500000
O O10 0.250000 0.948230 0.344327
O O11 0.503682 0.918297 0.229282
O O12 0.480430 0.000000 0.312425
O O13 0.250000 0.710621 0.845244
O O14 0.500000 0.711533 0.000000
O O15 0.750000 0.451129 0.153541
O O16 0.513530 0.500000 0.197454
O O17 0.500000 0.442980 0.000000
O O18 0.750000 0.875358 0.154934
O O19 0.000000 0.869793 0.000000
#
# Coordination Sequence:
#
# PCOD9405488 Si02
#       6
#     8   8   8   8   8   8
#     4  10  21  35  52  76 106 139 176 218 263 314
#     4  10  22  38  57  82 110 141 178 220 266 318
#     4  10  21  38  60  85 113 146 184 226 272 322
#     4  10  21  37  56  80 108 138 176 219 264 315
#     4   9  18  33  52  75 103 135 174 219 265 315
#     4  11  23  38  57  82 112 146 184 225 271 322
#
# _framework density 18.887839
#
# number of rings (size 3 to 8) (size 9 to 14) (size 15 to 20)
#    0.000    2.000    0.000    3.000    0.000    6.333 
#    0.000    0.000    0.000    0.000    0.000    0.000 
#    0.000    0.000    0.000    0.000    0.000    0.000 
#
# Total GULP energy -268175.755799 kJ/mol
# GULP energy per Si atom -5586.994912 kJ/mol
# Density = 1.884485 g / cm^3
# Si number density = 18.887839 Si / 1000 Ang^3
#
#
#
# Elastic Constant Matrix: (Units=GPa)
#
#
# Indices 1 2 3 4 5 6 
#
# 1 16.6351 31.0673 30.6116 0.0000 0.0000 0.0000
# 2 31.0673 138.5179 116.0046 0.0000 0.0000 0.0000
# 3 30.6116 116.0046 194.7865 0.0000 0.0000 0.0000
# 4 0.0000 0.0000 0.0000 43.0725 0.0000 0.0000
# 5 0.0000 0.0000 0.0000 0.0000 40.8071 0.0000
# 6 0.0000 0.0000 0.0000 0.0000 0.0000 -14.1433
#
#
#
# Elastic Compliance Matrix: (Units=1/GPa)
#
#
# Indices 1 2 3 4 5 6 
#
# 1 0.105808 -0.019562 -0.004978 0.000000 0.000000 0.000000
# 2 -0.019562 0.018019 -0.007657 0.000000 0.000000 0.000000
# 3 -0.004978 -0.007657 0.010476 0.000000 0.000000 0.000000
# 4 0.000000 0.000000 0.000000 0.023217 0.000000 0.000000
# 5 0.000000 0.000000 0.000000 0.000000 0.024506 0.000000
# 6 0.000000 0.000000 0.000000 0.000000 0.000000 -0.070705
#
#
# Mechanical properties :
#
#
# Convention : Reuss Voigt Hill
#
# Bulk Modulus (GPa) = 14.30422 78.36738 46.33580
# Shear Modulus (GPa) = 25.12319 25.43097 25.27708
#
# Velocity S-wave (km/s) = 3.65104 3.67334 3.66221
# Velocity P-wave (km/s) = 5.03619 7.71831 6.51673
#
# Compressibility (1/GPa) = 0.06990944
#
# Stress axis : x y z
#
# Youngs Moduli (GPa) = 9.45105 55.49603 95.45326
#
# Poissons Ratio (x) = 1.08561 0.47518
# Poissons Ratio (y) = 0.18488 0.73089
# Poissons Ratio (z) = 0.04705 0.42494
#
# Static dielectric constant tensor:
#      x y z
#    x 1.642840 0.000000 0.000000 
#    y 0.000000 1.661590 0.000000 
#    z 0.000000 0.000000 1.598270 
# 
# From -- ./inp_files/5984.got.cif
#   From: 2010.05.17/outbox.cif.g08.bks.cpg/sg51_3_cif.got.tgz:5984.got - 2010.06.03 11:52:47.
