data_PCOD9405928
_publ_section_title
;
Structure prediction by ZEFSAII (Michael W. Deem and Ramdas Pophale) SiO2 
 PCOD9405928
Probable space group: P M M A
;
_chemical_formula_sum "Si O2"
_cell_formula_units_Z 48
_cell_length_a 29.099657
_cell_length_b 7.743979
_cell_length_c 10.483684
_cell_angle_alpha 90.000000
_cell_angle_beta 90.000000
_cell_angle_gamma 90.000000
_cell_volume 2362.468130
_symmetry_space_group_name_H-M "P M M A"
_symmetry_group_IT_number 51
_symmetry_cell_setting 'orthorhombic'
loop_
_space_group_symop_operation_xyz
x,y,z
1/2-x,-y,z
1/2+x,-y,-z
-x,y,-z
-x,-y,-z
1/2+x,y,-z
1/2-x,y,z
x,-y,z
loop_
_atom_site_type_symbol
_atom_site_label
_atom_site_fract_x
_atom_site_fract_y
_atom_site_fract_z
Si Si1 0.607371 0.800020 0.500638
Si Si2 0.556578 0.699762 0.249294
Si Si3 0.698546 0.208990 0.378618
Si Si4 0.602544 0.710118 0.985299
Si Si5 0.698924 0.293095 0.081455
Si Si6 0.952172 0.797544 0.732867
O O1 0.578369 0.793472 0.370374
O O2 0.657285 0.724360 0.466577
O O3 0.577327 0.723578 0.614932
O O4 0.615169 0.000000 0.536522
O O5 0.570805 0.500000 0.261029
O O6 0.501730 0.711934 0.252016
O O7 0.576029 0.763945 0.114272
O O8 0.750000 0.268750 0.412061
O O9 0.689978 0.256729 0.230978
O O10 0.698171 0.000000 0.384154
O O11 0.601363 0.500000 0.979854
O O12 0.577155 0.778065 0.861082
O O13 0.655394 0.768522 0.000639
O O14 0.750000 0.224458 0.050724
O O15 0.700375 0.500000 0.067109
O O16 0.961417 0.000000 0.708123
#
# Coordination Sequence:
#
# PCOD9405928 Si02
#       6
#     8   8   8   8   8   8
#     4  10  21  37  55  79 111 142 177 220 266 319
#     4  11  22  37  58  82 105 138 184 228 270 318
#     4   9  17  31  54  81 106 135 173 217 263 311
#     4  10  21  37  55  80 110 140 177 222 268 318
#     4   9  17  32  55  81 108 137 172 218 268 316
#     4  11  24  38  53  77 110 148 183 220 269 321
#
# _framework density 20.317734999999999
#
# number of rings (size 3 to 8) (size 9 to 14) (size 15 to 20)
#    0.000    2.000    1.667    2.000    0.000    7.333 
#    0.000    0.833    0.000    1.000    0.000    0.000 
#    0.000    0.000    0.000    0.000    0.000    0.000 
#
# Total GULP energy -268025.220895 kJ/mol
# GULP energy per Si atom -5583.858769 kJ/mol
# Density = 2.027149 g / cm^3
# Si number density = 20.317735 Si / 1000 Ang^3
#
#
#
# Elastic Constant Matrix: (Units=GPa)
#
#
# Indices 1 2 3 4 5 6 
#
# 1 135.6689 -7.6368 37.9716 0.0000 0.0000 0.0000
# 2 -7.6368 32.7667 -9.6373 0.0000 0.0000 0.0000
# 3 37.9716 -9.6373 84.0891 0.0000 0.0000 0.0000
# 4 0.0000 0.0000 0.0000 12.4989 0.0000 0.0000
# 5 0.0000 0.0000 0.0000 0.0000 -22.3753 0.0000
# 6 0.0000 0.0000 0.0000 0.0000 0.0000 24.8722
#
#
#
# Elastic Compliance Matrix: (Units=1/GPa)
#
#
# Indices 1 2 3 4 5 6 
#
# 1 0.008462 0.000878 -0.003720 0.000000 0.000000 0.000000
# 2 0.000878 0.031674 0.003234 0.000000 0.000000 0.000000
# 3 -0.003720 0.003234 0.013943 0.000000 0.000000 0.000000
# 4 0.000000 0.000000 0.000000 0.080007 0.000000 0.000000
# 5 0.000000 0.000000 0.000000 0.000000 -0.044692 0.000000
# 6 0.000000 0.000000 0.000000 0.000000 0.000000 0.040206
#
#
# Mechanical properties :
#
#
# Convention : Reuss Voigt Hill
#
# Bulk Modulus (GPa) = 18.22777 32.65776 25.44277
# Shear Modulus (GPa) = 33.98964 18.45430 26.22197
#
# Velocity S-wave (km/s) = 4.09455 3.01705 3.59638
# Velocity P-wave (km/s) = 5.59863 5.31462 5.45847
#
# Compressibility (1/GPa) = 0.05486134
#
# Stress axis : x y z
#
# Youngs Moduli (GPa) = 118.18146 31.57117 71.72199
#
# Poissons Ratio (x) = -0.02772 0.26683
# Poissons Ratio (y) = -0.10375 -0.23193
# Poissons Ratio (z) = 0.43967 -0.10209
#
# Static dielectric constant tensor:
#      x y z
#    x 1.744880 0.000000 0.000000 
#    y 0.000000 1.752920 0.000000 
#    z 0.000000 0.000000 1.673820 
# 
# From -- ./inp_files/12774.got.cif
#   From: 2010.05.17/outbox.cif.g08.bks.cpg/sg51_7_cif.got.tgz:12774.got - 2010.06.03 11:52:47.
