data_PCOD9405545
_publ_section_title
;
Structure prediction by ZEFSAII (Michael W. Deem and Ramdas Pophale) SiO2 
 PCOD9405545
Probable space group: P M M A
;
_chemical_formula_sum "Si O2"
_cell_formula_units_Z 40
_cell_length_a 8.801138
_cell_length_b 10.114824
_cell_length_c 24.907045
_cell_angle_alpha 90.000000
_cell_angle_beta 90.000000
_cell_angle_gamma 90.000000
_cell_volume 2217.274010
_symmetry_space_group_name_H-M "P M M A"
_symmetry_group_IT_number 51
_symmetry_cell_setting 'orthorhombic'
loop_
_space_group_symop_operation_xyz
x,y,z
1/2-x,-y,z
1/2+x,-y,-z
-x,y,-z
-x,-y,-z
1/2+x,y,-z
1/2-x,y,z
x,-y,z
loop_
_atom_site_type_symbol
_atom_site_label
_atom_site_fract_x
_atom_site_fract_y
_atom_site_fract_z
Si Si1 0.923749 0.339492 0.444823
Si Si2 0.068272 0.653759 0.330926
Si Si3 0.932302 0.000000 0.940784
Si Si4 0.433060 0.751622 0.878598
Si Si5 0.932898 0.845122 0.241061
Si Si6 0.932482 0.500000 0.939474
O O1 0.750000 0.294399 0.441114
O O2 0.922359 0.500000 0.447506
O O3 0.000000 0.292225 0.500000
O O4 0.013170 0.307375 0.390560
O O5 0.250000 0.655744 0.328964
O O6 0.018902 0.500000 0.321074
O O7 0.002205 0.755751 0.287925
O O8 0.998264 0.125663 0.910295
O O9 0.750000 0.000000 0.941668
O O10 0.000000 0.000000 0.000000
O O11 0.250000 0.746629 0.883923
O O12 0.469480 0.776998 0.816058
O O13 0.507039 0.624592 0.905886
O O14 0.750000 0.845220 0.246180
O O15 0.981898 0.000000 0.241597
O O16 0.250000 0.500000 0.057146
O O17 0.000000 0.500000 0.000000
#
# Coordination Sequence:
#
# PCOD9405545 Si02
#       6
#     8   8   4   8   8   4
#     4   9  16  28  49  78 113 152 192 238 289 342
#     4  10  21  35  54  85 120 154 194 241 288 341
#     4  12  24  40  64  92 120 154 193 242 291 346
#     4  11  23  43  65  89 119 156 197 242 293 352
#     4  10  22  41  62  84 113 153 196 239 289 346
#     4  12  26  44  64  92 124 156 193 238 295 356
#
# _framework density 18.040171999999998
#
# number of rings (size 3 to 8) (size 9 to 14) (size 15 to 20)
#    0.000    1.600    1.000    4.200    1.400    5.600 
#    0.000    0.000    0.000    0.600    0.000    0.000 
#    0.000    0.000    0.000    0.000    0.000    0.000 
#
# Total GULP energy -223362.569786 kJ/mol
# GULP energy per Si atom -5584.064245 kJ/mol
# Density = 1.799911 g / cm^3
# Si number density = 18.040172 Si / 1000 Ang^3
#
#
#
# Elastic Constant Matrix: (Units=GPa)
#
#
# Indices 1 2 3 4 5 6 
#
# 1 88.0661 53.9201 76.1588 0.0000 0.0000 0.0000
# 2 53.9201 139.7879 94.7630 0.0000 0.0000 0.0000
# 3 76.1588 94.7630 195.4628 0.0000 0.0000 0.0000
# 4 0.0000 0.0000 0.0000 28.0148 0.0000 0.0000
# 5 0.0000 0.0000 0.0000 0.0000 38.6171 0.0000
# 6 0.0000 0.0000 0.0000 0.0000 0.0000 31.8465
#
#
#
# Elastic Compliance Matrix: (Units=1/GPa)
#
#
# Indices 1 2 3 4 5 6 
#
# 1 0.018079 -0.003274 -0.005457 0.000000 0.000000 0.000000
# 2 -0.003274 0.011249 -0.004178 0.000000 0.000000 0.000000
# 3 -0.005457 -0.004178 0.009268 0.000000 0.000000 0.000000
# 4 0.000000 0.000000 0.000000 0.035695 0.000000 0.000000
# 5 0.000000 0.000000 0.000000 0.000000 0.025895 0.000000
# 6 0.000000 0.000000 0.000000 0.000000 0.000000 0.031401
#
#
# Mechanical properties :
#
#
# Convention : Reuss Voigt Hill
#
# Bulk Modulus (GPa) = 78.26196 97.00008 87.63102
# Shear Modulus (GPa) = 30.92848 32.92735 31.92791
#
# Velocity S-wave (km/s) = 4.14505 4.27690 4.21149
# Velocity P-wave (km/s) = 8.14769 8.84731 8.50469
#
# Compressibility (1/GPa) = 0.01277760
#
# Stress axis : x y z
#
# Youngs Moduli (GPa) = 55.31352 88.89776 107.90296
#
# Poissons Ratio (x) = 0.29109 0.58878
# Poissons Ratio (y) = 0.18112 0.45080
# Poissons Ratio (z) = 0.30182 0.37140
#
# Static dielectric constant tensor:
#      x y z
#    x 1.606180 0.000000 0.000000 
#    y 0.000000 1.578110 0.000000 
#    z 0.000000 0.000000 1.591380 
# 
# From -- ./inp_files/36091.got.cif
#   From: 2010.05.17/outbox.cif.g08.bks.cpg/sg51_19_cif.got.tgz:36091.got - 2010.06.03 11:52:47.
