data_PCOD9405422
_publ_section_title
;
Structure prediction by ZEFSAII (Michael W. Deem and Ramdas Pophale) SiO2 
 PCOD9405422
Probable space group: P M M A
;
_chemical_formula_sum "Si O2"
_cell_formula_units_Z 48
_cell_length_a 7.486704
_cell_length_b 9.866473
_cell_length_c 31.340412
_cell_angle_alpha 90.000000
_cell_angle_beta 90.000000
_cell_angle_gamma 90.000000
_cell_volume 2315.033586
_symmetry_space_group_name_H-M "P M M A"
_symmetry_group_IT_number 51
_symmetry_cell_setting 'orthorhombic'
loop_
_space_group_symop_operation_xyz
x,y,z
1/2-x,-y,z
1/2+x,-y,-z
-x,y,-z
-x,-y,-z
1/2+x,y,-z
1/2-x,y,z
x,-y,z
loop_
_atom_site_type_symbol
_atom_site_label
_atom_site_fract_x
_atom_site_fract_y
_atom_site_fract_z
Si Si1 0.461858 0.347552 0.622823
Si Si2 0.465071 0.847364 0.299287
Si Si3 0.536237 0.153793 0.951180
Si Si4 0.535923 0.846254 0.451283
Si Si5 0.968799 0.344331 0.874753
Si Si6 0.467648 0.154302 0.202209
O O1 0.250000 0.359178 0.615484
O O2 0.534849 0.500000 0.625247
O O3 0.483687 0.263660 0.666278
O O4 0.535154 0.257595 0.583830
O O5 0.250000 0.851190 0.298298
O O6 0.525018 0.818013 0.250845
O O7 0.526634 0.000000 0.311010
O O8 0.750000 0.147136 0.946191
O O9 0.471291 0.259863 0.916158
O O10 0.467158 0.000000 0.944858
O O11 0.500000 0.193730 0.000000
O O12 0.500000 0.804862 0.500000
O O13 0.750000 0.852854 0.446334
O O14 0.466775 0.000000 0.445337
O O15 0.750000 0.345147 0.874828
O O16 0.026723 0.500000 0.875164
O O17 0.026086 0.262701 0.832611
O O18 0.250000 0.155610 0.202117
O O19 0.520674 0.000000 0.191046
#
# Coordination Sequence:
#
# PCOD9405422 Si02
#       6
#     8   8   8   8   8   8
#     4  10  21  35  50  71 101 135 166 195 233 285
#     4   9  18  32  51  75  99 124 159 202 243 282
#     4   9  17  29  45  64  86 114 148 185 224 266
#     4   9  18  33  52  72  94 123 160 200 239 279
#     4   9  16  25  40  64  91 118 148 182 223 272
#     4   8  14  26  44  66  92 119 148 187 232 273
#
# _framework density 20.73404
#
# number of rings (size 3 to 8) (size 9 to 14) (size 15 to 20)
#    0.000    3.000    0.000    2.000    0.000    5.333 
#    0.000    3.333    0.000    1.000    0.000    2.333 
#    0.000    0.000    0.000    0.000    0.000    0.000 
#
# Total GULP energy -267900.384661 kJ/mol
# GULP energy per Si atom -5581.258014 kJ/mol
# Density = 2.068685 g / cm^3
# Si number density = 20.734040 Si / 1000 Ang^3
#
#
#
# Elastic Constant Matrix: (Units=GPa)
#
#
# Indices 1 2 3 4 5 6 
#
# 1 56.9308 6.4079 -0.8237 0.0000 0.0000 0.0000
# 2 6.4079 196.6833 159.2490 0.0000 0.0000 0.0000
# 3 -0.8237 159.2490 177.8150 0.0000 0.0000 0.0000
# 4 0.0000 0.0000 0.0000 -154.2069 0.0000 0.0000
# 5 0.0000 0.0000 0.0000 0.0000 17.9055 0.0000
# 6 0.0000 0.0000 0.0000 0.0000 0.0000 4.6881
#
#
#
# Elastic Compliance Matrix: (Units=1/GPa)
#
#
# Indices 1 2 3 4 5 6 
#
# 1 0.017863 -0.002361 0.002197 0.000000 0.000000 0.000000
# 2 -0.002361 0.018809 -0.016856 0.000000 0.000000 0.000000
# 3 0.002197 -0.016856 0.020730 0.000000 0.000000 0.000000
# 4 0.000000 0.000000 0.000000 -0.006485 0.000000 0.000000
# 5 0.000000 0.000000 0.000000 0.000000 0.055849 0.000000
# 6 0.000000 0.000000 0.000000 0.000000 0.000000 0.213304
#
#
# Mechanical properties :
#
#
# Convention : Reuss Voigt Hill
#
# Bulk Modulus (GPa) = 42.80427 84.56616 63.68522
# Shear Modulus (GPa) = 13.81604 -8.54958 2.63323
#
# Velocity S-wave (km/s) = 2.58417 -2.03283 1.12817
# Velocity P-wave (km/s) = 5.43996 5.94683 5.69903
#
# Compressibility (1/GPa) = 0.02336215
#
# Stress axis : x y z
#
# Youngs Moduli (GPa) = 55.98256 53.16482 48.23825
#
# Poissons Ratio (x) = 0.12552 -0.10599
# Poissons Ratio (y) = 0.13217 0.81313
# Poissons Ratio (z) = -0.12301 0.89617
#
# Static dielectric constant tensor:
#      x y z
#    x 1.813580 0.000000 0.000000 
#    y 0.000000 1.722100 0.000000 
#    z 0.000000 0.000000 1.707970 
# 
# From -- ./inp_files/36501.got.cif
#   From: 2010.05.17/outbox.cif.g08.bks.cpg/sg51_19_cif.got.tgz:36501.got - 2010.06.03 11:52:47.
