data_PCOD9405766
_publ_section_title
;
Structure prediction by ZEFSAII (Michael W. Deem and Ramdas Pophale) SiO2 
 PCOD9405766
Probable space group: P M M A
;
_chemical_formula_sum "Si O2"
_cell_formula_units_Z 64
_cell_length_a 14.027016
_cell_length_b 9.386276
_cell_length_c 24.574661
_cell_angle_alpha 90.000000
_cell_angle_beta 90.000000
_cell_angle_gamma 90.000000
_cell_volume 3235.535344
_symmetry_space_group_name_H-M "P M M A"
_symmetry_group_IT_number 51
_symmetry_cell_setting 'orthorhombic'
loop_
_space_group_symop_operation_xyz
x,y,z
1/2-x,-y,z
1/2+x,-y,-z
-x,y,-z
-x,-y,-z
1/2+x,y,-z
1/2-x,y,z
x,-y,z
loop_
_atom_site_type_symbol
_atom_site_label
_atom_site_fract_x
_atom_site_fract_y
_atom_site_fract_z
Si Si1 0.547166 0.668508 0.258298
Si Si2 0.135178 0.163059 0.964092
Si Si3 0.866653 0.336374 0.465478
Si Si4 0.633817 0.837344 0.571877
Si Si5 0.455555 0.669342 0.864777
Si Si6 0.134952 0.163640 0.641645
Si Si7 0.359844 0.667771 0.072463
Si Si8 0.860033 0.333835 0.679816
O O1 0.569984 0.500000 0.263637
O O2 0.567945 0.713447 0.196637
O O3 0.601056 0.756570 0.304298
O O4 0.434841 0.684154 0.271764
O O5 0.250000 0.163395 0.963180
O O6 0.099381 0.246910 0.911481
O O7 0.101912 0.000000 0.963486
O O8 0.108490 0.241708 0.020176
O O9 0.750000 0.337761 0.465508
O O10 0.898283 0.500000 0.462681
O O11 0.896286 0.258846 0.521000
O O12 0.896534 0.247890 0.412407
O O13 0.750000 0.840524 0.570149
O O14 0.610687 0.765197 0.629418
O O15 0.600393 0.000000 0.567221
O O16 0.436271 0.500000 0.869527
O O17 0.567300 0.690667 0.878431
O O18 0.250000 0.163125 0.640972
O O19 0.102385 0.000000 0.640633
O O20 0.250000 0.701787 0.085603
O O21 0.364388 0.500000 0.057834
O O22 0.750000 0.304390 0.694421
O O23 0.864995 0.500000 0.662216
#
# Coordination Sequence:
#
# PCOD9405766 Si02
#       8
#     8   8   8   8   8   8   8   8
#     4  10  22  38  55  78 107 140 181 224 263 309
#     4  10  21  36  55  81 112 144 178 217 263 314
#     4   9  16  28  50  78 105 134 170 214 267 325
#     4   9  16  27  47  76 107 137 171 213 263 319
#     4  10  21  36  55  80 109 142 180 221 264 310
#     4  10  21  37  56  77 104 139 177 220 270 320
#     4   9  18  34  57  84 113 143 175 214 262 315
#     4   9  18  34  55  77 104 139 176 216 264 316
#
# _framework density 19.780342999999998
#
# number of rings (size 3 to 8) (size 9 to 14) (size 15 to 20)
#    0.000    2.500    0.000    1.875    0.000    8.500 
#    0.000    5.625    0.000    3.750    0.000    5.250 
#    0.000    0.000    0.000    0.000    0.000    0.000 
#
# Total GULP energy -357536.175446 kJ/mol
# GULP energy per Si atom -5586.502741 kJ/mol
# Density = 1.973532 g / cm^3
# Si number density = 19.780343 Si / 1000 Ang^3
#
#
#
# Elastic Constant Matrix: (Units=GPa)
#
#
# Indices 1 2 3 4 5 6 
#
# 1 33.1005 5.3356 -3.6345 0.0000 0.0000 0.0000
# 2 5.3356 68.6207 33.9500 0.0000 0.0000 0.0000
# 3 -3.6345 33.9500 88.3882 0.0000 0.0000 0.0000
# 4 0.0000 0.0000 0.0000 -13.8353 0.0000 0.0000
# 5 0.0000 0.0000 0.0000 0.0000 21.9823 0.0000
# 6 0.0000 0.0000 0.0000 0.0000 0.0000 18.8383
#
#
#
# Elastic Compliance Matrix: (Units=1/GPa)
#
#
# Indices 1 2 3 4 5 6 
#
# 1 0.031118 -0.003769 0.002727 0.000000 0.000000 0.000000
# 2 -0.003769 0.018448 -0.007241 0.000000 0.000000 0.000000
# 3 0.002727 -0.007241 0.014207 0.000000 0.000000 0.000000
# 4 0.000000 0.000000 0.000000 -0.072279 0.000000 0.000000
# 5 0.000000 0.000000 0.000000 0.000000 0.045491 0.000000
# 6 0.000000 0.000000 0.000000 0.000000 0.000000 0.053083
#
#
# Mechanical properties :
#
#
# Convention : Reuss Voigt Hill
#
# Bulk Modulus (GPa) = 21.18275 29.04572 25.11424
# Shear Modulus (GPa) = 40.85953 15.69428 28.27691
#
# Velocity S-wave (km/s) = 4.54989 2.81984 3.78504
# Velocity P-wave (km/s) = 6.19146 5.03170 5.64146
#
# Compressibility (1/GPa) = 0.04720821
#
# Stress axis : x y z
#
# Youngs Moduli (GPa) = 32.13572 54.20520 70.38701
#
# Poissons Ratio (x) = 0.20429 -0.19196
# Poissons Ratio (y) = 0.12111 0.50968
# Poissons Ratio (z) = -0.08764 0.39250
#
# Static dielectric constant tensor:
#      x y z
#    x 1.746790 0.000000 0.000000 
#    y 0.000000 1.671450 0.000000 
#    z 0.000000 0.000000 1.632320 
# 
# From -- ./inp_files/35651.got.cif
#   From: 2010.05.17/outbox.cif.g08.bks.cpg/sg51_18_cif.got.tgz:35651.got - 2010.06.03 11:52:47.
