data_PCOD9405648
_publ_section_title
;
Structure prediction by ZEFSAII (Michael W. Deem and Ramdas Pophale) SiO2 
 PCOD9405648
Probable space group: P M M A
;
_chemical_formula_sum "Si O2"
_cell_formula_units_Z 56
_cell_length_a 14.901535
_cell_length_b 14.758464
_cell_length_c 12.711046
_cell_angle_alpha 90.000000
_cell_angle_beta 90.000000
_cell_angle_gamma 90.000000
_cell_volume 2795.461130
_symmetry_space_group_name_H-M "P M M A"
_symmetry_group_IT_number 51
_symmetry_cell_setting 'orthorhombic'
loop_
_space_group_symop_operation_xyz
x,y,z
1/2-x,-y,z
1/2+x,-y,-z
-x,y,-z
-x,-y,-z
1/2+x,y,-z
1/2-x,y,z
x,-y,z
loop_
_atom_site_type_symbol
_atom_site_label
_atom_site_fract_x
_atom_site_fract_y
_atom_site_fract_z
Si Si1 0.858325 0.607658 0.233820
Si Si2 0.851886 0.654459 0.781815
Si Si3 0.501184 0.296576 0.376778
Si Si4 0.008260 0.101353 0.718730
Si Si5 0.647152 0.108946 0.098726
Si Si6 0.649322 0.143203 0.866587
Si Si7 0.648228 0.606763 0.005880
O O1 0.750000 0.616997 0.237888
O O2 0.878574 0.500000 0.246267
O O3 0.910014 0.664393 0.321078
O O4 0.888230 0.642140 0.116753
O O5 0.750000 0.618923 0.762500
O O6 0.844305 0.758880 0.814669
O O7 0.918664 0.653924 0.683823
O O8 0.892723 0.613955 0.889948
O O9 0.500000 0.314902 0.500000
O O10 0.496215 0.187608 0.356952
O O11 0.921134 0.094133 0.793160
O O12 0.087080 0.127296 0.800426
O O13 0.025554 0.000000 0.673680
O O14 0.750000 0.136281 0.117587
O O15 0.643928 0.000000 0.082803
O O16 0.617246 0.150206 0.987303
O O17 0.750000 0.104169 0.870667
O O18 0.750000 0.644296 0.993842
O O19 0.655645 0.500000 0.025972
#
# Coordination Sequence:
#
# PCOD9405648 Si02
#       7
#     8   8   8   8   8   8   8
#     4   9  20  40  65  92 120 149 183 228 286 350
#     4   9  19  35  54  80 115 148 184 233 285 341
#     4  11  25  40  57  82 111 154 206 248 283 331
#     4  10  21  36  53  75 107 148 196 245 289 333
#     4   9  17  29  47  74 106 137 172 220 283 351
#     4   9  17  29  49  77 109 145 182 224 284 351
#     4   8  15  31  57  88 117 143 173 214 277 353
#
# _framework density 20.032474000000001
#
# number of rings (size 3 to 8) (size 9 to 14) (size 15 to 20)
#    0.000    2.714    0.000    1.714    2.000    4.857 
#    0.000    1.429    0.000    1.714    0.000    4.000 
#    0.000    0.000    0.000    0.000    0.000    0.000 
#
# Total GULP energy -312111.543508 kJ/mol
# GULP energy per Si atom -5573.420420 kJ/mol
# Density = 1.998688 g / cm^3
# Si number density = 20.032474 Si / 1000 Ang^3
#
#
#
# Elastic Constant Matrix: (Units=GPa)
#
#
# Indices 1 2 3 4 5 6 
#
# 1 68.6309 14.4347 45.4331 0.0000 0.0000 0.0000
# 2 14.4347 50.1044 26.5684 0.0000 0.0000 0.0000
# 3 45.4331 26.5684 157.5323 0.0000 0.0000 0.0000
# 4 0.0000 0.0000 0.0000 21.2034 0.0000 0.0000
# 5 0.0000 0.0000 0.0000 0.0000 11.4060 0.0000
# 6 0.0000 0.0000 0.0000 0.0000 0.0000 16.0702
#
#
#
# Elastic Compliance Matrix: (Units=1/GPa)
#
#
# Indices 1 2 3 4 5 6 
#
# 1 0.018341 -0.002722 -0.004830 0.000000 0.000000 0.000000
# 2 -0.002722 0.022323 -0.002980 0.000000 0.000000 0.000000
# 3 -0.004830 -0.002980 0.008244 0.000000 0.000000 0.000000
# 4 0.000000 0.000000 0.000000 0.047162 0.000000 0.000000
# 5 0.000000 0.000000 0.000000 0.000000 0.087673 0.000000
# 6 0.000000 0.000000 0.000000 0.000000 0.000000 0.062227
#
#
# Mechanical properties :
#
#
# Convention : Reuss Voigt Hill
#
# Bulk Modulus (GPa) = 35.91687 49.90442 42.91065
# Shear Modulus (GPa) = 18.09525 22.39134 20.24329
#
# Velocity S-wave (km/s) = 3.00875 3.34691 3.18232
# Velocity P-wave (km/s) = 5.48072 6.31677 5.91354
#
# Compressibility (1/GPa) = 0.02784207
#
# Stress axis : x y z
#
# Youngs Moduli (GPa) = 54.52249 44.79757 121.30675
#
# Poissons Ratio (x) = 0.12196 0.58597
# Poissons Ratio (y) = 0.14844 0.36145
# Poissons Ratio (z) = 0.26337 0.13348
#
# Static dielectric constant tensor:
#      x y z
#    x 1.749030 0.000000 0.000000 
#    y 0.000000 1.774510 0.000000 
#    z 0.000000 0.000000 1.683680 
# 
# From -- ./inp_files/16655.got.cif
#   From: 2010.05.17/outbox.cif.g08.bks.cpg/sg51_9_cif.got.tgz:16655.got - 2010.06.03 11:52:47.
