data_PCOD9405707
_publ_section_title
;
Structure prediction by ZEFSAII (Michael W. Deem and Ramdas Pophale) SiO2 
 PCOD9405707
Probable space group: P M M A
;
_chemical_formula_sum "Si O2"
_cell_formula_units_Z 64
_cell_length_a 9.477821
_cell_length_b 16.751217
_cell_length_c 20.972888
_cell_angle_alpha 90.000000
_cell_angle_beta 90.000000
_cell_angle_gamma 90.000000
_cell_volume 3329.761324
_symmetry_space_group_name_H-M "P M M A"
_symmetry_group_IT_number 51
_symmetry_cell_setting 'orthorhombic'
loop_
_space_group_symop_operation_xyz
x,y,z
1/2-x,-y,z
1/2+x,-y,-z
-x,y,-z
-x,-y,-z
1/2+x,y,-z
1/2-x,y,z
x,-y,z
loop_
_atom_site_type_symbol
_atom_site_label
_atom_site_fract_x
_atom_site_fract_y
_atom_site_fract_z
Si Si1 0.913102 0.875140 0.314636
Si Si2 0.085541 0.907943 0.830069
Si Si3 0.412538 0.822450 0.062168
Si Si4 0.087754 0.317534 0.438069
Si Si5 0.586713 0.407751 0.187531
Si Si6 0.586390 0.682576 0.314748
Si Si7 0.087409 0.629458 0.062022
Si Si8 0.412357 0.877399 0.437888
O O1 0.750000 0.898704 0.326125
O O2 0.954976 0.903607 0.244367
O O3 0.917602 0.778662 0.312341
O O4 0.010872 0.902063 0.372682
O O5 0.250000 0.881746 0.833992
O O6 0.988745 0.854907 0.874997
O O7 0.077574 0.000000 0.850765
O O8 0.250000 0.848833 0.058686
O O9 0.413822 0.726173 0.062741
O O10 0.500000 0.848962 0.000000
O O11 0.250000 0.343130 0.440985
O O12 0.087095 0.220101 0.438094
O O13 0.000000 0.343026 0.500000
O O14 0.010789 0.343516 0.373322
O O15 0.750000 0.387107 0.171198
O O16 0.583804 0.500000 0.207876
O O17 0.542221 0.353204 0.246894
O O18 0.489768 0.397596 0.126090
O O19 0.750000 0.659180 0.325645
O O20 0.250000 0.603304 0.059030
O O21 0.000000 0.603045 0.000000
O O22 0.500000 0.902669 0.500000
O O23 0.250000 0.902786 0.440802
#
# Coordination Sequence:
#
# PCOD9405707 Si02
#       8
#     8   8   8   8   8   8   8   8
#     4   9  17  30  49  72  99 132 168 207 252 301
#     4  10  21  36  54  77 106 140 175 211 254 305
#     4  10  21  37  58  82 106 134 170 212 257 305
#     4   9  16  26  43  69  99 128 161 205 255 304
#     4  10  21  36  54  77 106 140 175 211 254 305
#     4   9  17  30  49  72  99 132 168 207 252 301
#     4  10  21  37  58  82 106 134 170 212 257 305
#     4   9  16  26  43  69  99 128 161 205 255 304
#
# _framework density 19.220597000000001
#
# number of rings (size 3 to 8) (size 9 to 14) (size 15 to 20)
#    0.000    2.500    0.000    2.250    0.000    7.500 
#    0.000    2.500    0.000    0.750    0.000    0.000 
#    0.000    0.000    0.000    0.000    0.000    0.000 
#
# Total GULP energy -357351.914630 kJ/mol
# GULP energy per Si atom -5583.623666 kJ/mol
# Density = 1.917685 g / cm^3
# Si number density = 19.220597 Si / 1000 Ang^3
#
#
#
# Elastic Constant Matrix: (Units=GPa)
#
#
# Indices 1 2 3 4 5 6 
#
# 1 125.0762 32.6250 92.1512 0.0000 0.0000 0.0000
# 2 32.6250 23.1458 36.7654 0.0000 0.0000 0.0000
# 3 92.1512 36.7654 142.5350 0.0000 0.0000 0.0000
# 4 0.0000 0.0000 0.0000 201.2783 0.0000 0.0000
# 5 0.0000 0.0000 0.0000 0.0000 42.0517 0.0000
# 6 0.0000 0.0000 0.0000 0.0000 0.0000 28.1233
#
#
#
# Elastic Compliance Matrix: (Units=1/GPa)
#
#
# Indices 1 2 3 4 5 6 
#
# 1 0.016734 -0.010846 -0.008021 0.000000 0.000000 0.000000
# 2 -0.010846 0.080223 -0.013680 0.000000 0.000000 0.000000
# 3 -0.008021 -0.013680 0.015730 0.000000 0.000000 0.000000
# 4 0.000000 0.000000 0.000000 0.004968 0.000000 0.000000
# 5 0.000000 0.000000 0.000000 0.000000 0.023780 0.000000
# 6 0.000000 0.000000 0.000000 0.000000 0.000000 0.035558
#
#
# Mechanical properties :
#
#
# Convention : Reuss Voigt Hill
#
# Bulk Modulus (GPa) = 21.01211 68.20447 44.60829
# Shear Modulus (GPa) = 19.38345 62.90502 41.14424
#
# Velocity S-wave (km/s) = 3.17909 5.72704 4.63172
# Velocity P-wave (km/s) = 4.94280 8.90472 7.20158
#
# Compressibility (1/GPa) = 0.04759161
#
# Stress axis : x y z
#
# Youngs Moduli (GPa) = 59.75907 12.46531 63.57183
#
# Poissons Ratio (x) = 0.13520 0.50991
# Poissons Ratio (y) = 0.64816 0.86968
# Poissons Ratio (z) = 0.47933 0.17053
#
# Static dielectric constant tensor:
#      x y z
#    x 1.650770 0.000000 0.000000 
#    y 0.000000 1.661650 0.000000 
#    z 0.000000 0.000000 1.632910 
# 
# From -- ./inp_files/28372.got.cif
#   From: 2010.05.17/outbox.cif.g08.bks.cpg/sg51_15_cif.got.tgz:28372.got - 2010.06.03 11:52:47.
