data_PCOD9405084
_publ_section_title
;
Structure prediction by ZEFSAII (Michael W. Deem and Ramdas Pophale) SiO2 
 PCOD9405084
Probable space group: P M M A
;
_chemical_formula_sum "Si O2"
_cell_formula_units_Z 56
_cell_length_a 21.620744
_cell_length_b 18.470051
_cell_length_c 7.620982
_cell_angle_alpha 90.000000
_cell_angle_beta 90.000000
_cell_angle_gamma 90.000000
_cell_volume 3043.334330
_symmetry_space_group_name_H-M "P M M A"
_symmetry_group_IT_number 51
_symmetry_cell_setting 'orthorhombic'
loop_
_space_group_symop_operation_xyz
x,y,z
1/2-x,-y,z
1/2+x,-y,-z
-x,y,-z
-x,-y,-z
1/2+x,y,-z
1/2-x,y,z
x,-y,z
loop_
_atom_site_type_symbol
_atom_site_label
_atom_site_fract_x
_atom_site_fract_y
_atom_site_fract_z
Si Si1 0.508707 0.722869 0.797754
Si Si2 0.626312 0.237895 0.241998
Si Si3 0.943745 0.582114 0.640054
Si Si4 0.819066 0.666062 0.543716
Si Si5 0.177083 0.076930 0.250711
Si Si6 0.136289 0.231224 0.162858
Si Si7 0.676586 0.082198 0.327576
O O1 0.444430 0.741862 0.707324
O O2 0.530916 0.640092 0.779597
O O3 0.569313 0.766145 0.742551
O O4 0.500000 0.741752 0.000000
O O5 0.668972 0.283750 0.373330
O O6 0.640524 0.152430 0.258825
O O7 0.635184 0.259086 0.037325
O O8 0.935648 0.500000 0.703271
O O9 0.877976 0.612068 0.566146
O O10 0.000000 0.582104 0.500000
O O11 0.750000 0.633399 0.534105
O O12 0.821969 0.719386 0.712409
O O13 0.250000 0.074106 0.218160
O O14 0.154025 0.148079 0.158463
O O15 0.169606 0.083901 0.460769
O O16 0.149244 0.000000 0.194646
O O17 0.750000 0.090808 0.288309
O O18 0.658902 0.000000 0.270499
#
# Coordination Sequence:
#
# PCOD9405084 Si02
#       7
#     8   8   8   8   8   8   8
#     4   9  20  37  56  83 110 143 187 235 272 326
#     4  11  20  35  56  80 110 146 188 232 280 328
#     4  10  20  37  61  85 110 146 185 219 266 333
#     4  11  22  36  57  85 116 146 179 229 281 325
#     4   9  17  31  49  71 104 142 182 230 279 330
#     4  10  21  34  54  80 109 145 188 231 279 332
#     4   9  18  32  50  74 106 145 186 228 279 333
#
# _framework density 18.400869
#
# number of rings (size 3 to 8) (size 9 to 14) (size 15 to 20)
#    0.000    2.143    2.857    1.714    0.000    3.429 
#    0.000    2.143    0.000    4.286    0.000    2.000 
#    0.000    0.000    0.000    0.000    0.000    0.000 
#
# Total GULP energy -311879.546913 kJ/mol
# GULP energy per Si atom -5569.277623 kJ/mol
# Density = 1.835899 g / cm^3
# Si number density = 18.400869 Si / 1000 Ang^3
#
#
#
# Elastic Constant Matrix: (Units=GPa)
#
#
# Indices 1 2 3 4 5 6 
#
# 1 109.3703 35.9473 16.9178 0.0000 0.0000 0.0000
# 2 35.9473 95.9633 4.3134 0.0000 0.0000 0.0000
# 3 16.9178 4.3134 47.0596 0.0000 0.0000 0.0000
# 4 0.0000 0.0000 0.0000 15.2345 0.0000 0.0000
# 5 0.0000 0.0000 0.0000 0.0000 -14.7245 0.0000
# 6 0.0000 0.0000 0.0000 0.0000 0.0000 20.9619
#
#
#
# Elastic Compliance Matrix: (Units=1/GPa)
#
#
# Indices 1 2 3 4 5 6 
#
# 1 0.011000 -0.003959 -0.003592 0.000000 0.000000 0.000000
# 2 -0.003959 0.011889 0.000334 0.000000 0.000000 0.000000
# 3 -0.003592 0.000334 0.022510 0.000000 0.000000 0.000000
# 4 0.000000 0.000000 0.000000 0.065641 0.000000 0.000000
# 5 0.000000 0.000000 0.000000 0.000000 -0.067914 0.000000
# 6 0.000000 0.000000 0.000000 0.000000 0.000000 0.047706
#
#
# Mechanical properties :
#
#
# Convention : Reuss Voigt Hill
#
# Bulk Modulus (GPa) = 32.29475 40.75000 36.52237
# Shear Modulus (GPa) = 43.25739 17.30869 30.28304
#
# Velocity S-wave (km/s) = 4.85380 3.07032 4.06117
# Velocity P-wave (km/s) = 7.00009 5.89601 6.47164
#
# Compressibility (1/GPa) = 0.03096478
#
# Stress axis : x y z
#
# Youngs Moduli (GPa) = 90.90842 84.11331 44.42420
#
# Poissons Ratio (x) = 0.33302 0.15955
# Poissons Ratio (y) = 0.35992 -0.01482
# Poissons Ratio (z) = 0.32651 -0.02806
#
# Static dielectric constant tensor:
#      x y z
#    x 1.681650 0.000000 0.000000 
#    y 0.000000 1.625170 0.000000 
#    z 0.000000 0.000000 1.653490 
# 
# From -- ./inp_files/11114.got.cif
#   From: 2010.05.17/outbox.cif.g08.bks.cpg/sg51_6_cif.got.tgz:11114.got - 2010.06.03 11:52:47.
