data_PCOD9405858
_publ_section_title
;
Structure prediction by ZEFSAII (Michael W. Deem and Ramdas Pophale) SiO2 
 PCOD9405858
Probable space group: P M M A
;
_chemical_formula_sum "Si O2"
_cell_formula_units_Z 48
_cell_length_a 23.394574
_cell_length_b 14.373897
_cell_length_c 7.498143
_cell_angle_alpha 90.000000
_cell_angle_beta 90.000000
_cell_angle_gamma 90.000000
_cell_volume 2521.409522
_symmetry_space_group_name_H-M "P M M A"
_symmetry_group_IT_number 51
_symmetry_cell_setting 'orthorhombic'
loop_
_space_group_symop_operation_xyz
x,y,z
1/2-x,-y,z
1/2+x,-y,-z
-x,y,-z
-x,-y,-z
1/2+x,y,-z
1/2-x,y,z
x,-y,z
loop_
_atom_site_type_symbol
_atom_site_label
_atom_site_fract_x
_atom_site_fract_y
_atom_site_fract_z
Si Si1 0.908900 0.609304 0.111253
Si Si2 0.464490 0.391107 0.266552
Si Si3 0.909227 0.228047 0.557614
Si Si4 0.874472 0.894112 0.250215
Si Si5 0.444340 0.107441 0.104053
Si Si6 0.314282 0.724804 0.671808
O O1 0.895733 0.500000 0.130622
O O2 0.858715 0.667941 0.203568
O O3 0.970846 0.625121 0.201330
O O4 0.922243 0.627203 0.902603
O O5 0.459318 0.500000 0.315035
O O6 0.445404 0.320721 0.417804
O O7 0.917371 0.162512 0.383169
O O8 0.923281 0.165895 0.728676
O O9 0.844640 0.265066 0.521844
O O10 0.818153 0.831438 0.260921
O O11 0.868411 0.000000 0.311331
O O12 0.897283 0.893729 0.050546
O O13 0.457284 0.000000 0.156798
O O14 0.500000 0.145648 0.000000
O O15 0.250000 0.689418 0.670703
#
# Coordination Sequence:
#
# PCOD9405858 Si02
#       6
#     8   8   8   8   8   8
#     4   9  19  37  62  90 122 159 199 248 305 368
#     4   9  19  36  60  92 124 155 198 249 307 370
#     4  10  22  35  61  86 121 157 199 249 307 357
#     4   9  21  39  58  84 117 158 206 247 295 362
#     4  10  21  36  57  88 123 155 193 245 311 377
#     4  10  23  39  57  84 117 160 206 251 299 358
#
# _framework density 19.03697
#
# number of rings (size 3 to 8) (size 9 to 14) (size 15 to 20)
#    1.000    1.500    0.000    2.500    4.667    4.000 
#    0.000    7.500    0.000    2.000    0.000    0.000 
#    0.000    0.000    0.000    0.000    0.000    0.000 
#
# Total GULP energy -267320.152875 kJ/mol
# GULP energy per Si atom -5569.169852 kJ/mol
# Density = 1.899364 g / cm^3
# Si number density = 19.036970 Si / 1000 Ang^3
#
#
#
# Elastic Constant Matrix: (Units=GPa)
#
#
# Indices 1 2 3 4 5 6 
#
# 1 114.6158 46.4024 38.5593 0.0000 0.0000 0.0000
# 2 46.4024 104.1890 42.9479 0.0000 0.0000 0.0000
# 3 38.5593 42.9479 94.6576 0.0000 0.0000 0.0000
# 4 0.0000 0.0000 0.0000 -14.4384 0.0000 0.0000
# 5 0.0000 0.0000 0.0000 0.0000 18.0416 0.0000
# 6 0.0000 0.0000 0.0000 0.0000 0.0000 16.5285
#
#
#
# Elastic Compliance Matrix: (Units=1/GPa)
#
#
# Indices 1 2 3 4 5 6 
#
# 1 0.011231 -0.003833 -0.002836 0.000000 0.000000 0.000000
# 2 -0.003833 0.013114 -0.004389 0.000000 0.000000 0.000000
# 3 -0.002836 -0.004389 0.013711 0.000000 0.000000 0.000000
# 4 0.000000 0.000000 0.000000 -0.069260 0.000000 0.000000
# 5 0.000000 0.000000 0.000000 0.000000 0.055428 0.000000
# 6 0.000000 0.000000 0.000000 0.000000 0.000000 0.060502
#
#
# Mechanical properties :
#
#
# Convention : Reuss Voigt Hill
#
# Bulk Modulus (GPa) = 62.73254 63.25350 62.99302
# Shear Modulus (GPa) = 44.58190 16.39653 30.48921
#
# Velocity S-wave (km/s) = 4.84453 2.93797 4.00631
# Velocity P-wave (km/s) = 8.01980 6.69386 7.38664
#
# Compressibility (1/GPa) = 0.01594069
#
# Stress axis : x y z
#
# Youngs Moduli (GPa) = 89.04305 76.25419 72.93497
#
# Poissons Ratio (x) = 0.29226 0.20683
# Poissons Ratio (y) = 0.34128 0.32010
# Poissons Ratio (z) = 0.25251 0.33466
#
# Static dielectric constant tensor:
#      x y z
#    x 1.667790 0.000000 0.000000 
#    y 0.000000 1.713570 0.000000 
#    z 0.000000 0.000000 1.725800 
# 
# From -- ./inp_files/11746.got.cif
#   From: 2010.05.17/outbox.cif.g08.bks.cpg/sg51_6_cif.got.tgz:11746.got - 2010.06.03 11:52:47.
