data_PCOD9405390
_publ_section_title
;
Structure prediction by ZEFSAII (Michael W. Deem and Ramdas Pophale) SiO2 
 PCOD9405390
Probable space group: P M M A
;
_chemical_formula_sum "Si O2"
_cell_formula_units_Z 44
_cell_length_a 7.458974
_cell_length_b 30.577696
_cell_length_c 9.089298
_cell_angle_alpha 90.000000
_cell_angle_beta 90.000000
_cell_angle_gamma 90.000000
_cell_volume 2073.071086
_symmetry_space_group_name_H-M "P M M A"
_symmetry_group_IT_number 51
_symmetry_cell_setting 'orthorhombic'
loop_
_space_group_symop_operation_xyz
x,y,z
1/2-x,-y,z
1/2+x,-y,-z
-x,y,-z
-x,-y,-z
1/2+x,y,-z
1/2-x,y,z
x,-y,z
loop_
_atom_site_type_symbol
_atom_site_label
_atom_site_fract_x
_atom_site_fract_y
_atom_site_fract_z
Si Si1 0.465016 0.094850 0.825603
Si Si2 0.535312 0.729578 0.172567
Si Si3 0.964372 0.000000 0.175466
Si Si4 0.535008 0.641889 0.325635
Si Si5 0.464690 0.182545 0.672570
Si Si6 0.035329 0.453022 0.675807
O O1 0.250000 0.093869 0.806885
O O2 0.535269 0.137554 0.742921
O O3 0.533740 0.047241 0.772171
O O4 0.500000 0.098877 0.000000
O O5 0.750000 0.729167 0.195288
O O6 0.464753 0.684581 0.242875
O O7 0.465444 0.773513 0.250019
O O8 0.500000 0.731086 0.000000
O O9 0.750000 0.000000 0.197695
O O10 0.000000 0.000000 0.000000
O O11 0.500000 0.645967 0.500000
O O12 0.750000 0.640863 0.306859
O O13 0.466388 0.594273 0.272263
O O14 0.500000 0.184033 0.500000
O O15 0.250000 0.182142 0.695278
O O16 0.250000 0.453226 0.696673
O O17 0.966128 0.500000 0.732897
O O18 0.000000 0.452969 0.500000
#
# Coordination Sequence:
#
# PCOD9405390 Si02
#       6
#     8   8   4   8   8   8
#     4   9  17  30  49  72  96 123 156 191 227 268
#     4  10  21  35  50  69  92 119 153 190 228 273
#     4   8  14  26  45  68  94 122 152 188 225 262
#     4   9  17  29  46  69  94 119 150 187 226 269
#     4  10  21  35  50  70  95 122 153 189 230 275
#     4   8  13  22  38  61  88 116 145 179 219 261
#
# _framework density 21.224549
#
# number of rings (size 3 to 8) (size 9 to 14) (size 15 to 20)
#    0.000    2.909    0.000    1.091    0.000    2.182 
#    0.000    0.455    0.000    0.545    0.000    0.000 
#    0.000    0.000    0.000    0.000    0.000    0.000 
#
# Total GULP energy -245292.711570 kJ/mol
# GULP energy per Si atom -5574.834354 kJ/mol
# Density = 2.117624 g / cm^3
# Si number density = 21.224549 Si / 1000 Ang^3
#
#
#
# Elastic Constant Matrix: (Units=GPa)
#
#
# Indices 1 2 3 4 5 6 
#
# 1 69.0709 16.1293 -10.1513 0.0000 0.0000 0.0000
# 2 16.1293 315.1841 102.2885 0.0000 0.0000 0.0000
# 3 -10.1513 102.2885 79.6417 0.0000 0.0000 0.0000
# 4 0.0000 0.0000 0.0000 141.8112 0.0000 0.0000
# 5 0.0000 0.0000 0.0000 0.0000 18.2473 0.0000
# 6 0.0000 0.0000 0.0000 0.0000 0.0000 4.5225
#
#
#
# Elastic Compliance Matrix: (Units=1/GPa)
#
#
# Indices 1 2 3 4 5 6 
#
# 1 0.015836 -0.002513 0.005246 0.000000 0.000000 0.000000
# 2 -0.002513 0.005839 -0.007820 0.000000 0.000000 0.000000
# 3 0.005246 -0.007820 0.023268 0.000000 0.000000 0.000000
# 4 0.000000 0.000000 0.000000 0.007052 0.000000 0.000000
# 5 0.000000 0.000000 0.000000 0.000000 0.054803 0.000000
# 6 0.000000 0.000000 0.000000 0.000000 0.000000 0.221115
#
#
# Mechanical properties :
#
#
# Convention : Reuss Voigt Hill
#
# Bulk Modulus (GPa) = 28.76087 75.60328 52.18208
# Shear Modulus (GPa) = 14.29894 56.62489 35.46191
#
# Velocity S-wave (km/s) = 2.59839 5.17077 4.09197
# Velocity P-wave (km/s) = 4.75209 8.44673 6.85308
#
# Compressibility (1/GPa) = 0.03476946
#
# Stress axis : x y z
#
# Youngs Moduli (GPa) = 63.14865 171.25725 42.97674
#
# Poissons Ratio (x) = 0.43034 -0.22545
# Poissons Ratio (y) = 0.15868 0.33607
# Poissons Ratio (z) = -0.33127 1.33921
#
# Static dielectric constant tensor:
#      x y z
#    x 2.299070 0.000000 0.000000 
#    y 0.000000 1.851000 0.000000 
#    z 0.000000 0.000000 1.680350 
# 
# From -- ./inp_files/5765.got.cif
#   From: 2010.05.17/outbox.cif.g08.bks.cpg/sg51_3_cif.got.tgz:5765.got - 2010.06.03 11:52:47.
