data_PCOD9405572
_publ_section_title
;
Structure prediction by ZEFSAII (Michael W. Deem and Ramdas Pophale) SiO2 
 PCOD9405572
Probable space group: P M M A
;
_chemical_formula_sum "Si O2"
_cell_formula_units_Z 48
_cell_length_a 8.575034
_cell_length_b 32.203853
_cell_length_c 9.218934
_cell_angle_alpha 90.000000
_cell_angle_beta 90.000000
_cell_angle_gamma 90.000000
_cell_volume 2545.800644
_symmetry_space_group_name_H-M "P M M A"
_symmetry_group_IT_number 51
_symmetry_cell_setting 'orthorhombic'
loop_
_space_group_symop_operation_xyz
x,y,z
1/2-x,-y,z
1/2+x,-y,-z
-x,y,-z
-x,-y,-z
1/2+x,y,-z
1/2-x,y,z
x,-y,z
loop_
_atom_site_type_symbol
_atom_site_label
_atom_site_fract_x
_atom_site_fract_y
_atom_site_fract_z
Si Si1 0.561935 0.081046 0.836323
Si Si2 0.063597 0.337891 0.336758
Si Si3 0.437787 0.417323 0.836471
Si Si4 0.436086 0.741191 0.834860
Si Si5 0.437945 0.500000 0.663194
Si Si6 0.437331 0.172041 0.165164
Si Si7 0.561203 0.000000 0.661946
O O1 0.750000 0.080173 0.842713
O O2 0.518813 0.126624 0.773903
O O3 0.508122 0.041663 0.744360
O O4 0.500000 0.077666 0.000000
O O5 0.250000 0.338056 0.338438
O O6 0.000000 0.340285 0.500000
O O7 0.002336 0.377136 0.245853
O O8 0.003055 0.296226 0.259431
O O9 0.250000 0.415538 0.838668
O O10 0.486891 0.458747 0.749777
O O11 0.500000 0.418615 0.000000
O O12 0.250000 0.739348 0.839652
O O13 0.489778 0.785937 0.772704
O O14 0.500000 0.737789 0.000000
O O15 0.250000 0.500000 0.657824
O O16 0.500000 0.500000 0.500000
O O17 0.250000 0.175961 0.164433
O O18 0.500000 0.170728 0.000000
O O19 0.500000 0.000000 0.500000
O O20 0.750000 0.000000 0.661760
#
# Coordination Sequence:
#
# PCOD9405572 Si02
#       7
#     8   8   8   8   4   8   4
#     4   9  18  32  53  78 105 135 176 224 271 321
#     4  12  25  42  61  85 116 152 191 237 286 339
#     4  11  23  41  63  91 121 156 198 242 287 336
#     4  11  21  36  58  85 114 148 186 229 277 332
#     4  10  23  40  62  90 124 160 197 238 287 340
#     4   9  16  29  50  78 108 139 175 224 275 324
#     4  10  21  36  50  72 104 140 177 218 266 322
#
# _framework density 18.854579000000001
#
# number of rings (size 3 to 8) (size 9 to 14) (size 15 to 20)
#    0.000    1.667    0.000    6.500    0.000    4.000 
#    0.000    0.833    0.000    2.000    0.000    0.000 
#    0.000    0.000    0.000    0.000    0.000    0.000 
#
# Total GULP energy -268108.449248 kJ/mol
# GULP energy per Si atom -5585.592693 kJ/mol
# Density = 1.881166 g / cm^3
# Si number density = 18.854579 Si / 1000 Ang^3
#
#
#
# Elastic Constant Matrix: (Units=GPa)
#
#
# Indices 1 2 3 4 5 6 
#
# 1 100.0726 64.7783 42.0474 0.0000 0.0000 0.0000
# 2 64.7783 234.5937 105.3134 0.0000 0.0000 0.0000
# 3 42.0474 105.3134 130.0700 0.0000 0.0000 0.0000
# 4 0.0000 0.0000 0.0000 -32.2690 0.0000 0.0000
# 5 0.0000 0.0000 0.0000 0.0000 32.5862 0.0000
# 6 0.0000 0.0000 0.0000 0.0000 0.0000 6.9801
#
#
#
# Elastic Compliance Matrix: (Units=1/GPa)
#
#
# Indices 1 2 3 4 5 6 
#
# 1 0.012476 -0.002568 -0.001954 0.000000 0.000000 0.000000
# 2 -0.002568 0.007225 -0.005020 0.000000 0.000000 0.000000
# 3 -0.001954 -0.005020 0.012384 0.000000 0.000000 0.000000
# 4 0.000000 0.000000 0.000000 -0.030989 0.000000 0.000000
# 5 0.000000 0.000000 0.000000 0.000000 0.030688 0.000000
# 6 0.000000 0.000000 0.000000 0.000000 0.000000 0.143264
#
#
# Mechanical properties :
#
#
# Convention : Reuss Voigt Hill
#
# Bulk Modulus (GPa) = 76.91130 98.77940 87.84535
# Shear Modulus (GPa) = 25.19329 18.29928 21.74629
#
# Velocity S-wave (km/s) = 3.65936 3.11874 3.39981
# Velocity P-wave (km/s) = 7.66387 8.09151 7.88059
#
# Compressibility (1/GPa) = 0.01300199
#
# Stress axis : x y z
#
# Youngs Moduli (GPa) = 80.15438 138.40252 80.74694
#
# Poissons Ratio (x) = 0.35539 0.15778
# Poissons Ratio (y) = 0.20582 0.40535
# Poissons Ratio (z) = 0.15662 0.69478
#
# Static dielectric constant tensor:
#      x y z
#    x 1.642030 0.000000 0.000000 
#    y 0.000000 1.682960 0.000000 
#    z 0.000000 0.000000 1.583840 
# 
# From -- ./inp_files/6218.got.cif
#   From: 2010.05.17/outbox.cif.g08.bks.cpg/sg51_4_cif.got.tgz:6218.got - 2010.06.03 11:52:47.
