data_PCOD9405018
_publ_section_title
;
Structure prediction by ZEFSAII (Michael W. Deem and Ramdas Pophale) SiO2 
 PCOD9405018
Probable space group: P M M A
;
_chemical_formula_sum "Si O2"
_cell_formula_units_Z 64
_cell_length_a 22.483930
_cell_length_b 16.017528
_cell_length_c 8.769600
_cell_angle_alpha 90.000000
_cell_angle_beta 90.000000
_cell_angle_gamma 90.000000
_cell_volume 3158.257245
_symmetry_space_group_name_H-M "P M M A"
_symmetry_group_IT_number 51
_symmetry_cell_setting 'orthorhombic'
loop_
_space_group_symop_operation_xyz
x,y,z
1/2-x,-y,z
1/2+x,-y,-z
-x,y,-z
-x,-y,-z
1/2+x,y,-z
1/2-x,y,z
x,-y,z
loop_
_atom_site_type_symbol
_atom_site_label
_atom_site_fract_x
_atom_site_fract_y
_atom_site_fract_z
Si Si1 0.508758 0.189736 0.817925
Si Si2 0.893218 0.590283 0.806502
Si Si3 0.315717 0.769712 0.884898
Si Si4 0.017160 0.366077 0.676807
Si Si5 0.899891 0.906719 0.256830
Si Si6 0.862922 0.408168 0.165552
Si Si7 0.183547 0.092414 0.455686
Si Si8 0.854754 0.230845 0.771103
O O1 0.482533 0.270039 0.730576
O O2 0.469796 0.113258 0.755395
O O3 0.579046 0.192048 0.789418
O O4 0.500000 0.197725 0.000000
O O5 0.869196 0.500000 0.757405
O O6 0.864661 0.671796 0.728047
O O7 0.963029 0.594142 0.770814
O O8 0.884972 0.597060 0.988940
O O9 0.250000 0.799111 0.843294
O O10 0.365881 0.834203 0.833275
O O11 0.326018 0.677030 0.816814
O O12 0.322152 0.765674 0.067107
O O13 0.080249 0.403254 0.723777
O O14 0.000000 0.373690 0.500000
O O15 0.869573 0.902574 0.422614
O O16 0.888510 0.000000 0.196521
O O17 0.834185 0.500000 0.183349
O O18 0.250000 0.094624 0.526584
O O19 0.178103 0.170517 0.344466
O O20 0.178775 0.000000 0.380673
#
# Coordination Sequence:
#
# PCOD9405018 Si02
#       8
#     8   8   8   8   8   8   8   8
#     4  11  21  40  61  88 126 158 194 249 314 372
#     4   9  19  34  55  85 121 162 199 241 296 360
#     4  11  22  39  62  88 118 155 208 255 296 353
#     4  11  21  32  56  88 121 156 199 244 296 359
#     4  11  24  41  64  89 118 159 203 249 308 367
#     4  10  20  37  58  82 119 161 200 245 302 358
#     4  10  23  43  63  87 121 161 207 253 302 364
#     4  10  21  37  64  90 123 161 200 251 307 365
#
# _framework density 20.264341000000002
#
# number of rings (size 3 to 8) (size 9 to 14) (size 15 to 20)
#    0.000    1.625    2.500    3.000    3.500    4.250 
#    0.000    1.250    0.000    1.125    0.000    0.000 
#    0.000    0.000    0.000    0.000    0.000    0.000 
#
# Total GULP energy -357055.400922 kJ/mol
# GULP energy per Si atom -5578.990639 kJ/mol
# Density = 2.021822 g / cm^3
# Si number density = 20.264341 Si / 1000 Ang^3
#
#
#
# Elastic Constant Matrix: (Units=GPa)
#
#
# Indices 1 2 3 4 5 6 
#
# 1 71.9707 35.4319 13.1931 0.0000 0.0000 0.0000
# 2 35.4319 125.5704 29.8683 0.0000 0.0000 0.0000
# 3 13.1931 29.8683 30.1992 0.0000 0.0000 0.0000
# 4 0.0000 0.0000 0.0000 37.9914 0.0000 0.0000
# 5 0.0000 0.0000 0.0000 0.0000 9.9327 0.0000
# 6 0.0000 0.0000 0.0000 0.0000 0.0000 13.2343
#
#
#
# Elastic Compliance Matrix: (Units=1/GPa)
#
#
# Indices 1 2 3 4 5 6 
#
# 1 0.016396 -0.003822 -0.003383 0.000000 0.000000 0.000000
# 2 -0.003822 0.011304 -0.009511 0.000000 0.000000 0.000000
# 3 -0.003383 -0.009511 0.043998 0.000000 0.000000 0.000000
# 4 0.000000 0.000000 0.000000 0.026322 0.000000 0.000000
# 5 0.000000 0.000000 0.000000 0.000000 0.100677 0.000000
# 6 0.000000 0.000000 0.000000 0.000000 0.000000 0.075561
#
#
# Mechanical properties :
#
#
# Convention : Reuss Voigt Hill
#
# Bulk Modulus (GPa) = 26.13209 42.74744 34.43976
# Shear Modulus (GPa) = 15.60325 22.18148 18.89237
#
# Velocity S-wave (km/s) = 2.77787 3.31207 3.05666
# Velocity P-wave (km/s) = 4.81792 5.98056 5.43045
#
# Compressibility (1/GPa) = 0.03826713
#
# Stress axis : x y z
#
# Youngs Moduli (GPa) = 60.98972 88.46209 22.72830
#
# Poissons Ratio (x) = 0.33808 0.07689
# Poissons Ratio (y) = 0.23309 0.21616
# Poissons Ratio (z) = 0.20634 0.84134
#
# Static dielectric constant tensor:
#      x y z
#    x 1.895710 0.000000 0.000000 
#    y 0.000000 1.766930 0.000000 
#    z 0.000000 0.000000 1.698970 
# 
# From -- ./inp_files/11865.got.cif
#   From: 2010.05.17/outbox.cif.g08.bks.cpg/sg51_6_cif.got.tgz:11865.got - 2010.06.03 11:52:47.
