data_PCOD9405525
_publ_section_title
;
Structure prediction by ZEFSAII (Michael W. Deem and Ramdas Pophale) SiO2 
 PCOD9405525
Probable space group: P M M A
;
_chemical_formula_sum "Si O2"
_cell_formula_units_Z 64
_cell_length_a 16.624432
_cell_length_b 19.835028
_cell_length_c 10.439279
_cell_angle_alpha 90.000000
_cell_angle_beta 90.000000
_cell_angle_gamma 90.000000
_cell_volume 3442.311268
_symmetry_space_group_name_H-M "P M M A"
_symmetry_group_IT_number 51
_symmetry_cell_setting 'orthorhombic'
loop_
_space_group_symop_operation_xyz
x,y,z
1/2-x,-y,z
1/2+x,-y,-z
-x,y,-z
-x,-y,-z
1/2+x,y,-z
1/2-x,y,z
x,-y,z
loop_
_atom_site_type_symbol
_atom_site_label
_atom_site_fract_x
_atom_site_fract_y
_atom_site_fract_z
Si Si1 0.095789 0.714005 0.518640
Si Si2 0.081618 0.787608 0.775014
Si Si3 0.653010 0.575616 0.565494
Si Si4 0.152995 0.921921 0.686112
Si Si5 0.652060 0.575618 0.863587
Si Si6 0.157006 0.712791 0.013300
Si Si7 0.153093 0.924745 0.389563
Si Si8 0.391008 0.210932 0.263659
O O1 0.118538 0.751553 0.648922
O O2 0.118363 0.635751 0.517973
O O3 0.133162 0.748714 0.392624
O O4 0.000000 0.720457 0.500000
O O5 0.110568 0.865017 0.770056
O O6 0.109184 0.749300 0.901446
O O7 0.985908 0.782475 0.761592
O O8 0.750000 0.578481 0.561635
O O9 0.628459 0.500000 0.527123
O O10 0.628649 0.585722 0.714629
O O11 0.250000 0.914358 0.693663
O O12 0.127998 0.910977 0.537011
O O13 0.134440 0.000000 0.718009
O O14 0.750000 0.576747 0.864982
O O15 0.627102 0.500000 0.903030
O O16 0.624939 0.638469 0.948684
O O17 0.250000 0.706325 0.973731
O O18 0.152537 0.757511 0.141916
O O19 0.250000 0.925442 0.390844
O O20 0.125650 0.866773 0.294864
O O21 0.124862 0.000000 0.355458
#
# Coordination Sequence:
#
# PCOD9405525 Si02
#       8
#     8   8   8   8   8   8   8   8
#     4  10  21  35  53  80 112 149 183 220 271 328
#     4  11  23  37  53  82 118 147 183 228 273 331
#     4   9  17  31  54  82 107 137 184 234 275 322
#     4   9  18  34  56  82 113 147 181 222 276 334
#     4   8  15  30  54  81 104 132 178 229 272 321
#     4  11  22  37  58  83 109 147 187 229 283 328
#     4   9  18  33  56  86 113 140 183 234 274 316
#     4  11  21  37  57  80 111 149 188 226 270 326
#
# _framework density 18.59216
#
# number of rings (size 3 to 8) (size 9 to 14) (size 15 to 20)
#    0.000    2.250    2.500    2.625    0.000    2.250 
#    0.000    2.500    0.000    7.500    0.000    0.000 
#    0.000    0.000    0.000    0.000    0.000    0.000 
#
# Total GULP energy -357091.939496 kJ/mol
# GULP energy per Si atom -5579.561555 kJ/mol
# Density = 1.854984 g / cm^3
# Si number density = 18.592160 Si / 1000 Ang^3
#
#
#
# Elastic Constant Matrix: (Units=GPa)
#
#
# Indices 1 2 3 4 5 6 
#
# 1 14.2115 3.4488 5.1009 0.0000 0.0000 0.0000
# 2 3.4488 129.6736 38.7709 0.0000 0.0000 0.0000
# 3 5.1009 38.7709 60.8759 0.0000 0.0000 0.0000
# 4 0.0000 0.0000 0.0000 28.9634 0.0000 0.0000
# 5 0.0000 0.0000 0.0000 0.0000 10.5074 0.0000
# 6 0.0000 0.0000 0.0000 0.0000 0.0000 -2.9948
#
#
#
# Elastic Compliance Matrix: (Units=1/GPa)
#
#
# Indices 1 2 3 4 5 6 
#
# 1 0.072549 -0.000138 -0.005991 0.000000 0.000000 0.000000
# 2 -0.000138 0.009526 -0.006055 0.000000 0.000000 0.000000
# 3 -0.005991 -0.006055 0.020785 0.000000 0.000000 0.000000
# 4 0.000000 0.000000 0.000000 0.034526 0.000000 0.000000
# 5 0.000000 0.000000 0.000000 0.000000 0.095171 0.000000
# 6 0.000000 0.000000 0.000000 0.000000 0.000000 -0.333912
#
#
# Mechanical properties :
#
#
# Convention : Reuss Voigt Hill
#
# Bulk Modulus (GPa) = 12.74023 33.26692 23.00358
# Shear Modulus (GPa) = -98.38344 17.79123 -40.29610
#
# Velocity S-wave (km/s) = -7.28227 3.09677 -4.66055
# Velocity P-wave (km/s) = 7.99008 5.54243 4.06957
#
# Compressibility (1/GPa) = 0.07849150
#
# Stress axis : x y z
#
# Youngs Moduli (GPa) = 13.78371 104.97803 48.11078
#
# Poissons Ratio (x) = 0.01452 0.28823
# Poissons Ratio (y) = 0.00191 0.29132
# Poissons Ratio (z) = 0.08258 0.63567
#
# Static dielectric constant tensor:
#      x y z
#    x 1.640060 0.000000 0.000000 
#    y 0.000000 1.656940 0.000000 
#    z 0.000000 0.000000 1.618390 
# 
# From -- ./inp_files/11201.got.cif
#   From: 2010.05.17/outbox.cif.g08.bks.cpg/sg51_6_cif.got.tgz:11201.got - 2010.06.03 11:52:47.
