data_PCOD9405607
_publ_section_title
;
Structure prediction by ZEFSAII (Michael W. Deem and Ramdas Pophale) SiO2 
 PCOD9405607
Probable space group: P M M A
;
_chemical_formula_sum "Si O2"
_cell_formula_units_Z 40
_cell_length_a 9.531017
_cell_length_b 7.374703
_cell_length_c 26.451644
_cell_angle_alpha 90.000000
_cell_angle_beta 90.000000
_cell_angle_gamma 90.000000
_cell_volume 1859.244254
_symmetry_space_group_name_H-M "P M M A"
_symmetry_group_IT_number 51
_symmetry_cell_setting 'orthorhombic'
loop_
_space_group_symop_operation_xyz
x,y,z
1/2-x,-y,z
1/2+x,-y,-z
-x,y,-z
-x,-y,-z
1/2+x,y,-z
1/2-x,y,z
x,-y,z
loop_
_atom_site_type_symbol
_atom_site_label
_atom_site_fract_x
_atom_site_fract_y
_atom_site_fract_z
Si Si1 0.590828 0.718048 0.643121
Si Si2 0.906917 0.785732 0.454273
Si Si3 0.588581 0.278537 0.147144
Si Si4 0.088346 0.279184 0.243135
Si Si5 0.412128 0.721265 0.049164
O O1 0.750000 0.780926 0.632095
O O2 0.595209 0.500000 0.644812
O O3 0.485641 0.767260 0.598867
O O4 0.551934 0.779136 0.699804
O O5 0.750000 0.709879 0.452833
O O6 0.000000 0.709279 0.500000
O O7 0.894158 0.000000 0.463838
O O8 0.750000 0.220858 0.142628
O O9 0.589104 0.500000 0.147113
O O10 0.516050 0.219398 0.199303
O O11 0.493801 0.222306 0.099682
O O12 0.250000 0.226347 0.232870
O O13 0.086399 0.500000 0.242846
O O14 0.250000 0.779736 0.048011
O O15 0.410318 0.500000 0.049066
O O16 0.500000 0.777760 0.000000
#
# Coordination Sequence:
#
# PCOD9405607 Si02
#       5
#     8   8   8   8   8
#     4   9  18  32  50  72  96 121 151 188 229 272
#     4  10  21  36  53  72  94 122 155 188 224 269
#     4   9  15  21  30  45  65  91 125 164 206 252
#     4   8  14  25  39  55  77 104 133 167 209 256
#     4   9  15  21  28  38  55  82 119 164 210 253
#
# _framework density 21.514118
#
# number of rings (size 3 to 8) (size 9 to 14) (size 15 to 20)
#    0.000    3.000    0.000    3.000    0.000    7.600 
#    0.000    2.000    0.000    0.000    0.000    0.000 
#    0.000    0.000    0.000    0.000    0.000    1.000 
#
# Total GULP energy -223390.518930 kJ/mol
# GULP energy per Si atom -5584.762973 kJ/mol
# Density = 2.146515 g / cm^3
# Si number density = 21.514118 Si / 1000 Ang^3
#
#
#
# Elastic Constant Matrix: (Units=GPa)
#
#
# Indices 1 2 3 4 5 6 
#
# 1 231.1872 6.9408 165.0583 0.0000 0.0000 0.0000
# 2 6.9408 75.4056 1.8664 0.0000 0.0000 0.0000
# 3 165.0583 1.8664 202.9934 0.0000 0.0000 0.0000
# 4 0.0000 0.0000 0.0000 27.9100 0.0000 0.0000
# 5 0.0000 0.0000 0.0000 0.0000 35.9542 0.0000
# 6 0.0000 0.0000 0.0000 0.0000 0.0000 -2.5577
#
#
#
# Elastic Compliance Matrix: (Units=1/GPa)
#
#
# Indices 1 2 3 4 5 6 
#
# 1 0.010354 -0.000745 -0.008412 0.000000 0.000000 0.000000
# 2 -0.000745 0.013318 0.000483 0.000000 0.000000 0.000000
# 3 -0.008412 0.000483 0.011762 0.000000 0.000000 0.000000
# 4 0.000000 0.000000 0.000000 0.035829 0.000000 0.000000
# 5 0.000000 0.000000 0.000000 0.000000 0.027813 0.000000
# 6 0.000000 0.000000 0.000000 0.000000 0.000000 -0.390979
#
#
# Mechanical properties :
#
#
# Convention : Reuss Voigt Hill
#
# Bulk Modulus (GPa) = 55.28997 95.25750 75.27374
# Shear Modulus (GPa) = -18.62008 34.64268 8.01130
#
# Velocity S-wave (km/s) = -2.94510 4.01712 1.93179
# Velocity P-wave (km/s) = 3.76701 8.11722 6.32770
#
# Compressibility (1/GPa) = 0.01808646
#
# Stress axis : x y z
#
# Youngs Moduli (GPa) = 96.58462 75.08516 85.02156
#
# Poissons Ratio (x) = 0.05592 0.71519
# Poissons Ratio (y) = 0.07194 -0.04108
# Poissons Ratio (z) = 0.81246 -0.03628
#
# Static dielectric constant tensor:
#      x y z
#    x 1.737780 0.000000 0.000000 
#    y 0.000000 1.837450 0.000000 
#    z 0.000000 0.000000 1.735320 
# 
# From -- ./inp_files/34315.got.cif
#   From: 2010.05.17/outbox.cif.g08.bks.cpg/sg51_18_cif.got.tgz:34315.got - 2010.06.03 11:52:47.
