data_PCOD9405765
_publ_section_title
;
Structure prediction by ZEFSAII (Michael W. Deem and Ramdas Pophale) SiO2 
 PCOD9405765
Probable space group: P M M A
;
_chemical_formula_sum "Si O2"
_cell_formula_units_Z 64
_cell_length_a 16.004424
_cell_length_b 9.629019
_cell_length_c 22.521444
_cell_angle_alpha 90.000000
_cell_angle_beta 90.000000
_cell_angle_gamma 90.000000
_cell_volume 3470.709981
_symmetry_space_group_name_H-M "P M M A"
_symmetry_group_IT_number 51
_symmetry_cell_setting 'orthorhombic'
loop_
_space_group_symop_operation_xyz
x,y,z
1/2-x,-y,z
1/2+x,-y,-z
-x,y,-z
-x,-y,-z
1/2+x,y,-z
1/2-x,y,z
x,-y,z
loop_
_atom_site_type_symbol
_atom_site_label
_atom_site_fract_x
_atom_site_fract_y
_atom_site_fract_z
Si Si1 0.850228 0.165596 0.637674
Si Si2 0.652047 0.333614 0.349262
Si Si3 0.149935 0.159640 0.767751
Si Si4 0.093324 0.659891 0.119150
Si Si5 0.349098 0.346730 0.252115
Si Si6 0.068895 0.164981 0.892602
Si Si7 0.346016 0.653571 0.989521
Si Si8 0.008761 0.664364 0.429534
O O1 0.750000 0.192854 0.627274
O O2 0.875076 0.227882 0.702269
O O3 0.913343 0.245254 0.593902
O O4 0.861449 0.000000 0.635385
O O5 0.750000 0.296634 0.364424
O O6 0.651023 0.500000 0.340965
O O7 0.628985 0.256612 0.287911
O O8 0.579516 0.299888 0.397034
O O9 0.250000 0.158844 0.772377
O O10 0.114715 0.206467 0.831242
O O11 0.122089 0.000000 0.757133
O O12 0.061214 0.500000 0.119103
O O13 0.134578 0.680713 0.183091
O O14 0.022484 0.772958 0.112328
O O15 0.149069 0.672550 0.060314
O O16 0.250000 0.356403 0.259131
O O17 0.385441 0.500000 0.267062
O O18 0.108122 0.232389 0.951045
O O19 0.071361 0.000000 0.896670
O O20 0.250000 0.654073 0.971362
O O21 0.382327 0.500000 0.976793
O O22 0.024729 0.500000 0.417923
O O23 0.000000 0.682680 0.500000
#
# Coordination Sequence:
#
# PCOD9405765 Si02
#       8
#     8   8   8   8   8   8   8   8
#     4  10  22  39  59  86 122 160 199 244 291 343
#     4   9  19  36  58  85 116 148 188 239 289 339
#     4   9  19  36  55  76 105 143 184 225 274 331
#     4  10  21  36  55  80 109 141 181 230 281 336
#     4   9  18  35  59  84 110 144 187 234 285 338
#     4  11  23  36  52  78 111 144 180 225 278 336
#     4  10  21  38  58  77 101 138 184 232 281 333
#     4  10  22  39  61  90 121 155 196 240 289 346
#
# _framework density 18.44003
#
# number of rings (size 3 to 8) (size 9 to 14) (size 15 to 20)
#    0.000    2.250    0.000    1.875    1.750    7.750 
#    0.000    2.500    0.000    3.750    0.000    0.000 
#    0.000    0.000    0.000    0.000    0.000    0.000 
#
# Total GULP energy -356770.573733 kJ/mol
# GULP energy per Si atom -5574.540215 kJ/mol
# Density = 1.839806 g / cm^3
# Si number density = 18.440030 Si / 1000 Ang^3
#
#
#
# Elastic Constant Matrix: (Units=GPa)
#
#
# Indices 1 2 3 4 5 6 
#
# 1 56.9643 52.8249 43.3825 0.0000 0.0000 0.0000
# 2 52.8249 79.9177 65.1151 0.0000 0.0000 0.0000
# 3 43.3825 65.1151 107.2888 0.0000 0.0000 0.0000
# 4 0.0000 0.0000 0.0000 -43.5135 0.0000 0.0000
# 5 0.0000 0.0000 0.0000 0.0000 45.1765 0.0000
# 6 0.0000 0.0000 0.0000 0.0000 0.0000 21.5924
#
#
#
# Elastic Compliance Matrix: (Units=1/GPa)
#
#
# Indices 1 2 3 4 5 6 
#
# 1 0.045361 -0.029750 -0.000286 0.000000 0.000000 0.000000
# 2 -0.029750 0.044265 -0.014836 0.000000 0.000000 0.000000
# 3 -0.000286 -0.014836 0.018440 0.000000 0.000000 0.000000
# 4 0.000000 0.000000 0.000000 -0.022981 0.000000 0.000000
# 5 0.000000 0.000000 0.000000 0.000000 0.022135 0.000000
# 6 0.000000 0.000000 0.000000 0.000000 0.000000 0.046313
#
#
# Mechanical properties :
#
#
# Convention : Reuss Voigt Hill
#
# Bulk Modulus (GPa) = 54.57683 62.97954 58.77819
# Shear Modulus (GPa) = 20.04939 10.17432 15.11185
#
# Velocity S-wave (km/s) = 3.30096 2.35149 2.86582
# Velocity P-wave (km/s) = 6.64753 6.44985 6.54943
#
# Compressibility (1/GPa) = 0.01832280
#
# Stress axis : x y z
#
# Youngs Moduli (GPa) = 22.04537 22.59114 54.22926
#
# Poissons Ratio (x) = 0.67209 0.01551
# Poissons Ratio (y) = 0.65585 0.80452
# Poissons Ratio (z) = 0.00631 0.33515
#
# Static dielectric constant tensor:
#      x y z
#    x 1.476590 0.000000 0.000000 
#    y 0.000000 1.633440 0.000000 
#    z 0.000000 0.000000 1.630620 
# 
# From -- ./inp_files/35752.got.cif
#   From: 2010.05.17/outbox.cif.g08.bks.cpg/sg51_18_cif.got.tgz:35752.got - 2010.06.03 11:52:47.
