data_PCOD9405383
_publ_section_title
;
Structure prediction by ZEFSAII (Michael W. Deem and Ramdas Pophale) SiO2 
 PCOD9405383
Probable space group: P M M A
;
_chemical_formula_sum "Si O2"
_cell_formula_units_Z 48
_cell_length_a 7.968625
_cell_length_b 9.709959
_cell_length_c 32.414376
_cell_angle_alpha 90.000000
_cell_angle_beta 90.000000
_cell_angle_gamma 90.000000
_cell_volume 2508.063057
_symmetry_space_group_name_H-M "P M M A"
_symmetry_group_IT_number 51
_symmetry_cell_setting 'orthorhombic'
loop_
_space_group_symop_operation_xyz
x,y,z
1/2-x,-y,z
1/2+x,-y,-z
-x,y,-z
-x,-y,-z
1/2+x,y,-z
1/2-x,y,z
x,-y,z
loop_
_atom_site_type_symbol
_atom_site_label
_atom_site_fract_x
_atom_site_fract_y
_atom_site_fract_z
Si Si1 0.047709 0.842574 0.953755
Si Si2 0.547693 0.343269 0.121726
Si Si3 0.055988 0.167662 0.289206
Si Si4 0.546733 0.841725 0.800862
Si Si5 0.547797 0.156958 0.621657
Si Si6 0.949813 0.343494 0.454906
O O1 0.250000 0.845860 0.951489
O O2 0.985281 0.741211 0.918152
O O3 0.986722 0.000000 0.947461
O O4 0.000000 0.799573 0.000000
O O5 0.750000 0.348603 0.118826
O O6 0.484696 0.500000 0.122915
O O7 0.504415 0.258648 0.162698
O O8 0.250000 0.215141 0.288725
O O9 0.982384 0.203932 0.244539
O O10 0.982023 0.208380 0.333589
O O11 0.058299 0.000000 0.289848
O O12 0.750000 0.844733 0.798617
O O13 0.491437 0.000000 0.808687
O O14 0.750000 0.151167 0.625465
O O15 0.506824 0.251803 0.583180
O O16 0.487975 0.000000 0.614947
O O17 0.750000 0.350025 0.453762
O O18 0.018078 0.500000 0.451663
O O19 0.000000 0.288475 0.500000
#
# Coordination Sequence:
#
# PCOD9405383 Si02
#       6
#     8   8   8   8   8   8
#     4   9  18  33  52  72  94 122 159 202 244 288
#     4  10  21  35  49  69 101 137 167 197 239 290
#     4   7  12  26  48  73  99 125 156 197 242 286
#     4   9  17  31  53  77  98 125 165 208 244 282
#     4   9  17  31  53  78 101 126 158 198 245 294
#     4  10  21  36  52  70  95 129 167 204 242 287
#
# _framework density 19.138275
#
# number of rings (size 3 to 8) (size 9 to 14) (size 15 to 20)
#    0.000    3.000    0.000    3.000    0.000    4.000 
#    0.000    3.333    0.000    8.000    0.000    0.000 
#    0.000    0.000    0.000    0.000    0.000    0.000 
#
# Total GULP energy -267470.357712 kJ/mol
# GULP energy per Si atom -5572.299119 kJ/mol
# Density = 1.909472 g / cm^3
# Si number density = 19.138275 Si / 1000 Ang^3
#
#
#
# Elastic Constant Matrix: (Units=GPa)
#
#
# Indices 1 2 3 4 5 6 
#
# 1 16.3840 8.6596 8.9671 0.0000 0.0000 0.0000
# 2 8.6596 92.9008 112.5587 0.0000 0.0000 0.0000
# 3 8.9671 112.5587 233.6318 0.0000 0.0000 0.0000
# 4 0.0000 0.0000 0.0000 -18.2092 0.0000 0.0000
# 5 0.0000 0.0000 0.0000 0.0000 25.3026 0.0000
# 6 0.0000 0.0000 0.0000 0.0000 0.0000 17.3884
#
#
#
# Elastic Compliance Matrix: (Units=1/GPa)
#
#
# Indices 1 2 3 4 5 6 
#
# 1 0.064297 -0.007215 0.001008 0.000000 0.000000 0.000000
# 2 -0.007215 0.026668 -0.012571 0.000000 0.000000 0.000000
# 3 0.001008 -0.012571 0.010298 0.000000 0.000000 0.000000
# 4 0.000000 0.000000 0.000000 -0.054917 0.000000 0.000000
# 5 0.000000 0.000000 0.000000 0.000000 0.039522 0.000000
# 6 0.000000 0.000000 0.000000 0.000000 0.000000 0.057510
#
#
# Mechanical properties :
#
#
# Convention : Reuss Voigt Hill
#
# Bulk Modulus (GPa) = 15.69685 67.03194 41.36440
# Shear Modulus (GPa) = 24.73198 19.07844 21.90521
#
# Velocity S-wave (km/s) = 3.59873 3.16076 3.38683
# Velocity P-wave (km/s) = 5.04850 6.95856 6.07902
#
# Compressibility (1/GPa) = 0.06370704
#
# Stress axis : x y z
#
# Youngs Moduli (GPa) = 15.55290 37.49851 97.10645
#
# Poissons Ratio (x) = 0.27055 -0.09790
# Poissons Ratio (y) = 0.11221 1.22073
# Poissons Ratio (z) = -0.01568 0.47139
#
# Static dielectric constant tensor:
#      x y z
#    x 1.699490 0.000000 0.000000 
#    y 0.000000 1.653450 0.000000 
#    z 0.000000 0.000000 1.687160 
# 
# From -- ./inp_files/36951.got.cif
#   From: 2010.05.17/outbox.cif.g08.bks.cpg/sg51_19_cif.got.tgz:36951.got - 2010.06.03 11:52:47.
