data_PCOD9405658
_publ_section_title
;
Structure prediction by ZEFSAII (Michael W. Deem and Ramdas Pophale) SiO2 
 PCOD9405658
Probable space group: P M M A
;
_chemical_formula_sum "Si O2"
_cell_formula_units_Z 52
_cell_length_a 9.004837
_cell_length_b 14.797568
_cell_length_c 20.591740
_cell_angle_alpha 90.000000
_cell_angle_beta 90.000000
_cell_angle_gamma 90.000000
_cell_volume 2743.842927
_symmetry_space_group_name_H-M "P M M A"
_symmetry_group_IT_number 51
_symmetry_cell_setting 'orthorhombic'
loop_
_space_group_symop_operation_xyz
x,y,z
1/2-x,-y,z
1/2+x,-y,-z
-x,y,-z
-x,-y,-z
1/2+x,y,-z
1/2-x,y,z
x,-y,z
loop_
_atom_site_type_symbol
_atom_site_label
_atom_site_fract_x
_atom_site_fract_y
_atom_site_fract_z
Si Si1 0.427951 0.757418 0.706950
Si Si2 0.428350 0.698996 0.570679
Si Si3 0.427955 0.393548 0.203162
Si Si4 0.921020 0.390130 0.066309
Si Si5 0.420495 0.110156 0.934300
Si Si6 0.922329 0.108538 0.801405
Si Si7 0.572245 0.500000 0.429405
O O1 0.250000 0.748832 0.710449
O O2 0.470403 0.761874 0.630870
O O3 0.500131 0.671758 0.743589
O O4 0.484681 0.844200 0.745418
O O5 0.500000 0.713955 0.500000
O O6 0.250000 0.701956 0.562073
O O7 0.469746 0.597987 0.596945
O O8 0.250000 0.384815 0.203231
O O9 0.464249 0.500000 0.214434
O O10 0.492030 0.367291 0.132249
O O11 0.750000 0.360157 0.069344
O O12 0.919928 0.500000 0.063886
O O13 0.000000 0.359299 0.000000
O O14 0.250000 0.139414 0.931253
O O15 0.510357 0.137320 0.870600
O O16 0.420249 0.000000 0.935240
O O17 0.500000 0.140128 0.000000
O O18 0.750000 0.134920 0.797192
O O19 0.931623 0.000000 0.797558
O O20 0.750000 0.500000 0.433660
O O21 0.500000 0.500000 0.500000
#
# Coordination Sequence:
#
# PCOD9405658 Si02
#       7
#     8   8   8   8   8   8   4
#     4  11  23  37  57  84 113 146 183 226 278 334
#     4   9  19  34  55  81 111 146 182 222 269 324
#     4  10  21  36  53  77 110 147 186 227 271 323
#     4   9  16  28  48  72  99 137 184 231 276 322
#     4   9  16  28  50  80 112 145 182 225 276 335
#     4  10  21  38  59  82 111 148 189 234 283 334
#     4   8  14  28  48  74 106 140 175 210 251 308
#
# _framework density 18.951523000000002
#
# number of rings (size 3 to 8) (size 9 to 14) (size 15 to 20)
#    0.000    2.462    0.000    2.308    1.077    6.769 
#    0.000    0.769    0.000    0.462    0.000    0.000 
#    0.000    0.000    0.000    0.000    0.000    0.000 
#
# Total GULP energy -290172.028175 kJ/mol
# GULP energy per Si atom -5580.231311 kJ/mol
# Density = 1.890839 g / cm^3
# Si number density = 18.951523 Si / 1000 Ang^3
#
#
#
# Elastic Constant Matrix: (Units=GPa)
#
#
# Indices 1 2 3 4 5 6 
#
# 1 92.4762 19.9315 55.0092 0.0000 0.0000 0.0000
# 2 19.9315 45.1870 29.6662 0.0000 0.0000 0.0000
# 3 55.0092 29.6662 152.5064 0.0000 0.0000 0.0000
# 4 0.0000 0.0000 0.0000 35.5276 0.0000 0.0000
# 5 0.0000 0.0000 0.0000 0.0000 28.4997 0.0000
# 6 0.0000 0.0000 0.0000 0.0000 0.0000 20.0473
#
#
#
# Elastic Compliance Matrix: (Units=1/GPa)
#
#
# Indices 1 2 3 4 5 6 
#
# 1 0.014190 -0.003323 -0.004472 0.000000 0.000000 0.000000
# 2 -0.003323 0.026149 -0.003888 0.000000 0.000000 0.000000
# 3 -0.004472 -0.003888 0.008926 0.000000 0.000000 0.000000
# 4 0.000000 0.000000 0.000000 0.028147 0.000000 0.000000
# 5 0.000000 0.000000 0.000000 0.000000 0.035088 0.000000
# 6 0.000000 0.000000 0.000000 0.000000 0.000000 0.049882
#
#
# Mechanical properties :
#
#
# Convention : Reuss Voigt Hill
#
# Bulk Modulus (GPa) = 38.61143 55.48705 47.04924
# Shear Modulus (GPa) = 25.72267 29.18575 27.45421
#
# Velocity S-wave (km/s) = 3.68814 3.92857 3.81025
# Velocity P-wave (km/s) = 6.20923 7.06542 6.65111
#
# Compressibility (1/GPa) = 0.02589907
#
# Stress axis : x y z
#
# Youngs Moduli (GPa) = 70.47246 38.24305 112.02717
#
# Poissons Ratio (x) = 0.12709 0.50097
# Poissons Ratio (y) = 0.23419 0.43555
# Poissons Ratio (z) = 0.31515 0.14868
#
# Static dielectric constant tensor:
#      x y z
#    x 1.632990 0.000000 0.000000 
#    y 0.000000 1.716450 0.000000 
#    z 0.000000 0.000000 1.630200 
# 
# From -- ./inp_files/31775.got.cif
#   From: 2010.05.17/outbox.cif.g08.bks.cpg/sg51_16_cif.got.tgz:31775.got - 2010.06.03 11:52:47.
