data_PCOD9405391
_publ_section_title
;
Structure prediction by ZEFSAII (Michael W. Deem and Ramdas Pophale) SiO2 
 PCOD9405391
Probable space group: P M M A
;
_chemical_formula_sum "Si O2"
_cell_formula_units_Z 40
_cell_length_a 7.489978
_cell_length_b 27.558968
_cell_length_c 9.197594
_cell_angle_alpha 90.000000
_cell_angle_beta 90.000000
_cell_angle_gamma 90.000000
_cell_volume 1898.531152
_symmetry_space_group_name_H-M "P M M A"
_symmetry_group_IT_number 51
_symmetry_cell_setting 'orthorhombic'
loop_
_space_group_symop_operation_xyz
x,y,z
1/2-x,-y,z
1/2+x,-y,-z
-x,y,-z
-x,-y,-z
1/2+x,y,-z
1/2-x,y,z
x,-y,z
loop_
_atom_site_type_symbol
_atom_site_label
_atom_site_fract_x
_atom_site_fract_y
_atom_site_fract_z
Si Si1 0.464009 0.149527 0.670361
Si Si2 0.964304 0.657554 0.327796
Si Si3 0.036093 0.447887 0.673522
Si Si4 0.464027 0.753920 0.829413
Si Si5 0.463993 0.053757 0.829089
O O1 0.500000 0.152378 0.500000
O O2 0.250000 0.148959 0.691261
O O3 0.533154 0.197467 0.751674
O O4 0.533966 0.099316 0.738434
O O5 0.750000 0.656396 0.310544
O O6 0.032430 0.604634 0.275549
O O7 0.033814 0.704362 0.242875
O O8 0.000000 0.662572 0.500000
O O9 0.250000 0.448105 0.693757
O O10 0.967318 0.500000 0.730286
O O11 0.000000 0.447874 0.500000
O O12 0.250000 0.753546 0.808528
O O13 0.500000 0.755278 0.000000
O O14 0.250000 0.052368 0.810382
O O15 0.533026 0.000000 0.789070
O O16 0.500000 0.061254 0.000000
#
# Coordination Sequence:
#
# PCOD9405391 Si02
#       5
#     8   8   8   8   8
#     4  10  21  35  51  73  99 125 156 195 236 278
#     4   9  17  29  46  69  94 119 151 190 230 274
#     4   8  13  22  38  61  88 116 145 180 223 268
#     4  10  21  35  50  69  93 122 157 194 232 278
#     4   9  18  33  52  74 100 129 161 195 230 272
#
# _framework density 21.068919999999999
#
# number of rings (size 3 to 8) (size 9 to 14) (size 15 to 20)
#    0.000    2.800    0.000    1.200    0.000    2.800 
#    0.000    0.000    0.000    0.600    0.000    0.000 
#    0.000    0.000    0.000    0.000    0.000    0.000 
#
# Total GULP energy -223090.270593 kJ/mol
# GULP energy per Si atom -5577.256765 kJ/mol
# Density = 2.102097 g / cm^3
# Si number density = 21.068920 Si / 1000 Ang^3
#
#
#
# Elastic Constant Matrix: (Units=GPa)
#
#
# Indices 1 2 3 4 5 6 
#
# 1 62.8408 14.5229 -9.2154 0.0000 0.0000 0.0000
# 2 14.5229 293.4936 121.4289 0.0000 0.0000 0.0000
# 3 -9.2154 121.4289 97.5340 0.0000 0.0000 0.0000
# 4 0.0000 0.0000 0.0000 -31.0315 0.0000 0.0000
# 5 0.0000 0.0000 0.0000 0.0000 21.3571 0.0000
# 6 0.0000 0.0000 0.0000 0.0000 0.0000 10.1828
#
#
#
# Elastic Compliance Matrix: (Units=1/GPa)
#
#
# Indices 1 2 3 4 5 6 
#
# 1 0.017476 -0.003192 0.005625 0.000000 0.000000 0.000000
# 2 -0.003192 0.007610 -0.009776 0.000000 0.000000 0.000000
# 3 0.005625 -0.009776 0.022955 0.000000 0.000000 0.000000
# 4 0.000000 0.000000 0.000000 -0.032225 0.000000 0.000000
# 5 0.000000 0.000000 0.000000 0.000000 0.046823 0.000000
# 6 0.000000 0.000000 0.000000 0.000000 0.000000 0.098205
#
#
# Mechanical properties :
#
#
# Convention : Reuss Voigt Hill
#
# Bulk Modulus (GPa) = 29.97978 78.59345 54.28662
# Shear Modulus (GPa) = 26.78857 21.91046 24.34952
#
# Velocity S-wave (km/s) = 3.56964 3.22831 3.40326
# Velocity P-wave (km/s) = 5.59018 7.16101 6.42379
#
# Compressibility (1/GPa) = 0.03335581
#
# Stress axis : x y z
#
# Youngs Moduli (GPa) = 57.22154 131.41085 43.56366
#
# Poissons Ratio (x) = 0.41949 -0.24507
# Poissons Ratio (y) = 0.18266 0.42586
# Poissons Ratio (z) = -0.32190 1.28462
#
# Static dielectric constant tensor:
#      x y z
#    x 1.768810 0.000000 0.000000 
#    y 0.000000 1.828240 0.000000 
#    z 0.000000 0.000000 1.660730 
# 
# From -- ./inp_files/889.got.cif
#   From: 2010.05.17/outbox.cif.g08.bks.cpg/sg51_1_cif.got.tgz:889.got - 2010.06.03 11:52:47.
