data_PCOD9405296
_publ_section_title
;
Structure prediction by ZEFSAII (Michael W. Deem and Ramdas Pophale) SiO2 
 PCOD9405296
Probable space group: P M M A
;
_chemical_formula_sum "Si O2"
_cell_formula_units_Z 64
_cell_length_a 19.786667
_cell_length_b 7.814226
_cell_length_c 22.335563
_cell_angle_alpha 90.000000
_cell_angle_beta 90.000000
_cell_angle_gamma 90.000000
_cell_volume 3453.468638
_symmetry_space_group_name_H-M "P M M A"
_symmetry_group_IT_number 51
_symmetry_cell_setting 'orthorhombic'
loop_
_space_group_symop_operation_xyz
x,y,z
1/2-x,-y,z
1/2+x,-y,-z
-x,y,-z
-x,-y,-z
1/2+x,y,-z
1/2-x,y,z
x,-y,z
loop_
_atom_site_type_symbol
_atom_site_label
_atom_site_fract_x
_atom_site_fract_y
_atom_site_fract_z
Si Si1 0.443806 0.793147 0.312109
Si Si2 0.494900 0.296623 0.191370
Si Si3 0.593351 0.794763 0.348883
Si Si4 0.673501 0.795348 0.601096
Si Si5 0.326747 0.704191 0.533765
Si Si6 0.177885 0.699885 0.900512
Si Si7 0.530268 0.708926 0.062538
Si Si8 0.141998 0.195050 0.771887
O O1 0.440318 0.741719 0.242300
O O2 0.516614 0.731999 0.338010
O O3 0.381924 0.729044 0.352318
O O4 0.444224 0.000000 0.314949
O O5 0.509538 0.500000 0.192791
O O6 0.486469 0.248476 0.121818
O O7 0.561973 0.199352 0.213237
O O8 0.623436 0.757135 0.413440
O O9 0.642580 0.730795 0.295212
O O10 0.591644 0.000000 0.341297
O O11 0.750000 0.726712 0.608672
O O12 0.652530 0.763152 0.532468
O O13 0.676862 0.000000 0.609147
O O14 0.250000 0.769818 0.544618
O O15 0.324218 0.500000 0.532961
O O16 0.250000 0.776601 0.919575
O O17 0.178486 0.500000 0.916914
O O18 0.107168 0.770766 0.925597
O O19 0.173860 0.711220 0.828313
O O20 0.532461 0.500000 0.060198
O O21 0.500000 0.769824 0.000000
O O22 0.166891 0.000000 0.772190
#
# Coordination Sequence:
#
# PCOD9405296 Si02
#       8
#     8   8   8   8   8   8   8   8
#     4   9  18  32  50  72  95 118 149 192 235 274
#     4   9  16  27  46  70  93 118 148 184 227 270
#     4   9  18  31  46  65  90 120 151 183 223 274
#     4   9  18  34  54  70  86 116 156 192 231 282
#     4  10  21  34  46  63  89 119 151 191 235 276
#     4   9  17  28  43  65  91 119 154 195 233 269
#     4   8  14  26  45  67  91 121 155 186 219 266
#     4   9  17  29  44  63  89 120 151 184 224 269
#
# _framework density 18.532094000000001
#
# number of rings (size 3 to 8) (size 9 to 14) (size 15 to 20)
#    0.000    3.000    0.000    2.625    0.000    5.000 
#    0.000    5.000    0.000   10.125    0.000    1.750 
#    0.000    0.000    0.000    0.000    0.000    0.000 
#
# Total GULP energy -356373.149400 kJ/mol
# GULP energy per Si atom -5568.330459 kJ/mol
# Density = 1.848991 g / cm^3
# Si number density = 18.532094 Si / 1000 Ang^3
#
#
#
# Elastic Constant Matrix: (Units=GPa)
#
#
# Indices 1 2 3 4 5 6 
#
# 1 86.6078 5.0424 85.0732 0.0000 0.0000 0.0000
# 2 5.0424 27.3169 -0.0222 0.0000 0.0000 0.0000
# 3 85.0732 -0.0222 163.9131 0.0000 0.0000 0.0000
# 4 0.0000 0.0000 0.0000 20.9221 0.0000 0.0000
# 5 0.0000 0.0000 0.0000 0.0000 6.4443 0.0000
# 6 0.0000 0.0000 0.0000 0.0000 0.0000 7.4307
#
#
#
# Elastic Compliance Matrix: (Units=1/GPa)
#
#
# Indices 1 2 3 4 5 6 
#
# 1 0.024086 -0.004456 -0.012501 0.000000 0.000000 0.000000
# 2 -0.004456 0.037432 0.002318 0.000000 0.000000 0.000000
# 3 -0.012501 0.002318 0.012589 0.000000 0.000000 0.000000
# 4 0.000000 0.000000 0.000000 0.047796 0.000000 0.000000
# 5 0.000000 0.000000 0.000000 0.000000 0.155175 0.000000
# 6 0.000000 0.000000 0.000000 0.000000 0.000000 0.134576
#
#
# Mechanical properties :
#
#
# Convention : Reuss Voigt Hill
#
# Bulk Modulus (GPa) = 22.30766 50.89161 36.59964
# Shear Modulus (GPa) = 10.96789 19.47574 15.22181
#
# Velocity S-wave (km/s) = 2.43540 3.24531 2.86907
# Velocity P-wave (km/s) = 4.46897 6.44699 5.54686
#
# Compressibility (1/GPa) = 0.04482764
#
# Stress axis : x y z
#
# Youngs Moduli (GPa) = 41.51862 26.71529 79.43134
#
# Poissons Ratio (x) = 0.11904 0.99300
# Poissons Ratio (y) = 0.18501 -0.18411
# Poissons Ratio (z) = 0.51904 -0.06192
#
# Static dielectric constant tensor:
#      x y z
#    x 1.666440 0.000000 0.000000 
#    y 0.000000 1.682220 0.000000 
#    z 0.000000 0.000000 1.652250 
# 
# From -- ./inp_files/34060.got.cif
#   From: 2010.05.17/outbox.cif.g08.bks.cpg/sg51_18_cif.got.tgz:34060.got - 2010.06.03 11:52:47.
