data_PCOD9405123
_publ_section_title
;
Structure prediction by ZEFSAII (Michael W. Deem and Ramdas Pophale) SiO2 
 PCOD9405123
Probable space group: P M M A
;
_chemical_formula_sum "Si O2"
_cell_formula_units_Z 48
_cell_length_a 18.993560
_cell_length_b 9.246721
_cell_length_c 13.877422
_cell_angle_alpha 90.000000
_cell_angle_beta 90.000000
_cell_angle_gamma 90.000000
_cell_volume 2437.265954
_symmetry_space_group_name_H-M "P M M A"
_symmetry_group_IT_number 51
_symmetry_cell_setting 'orthorhombic'
loop_
_space_group_symop_operation_xyz
x,y,z
1/2-x,-y,z
1/2+x,-y,-z
-x,y,-z
-x,-y,-z
1/2+x,y,-z
1/2-x,y,z
x,-y,z
loop_
_atom_site_type_symbol
_atom_site_label
_atom_site_fract_x
_atom_site_fract_y
_atom_site_fract_z
Si Si1 0.166348 0.831474 0.006126
Si Si2 0.834589 0.336459 0.802208
Si Si3 0.332883 0.826639 0.583471
Si Si4 0.451643 0.673538 0.693554
Si Si5 0.047470 0.673159 0.910241
Si Si6 0.405294 0.327749 0.403734
O O1 0.250000 0.812504 0.995101
O O2 0.123526 0.741236 0.928394
O O3 0.149548 0.000000 0.998776
O O4 0.146805 0.770621 0.111744
O O5 0.750000 0.335981 0.793253
O O6 0.857436 0.500000 0.829784
O O7 0.866805 0.304490 0.698565
O O8 0.250000 0.789801 0.590035
O O9 0.380515 0.755780 0.666688
O O10 0.366511 0.761912 0.485755
O O11 0.339222 0.000000 0.584845
O O12 0.441061 0.500000 0.689077
O O13 0.476725 0.709031 0.802113
O O14 0.513309 0.709360 0.617533
O O15 0.051173 0.500000 0.916215
O O16 0.000000 0.724446 0.000000
O O17 0.401496 0.500000 0.426324
#
# Coordination Sequence:
#
# PCOD9405123 Si02
#       6
#     8   8   8   8   8   8
#     4  10  21  35  52  79 116 154 191 234 284 339
#     4   9  17  31  54  83 114 150 191 235 284 337
#     4  11  25  42  59  83 117 155 192 231 278 334
#     4  10  22  39  61  88 115 146 187 235 285 338
#     4  10  21  39  62  86 113 147 190 239 287 337
#     4  10  20  37  62  89 115 145 186 237 289 340
#
# _framework density 19.694199999999999
#
# number of rings (size 3 to 8) (size 9 to 14) (size 15 to 20)
#    0.000    2.000    0.000    3.000    0.000   10.667 
#    0.000    6.667    0.000    0.000    0.000    0.000 
#    0.000    0.000    0.000    0.000    0.000    0.000 
#
# Total GULP energy -268134.222912 kJ/mol
# GULP energy per Si atom -5586.129644 kJ/mol
# Density = 1.964937 g / cm^3
# Si number density = 19.694200 Si / 1000 Ang^3
#
#
#
# Elastic Constant Matrix: (Units=GPa)
#
#
# Indices 1 2 3 4 5 6 
#
# 1 94.5242 42.3649 47.0892 0.0000 0.0000 0.0000
# 2 42.3649 24.5950 30.5541 0.0000 0.0000 0.0000
# 3 47.0892 30.5541 90.8354 0.0000 0.0000 0.0000
# 4 0.0000 0.0000 0.0000 -18.7816 0.0000 0.0000
# 5 0.0000 0.0000 0.0000 0.0000 37.8232 0.0000
# 6 0.0000 0.0000 0.0000 0.0000 0.0000 26.1064
#
#
#
# Elastic Compliance Matrix: (Units=1/GPa)
#
#
# Indices 1 2 3 4 5 6 
#
# 1 0.047687 -0.088348 0.004996 0.000000 0.000000 0.000000
# 2 -0.088348 0.233522 -0.032750 0.000000 0.000000 0.000000
# 3 0.004996 -0.032750 0.019435 0.000000 0.000000 0.000000
# 4 0.000000 0.000000 0.000000 -0.053244 0.000000 0.000000
# 5 0.000000 0.000000 0.000000 0.000000 0.026439 0.000000
# 6 0.000000 0.000000 0.000000 0.000000 0.000000 0.038305
#
#
# Mechanical properties :
#
#
# Convention : Reuss Voigt Hill
#
# Bulk Modulus (GPa) = 14.61099 49.99681 32.30390
# Shear Modulus (GPa) = 8.81586 15.02603 11.92094
#
# Velocity S-wave (km/s) = 2.11804 2.76518 2.46296
# Velocity P-wave (km/s) = 3.66285 5.96964 4.95243
#
# Compressibility (1/GPa) = 0.06844163
#
# Stress axis : x y z
#
# Youngs Moduli (GPa) = 20.97012 4.28225 51.45411
#
# Poissons Ratio (x) = 0.37833 -0.25708
# Poissons Ratio (y) = 1.85266 1.68511
# Poissons Ratio (z) = -0.10477 0.14024
#
# Static dielectric constant tensor:
#      x y z
#    x 1.709720 0.000000 0.000000 
#    y 0.000000 1.653290 0.000000 
#    z 0.000000 0.000000 1.691050 
# 
# From -- ./inp_files/24817.got.cif
#   From: 2010.05.17/outbox.cif.g08.bks.cpg/sg51_13_cif.got.tgz:24817.got - 2010.06.03 11:52:47.
