data_PCOD9405442
_publ_section_title
;
Structure prediction by ZEFSAII (Michael W. Deem and Ramdas Pophale) SiO2 
 PCOD9405442
Probable space group: P M M A
;
_chemical_formula_sum "Si O2"
_cell_formula_units_Z 48
_cell_length_a 20.040379
_cell_length_b 7.966614
_cell_length_c 13.787553
_cell_angle_alpha 90.000000
_cell_angle_beta 90.000000
_cell_angle_gamma 90.000000
_cell_volume 2201.237489
_symmetry_space_group_name_H-M "P M M A"
_symmetry_group_IT_number 51
_symmetry_cell_setting 'orthorhombic'
loop_
_space_group_symop_operation_xyz
x,y,z
1/2-x,-y,z
1/2+x,-y,-z
-x,y,-z
-x,-y,-z
1/2+x,y,-z
1/2-x,y,z
x,-y,z
loop_
_atom_site_type_symbol
_atom_site_label
_atom_site_fract_x
_atom_site_fract_y
_atom_site_fract_z
Si Si1 0.823556 0.500000 0.661352
Si Si2 0.426568 0.802501 0.017217
Si Si3 0.823770 0.701913 0.140721
Si Si4 0.173710 0.198664 0.185519
Si Si5 0.030220 0.500000 0.391770
Si Si6 0.676689 0.701646 0.369839
Si Si7 0.465341 0.822247 0.604464
O O1 0.750000 0.500000 0.613552
O O2 0.828031 0.331411 0.726628
O O3 0.890687 0.500000 0.599647
O O4 0.380802 0.742982 0.106812
O O5 0.435156 0.000000 0.036314
O O6 0.500000 0.727548 0.000000
O O7 0.382189 0.779326 0.921628
O O8 0.750000 0.757596 0.107502
O O9 0.826807 0.500000 0.131026
O O10 0.828263 0.739430 0.254915
O O11 0.250000 0.208604 0.146108
O O12 0.163116 0.000000 0.211205
O O13 0.000000 0.500000 0.500000
O O14 0.000183 0.333820 0.342723
O O15 0.750000 0.756158 0.404430
O O16 0.672635 0.500000 0.379553
O O17 0.612108 0.785362 0.414810
O O18 0.500000 0.833866 0.500000
O O19 0.473350 0.000000 0.656196
#
# Coordination Sequence:
#
# PCOD9405442 Si02
#       7
#     4   8   8   8   4   8   8
#     4  10  22  40  65  91 112 151 208 249 297 364
#     4  10  21  35  50  77 117 156 196 242 295 348
#     4   9  19  34  53  78 110 149 194 241 287 340
#     4   9  19  37  59  84 117 156 202 257 302 341
#     4  10  22  42  62  87 124 151 184 239 301 364
#     4   9  18  35  58  87 121 156 198 249 299 351
#     4  10  21  38  61  88 119 156 194 236 296 366
#
# _framework density 21.805914999999999
#
# number of rings (size 3 to 8) (size 9 to 14) (size 15 to 20)
#    0.000    2.500    0.833    1.500    1.167    4.333 
#    0.000    6.667    0.000    1.000    0.000    0.000 
#    0.000    0.000    0.000    0.000    0.000    0.000 
#
# Total GULP energy -267858.710107 kJ/mol
# GULP energy per Si atom -5580.389794 kJ/mol
# Density = 2.175628 g / cm^3
# Si number density = 21.805915 Si / 1000 Ang^3
#
#
#
# Elastic Constant Matrix: (Units=GPa)
#
#
# Indices 1 2 3 4 5 6 
#
# 1 207.0896 33.6269 45.1409 0.0000 0.0000 0.0000
# 2 33.6269 91.6807 7.2133 0.0000 0.0000 0.0000
# 3 45.1409 7.2133 39.1740 0.0000 0.0000 0.0000
# 4 0.0000 0.0000 0.0000 97.1238 0.0000 0.0000
# 5 0.0000 0.0000 0.0000 0.0000 94.8048 0.0000
# 6 0.0000 0.0000 0.0000 0.0000 0.0000 -335.8015
#
#
#
# Elastic Compliance Matrix: (Units=1/GPa)
#
#
# Indices 1 2 3 4 5 6 
#
# 1 0.006758 -0.001893 -0.007438 0.000000 0.000000 0.000000
# 2 -0.001893 0.011598 0.000046 0.000000 0.000000 0.000000
# 3 -0.007438 0.000046 0.034090 0.000000 0.000000 0.000000
# 4 0.000000 0.000000 0.000000 0.010296 0.000000 0.000000
# 5 0.000000 0.000000 0.000000 0.000000 0.010548 0.000000
# 6 0.000000 0.000000 0.000000 0.000000 0.000000 -0.002978
#
#
# Mechanical properties :
#
#
# Convention : Reuss Voigt Hill
#
# Bulk Modulus (GPa) = 29.52058 56.65629 43.08844
# Shear Modulus (GPa) = 49.91277 -11.97706 18.96786
#
# Velocity S-wave (km/s) = 4.78949 -2.34617 2.95252
# Velocity P-wave (km/s) = 6.64477 4.32425 5.60589
#
# Compressibility (1/GPa) = 0.03387467
#
# Stress axis : x y z
#
# Youngs Moduli (GPa) = 147.98032 86.21991 29.33417
#
# Poissons Ratio (x) = 0.16324 0.21820
# Poissons Ratio (y) = 0.28018 -0.00135
# Poissons Ratio (z) = 1.10073 -0.00397
#
# Static dielectric constant tensor:
#      x y z
#    x 1.819150 0.000000 0.000000 
#    y 0.000000 1.870300 0.000000 
#    z 0.000000 0.000000 1.679110 
# 
# From -- ./inp_files/24892.got.cif
#   From: 2010.05.17/outbox.cif.g08.bks.cpg/sg51_13_cif.got.tgz:24892.got - 2010.06.03 11:52:47.
