data_PCOD9405672
_publ_section_title
;
Structure prediction by ZEFSAII (Michael W. Deem and Ramdas Pophale) SiO2 
 PCOD9405672
Probable space group: P M M A
;
_chemical_formula_sum "Si O2"
_cell_formula_units_Z 48
_cell_length_a 18.594256
_cell_length_b 9.188966
_cell_length_c 16.594374
_cell_angle_alpha 90.000000
_cell_angle_beta 90.000000
_cell_angle_gamma 90.000000
_cell_volume 2835.347701
_symmetry_space_group_name_H-M "P M M A"
_symmetry_group_IT_number 51
_symmetry_cell_setting 'orthorhombic'
loop_
_space_group_symop_operation_xyz
x,y,z
1/2-x,-y,z
1/2+x,-y,-z
-x,y,-z
-x,-y,-z
1/2+x,y,-z
1/2-x,y,z
x,-y,z
loop_
_atom_site_type_symbol
_atom_site_label
_atom_site_fract_x
_atom_site_fract_y
_atom_site_fract_z
Si Si1 0.664330 0.672585 0.162829
Si Si2 0.047240 0.172533 0.735480
Si Si3 0.030131 0.326470 0.410824
Si Si4 0.598613 0.171812 0.829705
Si Si5 0.166405 0.325043 0.020346
Si Si6 0.167109 0.824986 0.340463
O O1 0.750000 0.691682 0.171858
O O2 0.649148 0.500000 0.171391
O O3 0.619045 0.762754 0.226568
O O4 0.645468 0.716740 0.070859
O O5 0.022397 0.253824 0.654780
O O6 0.982428 0.197012 0.799291
O O7 0.052093 0.000000 0.721063
O O8 0.033887 0.500000 0.398154
O O9 0.108425 0.256104 0.394878
O O10 0.000000 0.298831 0.500000
O O11 0.619283 0.257236 0.909436
O O12 0.648312 0.211851 0.752723
O O13 0.608172 0.000000 0.844159
O O14 0.250000 0.282205 0.032467
O O15 0.163290 0.500000 0.024005
O O16 0.250000 0.790001 0.358333
O O17 0.157154 0.000000 0.348097
#
# Coordination Sequence:
#
# PCOD9405672 Si02
#       6
#     8   8   8   8   8   8
#     4   9  19  36  54  72  99 134 172 216 259 296
#     4  10  21  36  54  76 101 131 168 208 254 308
#     4  10  21  37  57  80 105 134 168 207 254 307
#     4   9  18  31  47  71 103 135 166 204 249 296
#     4   9  18  31  47  70 100 135 174 212 251 295
#     4   9  18  33  53  78 108 139 170 207 253 303
#
# _framework density 16.92914
#
# number of rings (size 3 to 8) (size 9 to 14) (size 15 to 20)
#    0.000    2.667    0.000    3.500    0.000    7.667 
#    0.000    5.833    0.000    1.000    0.000    0.000 
#    0.000    0.000    0.000    0.000    0.000    0.000 
#
# Total GULP energy -267714.916676 kJ/mol
# GULP energy per Si atom -5577.394097 kJ/mol
# Density = 1.689061 g / cm^3
# Si number density = 16.929140 Si / 1000 Ang^3
#
#
#
# Elastic Constant Matrix: (Units=GPa)
#
#
# Indices 1 2 3 4 5 6 
#
# 1 74.1221 52.7073 67.3597 0.0000 0.0000 0.0000
# 2 52.7073 56.8209 62.5813 0.0000 0.0000 0.0000
# 3 67.3597 62.5813 105.0927 0.0000 0.0000 0.0000
# 4 0.0000 0.0000 0.0000 402.3609 0.0000 0.0000
# 5 0.0000 0.0000 0.0000 0.0000 17.6959 0.0000
# 6 0.0000 0.0000 0.0000 0.0000 0.0000 31.1512
#
#
#
# Elastic Compliance Matrix: (Units=1/GPa)
#
#
# Indices 1 2 3 4 5 6 
#
# 1 0.043793 -0.028208 -0.011272 0.000000 0.000000 0.000000
# 2 -0.028208 0.069308 -0.023192 0.000000 0.000000 0.000000
# 3 -0.011272 -0.023192 0.030551 0.000000 0.000000 0.000000
# 4 0.000000 0.000000 0.000000 0.002485 0.000000 0.000000
# 5 0.000000 0.000000 0.000000 0.000000 0.056510 0.000000
# 6 0.000000 0.000000 0.000000 0.000000 0.000000 0.032102
#
#
# Mechanical properties :
#
#
# Convention : Reuss Voigt Hill
#
# Bulk Modulus (GPa) = 54.62058 66.81469 60.71763
# Shear Modulus (GPa) = 13.65389 93.80076 53.72733
#
# Velocity S-wave (km/s) = 2.84303 7.45172 5.63964
# Velocity P-wave (km/s) = 6.56593 10.65788 8.85161
#
# Compressibility (1/GPa) = 0.01830812
#
# Stress axis : x y z
#
# Youngs Moduli (GPa) = 22.83455 14.42832 32.73240
#
# Poissons Ratio (x) = 0.40699 0.36896
# Poissons Ratio (y) = 0.64412 0.75913
# Poissons Ratio (z) = 0.25739 0.33462
#
# Static dielectric constant tensor:
#      x y z
#    x 1.568180 0.000000 0.000000 
#    y 0.000000 1.562600 0.000000 
#    z 0.000000 0.000000 1.547750 
# 
# From -- ./inp_files/24808.got.cif
#   From: 2010.05.17/outbox.cif.g08.bks.cpg/sg51_13_cif.got.tgz:24808.got - 2010.06.03 11:52:47.
