data_PCOD9405070
_publ_section_title
;
Structure prediction by ZEFSAII (Michael W. Deem and Ramdas Pophale) SiO2 
 PCOD9405070
Probable space group: P M M A
;
_chemical_formula_sum "Si O2"
_cell_formula_units_Z 64
_cell_length_a 25.999785
_cell_length_b 7.836117
_cell_length_c 14.994302
_cell_angle_alpha 90.000000
_cell_angle_beta 90.000000
_cell_angle_gamma 90.000000
_cell_volume 3054.899463
_symmetry_space_group_name_H-M "P M M A"
_symmetry_group_IT_number 51
_symmetry_cell_setting 'orthorhombic'
loop_
_space_group_symop_operation_xyz
x,y,z
1/2-x,-y,z
1/2+x,-y,-z
-x,y,-z
-x,-y,-z
1/2+x,y,-z
1/2-x,y,z
x,-y,z
loop_
_atom_site_type_symbol
_atom_site_label
_atom_site_fract_x
_atom_site_fract_y
_atom_site_fract_z
Si Si1 0.191412 0.704022 0.779888
Si Si2 0.690854 0.797431 0.420369
Si Si3 0.370542 0.699557 0.407949
Si Si4 0.307614 0.294605 0.237323
Si Si5 0.485545 0.803110 0.405289
Si Si6 0.599576 0.205237 0.889794
Si Si7 0.496313 0.789992 0.789233
Si Si8 0.900521 0.204256 0.092234
O O1 0.250000 0.767813 0.793867
O O2 0.192821 0.500000 0.779317
O O3 0.174446 0.762678 0.681265
O O4 0.151969 0.760556 0.855337
O O5 0.750000 0.734242 0.429282
O O6 0.654620 0.718717 0.495145
O O7 0.690875 0.000000 0.434366
O O8 0.381553 0.500000 0.391460
O O9 0.330865 0.761435 0.332420
O O10 0.423963 0.797576 0.399236
O O11 0.250000 0.228298 0.222868
O O12 0.304815 0.500000 0.240407
O O13 0.348159 0.247926 0.161363
O O14 0.500000 0.721350 0.500000
O O15 0.506966 0.729622 0.312993
O O16 0.503836 0.000000 0.408465
O O17 0.550064 0.265213 0.833684
O O18 0.595647 0.000000 0.893311
O O19 0.599208 0.270945 0.991180
O O20 0.448590 0.732891 0.849228
O O21 0.496645 0.000000 0.787128
O O22 0.906577 0.000000 0.086553
#
# Coordination Sequence:
#
# PCOD9405070 Si02
#       8
#     8   8   8   8   8   8   8   8
#     4  10  22  40  59  83 118 156 191 233 288 346
#     4  10  21  37  59  85 112 146 189 235 281 335
#     4  11  22  37  58  84 117 154 192 236 289 351
#     4  10  22  39  58  82 116 157 196 237 294 356
#     4  10  21  36  57  86 117 151 192 239 292 349
#     4  10  20  37  60  86 114 147 195 248 293 342
#     4   9  18  36  59  84 116 151 188 238 295 348
#     4  10  21  36  60  89 114 149 195 241 292 350
#
# _framework density 20.949950999999999
#
# number of rings (size 3 to 8) (size 9 to 14) (size 15 to 20)
#    0.000    2.000    1.250    1.875    1.750    5.500 
#    0.000    3.750    0.000    1.500    0.000    0.000 
#    0.000    0.000    0.000    0.000    0.000    0.000 
#
# Total GULP energy -357564.952469 kJ/mol
# GULP energy per Si atom -5586.952382 kJ/mol
# Density = 2.090227 g / cm^3
# Si number density = 20.949951 Si / 1000 Ang^3
#
#
#
# Elastic Constant Matrix: (Units=GPa)
#
#
# Indices 1 2 3 4 5 6 
#
# 1 109.3868 -1.6912 82.4206 0.0000 0.0000 0.0000
# 2 -1.6912 26.4184 2.5058 0.0000 0.0000 0.0000
# 3 82.4206 2.5058 191.4711 0.0000 0.0000 0.0000
# 4 0.0000 0.0000 0.0000 17.0623 0.0000 0.0000
# 5 0.0000 0.0000 0.0000 0.0000 5509.6270 0.0000
# 6 0.0000 0.0000 0.0000 0.0000 0.0000 59.5535
#
#
#
# Elastic Compliance Matrix: (Units=1/GPa)
#
#
# Indices 1 2 3 4 5 6 
#
# 1 0.013584 0.001426 -0.005866 0.000000 0.000000 0.000000
# 2 0.001426 0.038049 -0.001112 0.000000 0.000000 0.000000
# 3 -0.005866 -0.001112 0.007762 0.000000 0.000000 0.000000
# 4 0.000000 0.000000 0.000000 0.058609 0.000000 0.000000
# 5 0.000000 0.000000 0.000000 0.000000 0.000182 0.000000
# 6 0.000000 0.000000 0.000000 0.000000 0.000000 0.016792
#
#
# Mechanical properties :
#
#
# Convention : Reuss Voigt Hill
#
# Bulk Modulus (GPa) = 20.70747 54.86072 37.78409
# Shear Modulus (GPa) = 30.83035 1133.51797 582.17416
#
# Velocity S-wave (km/s) = 3.84033 23.28593 16.68806
# Velocity P-wave (km/s) = 5.43782 27.37193 19.73313
#
# Compressibility (1/GPa) = 0.04829176
#
# Stress axis : x y z
#
# Youngs Moduli (GPa) = 73.61735 26.28181 128.82760
#
# Poissons Ratio (x) = -0.03748 0.75569
# Poissons Ratio (y) = -0.10498 0.14323
# Poissons Ratio (z) = 0.43183 0.02922
#
# Static dielectric constant tensor:
#      x y z
#    x 1.719700 0.000000 0.000000 
#    y 0.000000 1.775100 0.000000 
#    z 0.000000 0.000000 1.742580 
# 
# From -- ./inp_files/26281.got.cif
#   From: 2010.05.17/outbox.cif.g08.bks.cpg/sg51_14_cif.got.tgz:26281.got - 2010.06.03 11:52:47.
