data_PCOD9405271
_publ_section_title
;
Structure prediction by ZEFSAII (Michael W. Deem and Ramdas Pophale) SiO2 
 PCOD9405271
Probable space group: P M M A
;
_chemical_formula_sum "Si O2"
_cell_formula_units_Z 40
_cell_length_a 22.494883
_cell_length_b 9.041246
_cell_length_c 9.942345
_cell_angle_alpha 90.000000
_cell_angle_beta 90.000000
_cell_angle_gamma 90.000000
_cell_volume 2022.091733
_symmetry_space_group_name_H-M "P M M A"
_symmetry_group_IT_number 51
_symmetry_cell_setting 'orthorhombic'
loop_
_space_group_symop_operation_xyz
x,y,z
1/2-x,-y,z
1/2+x,-y,-z
-x,y,-z
-x,-y,-z
1/2+x,y,-z
1/2-x,y,z
x,-y,z
loop_
_atom_site_type_symbol
_atom_site_label
_atom_site_fract_x
_atom_site_fract_y
_atom_site_fract_z
Si Si1 0.871804 0.326699 0.544418
Si Si2 0.250000 0.324715 0.102612
Si Si3 0.451498 0.327533 0.194758
Si Si4 0.128804 0.675374 0.941697
Si Si5 0.250000 0.823854 0.393237
Si Si6 0.569086 0.825217 0.298487
O O1 0.863410 0.500000 0.515649
O O2 0.900081 0.314198 0.692967
O O3 0.809344 0.242704 0.540982
O O4 0.916893 0.256381 0.437860
O O5 0.250000 0.500000 0.140372
O O6 0.308636 0.296736 0.014605
O O7 0.250000 0.230794 0.238340
O O8 0.470808 0.500000 0.193155
O O9 0.422815 0.292804 0.050886
O O10 0.506177 0.227716 0.238997
O O11 0.125957 0.500000 0.909583
O O12 0.117593 0.770455 0.809791
O O13 0.250000 0.000000 0.400666
O O14 0.570371 0.000000 0.316629
#
# Coordination Sequence:
#
# PCOD9405271 Si02
#       6
#     8   4   8   8   4   8
#     4  11  23  43  68  91 120 165 214 255 299 364
#     4  10  20  41  68  93 118 158 212 256 298 361
#     4  10  21  40  67  92 118 161 216 261 299 365
#     4  10  21  40  66  92 121 161 213 259 300 366
#     4  12  24  39  64  97 130 158 194 252 316 371
#     4  12  26  40  57  91 134 166 201 257 323 373
#
# _framework density 19.781496000000001
#
# number of rings (size 3 to 8) (size 9 to 14) (size 15 to 20)
#    0.000    1.200    2.000    4.500    0.000    8.800 
#    0.000    3.000    0.000    0.000    0.000    0.000 
#    0.000    0.000    0.000    0.000    0.000    0.000 
#
# Total GULP energy -223821.348886 kJ/mol
# GULP energy per Si atom -5595.533722 kJ/mol
# Density = 1.973647 g / cm^3
# Si number density = 19.781496 Si / 1000 Ang^3
#
#
#
# Elastic Constant Matrix: (Units=GPa)
#
#
# Indices 1 2 3 4 5 6 
#
# 1 72.1285 26.5548 -18.6328 0.0000 0.0000 0.0000
# 2 26.5548 96.5070 19.9066 0.0000 0.0000 0.0000
# 3 -18.6328 19.9066 44.4218 0.0000 0.0000 0.0000
# 4 0.0000 0.0000 0.0000 13.1339 0.0000 0.0000
# 5 0.0000 0.0000 0.0000 0.0000 17.2938 0.0000
# 6 0.0000 0.0000 0.0000 0.0000 0.0000 -68.8576
#
#
#
# Elastic Compliance Matrix: (Units=1/GPa)
#
#
# Indices 1 2 3 4 5 6 
#
# 1 0.019840 -0.007907 0.011865 0.000000 0.000000 0.000000
# 2 -0.007907 0.014568 -0.009845 0.000000 0.000000 0.000000
# 3 0.011865 -0.009845 0.031900 0.000000 0.000000 0.000000
# 4 0.000000 0.000000 0.000000 0.076139 0.000000 0.000000
# 5 0.000000 0.000000 0.000000 0.000000 0.057824 0.000000
# 6 0.000000 0.000000 0.000000 0.000000 0.000000 -0.014523
#
#
# Mechanical properties :
#
#
# Convention : Reuss Voigt Hill
#
# Bulk Modulus (GPa) = 18.33658 29.85715 24.09687
# Shear Modulus (GPa) = 23.18036 4.66261 13.92148
#
# Velocity S-wave (km/s) = 3.42690 1.53694 2.65573
# Velocity P-wave (km/s) = 4.99478 4.27502 4.64885
#
# Compressibility (1/GPa) = 0.05453578
#
# Stress axis : x y z
#
# Youngs Moduli (GPa) = 50.40285 68.64251 31.34790
#
# Poissons Ratio (x) = 0.54273 -0.37195
# Poissons Ratio (y) = 0.39852 0.30862
# Poissons Ratio (z) = -0.59804 0.67578
#
# Static dielectric constant tensor:
#      x y z
#    x 1.696540 0.000000 0.000000 
#    y 0.000000 1.655190 0.000000 
#    z 0.000000 0.000000 1.674830 
# 
# From -- ./inp_files/12211.got.cif
#   From: 2010.05.17/outbox.cif.g08.bks.cpg/sg51_7_cif.got.tgz:12211.got - 2010.06.03 11:52:47.
