data_PCOD9405288
_publ_section_title
;
Structure prediction by ZEFSAII (Michael W. Deem and Ramdas Pophale) SiO2 
 PCOD9405288
Probable space group: P M M A
;
_chemical_formula_sum "Si O2"
_cell_formula_units_Z 56
_cell_length_a 13.734983
_cell_length_b 14.616836
_cell_length_c 16.157623
_cell_angle_alpha 90.000000
_cell_angle_beta 90.000000
_cell_angle_gamma 90.000000
_cell_volume 3243.836611
_symmetry_space_group_name_H-M "P M M A"
_symmetry_group_IT_number 51
_symmetry_cell_setting 'orthorhombic'
loop_
_space_group_symop_operation_xyz
x,y,z
1/2-x,-y,z
1/2+x,-y,-z
-x,y,-z
-x,-y,-z
1/2+x,y,-z
1/2-x,y,z
x,-y,z
loop_
_atom_site_type_symbol
_atom_site_label
_atom_site_fract_x
_atom_site_fract_y
_atom_site_fract_z
Si Si1 0.365718 0.209453 0.379505
Si Si2 0.867376 0.395069 0.343277
Si Si3 0.052320 0.790961 0.707678
Si Si4 0.867730 0.399588 0.535856
Si Si5 0.561159 0.889899 0.126816
Si Si6 0.367117 0.895577 0.548482
Si Si7 0.356264 0.889209 0.050666
O O1 0.250000 0.201565 0.363411
O O2 0.436987 0.190589 0.303617
O O3 0.390599 0.312316 0.409330
O O4 0.391053 0.145579 0.458319
O O5 0.750000 0.381331 0.339683
O O6 0.886804 0.500000 0.318171
O O7 0.919977 0.315729 0.292728
O O8 0.897005 0.386245 0.440273
O O9 0.090685 0.841069 0.788975
O O10 0.097323 0.833572 0.623911
O O11 0.750000 0.402299 0.533798
O O12 0.901162 0.500000 0.564530
O O13 0.624320 0.866686 0.045739
O O14 0.564295 0.000000 0.137273
O O15 0.450569 0.861542 0.102856
O O16 0.250000 0.895357 0.551812
O O17 0.401322 0.000000 0.557267
O O18 0.250000 0.855905 0.077607
O O19 0.355919 0.000000 0.054379
#
# Coordination Sequence:
#
# PCOD9405288 Si02
#       7
#     8   8   8   8   8   8   8
#     4  10  21  34  44  62  94 131 172 208 238 279
#     4   9  18  32  49  70  96 124 159 208 258 294
#     4  12  21  30  49  73  97 127 161 200 244 288
#     4   8  14  28  48  64  83 116 161 211 251 281
#     4   9  19  32  47  75 105 123 152 194 232 285
#     4  10  21  35  47  61  89 130 171 207 239 275
#     4   8  15  32  55  73  95 126 153 186 237 288
#
# _framework density 17.263508000000002
#
# number of rings (size 3 to 8) (size 9 to 14) (size 15 to 20)
#    0.000    2.571    1.429    3.000    0.000    4.000 
#    0.000    2.857    0.000    0.000    0.000    2.000 
#    0.000    1.143    0.000    0.000    0.000    0.000 
#
# Total GULP energy -312350.557535 kJ/mol
# GULP energy per Si atom -5577.688527 kJ/mol
# Density = 1.722422 g / cm^3
# Si number density = 17.263508 Si / 1000 Ang^3
#
#
#
# Elastic Constant Matrix: (Units=GPa)
#
#
# Indices 1 2 3 4 5 6 
#
# 1 48.9439 -1.7468 -6.3332 0.0000 0.0000 0.0000
# 2 -1.7468 62.9227 12.4779 0.0000 0.0000 0.0000
# 3 -6.3332 12.4779 38.0136 0.0000 0.0000 0.0000
# 4 0.0000 0.0000 0.0000 10.3210 0.0000 0.0000
# 5 0.0000 0.0000 0.0000 0.0000 6.4808 0.0000
# 6 0.0000 0.0000 0.0000 0.0000 0.0000 15.9430
#
#
#
# Elastic Compliance Matrix: (Units=1/GPa)
#
#
# Indices 1 2 3 4 5 6 
#
# 1 0.020883 -0.000118 0.003518 0.000000 0.000000 0.000000
# 2 -0.000118 0.017000 -0.005600 0.000000 0.000000 0.000000
# 3 0.003518 -0.005600 0.028731 0.000000 0.000000 0.000000
# 4 0.000000 0.000000 0.000000 0.096890 0.000000 0.000000
# 5 0.000000 0.000000 0.000000 0.000000 0.154303 0.000000
# 6 0.000000 0.000000 0.000000 0.000000 0.000000 0.062723
#
#
# Mechanical properties :
#
#
# Convention : Reuss Voigt Hill
#
# Bulk Modulus (GPa) = 16.07379 17.63067 16.85223
# Shear Modulus (GPa) = 12.32542 16.24779 14.28661
#
# Velocity S-wave (km/s) = 2.67490 3.07117 2.87986
# Velocity P-wave (km/s) = 4.34410 4.77608 4.56520
#
# Compressibility (1/GPa) = 0.06221309
#
# Stress axis : x y z
#
# Youngs Moduli (GPa) = 47.88690 58.82458 34.80620
#
# Poissons Ratio (x) = 0.00693 -0.12244
# Poissons Ratio (y) = 0.00564 0.19491
# Poissons Ratio (z) = -0.16846 0.32940
#
# Static dielectric constant tensor:
#      x y z
#    x 1.664890 0.000000 0.000000 
#    y 0.000000 1.586430 0.000000 
#    z 0.000000 0.000000 1.542050 
# 
# From -- ./inp_files/24271.got.cif
#   From: 2010.05.17/outbox.cif.g08.bks.cpg/sg51_13_cif.got.tgz:24271.got - 2010.06.03 11:52:47.
