data_PCOD9405275
_publ_section_title
;
Structure prediction by ZEFSAII (Michael W. Deem and Ramdas Pophale) SiO2 
 PCOD9405275
Probable space group: P M M A
;
_chemical_formula_sum "Si O2"
_cell_formula_units_Z 48
_cell_length_a 17.554793
_cell_length_b 7.607336
_cell_length_c 17.444650
_cell_angle_alpha 90.000000
_cell_angle_beta 90.000000
_cell_angle_gamma 90.000000
_cell_volume 2329.649426
_symmetry_space_group_name_H-M "P M M A"
_symmetry_group_IT_number 51
_symmetry_cell_setting 'orthorhombic'
loop_
_space_group_symop_operation_xyz
x,y,z
1/2-x,-y,z
1/2+x,-y,-z
-x,y,-z
-x,-y,-z
1/2+x,y,-z
1/2-x,y,z
x,-y,z
loop_
_atom_site_type_symbol
_atom_site_label
_atom_site_fract_x
_atom_site_fract_y
_atom_site_fract_z
Si Si1 0.400730 0.289756 0.568288
Si Si2 0.431733 0.214834 0.102540
Si Si3 0.750000 0.792745 0.336443
Si Si4 0.898085 0.214184 0.069073
Si Si5 0.431292 0.712310 0.397638
Si Si6 0.164105 0.209108 0.247024
Si Si7 0.750000 0.783911 0.162559
O O1 0.407080 0.500000 0.563931
O O2 0.325836 0.251877 0.616475
O O3 0.480479 0.226849 0.605125
O O4 0.398558 0.226847 0.479993
O O5 0.520288 0.269317 0.103287
O O6 0.383800 0.278954 0.174837
O O7 0.431898 0.000000 0.103566
O O8 0.397285 0.267346 0.020219
O O9 0.750000 0.719767 0.250144
O O10 0.750000 0.000000 0.327395
O O11 0.825738 0.272733 0.117570
O O12 0.897593 0.000000 0.069597
O O13 0.431415 0.500000 0.398088
O O14 0.381490 0.766185 0.325616
O O15 0.250000 0.280379 0.251382
O O16 0.170035 0.000000 0.234878
O O17 0.750000 0.000000 0.162343
#
# Coordination Sequence:
#
# PCOD9405275 Si02
#       7
#     8   8   4   8   8   8   4
#     4   9  20  40  60  76  99 137 183 221 255 306
#     4   8  15  27  44  66  97 138 174 206 253 308
#     4  11  23  33  51  86 117 138 166 209 269 321
#     4   8  14  26  43  64  95 137 177 208 245 301
#     4   9  20  39  60  77  96 135 185 222 257 306
#     4  10  21  32  48  79 113 137 165 213 271 319
#     4   9  18  27  41  70 105 134 166 209 253 303
#
# _framework density 20.603957999999999
#
# number of rings (size 3 to 8) (size 9 to 14) (size 15 to 20)
#    0.000    3.000    0.000    2.250    4.667    1.667 
#    0.000    1.667    0.000    0.000    0.000    4.667 
#    0.000    0.000    0.000    0.000    0.000    0.000 
#
# Total GULP energy -267838.759921 kJ/mol
# GULP energy per Si atom -5579.974165 kJ/mol
# Density = 2.055706 g / cm^3
# Si number density = 20.603958 Si / 1000 Ang^3
#
#
#
# Elastic Constant Matrix: (Units=GPa)
#
#
# Indices 1 2 3 4 5 6 
#
# 1 214.8371 4.3495 169.2552 0.0000 0.0000 0.0000
# 2 4.3495 39.8567 2.7168 0.0000 0.0000 0.0000
# 3 169.2552 2.7168 195.4865 0.0000 0.0000 0.0000
# 4 0.0000 0.0000 0.0000 49.7961 0.0000 0.0000
# 5 0.0000 0.0000 0.0000 0.0000 37.7441 0.0000
# 6 0.0000 0.0000 0.0000 0.0000 0.0000 11.8795
#
#
#
# Elastic Compliance Matrix: (Units=1/GPa)
#
#
# Indices 1 2 3 4 5 6 
#
# 1 0.014664 -0.000736 -0.012686 0.000000 0.000000 0.000000
# 2 -0.000736 0.025151 0.000287 0.000000 0.000000 0.000000
# 3 -0.012686 0.000287 0.016095 0.000000 0.000000 0.000000
# 4 0.000000 0.000000 0.000000 0.020082 0.000000 0.000000
# 5 0.000000 0.000000 0.000000 0.000000 0.026494 0.000000
# 6 0.000000 0.000000 0.000000 0.000000 0.000000 0.084179
#
#
# Mechanical properties :
#
#
# Convention : Reuss Voigt Hill
#
# Bulk Modulus (GPa) = 33.73685 89.20258 61.46972
# Shear Modulus (GPa) = 22.44019 38.14120 30.29070
#
# Velocity S-wave (km/s) = 3.30376 4.30718 3.83840
# Velocity P-wave (km/s) = 5.56441 8.25370 7.03869
#
# Compressibility (1/GPa) = 0.02964118
#
# Stress axis : x y z
#
# Youngs Moduli (GPa) = 68.19330 39.76055 62.12953
#
# Poissons Ratio (x) = 0.02924 0.78819
# Poissons Ratio (y) = 0.05016 -0.01785
# Poissons Ratio (z) = 0.86512 -0.01142
#
# Static dielectric constant tensor:
#      x y z
#    x 1.359670 0.000000 0.000000 
#    y 0.000000 1.787270 0.000000 
#    z 0.000000 0.000000 1.711780 
# 
# From -- ./inp_files/24954.got.cif
#   From: 2010.05.17/outbox.cif.g08.bks.cpg/sg51_13_cif.got.tgz:24954.got - 2010.06.03 11:52:47.
