data_PCOD9405051
_publ_section_title
;
Structure prediction by ZEFSAII (Michael W. Deem and Ramdas Pophale) SiO2 
 PCOD9405051
Probable space group: P M M A
;
_chemical_formula_sum "Si O2"
_cell_formula_units_Z 32
_cell_length_a 8.617627
_cell_length_b 13.243314
_cell_length_c 14.299093
_cell_angle_alpha 90.000000
_cell_angle_beta 90.000000
_cell_angle_gamma 90.000000
_cell_volume 1631.897434
_symmetry_space_group_name_H-M "P M M A"
_symmetry_group_IT_number 51
_symmetry_cell_setting 'orthorhombic'
loop_
_space_group_symop_operation_xyz
x,y,z
1/2-x,-y,z
1/2+x,-y,-z
-x,y,-z
-x,-y,-z
1/2+x,y,-z
1/2-x,y,z
x,-y,z
loop_
_atom_site_type_symbol
_atom_site_label
_atom_site_fract_x
_atom_site_fract_y
_atom_site_fract_z
Si Si1 0.936747 0.776419 0.894715
Si Si2 0.565379 0.307067 0.286079
Si Si3 0.563274 0.000000 0.894617
Si Si4 0.936565 0.886337 0.605830
Si Si5 0.064991 0.500000 0.394997
O O1 0.750000 0.771237 0.896015
O O2 0.005066 0.699007 0.820275
O O3 0.983882 0.889637 0.858895
O O4 0.000000 0.763946 0.000000
O O5 0.750000 0.313338 0.287954
O O6 0.509839 0.204614 0.336759
O O7 0.494089 0.401221 0.340955
O O8 0.750000 0.000000 0.893823
O O9 0.500000 0.000000 0.000000
O O10 0.750000 0.875866 0.606190
O O11 0.000000 0.880965 0.500000
O O12 0.972525 0.000000 0.641656
O O13 0.250000 0.500000 0.398351
O O14 0.000000 0.500000 0.500000
#
# Coordination Sequence:
#
# PCOD9405051 Si02
#       5
#     8   8   4   8   4
#     4  10  20  37  59  89 126 169 213 260 311 368
#     4  12  25  41  63  93 126 164 210 258 312 375
#     4   8  16  30  52  80 117 160 205 250 298 354
#     4  10  21  38  60  88 124 163 204 253 311 375
#     4  12  26  48  73  96 123 160 206 262 318 376
#
# _framework density 19.609075000000001
#
# number of rings (size 3 to 8) (size 9 to 14) (size 15 to 20)
#    0.000    1.500    0.000    5.625    1.750    2.500 
#    0.000    0.625    0.000    0.000    0.000    0.000 
#    0.000    0.000    0.000    0.000    0.000    0.000 
#
# Total GULP energy -178825.778662 kJ/mol
# GULP energy per Si atom -5588.305583 kJ/mol
# Density = 1.956444 g / cm^3
# Si number density = 19.609075 Si / 1000 Ang^3
#
#
#
# Elastic Constant Matrix: (Units=GPa)
#
#
# Indices 1 2 3 4 5 6 
#
# 1 141.3749 73.9850 66.1536 0.0000 0.0000 0.0000
# 2 73.9850 139.3211 97.8454 0.0000 0.0000 0.0000
# 3 66.1536 97.8454 143.2967 0.0000 0.0000 0.0000
# 4 0.0000 0.0000 0.0000 38.8918 0.0000 0.0000
# 5 0.0000 0.0000 0.0000 0.0000 34.3197 0.0000
# 6 0.0000 0.0000 0.0000 0.0000 0.0000 26.7071
#
#
#
# Elastic Compliance Matrix: (Units=1/GPa)
#
#
# Indices 1 2 3 4 5 6 
#
# 1 0.010062 -0.003998 -0.001915 0.000000 0.000000 0.000000
# 2 -0.003998 0.015380 -0.008656 0.000000 0.000000 0.000000
# 3 -0.001915 -0.008656 0.013773 0.000000 0.000000 0.000000
# 4 0.000000 0.000000 0.000000 0.025712 0.000000 0.000000
# 5 0.000000 0.000000 0.000000 0.000000 0.029138 0.000000
# 6 0.000000 0.000000 0.000000 0.000000 0.000000 0.037443
#
#
# Mechanical properties :
#
#
# Convention : Reuss Voigt Hill
#
# Bulk Modulus (GPa) = 99.24130 99.99561 99.61846
# Shear Modulus (GPa) = 30.48680 32.38429 31.43554
#
# Velocity S-wave (km/s) = 3.94728 4.06827 4.00823
# Velocity P-wave (km/s) = 8.45544 8.55412 8.50492
#
# Compressibility (1/GPa) = 0.01007645
#
# Stress axis : x y z
#
# Youngs Moduli (GPa) = 99.38469 65.01970 72.60627
#
# Poissons Ratio (x) = 0.25997 0.13904
# Poissons Ratio (y) = 0.39738 0.62847
# Poissons Ratio (z) = 0.19032 0.56280
#
# Static dielectric constant tensor:
#      x y z
#    x 1.652090 0.000000 0.000000 
#    y 0.000000 1.691340 0.000000 
#    z 0.000000 0.000000 1.675980 
# 
# From -- ./inp_files/20114.got.cif
#   From: 2010.05.17/outbox.cif.g08.bks.cpg/sg51_11_cif.got.tgz:20114.got - 2010.06.03 11:52:47.
