data_PCOD9405495
_publ_section_title
;
Structure prediction by ZEFSAII (Michael W. Deem and Ramdas Pophale) SiO2 
 PCOD9405495
Probable space group: P M M A
;
_chemical_formula_sum "Si O2"
_cell_formula_units_Z 64
_cell_length_a 8.665702
_cell_length_b 20.832171
_cell_length_c 19.103744
_cell_angle_alpha 90.000000
_cell_angle_beta 90.000000
_cell_angle_gamma 90.000000
_cell_volume 3448.710758
_symmetry_space_group_name_H-M "P M M A"
_symmetry_group_IT_number 51
_symmetry_cell_setting 'orthorhombic'
loop_
_space_group_symop_operation_xyz
x,y,z
1/2-x,-y,z
1/2+x,-y,-z
-x,y,-z
-x,-y,-z
1/2+x,y,-z
1/2-x,y,z
x,-y,z
loop_
_atom_site_type_symbol
_atom_site_label
_atom_site_fract_x
_atom_site_fract_y
_atom_site_fract_z
Si Si1 0.563361 0.689940 0.825289
Si Si2 0.565221 0.425590 0.576440
Si Si3 0.936032 0.925852 0.164625
Si Si4 0.437863 0.072774 0.674391
Si Si5 0.065575 0.190656 0.077560
Si Si6 0.563824 0.573403 0.923290
Si Si7 0.934856 0.313707 0.330404
Si Si8 0.936671 0.809775 0.421785
O O1 0.750000 0.689813 0.820381
O O2 0.515973 0.750647 0.872448
O O3 0.515055 0.625052 0.865667
O O4 0.494895 0.693735 0.748167
O O5 0.500000 0.407747 0.500000
O O6 0.750000 0.421324 0.574890
O O7 0.522103 0.500000 0.589587
O O8 0.499461 0.377889 0.634083
O O9 0.750000 0.920709 0.161048
O O10 0.982674 0.912312 0.245345
O O11 0.009556 0.875349 0.112360
O O12 0.976638 0.000000 0.149426
O O13 0.250000 0.072599 0.673834
O O14 0.489410 0.126800 0.620276
O O15 0.487994 0.000000 0.657569
O O16 0.250000 0.191268 0.073963
O O17 0.000000 0.198371 0.000000
O O18 0.750000 0.574741 0.926655
O O19 0.515996 0.500000 0.907366
O O20 0.500000 0.590249 0.000000
O O21 0.750000 0.315701 0.330099
O O22 0.983684 0.252994 0.377825
O O23 0.750000 0.810709 0.424384
O O24 0.000000 0.807964 0.500000
#
# Coordination Sequence:
#
# PCOD9405495 Si02
#       8
#     8   8   8   8   8   8   8   8
#     4  10  22  38  55  79 110 143 181 225 273 322
#     4  10  21  38  60  84 112 146 183 226 275 328
#     4   9  18  35  59  82 105 138 179 222 270 326
#     4   8  15  31  55  79 104 137 176 216 260 314
#     4  11  23  37  55  79 109 144 181 226 276 327
#     4   9  18  34  56  80 107 139 174 213 259 313
#     4  11  23  37  56  81 109 144 185 229 274 324
#     4  10  21  35  52  77 107 139 176 218 264 313
#
# _framework density 18.557659000000001
#
# number of rings (size 3 to 8) (size 9 to 14) (size 15 to 20)
#    0.000    2.250    0.000    3.375    0.000    6.500 
#    0.000    1.875    0.000    0.750    0.000    0.000 
#    0.000    0.000    0.000    0.000    0.000    0.000 
#
# Total GULP energy -357388.933325 kJ/mol
# GULP energy per Si atom -5584.202083 kJ/mol
# Density = 1.851542 g / cm^3
# Si number density = 18.557659 Si / 1000 Ang^3
#
#
#
# Elastic Constant Matrix: (Units=GPa)
#
#
# Indices 1 2 3 4 5 6 
#
# 1 19.5345 36.3213 40.6340 0.0000 0.0000 0.0000
# 2 36.3213 121.9968 114.7268 0.0000 0.0000 0.0000
# 3 40.6340 114.7268 183.0696 0.0000 0.0000 0.0000
# 4 0.0000 0.0000 0.0000 40.3168 0.0000 0.0000
# 5 0.0000 0.0000 0.0000 0.0000 30.5704 0.0000
# 6 0.0000 0.0000 0.0000 0.0000 0.0000 10.9031
#
#
#
# Elastic Compliance Matrix: (Units=1/GPa)
#
#
# Indices 1 2 3 4 5 6 
#
# 1 0.122507 -0.026547 -0.010555 0.000000 0.000000 0.000000
# 2 -0.026547 0.025713 -0.010222 0.000000 0.000000 0.000000
# 3 -0.010555 -0.010222 0.014211 0.000000 0.000000 0.000000
# 4 0.000000 0.000000 0.000000 0.024804 0.000000 0.000000
# 5 0.000000 0.000000 0.000000 0.000000 0.032711 0.000000
# 6 0.000000 0.000000 0.000000 0.000000 0.000000 0.091717
#
#
# Mechanical properties :
#
#
# Convention : Reuss Voigt Hill
#
# Bulk Modulus (GPa) = 14.75281 78.66281 46.70781
# Shear Modulus (GPa) = 11.65757 25.21930 18.43844
#
# Velocity S-wave (km/s) = 2.50907 3.69042 3.15552
# Velocity P-wave (km/s) = 4.04486 7.78712 6.20484
#
# Compressibility (1/GPa) = 0.06778369
#
# Stress axis : x y z
#
# Youngs Moduli (GPa) = 8.16278 38.89049 70.36873
#
# Poissons Ratio (x) = 1.03244 0.74273
# Poissons Ratio (y) = 0.21670 0.71928
# Poissons Ratio (z) = 0.08616 0.39752
#
# Static dielectric constant tensor:
#      x y z
#    x 1.630760 0.000000 0.000000 
#    y 0.000000 1.642310 0.000000 
#    z 0.000000 0.000000 1.597960 
# 
# From -- ./inp_files/28476.got.cif
#   From: 2010.05.17/outbox.cif.g08.bks.cpg/sg51_15_cif.got.tgz:28476.got - 2010.06.03 11:52:47.
