data_PCOD9405695
_publ_section_title
;
Structure prediction by ZEFSAII (Michael W. Deem and Ramdas Pophale) SiO2 
 PCOD9405695
Probable space group: P M M A
;
_chemical_formula_sum "Si O2"
_cell_formula_units_Z 40
_cell_length_a 9.483939
_cell_length_b 7.616160
_cell_length_c 26.487784
_cell_angle_alpha 90.000000
_cell_angle_beta 90.000000
_cell_angle_gamma 90.000000
_cell_volume 1913.244340
_symmetry_space_group_name_H-M "P M M A"
_symmetry_group_IT_number 51
_symmetry_cell_setting 'orthorhombic'
loop_
_space_group_symop_operation_xyz
x,y,z
1/2-x,-y,z
1/2+x,-y,-z
-x,y,-z
-x,-y,-z
1/2+x,y,-z
1/2-x,y,z
x,-y,z
loop_
_atom_site_type_symbol
_atom_site_label
_atom_site_fract_x
_atom_site_fract_y
_atom_site_fract_z
Si Si1 0.089158 0.789505 0.243466
Si Si2 0.087838 0.214969 0.852239
Si Si3 0.407929 0.791889 0.546101
Si Si4 0.589887 0.291360 0.642790
Si Si5 0.087185 0.214589 0.049298
O O1 0.250000 0.721985 0.237864
O O2 0.041559 0.751061 0.300432
O O3 0.986706 0.725735 0.199430
O O4 0.095786 0.000000 0.238421
O O5 0.250000 0.271638 0.856127
O O6 0.994594 0.269283 0.900190
O O7 0.088975 0.000000 0.852185
O O8 0.500000 0.717408 0.500000
O O9 0.250000 0.718031 0.547770
O O10 0.488508 0.771895 0.598799
O O11 0.395213 0.000000 0.536944
O O12 0.750000 0.220168 0.636966
O O13 0.597162 0.500000 0.638472
O O14 0.250000 0.271714 0.048364
O O15 0.088843 0.000000 0.049141
O O16 0.000000 0.270017 0.000000
#
# Coordination Sequence:
#
# PCOD9405695 Si02
#       5
#     8   8   8   8   8
#     4   9  17  30  48  68  92 125 163 202 244 290
#     4   9  16  25  38  58  84 115 154 198 241 287
#     4  10  21  37  58  82 106 134 169 207 247 293
#     4  10  21  36  54  77 105 136 169 206 250 299
#     4   9  15  22  33  51  79 115 152 190 236 290
#
# _framework density 20.906894999999999
#
# number of rings (size 3 to 8) (size 9 to 14) (size 15 to 20)
#    0.000    2.600    0.000    2.400    0.000    8.400 
#    0.000    2.000    0.000    0.000    0.000    0.000 
#    0.000    0.800    0.000    2.200    0.000    4.000 
#
# Total GULP energy -223373.838844 kJ/mol
# GULP energy per Si atom -5584.345971 kJ/mol
# Density = 2.085931 g / cm^3
# Si number density = 20.906895 Si / 1000 Ang^3
#
#
#
# Elastic Constant Matrix: (Units=GPa)
#
#
# Indices 1 2 3 4 5 6 
#
# 1 198.3629 5.6541 153.3575 0.0000 0.0000 0.0000
# 2 5.6541 42.0734 -3.7682 0.0000 0.0000 0.0000
# 3 153.3575 -3.7682 210.6474 0.0000 0.0000 0.0000
# 4 0.0000 0.0000 0.0000 -78.3908 0.0000 0.0000
# 5 0.0000 0.0000 0.0000 0.0000 40.3722 0.0000
# 6 0.0000 0.0000 0.0000 0.0000 0.0000 -2.4068
#
#
#
# Elastic Compliance Matrix: (Units=1/GPa)
#
#
# Indices 1 2 3 4 5 6 
#
# 1 0.011760 -0.002351 -0.008604 0.000000 0.000000 0.000000
# 2 -0.002351 0.024276 0.002146 0.000000 0.000000 0.000000
# 3 -0.008604 0.002146 0.011049 0.000000 0.000000 0.000000
# 4 0.000000 0.000000 0.000000 -0.012757 0.000000 0.000000
# 5 0.000000 0.000000 0.000000 0.000000 0.024770 0.000000
# 6 0.000000 0.000000 0.000000 0.000000 0.000000 -0.415492
#
#
# Mechanical properties :
#
#
# Convention : Reuss Voigt Hill
#
# Bulk Modulus (GPa) = 33.93526 84.61895 59.27710
# Shear Modulus (GPa) = -15.19968 11.63762 -1.78103
#
# Velocity S-wave (km/s) = -2.69925 2.36188 -0.92398
# Velocity P-wave (km/s) = 2.55973 6.92821 5.22266
#
# Compressibility (1/GPa) = 0.02946787
#
# Stress axis : x y z
#
# Youngs Moduli (GPa) = 85.03528 41.19280 90.50349
#
# Poissons Ratio (x) = 0.09684 0.77865
# Poissons Ratio (y) = 0.19991 -0.19420
# Poissons Ratio (z) = 0.73161 -0.08839
#
# Static dielectric constant tensor:
#      x y z
#    x 1.736470 0.000000 0.000000 
#    y 0.000000 1.767600 0.000000 
#    z 0.000000 0.000000 1.708960 
# 
# From -- ./inp_files/34288.got.cif
#   From: 2010.05.17/outbox.cif.g08.bks.cpg/sg51_18_cif.got.tgz:34288.got - 2010.06.03 11:52:47.
