data_PCOD9405637
_publ_section_title
;
Structure prediction by ZEFSAII (Michael W. Deem and Ramdas Pophale) SiO2 
 PCOD9405637
Probable space group: P M M A
;
_chemical_formula_sum "Si O2"
_cell_formula_units_Z 64
_cell_length_a 19.206691
_cell_length_b 9.178618
_cell_length_c 19.520631
_cell_angle_alpha 90.000000
_cell_angle_beta 90.000000
_cell_angle_gamma 90.000000
_cell_volume 3441.309212
_symmetry_space_group_name_H-M "P M M A"
_symmetry_group_IT_number 51
_symmetry_cell_setting 'orthorhombic'
loop_
_space_group_symop_operation_xyz
x,y,z
1/2-x,-y,z
1/2+x,-y,-z
-x,y,-z
-x,-y,-z
1/2+x,y,-z
1/2-x,y,z
x,-y,z
loop_
_atom_site_type_symbol
_atom_site_label
_atom_site_fract_x
_atom_site_fract_y
_atom_site_fract_z
Si Si1 0.168495 0.675858 0.537955
Si Si2 0.571349 0.824735 0.357444
Si Si3 0.333703 0.164192 0.002268
Si Si4 0.048844 0.672834 0.935298
Si Si5 0.525422 0.171029 0.209037
Si Si6 0.896664 0.665619 0.736572
Si Si7 0.830634 0.343512 0.873939
Si Si8 0.069766 0.328577 0.411351
O O1 0.250000 0.711175 0.525667
O O2 0.163983 0.500000 0.545361
O O3 0.136889 0.755662 0.603933
O O4 0.116111 0.717543 0.475787
O O5 0.572046 0.789375 0.275886
O O6 0.501297 0.756968 0.392925
O O7 0.568993 0.000000 0.364053
O O8 0.250000 0.168798 0.995176
O O9 0.373420 0.276709 0.954534
O O10 0.356637 0.000000 0.987818
O O11 0.355534 0.211996 0.079312
O O12 0.043237 0.500000 0.929566
O O13 0.032532 0.743757 0.861975
O O14 0.000000 0.719153 0.000000
O O15 0.450215 0.213555 0.238645
O O16 0.533039 0.000000 0.196220
O O17 0.927106 0.500000 0.742697
O O18 0.837193 0.673364 0.792984
O O19 0.882575 0.684081 0.656850
O O20 0.750000 0.354788 0.890800
O O21 0.864934 0.500000 0.892592
O O22 0.051535 0.500000 0.420518
#
# Coordination Sequence:
#
# PCOD9405637 Si02
#       8
#     8   8   8   8   8   8   8   8
#     4  10  21  36  55  81 111 142 179 223 269 317
#     4  10  21  37  57  80 106 139 180 221 262 314
#     4  10  21  36  53  74 102 138 178 217 260 313
#     4  11  23  37  56  83 111 138 172 217 267 317
#     4  10  21  36  54  77 104 135 173 217 264 314
#     4   9  17  30  49  74 104 137 172 212 258 308
#     4   9  17  29  46  69  99 136 175 212 253 306
#     4   9  18  33  54  79 108 142 178 218 264 314
#
# _framework density 18.597572
#
# number of rings (size 3 to 8) (size 9 to 14) (size 15 to 20)
#    0.000    2.250    0.000    2.625    0.000    9.500 
#    0.000    3.125    0.000    0.750    0.000    5.250 
#    0.000    0.000    0.000    0.000    0.000    0.000 
#
# Total GULP energy -356427.495559 kJ/mol
# GULP energy per Si atom -5569.179618 kJ/mol
# Density = 1.855524 g / cm^3
# Si number density = 18.597572 Si / 1000 Ang^3
#
#
#
# Elastic Constant Matrix: (Units=GPa)
#
#
# Indices 1 2 3 4 5 6 
#
# 1 47.9778 26.9082 34.1154 0.0000 0.0000 0.0000
# 2 26.9082 48.5634 49.9175 0.0000 0.0000 0.0000
# 3 34.1154 49.9175 128.5836 0.0000 0.0000 0.0000
# 4 0.0000 0.0000 0.0000 14.9281 0.0000 0.0000
# 5 0.0000 0.0000 0.0000 0.0000 27.2863 0.0000
# 6 0.0000 0.0000 0.0000 0.0000 0.0000 16.0263
#
#
#
# Elastic Compliance Matrix: (Units=1/GPa)
#
#
# Indices 1 2 3 4 5 6 
#
# 1 0.030742 -0.014393 -0.002569 0.000000 0.000000 0.000000
# 2 -0.014393 0.041003 -0.012099 0.000000 0.000000 0.000000
# 3 -0.002569 -0.012099 0.013156 0.000000 0.000000 0.000000
# 4 0.000000 0.000000 0.000000 0.066988 0.000000 0.000000
# 5 0.000000 0.000000 0.000000 0.000000 0.036648 0.000000
# 6 0.000000 0.000000 0.000000 0.000000 0.000000 0.062398
#
#
# Mechanical properties :
#
#
# Convention : Reuss Voigt Hill
#
# Bulk Modulus (GPa) = 37.34340 49.66744 43.50542
# Shear Modulus (GPa) = 15.72412 19.26037 17.49224
#
# Velocity S-wave (km/s) = 2.91089 3.22163 3.07019
# Velocity P-wave (km/s) = 5.60545 6.37204 6.00100
#
# Compressibility (1/GPa) = 0.02677849
#
# Stress axis : x y z
#
# Youngs Moduli (GPa) = 32.52883 24.38839 76.01356
#
# Poissons Ratio (x) = 0.35103 0.19526
# Poissons Ratio (y) = 0.46820 0.91969
# Poissons Ratio (z) = 0.08356 0.29508
#
# Static dielectric constant tensor:
#      x y z
#    x 1.662540 0.000000 0.000000 
#    y 0.000000 1.655010 0.000000 
#    z 0.000000 0.000000 1.679390 
# 
# From -- ./inp_files/30697.got.cif
#   From: 2010.05.17/outbox.cif.g08.bks.cpg/sg51_16_cif.got.tgz:30697.got - 2010.06.03 11:52:47.
