data_PCOD9405945
_publ_section_title
;
Structure prediction by ZEFSAII (Michael W. Deem and Ramdas Pophale) SiO2 
 PCOD9405945
Probable space group: P M M A
;
_chemical_formula_sum "Si O2"
_cell_formula_units_Z 64
_cell_length_a 14.669934
_cell_length_b 8.365000
_cell_length_c 26.388096
_cell_angle_alpha 90.000000
_cell_angle_beta 90.000000
_cell_angle_gamma 90.000000
_cell_volume 3238.188757
_symmetry_space_group_name_H-M "P M M A"
_symmetry_group_IT_number 51
_symmetry_cell_setting 'orthorhombic'
loop_
_space_group_symop_operation_xyz
x,y,z
1/2-x,-y,z
1/2+x,-y,-z
-x,y,-z
-x,-y,-z
1/2+x,y,-z
1/2-x,y,z
x,-y,z
loop_
_atom_site_type_symbol
_atom_site_label
_atom_site_fract_x
_atom_site_fract_y
_atom_site_fract_z
Si Si1 0.961619 0.692783 0.076622
Si Si2 0.645100 0.188582 0.701015
Si Si3 0.854574 0.305129 0.974921
Si Si4 0.394744 0.682244 0.513646
Si Si5 0.042847 0.309387 0.727132
Si Si6 0.855700 0.305969 0.373589
Si Si7 0.644181 0.679330 0.593403
Si Si8 0.854085 0.190882 0.174027
O O1 0.962821 0.500000 0.076812
O O2 0.918229 0.750899 0.128547
O O3 0.065683 0.745343 0.064337
O O4 0.895712 0.741382 0.029834
O O5 0.750000 0.246253 0.709506
O O6 0.563491 0.265095 0.732787
O O7 0.615959 0.224775 0.642727
O O8 0.645620 0.000000 0.709080
O O9 0.750000 0.250113 0.967300
O O10 0.852206 0.500000 0.973848
O O11 0.500000 0.671150 0.500000
O O12 0.355973 0.500000 0.514599
O O13 0.380305 0.751584 0.569460
O O14 0.360067 0.759838 0.461730
O O15 0.050413 0.500000 0.726690
O O16 0.083333 0.249015 0.673235
O O17 0.103045 0.243949 0.772824
O O18 0.750000 0.268772 0.363925
O O19 0.864959 0.500000 0.375469
O O20 0.750000 0.655365 0.601954
O O21 0.599672 0.500000 0.592722
O O22 0.750000 0.252028 0.168404
O O23 0.851176 0.000000 0.172639
#
# Coordination Sequence:
#
# PCOD9405945 Si02
#       8
#     8   8   8   8   8   8   8   8
#     4   9  17  31  55  85 114 150 195 236 274 320
#     4  10  21  37  56  77 104 137 170 211 269 333
#     4   8  14  27  51  85 122 154 186 230 281 326
#     4   9  15  23  39  67 101 130 158 201 258 314
#     4  11  22  37  59  82 103 133 180 234 278 322
#     4   9  17  29  47  74 105 133 165 213 272 324
#     4   9  16  27  46  71  96 124 161 202 245 304
#     4  11  24  40  57  79 111 149 186 228 279 330
#
# _framework density 19.764135
#
# number of rings (size 3 to 8) (size 9 to 14) (size 15 to 20)
#    0.000    2.500    0.000    3.750    0.000    6.250 
#    0.000    1.875    0.000    7.500    0.000    1.750 
#    0.000    0.000    0.000    0.000    0.000    0.000 
#
# Total GULP energy -356515.769435 kJ/mol
# GULP energy per Si atom -5570.558897 kJ/mol
# Density = 1.971915 g / cm^3
# Si number density = 19.764135 Si / 1000 Ang^3
#
#
#
# Elastic Constant Matrix: (Units=GPa)
#
#
# Indices 1 2 3 4 5 6 
#
# 1 165.6255 13.8893 62.8783 0.0000 0.0000 0.0000
# 2 13.8893 10.9361 7.5578 0.0000 0.0000 0.0000
# 3 62.8783 7.5578 73.2839 0.0000 0.0000 0.0000
# 4 0.0000 0.0000 0.0000 26.6298 0.0000 0.0000
# 5 0.0000 0.0000 0.0000 0.0000 26.3554 0.0000
# 6 0.0000 0.0000 0.0000 0.0000 0.0000 14.3120
#
#
#
# Elastic Compliance Matrix: (Units=1/GPa)
#
#
# Indices 1 2 3 4 5 6 
#
# 1 0.009409 -0.006860 -0.007366 0.000000 0.000000 0.000000
# 2 -0.006860 0.103458 -0.004784 0.000000 0.000000 0.000000
# 3 -0.007366 -0.004784 0.020459 0.000000 0.000000 0.000000
# 4 0.000000 0.000000 0.000000 0.037552 0.000000 0.000000
# 5 0.000000 0.000000 0.000000 0.000000 0.037943 0.000000
# 6 0.000000 0.000000 0.000000 0.000000 0.000000 0.069871
#
#
# Mechanical properties :
#
#
# Convention : Reuss Voigt Hill
#
# Bulk Modulus (GPa) = 10.49235 46.49960 28.49597
# Shear Modulus (GPa) = 14.34798 24.49413 19.42105
#
# Velocity S-wave (km/s) = 2.69729 3.52422 3.13811
# Velocity P-wave (km/s) = 3.87567 6.33550 5.25163
#
# Compressibility (1/GPa) = 0.09530753
#
# Stress axis : x y z
#
# Youngs Moduli (GPa) = 106.27708 9.66572 48.87849
#
# Poissons Ratio (x) = 0.06631 0.36003
# Poissons Ratio (y) = 0.72904 0.23383
# Poissons Ratio (z) = 0.78282 0.04624
#
# Static dielectric constant tensor:
#      x y z
#    x 1.470660 0.000000 0.000000 
#    y 0.000000 1.717760 0.000000 
#    z 0.000000 0.000000 1.710150 
# 
# From -- ./inp_files/35669.got.cif
#   From: 2010.05.17/outbox.cif.g08.bks.cpg/sg51_18_cif.got.tgz:35669.got - 2010.06.03 11:52:47.
