data_PCOD9405774
_publ_section_title
;
Structure prediction by ZEFSAII (Michael W. Deem and Ramdas Pophale) SiO2 
 PCOD9405774
Probable space group: P M M A
;
_chemical_formula_sum "Si O2"
_cell_formula_units_Z 44
_cell_length_a 9.423452
_cell_length_b 7.980189
_cell_length_c 30.655791
_cell_angle_alpha 90.000000
_cell_angle_beta 90.000000
_cell_angle_gamma 90.000000
_cell_volume 2305.343932
_symmetry_space_group_name_H-M "P M M A"
_symmetry_group_IT_number 51
_symmetry_cell_setting 'orthorhombic'
loop_
_space_group_symop_operation_xyz
x,y,z
1/2-x,-y,z
1/2+x,-y,-z
-x,y,-z
-x,-y,-z
1/2+x,y,-z
1/2-x,y,z
x,-y,z
loop_
_atom_site_type_symbol
_atom_site_label
_atom_site_fract_x
_atom_site_fract_y
_atom_site_fract_z
Si Si1 0.087126 0.798349 0.302936
Si Si2 0.920170 0.804765 0.390120
Si Si3 0.420898 0.500000 0.545877
Si Si4 0.089796 0.299987 0.040822
Si Si5 0.913048 0.301663 0.793482
Si Si6 0.410756 0.802433 0.876134
O O1 0.250000 0.741581 0.309492
O O2 0.038710 0.731784 0.256030
O O3 0.992793 0.754353 0.344529
O O4 0.087072 0.000000 0.300088
O O5 0.750000 0.800953 0.385129
O O6 0.958061 0.667598 0.426594
O O7 0.959944 0.000000 0.400087
O O8 0.250000 0.500000 0.539833
O O9 0.500000 0.500000 0.500000
O O10 0.250000 0.231671 0.042482
O O11 0.100951 0.500000 0.034628
O O12 0.006740 0.272238 0.085644
O O13 0.000000 0.231507 0.000000
O O14 0.750000 0.237189 0.797293
O O15 0.909242 0.500000 0.800831
O O16 0.014697 0.225740 0.829719
O O17 0.250000 0.734187 0.876700
O O18 0.403747 0.000000 0.884116
#
# Coordination Sequence:
#
# PCOD9405774 Si02
#       6
#     8   8   4   8   8   8
#     4   9  18  33  54  81 111 143 181 224 271 325
#     4   9  19  36  56  79 111 148 185 229 280 335
#     4  10  22  38  56  82 112 146 188 234 283 334
#     4  10  21  38  61  86 110 139 176 220 272 329
#     4  10  21  36  55  81 111 144 182 225 274 328
#     4  11  24  39  55  78 109 145 185 227 271 323
#
# _framework density 19.086088
#
# number of rings (size 3 to 8) (size 9 to 14) (size 15 to 20)
#    0.000    2.182    0.000    2.182    1.273    8.000 
#    0.000    1.818    0.000    0.000    0.000    0.000 
#    0.000    0.000    0.000    0.000    0.000    0.000 
#
# Total GULP energy -245600.068387 kJ/mol
# GULP energy per Si atom -5581.819736 kJ/mol
# Density = 1.904265 g / cm^3
# Si number density = 19.086088 Si / 1000 Ang^3
#
#
#
# Elastic Constant Matrix: (Units=GPa)
#
#
# Indices 1 2 3 4 5 6 
#
# 1 103.0481 29.3948 81.2103 0.0000 0.0000 0.0000
# 2 29.3948 42.6901 31.5722 0.0000 0.0000 0.0000
# 3 81.2103 31.5722 140.3823 0.0000 0.0000 0.0000
# 4 0.0000 0.0000 0.0000 45.5011 0.0000 0.0000
# 5 0.0000 0.0000 0.0000 0.0000 39.4851 0.0000
# 6 0.0000 0.0000 0.0000 0.0000 0.0000 56.4392
#
#
#
# Elastic Compliance Matrix: (Units=1/GPa)
#
#
# Indices 1 2 3 4 5 6 
#
# 1 0.019016 -0.005947 -0.009663 0.000000 0.000000 0.000000
# 2 -0.005947 0.029958 -0.003297 0.000000 0.000000 0.000000
# 3 -0.009663 -0.003297 0.013455 0.000000 0.000000 0.000000
# 4 0.000000 0.000000 0.000000 0.021978 0.000000 0.000000
# 5 0.000000 0.000000 0.000000 0.000000 0.025326 0.000000
# 6 0.000000 0.000000 0.000000 0.000000 0.000000 0.017718
#
#
# Mechanical properties :
#
#
# Convention : Reuss Voigt Hill
#
# Bulk Modulus (GPa) = 40.62708 63.38612 52.00660
# Shear Modulus (GPa) = 28.82333 37.88129 33.35231
#
# Velocity S-wave (km/s) = 3.89031 4.45990 4.18481
# Velocity P-wave (km/s) = 6.44297 7.73328 7.11742
#
# Compressibility (1/GPa) = 0.02461413
#
# Stress axis : x y z
#
# Youngs Moduli (GPa) = 52.58734 33.37986 74.32183
#
# Poissons Ratio (x) = 0.19852 0.71818
# Poissons Ratio (y) = 0.31275 0.24505
# Poissons Ratio (z) = 0.50816 0.11006
#
# Static dielectric constant tensor:
#      x y z
#    x 1.669990 0.000000 0.000000 
#    y 0.000000 1.683710 0.000000 
#    z 0.000000 0.000000 1.620020 
# 
# From -- ./inp_files/36789.got.cif
#   From: 2010.05.17/outbox.cif.g08.bks.cpg/sg51_19_cif.got.tgz:36789.got - 2010.06.03 11:52:47.
