data_PCOD9405071
_publ_section_title
;
Structure prediction by ZEFSAII (Michael W. Deem and Ramdas Pophale) SiO2 
 PCOD9405071
Probable space group: P M M A
;
_chemical_formula_sum "Si O2"
_cell_formula_units_Z 48
_cell_length_a 17.427407
_cell_length_b 15.959711
_cell_length_c 9.156765
_cell_angle_alpha 90.000000
_cell_angle_beta 90.000000
_cell_angle_gamma 90.000000
_cell_volume 2546.829462
_symmetry_space_group_name_H-M "P M M A"
_symmetry_group_IT_number 51
_symmetry_cell_setting 'orthorhombic'
loop_
_space_group_symop_operation_xyz
x,y,z
1/2-x,-y,z
1/2+x,-y,-z
-x,y,-z
-x,-y,-z
1/2+x,y,-z
1/2-x,y,z
x,-y,z
loop_
_atom_site_type_symbol
_atom_site_label
_atom_site_fract_x
_atom_site_fract_y
_atom_site_fract_z
Si Si1 0.158144 0.324694 0.940015
Si Si2 0.158080 0.675388 0.600412
Si Si3 0.843631 0.836321 0.866866
Si Si4 0.416726 0.500000 0.934095
Si Si5 0.157828 0.000000 0.611982
Si Si6 0.918790 0.500000 0.418249
Si Si7 0.842633 0.000000 0.054687
Si Si8 0.588829 0.161586 0.546597
O O1 0.250000 0.329153 0.942260
O O2 0.135766 0.310259 0.770654
O O3 0.125683 0.415225 0.981642
O O4 0.136252 0.248448 0.045305
O O5 0.250000 0.674507 0.592201
O O6 0.126037 0.585892 0.547673
O O7 0.124664 0.751708 0.509598
O O8 0.750000 0.836759 0.840251
O O9 0.890673 0.842982 0.717521
O O10 0.862962 0.916231 0.967249
O O11 0.423932 0.500000 0.758202
O O12 0.500000 0.500000 0.000000
O O13 0.129087 0.000000 0.779277
O O14 0.128786 0.917272 0.531136
O O15 0.250000 0.000000 0.611567
O O16 0.000000 0.500000 0.500000
O O17 0.750000 0.000000 0.063386
O O18 0.500000 0.159895 0.500000
#
# Coordination Sequence:
#
# PCOD9405071 Si02
#       8
#     8   8   8   4   4   4   4   8
#     4   9  19  36  59  84 111 145 194 243 283 334
#     4  10  20  38  61  84 111 153 200 240 286 346
#     4  10  20  37  60  86 114 148 188 236 287 338
#     4  10  21  35  55  81 113 152 187 229 292 347
#     4  11  22  41  65  86 111 151 196 235 280 346
#     4  10  21  37  57  85 119 152 190 241 290 337
#     4   9  19  37  64  90 110 139 188 239 280 330
#     4  12  25  39  56  86 123 155 188 234 289 344
#
# _framework density 18.846962999999999
#
# number of rings (size 3 to 8) (size 9 to 14) (size 15 to 20)
#    0.000    1.833    0.000    4.250    0.000    9.333 
#    0.000    3.333    0.000    3.000    0.000    0.000 
#    0.000    0.000    0.000    0.000    0.000    0.000 
#
# Total GULP energy -268080.080312 kJ/mol
# GULP energy per Si atom -5585.001673 kJ/mol
# Density = 1.880407 g / cm^3
# Si number density = 18.846963 Si / 1000 Ang^3
#
#
#
# Elastic Constant Matrix: (Units=GPa)
#
#
# Indices 1 2 3 4 5 6 
#
# 1 62.6559 52.5611 45.7696 0.0000 0.0000 0.0000
# 2 52.5611 198.2788 99.0300 0.0000 0.0000 0.0000
# 3 45.7696 99.0300 120.9473 0.0000 0.0000 0.0000
# 4 0.0000 0.0000 0.0000 338.5681 0.0000 0.0000
# 5 0.0000 0.0000 0.0000 0.0000 23.6904 0.0000
# 6 0.0000 0.0000 0.0000 0.0000 0.0000 13.1708
#
#
#
# Elastic Compliance Matrix: (Units=1/GPa)
#
#
# Indices 1 2 3 4 5 6 
#
# 1 0.023045 -0.002966 -0.006292 0.000000 0.000000 0.000000
# 2 -0.002966 0.008915 -0.006177 0.000000 0.000000 0.000000
# 3 -0.006292 -0.006177 0.015706 0.000000 0.000000 0.000000
# 4 0.000000 0.000000 0.000000 0.002954 0.000000 0.000000
# 5 0.000000 0.000000 0.000000 0.000000 0.042211 0.000000
# 6 0.000000 0.000000 0.000000 0.000000 0.000000 0.075925
#
#
# Mechanical properties :
#
#
# Convention : Reuss Voigt Hill
#
# Bulk Modulus (GPa) = 59.53789 86.28925 72.91357
# Shear Modulus (GPa) = 24.36355 87.38729 55.87542
#
# Velocity S-wave (km/s) = 3.59932 6.81670 5.45080
# Velocity P-wave (km/s) = 6.99516 10.38461 8.85360
#
# Compressibility (1/GPa) = 0.01679603
#
# Stress axis : x y z
#
# Youngs Moduli (GPa) = 43.39367 112.17467 63.66812
#
# Poissons Ratio (x) = 0.33275 0.40060
# Poissons Ratio (y) = 0.12872 0.39326
# Poissons Ratio (z) = 0.27303 0.69286
#
# Static dielectric constant tensor:
#      x y z
#    x 1.609480 0.000000 0.000000 
#    y 0.000000 1.543860 0.000000 
#    z 0.000000 0.000000 1.648390 
# 
# From -- ./inp_files/9775.got.cif
#   From: 2010.05.17/outbox.cif.g08.bks.cpg/sg51_5_cif.got.tgz:9775.got - 2010.06.03 11:52:47.
