data_PCOD9405973
_publ_section_title
;
Structure prediction by ZEFSAII (Michael W. Deem and Ramdas Pophale) SiO2 
 PCOD9405973
Probable space group: P M M A
;
_chemical_formula_sum "Si O2"
_cell_formula_units_Z 48
_cell_length_a 20.880922
_cell_length_b 7.607377
_cell_length_c 14.708072
_cell_angle_alpha 90.000000
_cell_angle_beta 90.000000
_cell_angle_gamma 90.000000
_cell_volume 2336.363202
_symmetry_space_group_name_H-M "P M M A"
_symmetry_group_IT_number 51
_symmetry_cell_setting 'orthorhombic'
loop_
_space_group_symop_operation_xyz
x,y,z
1/2-x,-y,z
1/2+x,-y,-z
-x,y,-z
-x,-y,-z
1/2+x,y,-z
1/2-x,y,z
x,-y,z
loop_
_atom_site_type_symbol
_atom_site_label
_atom_site_fract_x
_atom_site_fract_y
_atom_site_fract_z
Si Si1 0.119719 0.294382 0.205711
Si Si2 0.623707 0.215297 0.218653
Si Si3 0.005775 0.796487 0.899187
Si Si4 0.750000 0.211891 0.898761
Si Si5 0.823288 0.710119 0.610610
Si Si6 0.176273 0.211308 0.592785
Si Si7 0.250000 0.213881 0.892090
O O1 0.103326 0.500000 0.211817
O O2 0.062139 0.208134 0.150912
O O3 0.186443 0.274828 0.152203
O O4 0.133298 0.222665 0.307046
O O5 0.560562 0.278516 0.166558
O O6 0.634194 0.274210 0.322515
O O7 0.686335 0.267477 0.161326
O O8 0.622150 0.000000 0.221265
O O9 0.025156 0.000000 0.913567
O O10 0.000000 0.716383 0.000000
O O11 0.750000 0.000000 0.897323
O O12 0.750000 0.271282 0.003465
O O13 0.750000 0.779021 0.617756
O O14 0.819533 0.500000 0.622858
O O15 0.846431 0.743729 0.508460
O O16 0.250000 0.275649 0.601920
O O17 0.178948 0.000000 0.598174
O O18 0.250000 0.000000 0.892538
#
# Coordination Sequence:
#
# PCOD9405973 Si02
#       7
#     8   8   8   4   8   8   4
#     4  11  22  38  56  77 109 147 183 223 275 328
#     4   9  16  30  52  79 112 140 171 221 276 320
#     4  10  21  37  56  80 110 147 188 228 271 324
#     4  11  21  33  56  85 108 136 181 231 276 323
#     4   9  18  34  53  74 104 141 176 218 271 322
#     4   9  16  28  51  82 107 133 172 219 271 322
#     4   9  16  29  52  81 108 136 171 219 274 323
#
# _framework density 20.544750000000001
#
# number of rings (size 3 to 8) (size 9 to 14) (size 15 to 20)
#    0.000    2.333    1.667    1.750    0.000    4.333 
#    0.000    1.667    0.000    7.000    0.000    0.000 
#    0.000    0.000    0.000    0.000    0.000    0.000 
#
# Total GULP energy -267945.531319 kJ/mol
# GULP energy per Si atom -5582.198569 kJ/mol
# Density = 2.049799 g / cm^3
# Si number density = 20.544750 Si / 1000 Ang^3
#
#
#
# Elastic Constant Matrix: (Units=GPa)
#
#
# Indices 1 2 3 4 5 6 
#
# 1 114.2899 -13.0579 80.9918 0.0000 0.0000 0.0000
# 2 -13.0579 43.6967 -3.9071 0.0000 0.0000 0.0000
# 3 80.9918 -3.9071 219.6274 0.0000 0.0000 0.0000
# 4 0.0000 0.0000 0.0000 24.9130 0.0000 0.0000
# 5 0.0000 0.0000 0.0000 0.0000 29.4473 0.0000
# 6 0.0000 0.0000 0.0000 0.0000 0.0000 -11.1432
#
#
#
# Elastic Compliance Matrix: (Units=1/GPa)
#
#
# Indices 1 2 3 4 5 6 
#
# 1 0.012296 0.003274 -0.004476 0.000000 0.000000 0.000000
# 2 0.003274 0.023793 -0.000784 0.000000 0.000000 0.000000
# 3 -0.004476 -0.000784 0.006190 0.000000 0.000000 0.000000
# 4 0.000000 0.000000 0.000000 0.040140 0.000000 0.000000
# 5 0.000000 0.000000 0.000000 0.000000 0.033959 0.000000
# 6 0.000000 0.000000 0.000000 0.000000 0.000000 -0.089740
#
#
# Mechanical properties :
#
#
# Convention : Reuss Voigt Hill
#
# Bulk Modulus (GPa) = 26.10502 56.18529 41.14516
# Shear Modulus (GPa) = 115.26538 29.54921 72.40730
#
# Velocity S-wave (km/s) = 7.49842 3.79659 5.94308
# Velocity P-wave (km/s) = 9.36496 6.82832 8.19538
#
# Compressibility (1/GPa) = 0.03830680
#
# Stress axis : x y z
#
# Youngs Moduli (GPa) = 81.32922 42.02857 161.55502
#
# Poissons Ratio (x) = -0.13761 0.72313
# Poissons Ratio (y) = -0.26628 0.12668
# Poissons Ratio (z) = 0.36403 0.03296
#
# Static dielectric constant tensor:
#      x y z
#    x 1.689840 0.000000 0.000000 
#    y 0.000000 1.799260 0.000000 
#    z 0.000000 0.000000 1.745250 
# 
# From -- ./inp_files/24994.got.cif
#   From: 2010.05.17/outbox.cif.g08.bks.cpg/sg51_13_cif.got.tgz:24994.got - 2010.06.03 11:52:47.
