data_PCOD9405001
_publ_section_title
;
Structure prediction by ZEFSAII (Michael W. Deem and Ramdas Pophale) SiO2 
 PCOD9405001
Probable space group: P M M A
;
_chemical_formula_sum "Si O2"
_cell_formula_units_Z 56
_cell_length_a 8.969179
_cell_length_b 16.923748
_cell_length_c 19.957886
_cell_angle_alpha 90.000000
_cell_angle_beta 90.000000
_cell_angle_gamma 90.000000
_cell_volume 3029.449930
_symmetry_space_group_name_H-M "P M M A"
_symmetry_group_IT_number 51
_symmetry_cell_setting 'orthorhombic'
loop_
_space_group_symop_operation_xyz
x,y,z
1/2-x,-y,z
1/2+x,-y,-z
-x,y,-z
-x,-y,-z
1/2+x,y,-z
1/2-x,y,z
x,-y,z
loop_
_atom_site_type_symbol
_atom_site_label
_atom_site_fract_x
_atom_site_fract_y
_atom_site_fract_z
Si Si1 0.916823 0.500000 0.909130
Si Si2 0.430965 0.325862 0.288060
Si Si3 0.080885 0.661611 0.939512
Si Si4 0.923278 0.214664 0.178746
Si Si5 0.919377 0.500000 0.749589
Si Si6 0.427464 0.905617 0.073762
Si Si7 0.071260 0.742964 0.427124
Si Si8 0.929554 0.083194 0.573905
O O1 0.750000 0.500000 0.936577
O O2 0.909497 0.500000 0.829260
O O3 0.000648 0.578873 0.929109
O O4 0.250000 0.323176 0.279121
O O5 0.497627 0.253970 0.243622
O O6 0.485477 0.414160 0.268659
O O7 0.466797 0.314342 0.366395
O O8 0.250000 0.648571 0.958615
O O9 0.074533 0.712476 0.873171
O O10 0.000000 0.705566 0.000000
O O11 0.750000 0.194135 0.192830
O O12 0.001683 0.144709 0.135413
O O13 0.750000 0.500000 0.721019
O O14 0.250000 0.888931 0.070201
O O15 0.447269 0.000000 0.085982
O O16 0.500000 0.889879 0.000000
O O17 0.250000 0.741666 0.435975
O O18 0.027447 0.830800 0.400388
O O19 0.000000 0.729222 0.500000
O O20 0.750000 0.083022 0.569035
O O21 0.000000 0.081325 0.500000
O O22 0.973622 0.000000 0.607964
#
# Coordination Sequence:
#
# PCOD9405001 Si02
#       8
#     4   8   8   8   4   8   8   8
#     4  11  20  34  55  76 101 140 180 220 270 320
#     4  10  20  37  58  80 106 142 186 231 283 343
#     4  11  23  36  51  76 109 142 177 220 269 322
#     4  11  23  37  56  82 111 145 184 230 281 331
#     4   9  18  34  57  78 100 140 186 227 276 339
#     4  10  21  38  61  87 116 153 195 238 281 325
#     4   9  18  32  53  78 106 139 176 225 279 336
#     4   8  13  23  41  67  97 128 160 194 239 298
#
# _framework density 18.485204
#
# number of rings (size 3 to 8) (size 9 to 14) (size 15 to 20)
#    0.000    2.143    1.429    2.143    0.000    4.286 
#    0.000    1.429    0.000    2.571    0.000    2.000 
#    0.000    0.000    0.000    0.000    0.000    0.000 
#
# Total GULP energy -311795.273163 kJ/mol
# GULP energy per Si atom -5567.772735 kJ/mol
# Density = 1.844313 g / cm^3
# Si number density = 18.485204 Si / 1000 Ang^3
#
#
#
# Elastic Constant Matrix: (Units=GPa)
#
#
# Indices 1 2 3 4 5 6 
#
# 1 79.5004 39.6016 36.1314 0.0000 0.0000 0.0000
# 2 39.6016 105.9636 46.0129 0.0000 0.0000 0.0000
# 3 36.1314 46.0129 104.4464 0.0000 0.0000 0.0000
# 4 0.0000 0.0000 0.0000 39.0445 0.0000 0.0000
# 5 0.0000 0.0000 0.0000 0.0000 22.2096 0.0000
# 6 0.0000 0.0000 0.0000 0.0000 0.0000 18.8363
#
#
#
# Elastic Compliance Matrix: (Units=1/GPa)
#
#
# Indices 1 2 3 4 5 6 
#
# 1 0.016541 -0.004572 -0.003708 0.000000 0.000000 0.000000
# 2 -0.004572 0.012933 -0.004116 0.000000 0.000000 0.000000
# 3 -0.003708 -0.004116 0.012670 0.000000 0.000000 0.000000
# 4 0.000000 0.000000 0.000000 0.025612 0.000000 0.000000
# 5 0.000000 0.000000 0.000000 0.000000 0.045026 0.000000
# 6 0.000000 0.000000 0.000000 0.000000 0.000000 0.053089
#
#
# Mechanical properties :
#
#
# Convention : Reuss Voigt Hill
#
# Bulk Modulus (GPa) = 57.62743 59.26691 58.44717
# Shear Modulus (GPa) = 25.45218 27.22905 26.34061
#
# Velocity S-wave (km/s) = 3.71468 3.84216 3.77895
# Velocity P-wave (km/s) = 7.04564 7.19821 7.12234
#
# Compressibility (1/GPa) = 0.01735285
#
# Stress axis : x y z
#
# Youngs Moduli (GPa) = 60.45545 77.32088 78.92458
#
# Poissons Ratio (x) = 0.35349 0.29266
# Poissons Ratio (y) = 0.27638 0.32486
# Poissons Ratio (z) = 0.22417 0.31826
#
# Static dielectric constant tensor:
#      x y z
#    x 1.662810 0.000000 0.000000 
#    y 0.000000 1.684170 0.000000 
#    z 0.000000 0.000000 1.610410 
# 
# From -- ./inp_files/32108.got.cif
#   From: 2010.05.17/outbox.cif.g08.bks.cpg/sg51_17_cif.got.tgz:32108.got - 2010.06.03 11:52:47.
