data_PCOD9405523
_publ_section_title
;
Structure prediction by ZEFSAII (Michael W. Deem and Ramdas Pophale) SiO2 
 PCOD9405523
Probable space group: P M M A
;
_chemical_formula_sum "Si O2"
_cell_formula_units_Z 48
_cell_length_a 15.012869
_cell_length_b 8.260443
_cell_length_c 20.399180
_cell_angle_alpha 90.000000
_cell_angle_beta 90.000000
_cell_angle_gamma 90.000000
_cell_volume 2529.762462
_symmetry_space_group_name_H-M "P M M A"
_symmetry_group_IT_number 51
_symmetry_cell_setting 'orthorhombic'
loop_
_space_group_symop_operation_xyz
x,y,z
1/2-x,-y,z
1/2+x,-y,-z
-x,y,-z
-x,-y,-z
1/2+x,y,-z
1/2-x,y,z
x,-y,z
loop_
_atom_site_type_symbol
_atom_site_label
_atom_site_fract_x
_atom_site_fract_y
_atom_site_fract_z
Si Si1 0.439615 0.695615 0.684652
Si Si2 0.556758 0.806295 0.563241
Si Si3 0.750000 0.306117 0.523008
Si Si4 0.250000 0.697666 0.628885
Si Si5 0.351820 0.695721 0.081920
Si Si6 0.490092 0.305573 0.828851
Si Si7 0.646833 0.806353 0.062347
O O1 0.436434 0.500000 0.686918
O O2 0.508918 0.744152 0.628513
O O3 0.340692 0.751910 0.663961
O O4 0.468293 0.756415 0.756302
O O5 0.500000 0.746874 0.500000
O O6 0.658840 0.752295 0.556081
O O7 0.553728 0.000000 0.563144
O O8 0.750000 0.500000 0.522986
O O9 0.750000 0.249974 0.446997
O O10 0.250000 0.500000 0.629119
O O11 0.250000 0.751656 0.090947
O O12 0.351719 0.500000 0.082269
O O13 0.418480 0.754382 0.138114
O O14 0.382849 0.750849 0.009967
O O15 0.496924 0.500000 0.824122
O O16 0.412631 0.264985 0.880161
O O17 0.750000 0.754612 0.069488
O O18 0.642927 0.000000 0.065149
#
# Coordination Sequence:
#
# PCOD9405523 Si02
#       7
#     8   8   4   4   8   8   8
#     4  10  21  38  58  85 116 149 191 233 279 340
#     4  11  23  39  59  86 120 153 189 235 287 342
#     4  11  21  37  65  89 111 148 195 244 283 331
#     4   9  18  33  57  85 113 144 183 232 279 331
#     4   9  18  35  56  78 107 143 185 232 279 328
#     4  10  21  35  56  83 112 146 185 230 280 333
#     4  10  21  35  53  80 111 144 185 230 278 336
#
# _framework density 18.974115000000001
#
# number of rings (size 3 to 8) (size 9 to 14) (size 15 to 20)
#    0.000    2.000    1.667    1.750    1.167    5.000 
#    1.500    0.417    0.000    0.000    0.000    0.000 
#    0.000    0.000    0.000    0.000    0.000    0.000 
#
# Total GULP energy -268061.378640 kJ/mol
# GULP energy per Si atom -5584.612055 kJ/mol
# Density = 1.893093 g / cm^3
# Si number density = 18.974115 Si / 1000 Ang^3
#
#
#
# Elastic Constant Matrix: (Units=GPa)
#
#
# Indices 1 2 3 4 5 6 
#
# 1 154.1306 5.3882 112.3738 0.0000 0.0000 0.0000
# 2 5.3882 3.0011 10.3670 0.0000 0.0000 0.0000
# 3 112.3738 10.3670 189.8798 0.0000 0.0000 0.0000
# 4 0.0000 0.0000 0.0000 3.0678 0.0000 0.0000
# 5 0.0000 0.0000 0.0000 0.0000 -16.1909 0.0000
# 6 0.0000 0.0000 0.0000 0.0000 0.0000 17.0849
#
#
#
# Elastic Compliance Matrix: (Units=1/GPa)
#
#
# Indices 1 2 3 4 5 6 
#
# 1 0.011442 0.003510 -0.006963 0.000000 0.000000 0.000000
# 2 0.003510 0.411743 -0.024558 0.000000 0.000000 0.000000
# 3 -0.006963 -0.024558 0.010728 0.000000 0.000000 0.000000
# 4 0.000000 0.000000 0.000000 0.325964 0.000000 0.000000
# 5 0.000000 0.000000 0.000000 0.000000 -0.061763 0.000000
# 6 0.000000 0.000000 0.000000 0.000000 0.000000 0.058531
#
#
# Mechanical properties :
#
#
# Convention : Reuss Voigt Hill
#
# Bulk Modulus (GPa) = 2.64626 67.02995 34.83810
# Shear Modulus (GPa) = 5.32691 15.38454 10.35573
#
# Velocity S-wave (km/s) = 1.67737 2.85057 2.33873
# Velocity P-wave (km/s) = 2.26916 6.79986 5.06889
#
# Compressibility (1/GPa) = 0.37789221
#
# Stress axis : x y z
#
# Youngs Moduli (GPa) = 87.39686 2.42870 93.21200
#
# Poissons Ratio (x) = -0.00853 0.64906
# Poissons Ratio (y) = -0.30680 2.28907
# Poissons Ratio (z) = 0.60857 0.05964
#
# Static dielectric constant tensor:
#      x y z
#    x 1.656760 0.000000 0.000000 
#    y 0.000000 1.651960 0.000000 
#    z 0.000000 0.000000 1.634390 
# 
# From -- ./inp_files/29561.got.cif
#   From: 2010.05.17/outbox.cif.g08.bks.cpg/sg51_15_cif.got.tgz:29561.got - 2010.06.03 11:52:47.
