data_PCOD9405889
_publ_section_title
;
Structure prediction by ZEFSAII (Michael W. Deem and Ramdas Pophale) SiO2 
 PCOD9405889
Probable space group: P M M A
;
_chemical_formula_sum "Si O2"
_cell_formula_units_Z 56
_cell_length_a 14.168659
_cell_length_b 8.673958
_cell_length_c 24.286967
_cell_angle_alpha 90.000000
_cell_angle_beta 90.000000
_cell_angle_gamma 90.000000
_cell_volume 2984.828246
_symmetry_space_group_name_H-M "P M M A"
_symmetry_group_IT_number 51
_symmetry_cell_setting 'orthorhombic'
loop_
_space_group_symop_operation_xyz
x,y,z
1/2-x,-y,z
1/2+x,-y,-z
-x,y,-z
-x,-y,-z
1/2+x,y,-z
1/2-x,y,z
x,-y,z
loop_
_atom_site_type_symbol
_atom_site_label
_atom_site_fract_x
_atom_site_fract_y
_atom_site_fract_z
Si Si1 0.140699 0.817117 0.649350
Si Si2 0.047457 0.313602 0.085162
Si Si3 0.864998 0.322894 0.467735
Si Si4 0.536229 0.315962 0.698683
Si Si5 0.359054 0.312127 0.412190
Si Si6 0.859224 0.184566 0.804960
Si Si7 0.856082 0.312485 0.029849
O O1 0.250000 0.770897 0.656357
O O2 0.112574 0.770627 0.586956
O O3 0.071787 0.734173 0.691756
O O4 0.133475 0.000000 0.655571
O O5 0.048870 0.500000 0.089004
O O6 0.089213 0.244400 0.140412
O O7 0.940037 0.264755 0.070917
O O8 0.110452 0.270425 0.031851
O O9 0.750000 0.326455 0.471700
O O10 0.897217 0.500000 0.459796
O O11 0.896821 0.263849 0.527677
O O12 0.543561 0.500000 0.701412
O O13 0.585936 0.262248 0.641902
O O14 0.587478 0.245304 0.751103
O O15 0.250000 0.264128 0.406989
O O16 0.360437 0.500000 0.413833
O O17 0.750000 0.237271 0.804604
O O18 0.860160 0.000000 0.804701
O O19 0.750000 0.257813 0.041526
O O20 0.854848 0.500000 0.031178
#
# Coordination Sequence:
#
# PCOD9405889 Si02
#       7
#     8   8   8   8   8   8   8
#     4  10  21  37  54  73 102 137 171 213 267 325
#     4   9  17  31  55  84 111 146 189 225 262 311
#     4   8  14  28  51  75  99 129 166 208 257 318
#     4  11  22  36  57  80 101 132 179 228 268 313
#     4   8  15  29  50  77 105 130 162 211 267 317
#     4  11  24  40  56  77 109 145 178 217 267 321
#     4   8  14  27  51  85 120 147 177 224 273 311
#
# _framework density 18.761548000000001
#
# number of rings (size 3 to 8) (size 9 to 14) (size 15 to 20)
#    0.000    2.714    0.000    3.857    0.000    3.714 
#    0.000    6.429    0.000    7.286    0.000    0.000 
#    0.000    0.000    0.000    0.000    0.000    0.000 
#
# Total GULP energy -312483.962609 kJ/mol
# GULP energy per Si atom -5580.070761 kJ/mol
# Density = 1.871885 g / cm^3
# Si number density = 18.761548 Si / 1000 Ang^3
#
#
#
# Elastic Constant Matrix: (Units=GPa)
#
#
# Indices 1 2 3 4 5 6 
#
# 1 141.5521 30.9848 90.7082 0.0000 0.0000 0.0000
# 2 30.9848 23.2510 32.9691 0.0000 0.0000 0.0000
# 3 90.7082 32.9691 139.1382 0.0000 0.0000 0.0000
# 4 0.0000 0.0000 0.0000 2212.1191 0.0000 0.0000
# 5 0.0000 0.0000 0.0000 0.0000 27.2398 0.0000
# 6 0.0000 0.0000 0.0000 0.0000 0.0000 18.0245
#
#
#
# Elastic Compliance Matrix: (Units=1/GPa)
#
#
# Indices 1 2 3 4 5 6 
#
# 1 0.013058 -0.008028 -0.006611 0.000000 0.000000 0.000000
# 2 -0.008028 0.069706 -0.011284 0.000000 0.000000 0.000000
# 3 -0.006611 -0.011284 0.014170 0.000000 0.000000 0.000000
# 4 0.000000 0.000000 0.000000 0.000452 0.000000 0.000000
# 5 0.000000 0.000000 0.000000 0.000000 0.036711 0.000000
# 6 0.000000 0.000000 0.000000 0.000000 0.000000 0.055480
#
#
# Mechanical properties :
#
#
# Convention : Reuss Voigt Hill
#
# Bulk Modulus (GPa) = 22.17738 68.14060 45.15899
# Shear Modulus (GPa) = 19.49682 461.42863 240.46273
#
# Velocity S-wave (km/s) = 3.22715 15.69961 11.33341
# Velocity P-wave (km/s) = 5.07270 19.10589 13.97797
#
# Compressibility (1/GPa) = 0.04509099
#
# Stress axis : x y z
#
# Youngs Moduli (GPa) = 76.58195 14.34588 70.56917
#
# Poissons Ratio (x) = 0.11516 0.46651
# Poissons Ratio (y) = 0.61476 0.79628
# Poissons Ratio (z) = 0.50626 0.16187
#
# Static dielectric constant tensor:
#      x y z
#    x 1.694750 0.000000 0.000000 
#    y 0.000000 1.630820 0.000000 
#    z 0.000000 0.000000 1.621260 
# 
# From -- ./inp_files/33445.got.cif
#   From: 2010.05.17/outbox.cif.g08.bks.cpg/sg51_17_cif.got.tgz:33445.got - 2010.06.03 11:52:47.
