data_PCOD9405756
_publ_section_title
;
Structure prediction by ZEFSAII (Michael W. Deem and Ramdas Pophale) SiO2 
 PCOD9405756
Probable space group: P M M A
;
_chemical_formula_sum "Si O2"
_cell_formula_units_Z 64
_cell_length_a 8.681168
_cell_length_b 20.747102
_cell_length_c 19.114889
_cell_angle_alpha 90.000000
_cell_angle_beta 90.000000
_cell_angle_gamma 90.000000
_cell_volume 3442.765033
_symmetry_space_group_name_H-M "P M M A"
_symmetry_group_IT_number 51
_symmetry_cell_setting 'orthorhombic'
loop_
_space_group_symop_operation_xyz
x,y,z
1/2-x,-y,z
1/2+x,-y,-z
-x,y,-z
-x,-y,-z
1/2+x,y,-z
1/2-x,y,z
x,-y,z
loop_
_atom_site_type_symbol
_atom_site_label
_atom_site_fract_x
_atom_site_fract_y
_atom_site_fract_z
Si Si1 0.436538 0.694148 0.830192
Si Si2 0.435777 0.426666 0.576501
Si Si3 0.933914 0.924758 0.166966
Si Si4 0.935360 0.074327 0.680475
Si Si5 0.066821 0.189424 0.077631
Si Si6 0.435861 0.573461 0.923079
Si Si7 0.936476 0.306240 0.331494
Si Si8 0.065356 0.811516 0.421966
O O1 0.250000 0.697650 0.832257
O O2 0.503288 0.753168 0.874084
O O3 0.483360 0.627112 0.867121
O O4 0.484587 0.697401 0.749320
O O5 0.500000 0.409633 0.500000
O O6 0.250000 0.426241 0.572952
O O7 0.485114 0.500000 0.592843
O O8 0.482954 0.373893 0.633183
O O9 0.750000 0.917864 0.162176
O O10 0.987923 0.907999 0.245606
O O11 0.013179 0.877459 0.112373
O O12 0.973854 0.000000 0.155412
O O13 0.750000 0.077745 0.689079
O O14 0.980373 0.123616 0.619750
O O15 0.975955 0.000000 0.664493
O O16 0.250000 0.192360 0.075009
O O17 0.000000 0.195779 0.000000
O O18 0.250000 0.574152 0.926508
O O19 0.484074 0.500000 0.905841
O O20 0.500000 0.589315 0.000000
O O21 0.750000 0.302371 0.333682
O O22 0.004314 0.248540 0.377175
O O23 0.250000 0.808964 0.425103
O O24 0.000000 0.810210 0.500000
#
# Coordination Sequence:
#
# PCOD9405756 Si02
#       8
#     8   8   8   8   8   8   8   8
#     4  10  21  37  57  82 112 145 184 230 277 327
#     4   9  18  33  53  77 105 139 179 221 267 319
#     4  10  21  38  61  88 116 146 181 222 270 325
#     4   9  19  37  59  83 112 146 183 222 267 320
#     4  12  25  40  59  82 111 147 186 229 276 326
#     4   9  18  33  54  80 110 145 183 223 270 324
#     4  10  21  36  55  79 108 142 179 223 272 323
#     4  11  23  37  55  79 108 143 182 226 273 322
#
# _framework density 18.589708999999999
#
# number of rings (size 3 to 8) (size 9 to 14) (size 15 to 20)
#    0.000    2.000    0.000    3.375    0.000    8.250 
#    0.000    2.500    0.000    0.000    0.000    5.250 
#    0.000    0.000    0.000    0.000    0.000    0.000 
#
# Total GULP energy -357514.324112 kJ/mol
# GULP energy per Si atom -5586.161314 kJ/mol
# Density = 1.854740 g / cm^3
# Si number density = 18.589709 Si / 1000 Ang^3
#
#
#
# Elastic Constant Matrix: (Units=GPa)
#
#
# Indices 1 2 3 4 5 6 
#
# 1 29.4612 39.8798 47.7850 0.0000 0.0000 0.0000
# 2 39.8798 114.5286 113.2111 0.0000 0.0000 0.0000
# 3 47.7850 113.2111 187.6335 0.0000 0.0000 0.0000
# 4 0.0000 0.0000 0.0000 42.3113 0.0000 0.0000
# 5 0.0000 0.0000 0.0000 0.0000 18.6960 0.0000
# 6 0.0000 0.0000 0.0000 0.0000 0.0000 44.8945
#
#
#
# Elastic Compliance Matrix: (Units=1/GPa)
#
#
# Indices 1 2 3 4 5 6 
#
# 1 0.068255 -0.016315 -0.007539 0.000000 0.000000 0.000000
# 2 -0.016315 0.025535 -0.011252 0.000000 0.000000 0.000000
# 3 -0.007539 -0.011252 0.014038 0.000000 0.000000 0.000000
# 4 0.000000 0.000000 0.000000 0.023634 0.000000 0.000000
# 5 0.000000 0.000000 0.000000 0.000000 0.053488 0.000000
# 6 0.000000 0.000000 0.000000 0.000000 0.000000 0.022274
#
#
# Mechanical properties :
#
#
# Convention : Reuss Voigt Hill
#
# Bulk Modulus (GPa) = 26.58348 81.48612 54.03480
# Shear Modulus (GPa) = 17.24285 29.89684 23.56984
#
# Velocity S-wave (km/s) = 3.04887 4.01465 3.56462
# Velocity P-wave (km/s) = 5.16965 8.08820 6.78765
#
# Compressibility (1/GPa) = 0.03761734
#
# Stress axis : x y z
#
# Youngs Moduli (GPa) = 14.65087 39.16225 71.23301
#
# Poissons Ratio (x) = 0.63893 0.53702
# Poissons Ratio (y) = 0.23903 0.80150
# Poissons Ratio (z) = 0.11045 0.44065
#
# Static dielectric constant tensor:
#      x y z
#    x 1.626050 0.000000 0.000000 
#    y 0.000000 1.643040 0.000000 
#    z 0.000000 0.000000 1.601410 
# 
# From -- ./inp_files/28471.got.cif
#   From: 2010.05.17/outbox.cif.g08.bks.cpg/sg51_15_cif.got.tgz:28471.got - 2010.06.03 11:52:47.
