data_PCOD9405406
_publ_section_title
;
Structure prediction by ZEFSAII (Michael W. Deem and Ramdas Pophale) SiO2 
 PCOD9405406
Probable space group: P M M A
;
_chemical_formula_sum "Si O2"
_cell_formula_units_Z 64
_cell_length_a 8.999487
_cell_length_b 14.452410
_cell_length_c 24.804988
_cell_angle_alpha 90.000000
_cell_angle_beta 90.000000
_cell_angle_gamma 90.000000
_cell_volume 3226.242803
_symmetry_space_group_name_H-M "P M M A"
_symmetry_group_IT_number 51
_symmetry_cell_setting 'orthorhombic'
loop_
_space_group_symop_operation_xyz
x,y,z
1/2-x,-y,z
1/2+x,-y,-z
-x,y,-z
-x,-y,-z
1/2+x,y,-z
1/2-x,y,z
x,-y,z
loop_
_atom_site_type_symbol
_atom_site_label
_atom_site_fract_x
_atom_site_fract_y
_atom_site_fract_z
Si Si1 0.425795 0.390869 0.891348
Si Si2 0.071335 0.894539 0.382958
Si Si3 0.571252 0.281986 0.555813
Si Si4 0.427574 0.890913 0.160983
Si Si5 0.072498 0.223589 0.055194
Si Si6 0.920898 0.113059 0.271147
Si Si7 0.420894 0.387250 0.220543
Si Si8 0.068975 0.392985 0.338120
O O1 0.250000 0.375786 0.896446
O O2 0.456295 0.500000 0.899060
O O3 0.514126 0.326464 0.932336
O O4 0.480993 0.365188 0.831149
O O5 0.250000 0.893372 0.378145
O O6 0.029829 0.823698 0.429824
O O7 0.006243 0.861777 0.325770
O O8 0.022989 0.000000 0.392914
O O9 0.500000 0.312507 0.500000
O O10 0.750000 0.288796 0.551890
O O11 0.522820 0.339285 0.608511
O O12 0.250000 0.882243 0.167282
O O13 0.472170 0.837116 0.107155
O O14 0.503197 0.855632 0.215742
O O15 0.461893 0.000000 0.154895
O O16 0.250000 0.222366 0.050871
O O17 0.000000 0.189380 0.000000
O O18 0.750000 0.141707 0.273599
O O19 0.925854 0.000000 0.269770
O O20 0.250000 0.355829 0.211917
O O21 0.416048 0.500000 0.224062
O O22 0.477979 0.355961 0.279241
O O23 0.250000 0.390381 0.336151
O O24 0.023891 0.500000 0.342808
#
# Coordination Sequence:
#
# PCOD9405406 Si02
#       8
#     8   8   8   8   8   8   8   8
#     4  10  21  37  57  82 113 145 175 215 268 320
#     4   9  18  33  51  71 100 137 171 206 252 306
#     4  10  21  35  50  70  96 129 172 214 252 300
#     4   9  19  37  59  82 110 144 178 213 260 319
#     4  11  24  40  58  80 107 142 185 227 264 309
#     4   9  17  30  52  83 112 136 167 210 260 311
#     4   8  14  28  52  79 104 132 169 210 253 308
#     4   8  15  30  52  75  99 128 162 203 252 306
#
# _framework density 19.837316999999999
#
# number of rings (size 3 to 8) (size 9 to 14) (size 15 to 20)
#    0.000    2.750    0.000    1.875    0.000    5.750 
#    0.000    3.125    0.000    0.750    0.000    0.000 
#    0.000    0.000    0.000    0.000    0.000    0.000 
#
# Total GULP energy -357246.558861 kJ/mol
# GULP energy per Si atom -5581.977482 kJ/mol
# Density = 1.979217 g / cm^3
# Si number density = 19.837317 Si / 1000 Ang^3
#
#
#
# Elastic Constant Matrix: (Units=GPa)
#
#
# Indices 1 2 3 4 5 6 
#
# 1 14.0335 4.8059 9.7240 0.0000 0.0000 0.0000
# 2 4.8059 39.1865 8.6442 0.0000 0.0000 0.0000
# 3 9.7240 8.6442 80.9668 0.0000 0.0000 0.0000
# 4 0.0000 0.0000 0.0000 27.0760 0.0000 0.0000
# 5 0.0000 0.0000 0.0000 0.0000 34.2152 0.0000
# 6 0.0000 0.0000 0.0000 0.0000 0.0000 11.8020
#
#
#
# Elastic Compliance Matrix: (Units=1/GPa)
#
#
# Indices 1 2 3 4 5 6 
#
# 1 0.080034 -0.007881 -0.008771 0.000000 0.000000 0.000000
# 2 -0.007881 0.026910 -0.001927 0.000000 0.000000 0.000000
# 3 -0.008771 -0.001927 0.013610 0.000000 0.000000 0.000000
# 4 0.000000 0.000000 0.000000 0.036933 0.000000 0.000000
# 5 0.000000 0.000000 0.000000 0.000000 0.029227 0.000000
# 6 0.000000 0.000000 0.000000 0.000000 0.000000 0.084731
#
#
# Mechanical properties :
#
#
# Convention : Reuss Voigt Hill
#
# Bulk Modulus (GPa) = 11.99063 20.05944 16.02504
# Shear Modulus (GPa) = 14.86322 22.01948 18.44135
#
# Velocity S-wave (km/s) = 2.74022 3.33529 3.05229
# Velocity P-wave (km/s) = 4.00866 4.99661 4.52965
#
# Compressibility (1/GPa) = 0.08339845
#
# Stress axis : x y z
#
# Youngs Moduli (GPa) = 12.49466 37.16023 73.47663
#
# Poissons Ratio (x) = 0.29285 0.64444
# Poissons Ratio (y) = 0.09847 0.14156
# Poissons Ratio (z) = 0.10959 0.07159
#
# Static dielectric constant tensor:
#      x y z
#    x 1.662990 0.000000 0.000000 
#    y 0.000000 1.742280 0.000000 
#    z 0.000000 0.000000 1.678490 
# 
# From -- ./inp_files/35032.got.cif
#   From: 2010.05.17/outbox.cif.g08.bks.cpg/sg51_18_cif.got.tgz:35032.got - 2010.06.03 11:52:47.
