data_PCOD9405909
_publ_section_title
;
Structure prediction by ZEFSAII (Michael W. Deem and Ramdas Pophale) SiO2 
 PCOD9405909
Probable space group: P M M A
;
_chemical_formula_sum "Si O2"
_cell_formula_units_Z 56
_cell_length_a 8.545196
_cell_length_b 15.197157
_cell_length_c 23.733427
_cell_angle_alpha 90.000000
_cell_angle_beta 90.000000
_cell_angle_gamma 90.000000
_cell_volume 3082.086559
_symmetry_space_group_name_H-M "P M M A"
_symmetry_group_IT_number 51
_symmetry_cell_setting 'orthorhombic'
loop_
_space_group_symop_operation_xyz
x,y,z
1/2-x,-y,z
1/2+x,-y,-z
-x,y,-z
-x,-y,-z
1/2+x,y,-z
1/2-x,y,z
x,-y,z
loop_
_atom_site_type_symbol
_atom_site_label
_atom_site_fract_x
_atom_site_fract_y
_atom_site_fract_z
Si Si1 0.562068 0.897766 0.239966
Si Si2 0.559611 0.399211 0.839696
Si Si3 0.438633 0.900169 0.891091
Si Si4 0.940995 0.599904 0.711080
Si Si5 0.437009 0.899920 0.562382
Si Si6 0.063805 0.778876 0.339085
Si Si7 0.563358 0.274749 0.940053
O O1 0.750000 0.887242 0.245110
O O2 0.519380 0.883171 0.174570
O O3 0.478462 0.833127 0.282818
O O4 0.526519 0.000000 0.253396
O O5 0.750000 0.395763 0.839471
O O6 0.515356 0.500000 0.852399
O O7 0.509759 0.379555 0.775591
O O8 0.503320 0.332842 0.887494
O O9 0.250000 0.896343 0.894765
O O10 0.511819 0.825218 0.929097
O O11 0.487027 0.000000 0.905124
O O12 0.750000 0.599708 0.711001
O O13 0.990612 0.500000 0.697342
O O14 0.992743 0.678709 0.670689
O O15 0.500000 0.880339 0.500000
O O16 0.250000 0.900185 0.560935
O O17 0.492335 0.830412 0.608390
O O18 0.489592 0.000000 0.577211
O O19 0.250000 0.777186 0.345893
O O20 0.750000 0.279710 0.940795
O O21 0.500000 0.305993 0.000000
#
# Coordination Sequence:
#
# PCOD9405909 Si02
#       7
#     8   8   8   8   8   8   8
#     4   9  18  32  49  71 101 134 163 196 247 305
#     4   8  15  30  51  73  98 128 161 199 246 298
#     4   9  19  36  54  70  93 127 164 203 249 298
#     4   8  15  29  49  74 103 132 163 202 248 296
#     4  10  21  37  55  75 104 142 179 214 253 295
#     4  11  20  29  49  80 108 136 172 210 246 290
#     4  11  22  34  50  72  96 124 161 204 249 299
#
# _framework density 18.169511
#
# number of rings (size 3 to 8) (size 9 to 14) (size 15 to 20)
#    0.000    2.571    0.000    4.286    0.000    5.429 
#    0.000    1.429    0.000    3.429    0.000   10.000 
#    0.000    0.000    0.000    0.000    0.000    0.000 
#
# Total GULP energy -312453.670197 kJ/mol
# GULP energy per Si atom -5579.529825 kJ/mol
# Density = 1.812816 g / cm^3
# Si number density = 18.169511 Si / 1000 Ang^3
#
#
#
# Elastic Constant Matrix: (Units=GPa)
#
#
# Indices 1 2 3 4 5 6 
#
# 1 19.4159 20.8270 20.2610 0.0000 0.0000 0.0000
# 2 20.8270 115.6825 78.2516 0.0000 0.0000 0.0000
# 3 20.2610 78.2516 79.3545 0.0000 0.0000 0.0000
# 4 0.0000 0.0000 0.0000 16.6132 0.0000 0.0000
# 5 0.0000 0.0000 0.0000 0.0000 26.9546 0.0000
# 6 0.0000 0.0000 0.0000 0.0000 0.0000 3.7761
#
#
#
# Elastic Compliance Matrix: (Units=1/GPa)
#
#
# Indices 1 2 3 4 5 6 
#
# 1 0.070303 -0.001547 -0.016424 0.000000 0.000000 0.000000
# 2 -0.001547 0.025996 -0.025239 0.000000 0.000000 0.000000
# 3 -0.016424 -0.025239 0.041684 0.000000 0.000000 0.000000
# 4 0.000000 0.000000 0.000000 0.060193 0.000000 0.000000
# 5 0.000000 0.000000 0.000000 0.000000 0.037099 0.000000
# 6 0.000000 0.000000 0.000000 0.000000 0.000000 0.264827
#
#
# Mechanical properties :
#
#
# Convention : Reuss Voigt Hill
#
# Bulk Modulus (GPa) = 19.39461 50.34802 34.87132
# Shear Modulus (GPa) = 8.28212 15.80967 12.04589
#
# Velocity S-wave (km/s) = 2.13732 2.95298 2.57762
# Velocity P-wave (km/s) = 4.09735 6.27671 5.30026
#
# Compressibility (1/GPa) = 0.05156072
#
# Stress axis : x y z
#
# Youngs Moduli (GPa) = 14.22416 38.46804 23.99017
#
# Poissons Ratio (x) = 0.05951 0.39403
# Poissons Ratio (y) = 0.02200 0.60550
# Poissons Ratio (z) = 0.23362 0.97091
#
# Static dielectric constant tensor:
#      x y z
#    x 1.622430 0.000000 0.000000 
#    y 0.000000 1.634880 0.000000 
#    z 0.000000 0.000000 1.607330 
# 
# From -- ./inp_files/32032.got.cif
#   From: 2010.05.17/outbox.cif.g08.bks.cpg/sg51_17_cif.got.tgz:32032.got - 2010.06.03 11:52:47.
