data_PCOD9405677
_publ_section_title
;
Structure prediction by ZEFSAII (Michael W. Deem and Ramdas Pophale) SiO2 
 PCOD9405677
Probable space group: P M M A
;
_chemical_formula_sum "Si O2"
_cell_formula_units_Z 48
_cell_length_a 9.702044
_cell_length_b 7.750635
_cell_length_c 31.710558
_cell_angle_alpha 90.000000
_cell_angle_beta 90.000000
_cell_angle_gamma 90.000000
_cell_volume 2384.538887
_symmetry_space_group_name_H-M "P M M A"
_symmetry_group_IT_number 51
_symmetry_cell_setting 'orthorhombic'
loop_
_space_group_symop_operation_xyz
x,y,z
1/2-x,-y,z
1/2+x,-y,-z
-x,y,-z
-x,-y,-z
1/2+x,y,-z
1/2-x,y,z
x,-y,z
loop_
_atom_site_type_symbol
_atom_site_label
_atom_site_fract_x
_atom_site_fract_y
_atom_site_fract_z
Si Si1 0.593083 0.292631 0.382252
Si Si2 0.408692 0.711212 0.459866
Si Si3 0.405173 0.705550 0.208350
Si Si4 0.407449 0.292707 0.867641
Si Si5 0.593808 0.205433 0.286449
Si Si6 0.907277 0.792083 0.038447
O O1 0.750000 0.228010 0.389292
O O2 0.598100 0.500000 0.385895
O O3 0.486217 0.230859 0.417384
O O4 0.553698 0.250481 0.334304
O O5 0.500000 0.763734 0.500000
O O6 0.250000 0.767884 0.462398
O O7 0.406618 0.500000 0.459766
O O8 0.250000 0.775977 0.210239
O O9 0.394631 0.500000 0.201880
O O10 0.494732 0.775417 0.169260
O O11 0.488391 0.731219 0.251464
O O12 0.250000 0.226359 0.863706
O O13 0.400768 0.500000 0.863668
O O14 0.458451 0.252976 0.914768
O O15 0.750000 0.274036 0.279366
O O16 0.599450 0.000000 0.283165
O O17 0.750000 0.727788 0.035078
O O18 0.903531 0.000000 0.035798
O O19 0.000000 0.727616 0.000000
#
# Coordination Sequence:
#
# PCOD9405677 Si02
#       6
#     8   8   8   8   8   8
#     4   9  17  30  49  72  98 129 164 202 246 295
#     4   9  16  26  43  69  99 128 160 201 247 293
#     4  10  21  36  54  77 104 133 167 209 256 304
#     4   9  18  33  52  73  98 129 164 202 246 296
#     4  10  21  36  54  76 102 134 171 209 251 302
#     4   9  18  32  49  70  97 129 164 201 242 290
#
# _framework density 20.129677999999998
#
# number of rings (size 3 to 8) (size 9 to 14) (size 15 to 20)
#    0.000    2.667    0.000    1.500    0.000    6.333 
#    0.000    3.333    0.000    0.500    0.000    0.000 
#    0.000    0.000    0.000    0.000    0.000    0.000 
#
# Total GULP energy -267887.120927 kJ/mol
# GULP energy per Si atom -5580.981686 kJ/mol
# Density = 2.008386 g / cm^3
# Si number density = 20.129678 Si / 1000 Ang^3
#
#
#
# Elastic Constant Matrix: (Units=GPa)
#
#
# Indices 1 2 3 4 5 6 
#
# 1 151.1103 6.0503 141.3256 0.0000 0.0000 0.0000
# 2 6.0503 27.5904 -2.5044 0.0000 0.0000 0.0000
# 3 141.3256 -2.5044 194.2296 0.0000 0.0000 0.0000
# 4 0.0000 0.0000 0.0000 50.8367 0.0000 0.0000
# 5 0.0000 0.0000 0.0000 0.0000 38.2883 0.0000
# 6 0.0000 0.0000 0.0000 0.0000 0.0000 -7.4540
#
#
#
# Elastic Compliance Matrix: (Units=1/GPa)
#
#
# Indices 1 2 3 4 5 6 
#
# 1 0.021725 -0.006206 -0.015888 0.000000 0.000000 0.000000
# 2 -0.006206 0.038060 0.005007 0.000000 0.000000 0.000000
# 3 -0.015888 0.005007 0.016773 0.000000 0.000000 0.000000
# 4 0.000000 0.000000 0.000000 0.019671 0.000000 0.000000
# 5 0.000000 0.000000 0.000000 0.000000 0.026118 0.000000
# 6 0.000000 0.000000 0.000000 0.000000 0.000000 -0.134156
#
#
# Mechanical properties :
#
#
# Convention : Reuss Voigt Hill
#
# Bulk Modulus (GPa) = 23.59404 73.63038 48.61221
# Shear Modulus (GPa) = 137.00932 31.53812 84.27372
#
# Velocity S-wave (km/s) = 8.25900 3.96251 6.47737
# Velocity P-wave (km/s) = 10.13383 7.58899 8.95230
#
# Compressibility (1/GPa) = 0.04238359
#
# Stress axis : x y z
#
# Youngs Moduli (GPa) = 46.02972 26.27435 59.61852
#
# Poissons Ratio (x) = 0.16307 0.94720
# Poissons Ratio (y) = 0.28567 -0.29848
# Poissons Ratio (z) = 0.73131 -0.13154
#
# Static dielectric constant tensor:
#      x y z
#    x 1.732750 0.000000 0.000000 
#    y 0.000000 1.733480 0.000000 
#    z 0.000000 0.000000 1.681700 
# 
# From -- ./inp_files/36897.got.cif
#   From: 2010.05.17/outbox.cif.g08.bks.cpg/sg51_19_cif.got.tgz:36897.got - 2010.06.03 11:52:47.
