data_PCOD9405876
_publ_section_title
;
Structure prediction by ZEFSAII (Michael W. Deem and Ramdas Pophale) SiO2 
 PCOD9405876
Probable space group: P M M A
;
_chemical_formula_sum "Si O2"
_cell_formula_units_Z 58
_cell_length_a 25.126325
_cell_length_b 10.094572
_cell_length_c 11.960693
_cell_angle_alpha 90.000000
_cell_angle_beta 90.000000
_cell_angle_gamma 90.000000
_cell_volume 3033.704154
_symmetry_space_group_name_H-M "P M M A"
_symmetry_group_IT_number 51
_symmetry_cell_setting 'orthorhombic'
loop_
_space_group_symop_operation_xyz
x,y,z
1/2-x,-y,z
1/2+x,-y,-z
-x,y,-z
-x,-y,-z
1/2+x,y,-z
1/2-x,y,z
x,-y,z
loop_
_atom_site_type_symbol
_atom_site_label
_atom_site_fract_x
_atom_site_fract_y
_atom_site_fract_z
Si Si1 0.883874 0.845420 0.554337
Si Si2 0.813999 0.346268 0.695969
Si Si3 0.908136 0.157750 0.294391
Si Si4 0.969035 0.155090 0.747310
Si Si5 0.186285 0.857504 0.113116
Si Si6 0.750000 0.500000 0.104841
Si Si7 0.652953 0.286182 0.095415
Si Si8 0.943737 0.644676 0.936820
O O1 0.840874 0.741702 0.600127
O O2 0.896883 0.820780 0.425152
O O3 0.935700 0.829382 0.633139
O O4 0.866511 0.000000 0.565317
O O5 0.750000 0.344632 0.684755
O O6 0.830799 0.500000 0.697580
O O7 0.827824 0.268481 0.810386
O O8 0.868271 0.236716 0.214406
O O9 0.969386 0.194428 0.268647
O O10 0.902786 0.000000 0.272983
O O11 0.943329 0.240526 0.845375
O O12 0.968116 0.000000 0.776894
O O13 0.250000 0.862189 0.117978
O O14 0.165531 0.000000 0.155585
O O15 0.169576 0.833803 0.986331
O O16 0.702668 0.384944 0.102432
O O17 0.602764 0.345670 0.027960
O O18 0.940798 0.500000 0.881557
O O19 0.000000 0.655131 0.000000
#
# Coordination Sequence:
#
# PCOD9405876 Si02
#       8
#     8   8   8   8   8   2   8   8
#     4  10  21  40  64  92 125 165 213 266 325 380
#     4  10  22  39  61  88 122 165 215 267 323 382
#     4  10  22  42  66  92 126 167 212 266 316 378
#     4  10  21  39  67  99 127 162 209 261 323 385
#     4  10  21  36  60  90 122 159 208 263 316 378
#     4  12  28  44  64  92 128 184 216 258 318 378
#     4  12  23  42  64  91 128 170 215 256 312 381
#     4  11  23  39  62  92 130 169 208 256 315 376
#
# _framework density 19.118542000000001
#
# number of rings (size 3 to 8) (size 9 to 14) (size 15 to 20)
#    0.000    1.517    2.759    2.069    0.966    6.621 
#    2.483    0.000    0.000    1.655    0.000    0.000 
#    0.000    0.000    0.000    0.000    0.000    0.000 
#
# Total GULP energy -323356.224727 kJ/mol
# GULP energy per Si atom -5575.107323 kJ/mol
# Density = 1.907503 g / cm^3
# Si number density = 19.118542 Si / 1000 Ang^3
#
#
#
# Elastic Constant Matrix: (Units=GPa)
#
#
# Indices 1 2 3 4 5 6 
#
# 1 133.8421 62.3857 54.4975 0.0000 0.0000 0.0000
# 2 62.3857 124.2270 68.9757 0.0000 0.0000 0.0000
# 3 54.4975 68.9757 119.4235 0.0000 0.0000 0.0000
# 4 0.0000 0.0000 0.0000 4665.7433 0.0000 0.0000
# 5 0.0000 0.0000 0.0000 0.0000 22.0311 0.0000
# 6 0.0000 0.0000 0.0000 0.0000 0.0000 15.9976
#
#
#
# Elastic Compliance Matrix: (Units=1/GPa)
#
#
# Indices 1 2 3 4 5 6 
#
# 1 0.010241 -0.003751 -0.002507 0.000000 0.000000 0.000000
# 2 -0.003751 0.013224 -0.005926 0.000000 0.000000 0.000000
# 3 -0.002507 -0.005926 0.012940 0.000000 0.000000 0.000000
# 4 0.000000 0.000000 0.000000 0.000214 0.000000 0.000000
# 5 0.000000 0.000000 0.000000 0.000000 0.045390 0.000000
# 6 0.000000 0.000000 0.000000 0.000000 0.000000 0.062509
#
#
# Mechanical properties :
#
#
# Convention : Reuss Voigt Hill
#
# Bulk Modulus (GPa) = 83.07559 83.24559 83.16059
# Shear Modulus (GPa) = 28.91874 953.52999 491.22437
#
# Velocity S-wave (km/s) = 3.89344 22.35685 16.04662
# Velocity P-wave (km/s) = 7.98493 26.64723 19.67020
#
# Compressibility (1/GPa) = 0.01203723
#
# Stress axis : x y z
#
# Youngs Moduli (GPa) = 97.65147 75.62132 77.27855
#
# Poissons Ratio (x) = 0.28364 0.19372
# Poissons Ratio (y) = 0.36628 0.45796
# Poissons Ratio (z) = 0.24479 0.44813
#
# Static dielectric constant tensor:
#      x y z
#    x 1.679400 0.000000 0.000000 
#    y 0.000000 1.681060 0.000000 
#    z 0.000000 0.000000 1.641060 
# 
# From -- ./inp_files/19142.got.cif
#   From: 2010.05.17/outbox.cif.g08.bks.cpg/sg51_10_cif.got.tgz:19142.got - 2010.06.03 11:52:47.
