data_PCOD9405363
_publ_section_title
;
Structure prediction by ZEFSAII (Michael W. Deem and Ramdas Pophale) SiO2 
 PCOD9405363
Probable space group: P M M A
;
_chemical_formula_sum "Si O2"
_cell_formula_units_Z 64
_cell_length_a 31.230635
_cell_length_b 18.813817
_cell_length_c 5.536279
_cell_angle_alpha 90.000000
_cell_angle_beta 90.000000
_cell_angle_gamma 90.000000
_cell_volume 3252.937344
_symmetry_space_group_name_H-M "P M M A"
_symmetry_group_IT_number 51
_symmetry_cell_setting 'orthorhombic'
loop_
_space_group_symop_operation_xyz
x,y,z
1/2-x,-y,z
1/2+x,-y,-z
-x,y,-z
-x,-y,-z
1/2+x,y,-z
1/2-x,y,z
x,-y,z
loop_
_atom_site_type_symbol
_atom_site_label
_atom_site_fract_x
_atom_site_fract_y
_atom_site_fract_z
Si Si1 0.203720 0.078648 0.755147
Si Si2 0.297002 0.419872 0.129837
Si Si3 0.296631 0.709641 0.504181
Si Si4 0.825747 0.814207 0.870561
Si Si5 0.121536 0.919076 0.407919
Si Si6 0.637079 0.325767 0.110394
Si Si7 0.549526 0.278603 0.989551
Si Si8 0.950770 0.189887 0.485965
O O1 0.250000 0.079318 0.626365
O O2 0.202143 0.145865 0.931471
O O3 0.201670 0.000000 0.880236
O O4 0.162235 0.081508 0.587219
O O5 0.250000 0.418639 0.007617
O O6 0.303489 0.500000 0.220703
O O7 0.294979 0.359512 0.333341
O O8 0.335034 0.394245 0.958863
O O9 0.250000 0.710752 0.637868
O O10 0.299859 0.783041 0.355967
O O11 0.342035 0.699495 0.637892
O O12 0.861184 0.872977 0.813262
O O13 0.848955 0.742944 0.956147
O O14 0.081771 0.875219 0.507532
O O15 0.110916 0.000000 0.349202
O O16 0.587277 0.334588 0.049177
O O17 0.555807 0.240473 0.725989
O O18 0.500000 0.303982 0.000000
O O19 0.554478 0.227731 0.225547
O O20 0.000000 0.166260 0.500000
#
# Coordination Sequence:
#
# PCOD9405363 Si02
#       8
#     8   8   8   8   8   8   8   8
#     4  10  22  37  51  71 103 149 200 244 295 356
#     4   9  20  38  58  85 123 162 197 234 284 350
#     4  10  21  34  54  85 115 149 193 242 293 346
#     4  11  20  34  54  75 108 145 193 247 295 351
#     4  11  23  37  55  78 110 151 196 253 312 366
#     4  11  21  34  59  85 116 151 195 242 293 349
#     4  10  21  38  64  92 121 155 200 253 309 363
#     4  10  21  40  63  89 119 155 197 254 316 374
#
# _framework density 19.674527000000001
#
# number of rings (size 3 to 8) (size 9 to 14) (size 15 to 20)
#    0.000    1.750    1.250    3.375    1.750    4.250 
#    0.000    2.500    0.000    2.625    0.000    0.875 
#    0.000    0.000    0.000    0.000    0.000    0.000 
#
# Total GULP energy -356399.356801 kJ/mol
# GULP energy per Si atom -5568.739950 kJ/mol
# Density = 1.962975 g / cm^3
# Si number density = 19.674527 Si / 1000 Ang^3
#
#
#
# Elastic Constant Matrix: (Units=GPa)
#
#
# Indices 1 2 3 4 5 6 
#
# 1 106.3851 34.7018 6.8760 0.0000 0.0000 0.0000
# 2 34.7018 74.3785 11.1705 0.0000 0.0000 0.0000
# 3 6.8760 11.1705 49.4128 0.0000 0.0000 0.0000
# 4 0.0000 0.0000 0.0000 15.3144 0.0000 0.0000
# 5 0.0000 0.0000 0.0000 0.0000 29.8263 0.0000
# 6 0.0000 0.0000 0.0000 0.0000 0.0000 27.5092
#
#
#
# Elastic Compliance Matrix: (Units=1/GPa)
#
#
# Indices 1 2 3 4 5 6 
#
# 1 0.011094 -0.005118 -0.000387 0.000000 0.000000 0.000000
# 2 -0.005118 0.016278 -0.002968 0.000000 0.000000 0.000000
# 3 -0.000387 -0.002968 0.020962 0.000000 0.000000 0.000000
# 4 0.000000 0.000000 0.000000 0.065298 0.000000 0.000000
# 5 0.000000 0.000000 0.000000 0.000000 0.033527 0.000000
# 6 0.000000 0.000000 0.000000 0.000000 0.000000 0.036352
#
#
# Mechanical properties :
#
#
# Convention : Reuss Voigt Hill
#
# Bulk Modulus (GPa) = 31.85747 37.29699 34.57723
# Shear Modulus (GPa) = 23.70563 26.35852 25.03207
#
# Velocity S-wave (km/s) = 3.47492 3.66420 3.57081
# Velocity P-wave (km/s) = 5.68572 6.07453 5.88334
#
# Compressibility (1/GPa) = 0.03138981
#
# Stress axis : x y z
#
# Youngs Moduli (GPa) = 90.13676 61.43146 47.70447
#
# Poissons Ratio (x) = 0.31441 0.01845
# Poissons Ratio (y) = 0.46132 0.14158
# Poissons Ratio (z) = 0.03487 0.18231
#
# Static dielectric constant tensor:
#      x y z
#    x 1.748720 0.000000 0.000000 
#    y 0.000000 1.664990 0.000000 
#    z 0.000000 0.000000 1.796360 
# 
# From -- ./inp_files/4102.got.cif
#   From: 2010.05.17/outbox.cif.g08.bks.cpg/sg51_3_cif.got.tgz:4102.got - 2010.06.03 11:52:47.
