data_PCOD9405615
_publ_section_title
;
Structure prediction by ZEFSAII (Michael W. Deem and Ramdas Pophale) SiO2 
 PCOD9405615
Probable space group: P M M A
;
_chemical_formula_sum "Si O2"
_cell_formula_units_Z 48
_cell_length_a 9.451044
_cell_length_b 9.174204
_cell_length_c 32.168388
_cell_angle_alpha 90.000000
_cell_angle_beta 90.000000
_cell_angle_gamma 90.000000
_cell_volume 2789.185999
_symmetry_space_group_name_H-M "P M M A"
_symmetry_group_IT_number 51
_symmetry_cell_setting 'orthorhombic'
loop_
_space_group_symop_operation_xyz
x,y,z
1/2-x,-y,z
1/2+x,-y,-z
-x,y,-z
-x,-y,-z
1/2+x,y,-z
1/2-x,y,z
x,-y,z
loop_
_atom_site_type_symbol
_atom_site_label
_atom_site_fract_x
_atom_site_fract_y
_atom_site_fract_z
Si Si1 0.086426 0.322017 0.459849
Si Si2 0.915092 0.174899 0.715325
Si Si3 0.077671 0.668635 0.368787
Si Si4 0.581702 0.827651 0.958485
Si Si5 0.082467 0.673673 0.127448
Si Si6 0.416537 0.175348 0.797875
O O1 0.250000 0.278304 0.463969
O O2 0.083666 0.500000 0.459030
O O3 0.030995 0.276158 0.414297
O O4 0.000000 0.273413 0.500000
O O5 0.750000 0.216838 0.721848
O O6 0.965007 0.242416 0.671773
O O7 0.008007 0.219622 0.754800
O O8 0.920179 0.000000 0.712218
O O9 0.250000 0.671657 0.370376
O O10 0.035194 0.500000 0.364110
O O11 0.750000 0.810243 0.964826
O O12 0.541389 0.739385 0.917329
O O13 0.553588 0.000000 0.951662
O O14 0.500000 0.781834 0.000000
O O15 0.250000 0.705985 0.133556
O O16 0.064560 0.500000 0.127655
O O17 0.993139 0.747306 0.163830
O O18 0.250000 0.208247 0.796932
O O19 0.432940 0.000000 0.802039
#
# Coordination Sequence:
#
# PCOD9405615 Si02
#       6
#     8   8   8   8   8   8
#     4   8  13  22  37  57  81 109 142 180 220 264
#     4   9  17  30  49  70  90 117 155 195 234 280
#     4   8  14  25  42  64  88 114 146 185 228 273
#     4   9  18  33  53  76 102 133 169 206 241 281
#     4  10  21  36  54  77 104 134 168 205 245 289
#     4  10  21  36  53  73  98 129 164 202 245 293
#
# _framework density 17.209323999999999
#
# number of rings (size 3 to 8) (size 9 to 14) (size 15 to 20)
#    0.000    3.000    0.000    2.000    0.000    3.667 
#    0.000    4.167    0.000    1.500    0.000    0.000 
#    0.000    0.000    0.000    0.000    0.000    0.000 
#
# Total GULP energy -267469.582710 kJ/mol
# GULP energy per Si atom -5572.282973 kJ/mol
# Density = 1.717015 g / cm^3
# Si number density = 17.209324 Si / 1000 Ang^3
#
#
#
# Elastic Constant Matrix: (Units=GPa)
#
#
# Indices 1 2 3 4 5 6 
#
# 1 62.5003 36.5937 90.3139 0.0000 0.0000 0.0000
# 2 36.5937 24.8108 60.4755 0.0000 0.0000 0.0000
# 3 90.3139 60.4755 219.6521 0.0000 0.0000 0.0000
# 4 0.0000 0.0000 0.0000 29.6888 0.0000 0.0000
# 5 0.0000 0.0000 0.0000 0.0000 30.5294 0.0000
# 6 0.0000 0.0000 0.0000 0.0000 0.0000 14.8230
#
#
#
# Elastic Compliance Matrix: (Units=1/GPa)
#
#
# Indices 1 2 3 4 5 6 
#
# 1 0.117499 -0.168868 -0.001818 0.000000 0.000000 0.000000
# 2 -0.168868 0.365239 -0.031126 0.000000 0.000000 0.000000
# 3 -0.001818 -0.031126 0.013870 0.000000 0.000000 0.000000
# 4 0.000000 0.000000 0.000000 0.033683 0.000000 0.000000
# 5 0.000000 0.000000 0.000000 0.000000 0.032755 0.000000
# 6 0.000000 0.000000 0.000000 0.000000 0.000000 0.067463
#
#
# Mechanical properties :
#
#
# Convention : Reuss Voigt Hill
#
# Bulk Modulus (GPa) = 10.75468 75.74771 43.25119
# Shear Modulus (GPa) = 4.69427 22.98024 13.83726
#
# Velocity S-wave (km/s) = 1.65338 3.65819 2.83866
# Velocity P-wave (km/s) = 3.14766 7.87110 5.99425
#
# Compressibility (1/GPa) = 0.09298280
#
# Stress axis : x y z
#
# Youngs Moduli (GPa) = 8.51071 2.73794 72.09834
#
# Poissons Ratio (x) = 0.46235 0.13109
# Poissons Ratio (y) = 1.43719 2.24412
# Poissons Ratio (z) = 0.01547 0.08522
#
# Static dielectric constant tensor:
#      x y z
#    x 1.575960 0.000000 0.000000 
#    y 0.000000 1.577560 0.000000 
#    z 0.000000 0.000000 1.579860 
# 
# From -- ./inp_files/36997.got.cif
#   From: 2010.05.17/outbox.cif.g08.bks.cpg/sg51_19_cif.got.tgz:36997.got - 2010.06.03 11:52:47.
