data_PCOD9405337
_publ_section_title
;
Structure prediction by ZEFSAII (Michael W. Deem and Ramdas Pophale) SiO2 
 PCOD9405337
Probable space group: P M M A
;
_chemical_formula_sum "Si O2"
_cell_formula_units_Z 64
_cell_length_a 8.193450
_cell_length_b 15.165631
_cell_length_c 24.806714
_cell_angle_alpha 90.000000
_cell_angle_beta 90.000000
_cell_angle_gamma 90.000000
_cell_volume 3082.453489
_symmetry_space_group_name_H-M "P M M A"
_symmetry_group_IT_number 51
_symmetry_cell_setting 'orthorhombic'
loop_
_space_group_symop_operation_xyz
x,y,z
1/2-x,-y,z
1/2+x,-y,-z
-x,y,-z
-x,-y,-z
1/2+x,y,-z
1/2-x,y,z
x,-y,z
loop_
_atom_site_type_symbol
_atom_site_label
_atom_site_fract_x
_atom_site_fract_y
_atom_site_fract_z
Si Si1 0.552930 0.277247 0.058428
Si Si2 0.442614 0.400009 0.277790
Si Si3 0.446031 0.595112 0.438310
Si Si4 0.945863 0.397085 0.157861
Si Si5 0.555919 0.101633 0.774830
Si Si6 0.562628 0.787903 0.438933
Si Si7 0.944599 0.901293 0.105605
Si Si8 0.554849 0.781349 0.325086
O O1 0.750000 0.276679 0.060051
O O2 0.497604 0.337393 0.108327
O O3 0.491308 0.177525 0.068653
O O4 0.500000 0.309634 0.000000
O O5 0.250000 0.403674 0.288014
O O6 0.509558 0.500000 0.285162
O O7 0.474366 0.376024 0.215289
O O8 0.510216 0.320754 0.313573
O O9 0.500000 0.583986 0.500000
O O10 0.250000 0.610906 0.434649
O O11 0.479433 0.500000 0.411148
O O12 0.543409 0.683541 0.426154
O O13 0.750000 0.386163 0.164183
O O14 0.977950 0.500000 0.146323
O O15 0.750000 0.106121 0.782271
O O16 0.475153 0.124381 0.832099
O O17 0.506359 0.163743 0.725959
O O18 0.510221 0.000000 0.762857
O O19 0.500000 0.803304 0.500000
O O20 0.750000 0.814423 0.441191
O O21 0.488593 0.821508 0.382111
O O22 0.750000 0.905994 0.097692
O O23 0.012873 0.000000 0.096872
O O24 0.750000 0.787255 0.327214
#
# Coordination Sequence:
#
# PCOD9405337 Si02
#       8
#     8   8   8   8   8   8   8   8
#     4  10  21  34  49  73 104 140 183 226 268 316
#     4  10  21  36  56  84 114 144 182 230 282 330
#     4   9  16  26  42  63  88 122 164 208 252 297
#     4   9  18  34  54  74 101 139 181 226 276 328
#     4  10  21  37  60  90 116 138 172 222 278 330
#     4  10  21  35  51  72  99 135 178 218 260 313
#     4   9  18  34  55  78 107 142 176 213 263 324
#     4  11  23  37  56  82 111 146 183 220 268 327
#
# _framework density 20.762682000000002
#
# number of rings (size 3 to 8) (size 9 to 14) (size 15 to 20)
#    0.000    2.250    0.000    3.375    0.000    7.250 
#    0.000    2.500    0.000    0.375    0.000    0.000 
#    0.000    0.000    0.000    0.000    0.000    0.000 
#
# Total GULP energy -356810.825294 kJ/mol
# GULP energy per Si atom -5575.169145 kJ/mol
# Density = 2.071543 g / cm^3
# Si number density = 20.762682 Si / 1000 Ang^3
#
#
#
# Elastic Constant Matrix: (Units=GPa)
#
#
# Indices 1 2 3 4 5 6 
#
# 1 15.3192 4.7699 1.2054 0.0000 0.0000 0.0000
# 2 4.7699 28.5395 25.4750 0.0000 0.0000 0.0000
# 3 1.2054 25.4750 100.0230 0.0000 0.0000 0.0000
# 4 0.0000 0.0000 0.0000 3.0469 0.0000 0.0000
# 5 0.0000 0.0000 0.0000 0.0000 6.1722 0.0000
# 6 0.0000 0.0000 0.0000 0.0000 0.0000 12.7652
#
#
#
# Elastic Compliance Matrix: (Units=1/GPa)
#
#
# Indices 1 2 3 4 5 6 
#
# 1 0.069437 -0.014053 0.002742 0.000000 0.000000 0.000000
# 2 -0.014053 0.048193 -0.012105 0.000000 0.000000 0.000000
# 3 0.002742 -0.012105 0.013048 0.000000 0.000000 0.000000
# 4 0.000000 0.000000 0.000000 0.328200 0.000000 0.000000
# 5 0.000000 0.000000 0.000000 0.000000 0.162016 0.000000
# 6 0.000000 0.000000 0.000000 0.000000 0.000000 0.078338
#
#
# Mechanical properties :
#
#
# Convention : Reuss Voigt Hill
#
# Bulk Modulus (GPa) = 11.92655 22.97580 17.45118
# Shear Modulus (GPa) = 6.45985 11.89230 9.17607
#
# Velocity S-wave (km/s) = 1.76579 2.39586 2.10454
# Velocity P-wave (km/s) = 3.14866 4.32937 3.78534
#
# Compressibility (1/GPa) = 0.08384654
#
# Stress axis : x y z
#
# Youngs Moduli (GPa) = 14.40147 20.74981 76.64190
#
# Poissons Ratio (x) = 0.29160 -0.21019
# Poissons Ratio (y) = 0.20239 0.92775
# Poissons Ratio (z) = -0.03950 0.25118
#
# Static dielectric constant tensor:
#      x y z
#    x 1.718350 0.000000 0.000000 
#    y 0.000000 1.893660 0.000000 
#    z 0.000000 0.000000 1.356730 
# 
# From -- ./inp_files/34924.got.cif
#   From: 2010.05.17/outbox.cif.g08.bks.cpg/sg51_18_cif.got.tgz:34924.got - 2010.06.03 11:52:47.
