data_PCOD9405465
_publ_section_title
;
Structure prediction by ZEFSAII (Michael W. Deem and Ramdas Pophale) SiO2 
 PCOD9405465
Probable space group: P M M A
;
_chemical_formula_sum "Si O2"
_cell_formula_units_Z 48
_cell_length_a 8.543173
_cell_length_b 9.575944
_cell_length_c 32.108280
_cell_angle_alpha 90.000000
_cell_angle_beta 90.000000
_cell_angle_gamma 90.000000
_cell_volume 2626.744552
_symmetry_space_group_name_H-M "P M M A"
_symmetry_group_IT_number 51
_symmetry_cell_setting 'orthorhombic'
loop_
_space_group_symop_operation_xyz
x,y,z
1/2-x,-y,z
1/2+x,-y,-z
-x,y,-z
-x,-y,-z
1/2+x,y,-z
1/2-x,y,z
x,-y,z
loop_
_atom_site_type_symbol
_atom_site_label
_atom_site_fract_x
_atom_site_fract_y
_atom_site_fract_z
Si Si1 0.750000 0.652775 0.519139
Si Si2 0.435940 0.840822 0.043220
Si Si3 0.062151 0.331749 0.784622
Si Si4 0.435282 0.342378 0.883424
Si Si5 0.250000 0.839188 0.561918
Si Si6 0.250000 0.171141 0.251632
Si Si7 0.503861 0.345351 0.593285
Si Si8 0.750000 0.342795 0.666687
O O1 0.750000 0.500000 0.499029
O O2 0.750000 0.763137 0.482719
O O3 0.893445 0.660061 0.551136
O O4 0.250000 0.844499 0.040296
O O5 0.483870 0.759927 0.084486
O O6 0.497092 0.000000 0.045967
O O7 0.500000 0.778296 0.000000
O O8 0.250000 0.299664 0.773965
O O9 0.042621 0.500000 0.776137
O O10 0.047180 0.310710 0.834469
O O11 0.914604 0.242388 0.765764
O O12 0.250000 0.339737 0.891978
O O13 0.493805 0.500000 0.890041
O O14 0.393700 0.784651 0.588605
O O15 0.250000 0.000000 0.554728
O O16 0.250000 0.222129 0.299568
O O17 0.250000 0.000000 0.246621
O O18 0.430143 0.500000 0.593836
O O19 0.605538 0.335131 0.634771
O O20 0.750000 0.500000 0.685852
#
# Coordination Sequence:
#
# PCOD9405465 Si02
#       8
#     4   8   8   8   4   4   8   4
#     4   9  18  34  56  78 104 142 192 244 281 323
#     4  10  21  35  51  74 107 149 193 230 275 341
#     4   9  20  41  66  91 120 158 204 248 292 352
#     4   9  19  36  58  83 110 141 183 238 289 331
#     4  12  23  31  47  82 120 152 184 225 285 348
#     4  12  25  39  63  96 130 160 190 241 311 376
#     4   9  19  37  59  79 103 142 194 242 280 329
#     4   9  20  42  66  84 104 144 198 240 283 341
#
# _framework density 18.273569999999999
#
# number of rings (size 3 to 8) (size 9 to 14) (size 15 to 20)
#    0.000    2.333    0.000    4.500    1.167    6.000 
#    1.500    3.333    0.000    0.000    0.000    0.000 
#    0.000    0.000    0.000    0.000    0.000    0.000 
#
# Total GULP energy -267259.246606 kJ/mol
# GULP energy per Si atom -5567.900971 kJ/mol
# Density = 1.823198 g / cm^3
# Si number density = 18.273570 Si / 1000 Ang^3
#
#
#
# Elastic Constant Matrix: (Units=GPa)
#
#
# Indices 1 2 3 4 5 6 
#
# 1 92.6580 58.6115 42.0174 0.0000 0.0000 0.0000
# 2 58.6115 121.1324 51.3087 0.0000 0.0000 0.0000
# 3 42.0174 51.3087 80.3047 0.0000 0.0000 0.0000
# 4 0.0000 0.0000 0.0000 55.4471 0.0000 0.0000
# 5 0.0000 0.0000 0.0000 0.0000 120.7372 0.0000
# 6 0.0000 0.0000 0.0000 0.0000 0.0000 35.9255
#
#
#
# Elastic Compliance Matrix: (Units=1/GPa)
#
#
# Indices 1 2 3 4 5 6 
#
# 1 0.016877 -0.006068 -0.004953 0.000000 0.000000 0.000000
# 2 -0.006068 0.013500 -0.005451 0.000000 0.000000 0.000000
# 3 -0.004953 -0.005451 0.018527 0.000000 0.000000 0.000000
# 4 0.000000 0.000000 0.000000 0.018035 0.000000 0.000000
# 5 0.000000 0.000000 0.000000 0.000000 0.008282 0.000000
# 6 0.000000 0.000000 0.000000 0.000000 0.000000 0.027835
#
#
# Mechanical properties :
#
#
# Convention : Reuss Voigt Hill
#
# Bulk Modulus (GPa) = 62.65732 66.44116 64.54924
# Shear Modulus (GPa) = 35.38027 51.89912 43.63970
#
# Velocity S-wave (km/s) = 4.40494 5.33506 4.89215
# Velocity P-wave (km/s) = 7.76107 8.62488 8.20435
#
# Compressibility (1/GPa) = 0.01595983
#
# Stress axis : x y z
#
# Youngs Moduli (GPa) = 59.25240 74.07234 53.97532
#
# Poissons Ratio (x) = 0.44947 0.26736
# Poissons Ratio (y) = 0.35954 0.29421
# Poissons Ratio (z) = 0.29350 0.40375
#
# Static dielectric constant tensor:
#      x y z
#    x 1.806780 0.000000 0.000000 
#    y 0.000000 1.626330 0.000000 
#    z 0.000000 0.000000 1.597400 
# 
# From -- ./inp_files/37252.got.cif
#   From: 2010.05.17/outbox.cif.g08.bks.cpg/sg51_19_cif.got.tgz:37252.got - 2010.06.03 11:52:47.
