data_PCOD9405169
_publ_section_title
;
Structure prediction by ZEFSAII (Michael W. Deem and Ramdas Pophale) SiO2 
 PCOD9405169
Probable space group: P M M A
;
_chemical_formula_sum "Si O2"
_cell_formula_units_Z 32
_cell_length_a 14.744410
_cell_length_b 7.864627
_cell_length_c 14.289742
_cell_angle_alpha 90.000000
_cell_angle_beta 90.000000
_cell_angle_gamma 90.000000
_cell_volume 1657.028265
_symmetry_space_group_name_H-M "P M M A"
_symmetry_group_IT_number 51
_symmetry_cell_setting 'orthorhombic'
loop_
_space_group_symop_operation_xyz
x,y,z
1/2-x,-y,z
1/2+x,-y,-z
-x,y,-z
-x,-y,-z
1/2+x,y,-z
1/2-x,y,z
x,-y,z
loop_
_atom_site_type_symbol
_atom_site_label
_atom_site_fract_x
_atom_site_fract_y
_atom_site_fract_z
Si Si1 0.609450 0.698758 0.255606
Si Si2 0.750000 0.702903 0.096998
Si Si3 0.389510 0.000000 0.606246
Si Si4 0.750000 0.802244 0.884299
Si Si5 0.609932 0.000000 0.607122
Si Si6 0.106382 0.308249 0.259555
O O1 0.629851 0.500000 0.277794
O O2 0.663322 0.744726 0.161430
O O3 0.636656 0.831096 0.336338
O O4 0.501154 0.712597 0.242376
O O5 0.750000 0.500000 0.082614
O O6 0.750000 0.783567 0.995375
O O7 0.499730 0.000000 0.603899
O O8 0.357737 0.000000 0.499451
O O9 0.662747 0.719451 0.834935
O O10 0.750000 0.000000 0.859728
O O11 0.635975 0.832771 0.665412
O O12 0.121736 0.500000 0.294078
#
# Coordination Sequence:
#
# PCOD9405169 Si02
#       6
#     8   4   4   4   4   8
#     4   9  20  37  59  84 114 151 187 227 276 330
#     4  10  22  40  58  83 114 145 188 232 276 335
#     4   9  18  33  59  82 119 145 188 230 276 324
#     4  12  24  38  58  84 111 146 190 233 285 339
#     4   9  18  35  55  88 111 151 188 230 272 332
#     4  10  20  38  59  82 115 150 186 231 278 327
#
# _framework density 19.311679999999999
#
# number of rings (size 3 to 8) (size 9 to 14) (size 15 to 20)
#    0.000    2.250    1.250    1.125    1.750    2.000 
#    0.000   12.500    0.000    3.000    0.000    0.000 
#    0.000    0.000    0.000    0.000    0.000    0.000 
#
# Total GULP energy -178647.993174 kJ/mol
# GULP energy per Si atom -5582.749787 kJ/mol
# Density = 1.926773 g / cm^3
# Si number density = 19.311680 Si / 1000 Ang^3
#
#
#
# Elastic Constant Matrix: (Units=GPa)
#
#
# Indices 1 2 3 4 5 6 
#
# 1 78.0669 44.6440 47.3128 0.0000 0.0000 0.0000
# 2 44.6440 137.2010 87.7440 0.0000 0.0000 0.0000
# 3 47.3128 87.7440 169.0032 0.0000 0.0000 0.0000
# 4 0.0000 0.0000 0.0000 15.8524 0.0000 0.0000
# 5 0.0000 0.0000 0.0000 0.0000 29.7717 0.0000
# 6 0.0000 0.0000 0.0000 0.0000 0.0000 10.1954
#
#
#
# Elastic Compliance Matrix: (Units=1/GPa)
#
#
# Indices 1 2 3 4 5 6 
#
# 1 0.016550 -0.003626 -0.002751 0.000000 0.000000 0.000000
# 2 -0.003626 0.011706 -0.005062 0.000000 0.000000 0.000000
# 3 -0.002751 -0.005062 0.009315 0.000000 0.000000 0.000000
# 4 0.000000 0.000000 0.000000 0.063082 0.000000 0.000000
# 5 0.000000 0.000000 0.000000 0.000000 0.033589 0.000000
# 6 0.000000 0.000000 0.000000 0.000000 0.000000 0.098083
#
#
# Mechanical properties :
#
#
# Convention : Reuss Voigt Hill
#
# Bulk Modulus (GPa) = 68.05854 82.63029 75.34441
# Shear Modulus (GPa) = 19.22320 24.80192 22.01256
#
# Velocity S-wave (km/s) = 3.15845 3.58760 3.37984
# Velocity P-wave (km/s) = 6.97278 7.74866 7.37094
#
# Compressibility (1/GPa) = 0.01469323
#
# Stress axis : x y z
#
# Youngs Moduli (GPa) = 60.42204 85.42542 107.34859
#
# Poissons Ratio (x) = 0.30977 0.29527
# Poissons Ratio (y) = 0.21910 0.54345
# Poissons Ratio (z) = 0.16620 0.43246
#
# Static dielectric constant tensor:
#      x y z
#    x 1.697340 0.000000 0.000000 
#    y 0.000000 1.674840 0.000000 
#    z 0.000000 0.000000 1.621260 
# 
# From -- ./inp_files/16003.got.cif
#   From: 2010.05.17/outbox.cif.g08.bks.cpg/sg51_9_cif.got.tgz:16003.got - 2010.06.03 11:52:47.
