data_PCOD9405103
_publ_section_title
;
Structure prediction by ZEFSAII (Michael W. Deem and Ramdas Pophale) SiO2 
 PCOD9405103
Probable space group: P M M A
;
_chemical_formula_sum "Si O2"
_cell_formula_units_Z 48
_cell_length_a 28.604615
_cell_length_b 7.940221
_cell_length_c 10.070205
_cell_angle_alpha 90.000000
_cell_angle_beta 90.000000
_cell_angle_gamma 90.000000
_cell_volume 2287.215096
_symmetry_space_group_name_H-M "P M M A"
_symmetry_group_IT_number 51
_symmetry_cell_setting 'orthorhombic'
loop_
_space_group_symop_operation_xyz
x,y,z
1/2-x,-y,z
1/2+x,-y,-z
-x,y,-z
-x,-y,-z
1/2+x,y,-z
1/2-x,y,z
x,-y,z
loop_
_atom_site_type_symbol
_atom_site_label
_atom_site_fract_x
_atom_site_fract_y
_atom_site_fract_z
Si Si1 0.542925 0.700484 0.908159
Si Si2 0.541972 0.795849 0.599282
Si Si3 0.303797 0.206472 0.780483
Si Si4 0.147262 0.197443 0.052768
Si Si5 0.364203 0.807878 0.538970
Si Si6 0.196850 0.692957 0.312052
O O1 0.546648 0.500000 0.924757
O O2 0.536374 0.736283 0.750991
O O3 0.500000 0.760739 0.000000
O O4 0.591771 0.778810 0.956052
O O5 0.500000 0.750105 0.500000
O O6 0.589912 0.732287 0.530585
O O7 0.544282 0.000000 0.607106
O O8 0.250000 0.261144 0.762417
O O9 0.324812 0.254057 0.922749
O O10 0.339537 0.268922 0.667713
O O11 0.303382 0.000000 0.773970
O O12 0.157248 0.000000 0.072625
O O13 0.165758 0.291851 0.181626
O O14 0.324796 0.806063 0.426239
O O15 0.377175 0.000000 0.574816
O O16 0.250000 0.739423 0.280451
O O17 0.195836 0.500000 0.359643
#
# Coordination Sequence:
#
# PCOD9405103 Si02
#       6
#     8   8   8   8   8   8
#     4  11  25  43  62  88 122 160 200 244 302 366
#     4  10  22  39  63  94 123 154 198 250 302 359
#     4   9  19  35  57  88 122 154 195 247 298 351
#     4  11  22  38  63  90 117 155 202 251 303 353
#     4  10  20  37  61  89 119 156 198 246 300 354
#     4  11  23  38  58  86 122 162 199 242 297 358
#
# _framework density 20.986218999999998
#
# number of rings (size 3 to 8) (size 9 to 14) (size 15 to 20)
#    0.000    1.667    1.667    2.500    2.333    4.333 
#    0.000    1.667    0.000    4.000    0.000    0.000 
#    0.000    0.000    0.000    0.000    0.000    0.000 
#
# Total GULP energy -268126.544357 kJ/mol
# GULP energy per Si atom -5585.969674 kJ/mol
# Density = 2.093845 g / cm^3
# Si number density = 20.986219 Si / 1000 Ang^3
#
#
#
# Elastic Constant Matrix: (Units=GPa)
#
#
# Indices 1 2 3 4 5 6 
#
# 1 84.1733 -0.3229 1.6125 0.0000 0.0000 0.0000
# 2 -0.3229 30.0052 -1.0780 0.0000 0.0000 0.0000
# 3 1.6125 -1.0780 78.4752 0.0000 0.0000 0.0000
# 4 0.0000 0.0000 0.0000 39.4173 0.0000 0.0000
# 5 0.0000 0.0000 0.0000 0.0000 42.1890 0.0000
# 6 0.0000 0.0000 0.0000 0.0000 0.0000 29.2199
#
#
#
# Elastic Compliance Matrix: (Units=1/GPa)
#
#
# Indices 1 2 3 4 5 6 
#
# 1 0.011885 0.000119 -0.000243 0.000000 0.000000 0.000000
# 2 0.000119 0.033345 0.000456 0.000000 0.000000 0.000000
# 3 -0.000243 0.000456 0.012754 0.000000 0.000000 0.000000
# 4 0.000000 0.000000 0.000000 0.025370 0.000000 0.000000
# 5 0.000000 0.000000 0.000000 0.000000 0.023703 0.000000
# 6 0.000000 0.000000 0.000000 0.000000 0.000000 0.034223
#
#
# Mechanical properties :
#
#
# Convention : Reuss Voigt Hill
#
# Bulk Modulus (GPa) = 17.05056 21.45299 19.25178
# Shear Modulus (GPa) = 31.21768 34.99471 33.10620
#
# Velocity S-wave (km/s) = 3.86104 4.08794 3.97611
# Velocity P-wave (km/s) = 5.29331 5.70319 5.50206
#
# Compressibility (1/GPa) = 0.05864910
#
# Stress axis : x y z
#
# Youngs Moduli (GPa) = 84.13713 29.98934 78.40598
#
# Poissons Ratio (x) = -0.00357 0.01902
# Poissons Ratio (y) = -0.01003 -0.03572
# Poissons Ratio (z) = 0.02041 -0.01366
#
# Static dielectric constant tensor:
#      x y z
#    x 1.753940 0.000000 0.000000 
#    y 0.000000 1.908760 0.000000 
#    z 0.000000 0.000000 1.717550 
# 
# From -- ./inp_files/12740.got.cif
#   From: 2010.05.17/outbox.cif.g08.bks.cpg/sg51_7_cif.got.tgz:12740.got - 2010.06.03 11:52:47.
