data_PCOD9405840
_publ_section_title
;
Structure prediction by ZEFSAII (Michael W. Deem and Ramdas Pophale) SiO2 
 PCOD9405840
Probable space group: P M M A
;
_chemical_formula_sum "Si O2"
_cell_formula_units_Z 64
_cell_length_a 26.418529
_cell_length_b 7.838992
_cell_length_c 14.837509
_cell_angle_alpha 90.000000
_cell_angle_beta 90.000000
_cell_angle_gamma 90.000000
_cell_volume 3072.768548
_symmetry_space_group_name_H-M "P M M A"
_symmetry_group_IT_number 51
_symmetry_cell_setting 'orthorhombic'
loop_
_space_group_symop_operation_xyz
x,y,z
1/2-x,-y,z
1/2+x,-y,-z
-x,y,-z
-x,-y,-z
1/2+x,y,-z
1/2-x,y,z
x,-y,z
loop_
_atom_site_type_symbol
_atom_site_label
_atom_site_fract_x
_atom_site_fract_y
_atom_site_fract_z
Si Si1 0.307088 0.291192 0.269942
Si Si2 0.360807 0.291274 0.087225
Si Si3 0.024329 0.704324 0.092151
Si Si4 0.098020 0.794843 0.593400
Si Si5 0.902031 0.296822 0.614752
Si Si6 0.807273 0.796424 0.296799
Si Si7 0.691537 0.706023 0.095391
Si Si8 0.494443 0.797287 0.714486
O O1 0.250000 0.234447 0.289778
O O2 0.306832 0.500000 0.271615
O O3 0.324816 0.240142 0.169625
O O4 0.350382 0.231377 0.338982
O O5 0.360681 0.500000 0.087005
O O6 0.418142 0.232799 0.103696
O O7 0.340920 0.235045 0.989736
O O8 0.027764 0.500000 0.083265
O O9 0.992987 0.739404 0.182181
O O10 0.000000 0.771615 0.000000
O O11 0.092469 0.758225 0.488261
O O12 0.150940 0.728639 0.634195
O O13 0.050821 0.728136 0.652095
O O14 0.098494 0.000000 0.603328
O O15 0.899014 0.500000 0.616688
O O16 0.951339 0.248077 0.671933
O O17 0.750000 0.726244 0.306191
O O18 0.824948 0.765487 0.194157
O O19 0.803935 0.000000 0.309496
O O20 0.750000 0.760209 0.083574
O O21 0.690549 0.500000 0.095763
O O22 0.490483 0.000000 0.714457
#
# Coordination Sequence:
#
# PCOD9405840 Si02
#       8
#     8   8   8   8   8   8   8   8
#     4   9  17  31  54  83 114 146 181 225 278 336
#     4   9  16  30  51  78 111 145 179 220 273 328
#     4  10  21  36  56  85 117 147 184 233 282 327
#     4  10  23  40  58  81 109 145 188 228 278 340
#     4  11  22  38  60  87 113 140 184 236 286 332
#     4   9  19  37  57  77 108 148 183 223 277 330
#     4   9  17  29  50  80 108 138 179 222 264 318
#     4  11  23  40  60  81 112 151 188 227 274 335
#
# _framework density 20.828122
#
# number of rings (size 3 to 8) (size 9 to 14) (size 15 to 20)
#    0.000    2.250    1.250    1.500    1.750    5.250 
#    0.000    0.625    0.000    1.125    0.000    0.000 
#    0.000    0.000    0.000    0.000    0.000    0.000 
#
# Total GULP energy -357396.908076 kJ/mol
# GULP energy per Si atom -5584.326689 kJ/mol
# Density = 2.078072 g / cm^3
# Si number density = 20.828122 Si / 1000 Ang^3
#
#
#
# Elastic Constant Matrix: (Units=GPa)
#
#
# Indices 1 2 3 4 5 6 
#
# 1 121.8756 9.2287 75.2962 0.0000 0.0000 0.0000
# 2 9.2287 18.9070 -2.9777 0.0000 0.0000 0.0000
# 3 75.2962 -2.9777 157.0828 0.0000 0.0000 0.0000
# 4 0.0000 0.0000 0.0000 26.9645 0.0000 0.0000
# 5 0.0000 0.0000 0.0000 0.0000 31.2057 0.0000
# 6 0.0000 0.0000 0.0000 0.0000 0.0000 8.8081
#
#
#
# Elastic Compliance Matrix: (Units=1/GPa)
#
#
# Indices 1 2 3 4 5 6 
#
# 1 0.012538 -0.007087 -0.006144 0.000000 0.000000 0.000000
# 2 -0.007087 0.057055 0.004479 0.000000 0.000000 0.000000
# 3 -0.006144 0.004479 0.009396 0.000000 0.000000 0.000000
# 4 0.000000 0.000000 0.000000 0.037086 0.000000 0.000000
# 5 0.000000 0.000000 0.000000 0.000000 0.032045 0.000000
# 6 0.000000 0.000000 0.000000 0.000000 0.000000 0.113532
#
#
# Mechanical properties :
#
#
# Convention : Reuss Voigt Hill
#
# Bulk Modulus (GPa) = 16.26450 51.21776 33.74113
# Shear Modulus (GPa) = 16.68600 27.81688 22.25144
#
# Velocity S-wave (km/s) = 2.83349 3.65847 3.27209
# Velocity P-wave (km/s) = 4.30474 6.51843 5.52362
#
# Compressibility (1/GPa) = 0.06148360
#
# Stress axis : x y z
#
# Youngs Moduli (GPa) = 79.75937 17.52685 106.42679
#
# Poissons Ratio (x) = 0.12422 0.65391
# Poissons Ratio (y) = 0.56529 -0.47667
# Poissons Ratio (z) = 0.49006 -0.07850
#
# Static dielectric constant tensor:
#      x y z
#    x 1.748140 0.000000 0.000000 
#    y 0.000000 1.770470 0.000000 
#    z 0.000000 0.000000 1.696320 
# 
# From -- ./inp_files/26288.got.cif
#   From: 2010.05.17/outbox.cif.g08.bks.cpg/sg51_14_cif.got.tgz:26288.got - 2010.06.03 11:52:47.
