data_PCOD9405703
_publ_section_title
;
Structure prediction by ZEFSAII (Michael W. Deem and Ramdas Pophale) SiO2 
 PCOD9405703
Probable space group: P M M A
;
_chemical_formula_sum "Si O2"
_cell_formula_units_Z 48
_cell_length_a 9.295676
_cell_length_b 9.262756
_cell_length_c 31.494428
_cell_angle_alpha 90.000000
_cell_angle_beta 90.000000
_cell_angle_gamma 90.000000
_cell_volume 2711.782958
_symmetry_space_group_name_H-M "P M M A"
_symmetry_group_IT_number 51
_symmetry_cell_setting 'orthorhombic'
loop_
_space_group_symop_operation_xyz
x,y,z
1/2-x,-y,z
1/2+x,-y,-z
-x,y,-z
-x,-y,-z
1/2+x,y,-z
1/2-x,y,z
x,-y,z
loop_
_atom_site_type_symbol
_atom_site_label
_atom_site_fract_x
_atom_site_fract_y
_atom_site_fract_z
Si Si1 0.922784 0.330401 0.715922
Si Si2 0.418468 0.826711 0.543080
Si Si3 0.420042 0.827716 0.043938
Si Si4 0.419070 0.673330 0.380849
Si Si5 0.421261 0.671462 0.879210
Si Si6 0.422316 0.831098 0.791847
O O1 0.750000 0.317607 0.719553
O O2 0.958838 0.500000 0.721582
O O3 0.961172 0.288405 0.667537
O O4 0.999949 0.236654 0.751344
O O5 0.500000 0.782613 0.500000
O O6 0.250000 0.792318 0.539688
O O7 0.488323 0.751364 0.583672
O O8 0.433366 0.000000 0.547235
O O9 0.250000 0.798486 0.040542
O O10 0.490834 0.741900 0.082555
O O11 0.438775 0.000000 0.050933
O O12 0.500000 0.790939 0.000000
O O13 0.250000 0.709065 0.386349
O O14 0.432383 0.500000 0.384596
O O15 0.250000 0.696801 0.885798
O O16 0.444709 0.500000 0.877072
O O17 0.461956 0.745555 0.834654
O O18 0.250000 0.817521 0.786586
O O19 0.457069 0.000000 0.796517
#
# Coordination Sequence:
#
# PCOD9405703 Si02
#       6
#     8   8   8   8   8   8
#     4   9  19  36  56  78 106 140 177 217 262 313
#     4  10  21  36  54  77 105 138 176 217 262 313
#     4  10  21  37  58  83 110 142 179 219 265 316
#     4   9  19  36  56  78 105 138 176 217 262 313
#     4  10  21  37  57  80 107 142 182 222 266 315
#     4  10  21  36  55  80 109 141 178 220 265 314
#
# _framework density 17.700531999999999
#
# number of rings (size 3 to 8) (size 9 to 14) (size 15 to 20)
#    0.000    2.333    0.000    3.000    0.000    7.333 
#    0.000    5.000    0.000    0.000    0.000    0.000 
#    0.000    0.000    0.000    0.000    0.000    0.000 
#
# Total GULP energy -267996.697853 kJ/mol
# GULP energy per Si atom -5583.264539 kJ/mol
# Density = 1.766024 g / cm^3
# Si number density = 17.700532 Si / 1000 Ang^3
#
#
#
# Elastic Constant Matrix: (Units=GPa)
#
#
# Indices 1 2 3 4 5 6 
#
# 1 86.2574 67.5328 103.6248 0.0000 0.0000 0.0000
# 2 67.5328 71.4771 94.9116 0.0000 0.0000 0.0000
# 3 103.6248 94.9116 198.1406 0.0000 0.0000 0.0000
# 4 0.0000 0.0000 0.0000 41.0747 0.0000 0.0000
# 5 0.0000 0.0000 0.0000 0.0000 41.1130 0.0000
# 6 0.0000 0.0000 0.0000 0.0000 0.0000 32.1271
#
#
#
# Elastic Compliance Matrix: (Units=1/GPa)
#
#
# Indices 1 2 3 4 5 6 
#
# 1 0.050627 -0.034828 -0.009794 0.000000 0.000000 0.000000
# 2 -0.034828 0.062401 -0.011676 0.000000 0.000000 0.000000
# 3 -0.009794 -0.011676 0.015762 0.000000 0.000000 0.000000
# 4 0.000000 0.000000 0.000000 0.024346 0.000000 0.000000
# 5 0.000000 0.000000 0.000000 0.000000 0.024323 0.000000
# 6 0.000000 0.000000 0.000000 0.000000 0.000000 0.031126
#
#
# Mechanical properties :
#
#
# Convention : Reuss Voigt Hill
#
# Bulk Modulus (GPa) = 61.75363 98.66814 80.21089
# Shear Modulus (GPa) = 15.31018 28.85005 22.08011
#
# Velocity S-wave (km/s) = 2.94420 4.04158 3.53572
# Velocity P-wave (km/s) = 6.82067 8.81154 7.87924
#
# Compressibility (1/GPa) = 0.01619338
#
# Stress axis : x y z
#
# Youngs Moduli (GPa) = 19.75229 16.02542 63.44271
#
# Poissons Ratio (x) = 0.55813 0.62138
# Poissons Ratio (y) = 0.68793 0.74077
# Poissons Ratio (z) = 0.19346 0.18712
#
# Static dielectric constant tensor:
#      x y z
#    x 1.587800 0.000000 0.000000 
#    y 0.000000 1.587960 0.000000 
#    z 0.000000 0.000000 1.570240 
# 
# From -- ./inp_files/36981.got.cif
#   From: 2010.05.17/outbox.cif.g08.bks.cpg/sg51_19_cif.got.tgz:36981.got - 2010.06.03 11:52:47.
