data_PCOD9405038
_publ_section_title
;
Structure prediction by ZEFSAII (Michael W. Deem and Ramdas Pophale) SiO2 
 PCOD9405038
Probable space group: P M M A
;
_chemical_formula_sum "Si O2"
_cell_formula_units_Z 40
_cell_length_a 8.479560
_cell_length_b 26.453481
_cell_length_c 9.696097
_cell_angle_alpha 90.000000
_cell_angle_beta 90.000000
_cell_angle_gamma 90.000000
_cell_volume 2174.969133
_symmetry_space_group_name_H-M "P M M A"
_symmetry_group_IT_number 51
_symmetry_cell_setting 'orthorhombic'
loop_
_space_group_symop_operation_xyz
x,y,z
1/2-x,-y,z
1/2+x,-y,-z
-x,y,-z
-x,-y,-z
1/2+x,y,-z
1/2-x,y,z
x,-y,z
loop_
_atom_site_type_symbol
_atom_site_label
_atom_site_fract_x
_atom_site_fract_y
_atom_site_fract_z
Si Si1 0.059950 0.000000 0.157102
Si Si2 0.940238 0.704222 0.847627
Si Si3 0.940828 0.204444 0.655570
Si Si4 0.439197 0.411540 0.152798
Si Si5 0.437293 0.500000 0.654960
Si Si6 0.940881 0.889397 0.842796
O O1 0.008783 0.945100 0.212267
O O2 0.250000 0.000000 0.158808
O O3 0.000000 0.000000 0.000000
O O4 0.750000 0.704786 0.850673
O O5 0.993479 0.744805 0.735057
O O6 0.990313 0.646432 0.818886
O O7 0.000000 0.718178 0.000000
O O8 0.750000 0.204257 0.654245
O O9 0.994009 0.156012 0.744904
O O10 0.000000 0.202594 0.500000
O O11 0.250000 0.413306 0.152466
O O12 0.502903 0.450875 0.263082
O O13 0.500000 0.424911 0.000000
O O14 0.250000 0.500000 0.653872
O O15 0.500000 0.500000 0.500000
O O16 0.750000 0.888447 0.847309
O O17 0.000000 0.883267 0.000000
#
# Coordination Sequence:
#
# PCOD9405038 Si02
#       6
#     4   8   8   8   4   8
#     4   8  14  26  45  70  96 124 158 204 253 296
#     4   9  19  35  56  80 104 131 169 212 255 301
#     4  10  21  35  49  71 102 136 170 207 251 302
#     4  10  20  37  59  83 109 138 173 214 257 306
#     4  12  25  40  57  80 110 144 178 214 257 306
#     4   9  17  30  50  73  98 127 165 208 252 300
#
# _framework density 18.391065999999999
#
# number of rings (size 3 to 8) (size 9 to 14) (size 15 to 20)
#    0.000    2.400    0.000    2.400    0.000    3.200 
#    0.000    2.500    0.000    0.000    0.000    0.000 
#    0.000    0.000    0.000    0.000    0.000    0.000 
#
# Total GULP energy -223136.434812 kJ/mol
# GULP energy per Si atom -5578.410870 kJ/mol
# Density = 1.834921 g / cm^3
# Si number density = 18.391066 Si / 1000 Ang^3
#
#
#
# Elastic Constant Matrix: (Units=GPa)
#
#
# Indices 1 2 3 4 5 6 
#
# 1 27.8961 31.3846 26.0896 0.0000 0.0000 0.0000
# 2 31.3846 157.4928 122.7412 0.0000 0.0000 0.0000
# 3 26.0896 122.7412 150.2102 0.0000 0.0000 0.0000
# 4 0.0000 0.0000 0.0000 -4.1137 0.0000 0.0000
# 5 0.0000 0.0000 0.0000 0.0000 33.0767 0.0000
# 6 0.0000 0.0000 0.0000 0.0000 0.0000 7.8806
#
#
#
# Elastic Compliance Matrix: (Units=1/GPa)
#
#
# Indices 1 2 3 4 5 6 
#
# 1 0.046311 -0.008150 -0.001384 0.000000 0.000000 0.000000
# 2 -0.008150 0.018918 -0.014043 0.000000 0.000000 0.000000
# 3 -0.001384 -0.014043 0.018372 0.000000 0.000000 0.000000
# 4 0.000000 0.000000 0.000000 -0.243088 0.000000 0.000000
# 5 0.000000 0.000000 0.000000 0.000000 0.030233 0.000000
# 6 0.000000 0.000000 0.000000 0.000000 0.000000 0.126894
#
#
# Mechanical properties :
#
#
# Convention : Reuss Voigt Hill
#
# Bulk Modulus (GPa) = 27.43659 77.33667 52.38663
# Shear Modulus (GPa) = 87.80860 17.72763 52.76811
#
# Velocity S-wave (km/s) = 6.91729 3.10808 5.36233
# Velocity P-wave (km/s) = 8.87408 7.41773 8.17839
#
# Compressibility (1/GPa) = 0.03644768
#
# Stress axis : x y z
#
# Youngs Moduli (GPa) = 21.59313 52.86064 54.42964
#
# Poissons Ratio (x) = 0.43082 0.07533
# Poissons Ratio (y) = 0.17599 0.76433
# Poissons Ratio (z) = 0.02988 0.74230
#
# Static dielectric constant tensor:
#      x y z
#    x 1.623300 0.000000 0.000000 
#    y 0.000000 1.676010 0.000000 
#    z 0.000000 0.000000 1.573320 
# 
# From -- ./inp_files/5585.got.cif
#   From: 2010.05.17/outbox.cif.g08.bks.cpg/sg51_3_cif.got.tgz:5585.got - 2010.06.03 11:52:47.
