data_PCOD9405045
_publ_section_title
;
Structure prediction by ZEFSAII (Michael W. Deem and Ramdas Pophale) SiO2 
 PCOD9405045
Probable space group: P M M A
;
_chemical_formula_sum "Si O2"
_cell_formula_units_Z 52
_cell_length_a 23.340376
_cell_length_b 18.830710
_cell_length_c 5.756483
_cell_angle_alpha 90.000000
_cell_angle_beta 90.000000
_cell_angle_gamma 90.000000
_cell_volume 2530.065529
_symmetry_space_group_name_H-M "P M M A"
_symmetry_group_IT_number 51
_symmetry_cell_setting 'orthorhombic'
loop_
_space_group_symop_operation_xyz
x,y,z
1/2-x,-y,z
1/2+x,-y,-z
-x,y,-z
-x,-y,-z
1/2+x,y,-z
1/2-x,y,z
x,-y,z
loop_
_atom_site_type_symbol
_atom_site_label
_atom_site_fract_x
_atom_site_fract_y
_atom_site_fract_z
Si Si1 0.185255 0.414630 0.686945
Si Si2 0.685603 0.917404 0.915586
Si Si3 0.101565 0.828597 0.779995
Si Si4 0.577640 0.276191 0.838495
Si Si5 0.624265 0.415092 0.814376
Si Si6 0.184909 0.215286 0.399520
Si Si7 0.000000 0.183986 0.500000
O O1 0.250000 0.385934 0.680907
O O2 0.188327 0.500000 0.686790
O O3 0.154093 0.398918 0.438732
O O4 0.157655 0.398278 0.940846
O O5 0.750000 0.908229 0.021778
O O6 0.684749 0.865724 0.694289
O O7 0.678795 0.000000 0.860838
O O8 0.634552 0.887659 0.073239
O O9 0.151508 0.788524 0.639549
O O10 0.049312 0.859929 0.630660
O O11 0.071084 0.765918 0.923820
O O12 0.571342 0.360395 0.830778
O O13 0.644045 0.259307 0.770951
O O14 0.538418 0.235181 0.658233
O O15 0.612840 0.500000 0.815881
O O16 0.250000 0.239749 0.407933
#
# Coordination Sequence:
#
# PCOD9405045 Si02
#       7
#     8   8   8   8   8   8   4
#     4   9  18  33  52  78 117 160 195 235 298 376
#     4   9  18  34  58  90 127 161 190 227 285 356
#     4  10  20  37  59  84 114 154 202 247 296 354
#     4  10  22  38  59  82 110 153 201 253 309 365
#     4  10  21  36  56  84 118 155 203 259 316 379
#     4   9  19  34  54  85 120 153 192 238 290 356
#     4  10  22  40  62  80 108 152 208 260 306 356
#
# _framework density 20.552828999999999
#
# number of rings (size 3 to 8) (size 9 to 14) (size 15 to 20)
#    0.000    2.462    0.000    1.385    4.308    4.308 
#    0.000    2.308    0.000   13.846    0.000    0.000 
#    0.000    0.000    0.000    0.000    0.000    0.000 
#
# Total GULP energy -289483.668852 kJ/mol
# GULP energy per Si atom -5566.993632 kJ/mol
# Density = 2.050605 g / cm^3
# Si number density = 20.552829 Si / 1000 Ang^3
#
#
#
# Elastic Constant Matrix: (Units=GPa)
#
#
# Indices 1 2 3 4 5 6 
#
# 1 85.3967 1.9217 27.4801 0.0000 0.0000 0.0000
# 2 1.9217 64.2636 16.0610 0.0000 0.0000 0.0000
# 3 27.4801 16.0610 93.8795 0.0000 0.0000 0.0000
# 4 0.0000 0.0000 0.0000 -6.0198 0.0000 0.0000
# 5 0.0000 0.0000 0.0000 0.0000 25.0689 0.0000
# 6 0.0000 0.0000 0.0000 0.0000 0.0000 8.1656
#
#
#
# Elastic Compliance Matrix: (Units=1/GPa)
#
#
# Indices 1 2 3 4 5 6 
#
# 1 0.012949 0.000585 -0.003890 0.000000 0.000000 0.000000
# 2 0.000585 0.016282 -0.002957 0.000000 0.000000 0.000000
# 3 -0.003890 -0.002957 0.012297 0.000000 0.000000 0.000000
# 4 0.000000 0.000000 0.000000 -0.166119 0.000000 0.000000
# 5 0.000000 0.000000 0.000000 0.000000 0.039890 0.000000
# 6 0.000000 0.000000 0.000000 0.000000 0.000000 0.122464
#
#
# Mechanical properties :
#
#
# Convention : Reuss Voigt Hill
#
# Bulk Modulus (GPa) = 34.47872 37.16284 35.82078
# Shear Modulus (GPa) = 83.39511 18.64809 51.02160
#
# Velocity S-wave (km/s) = 6.37684 3.01545 4.98784
# Velocity P-wave (km/s) = 8.42798 5.49953 7.11602
#
# Compressibility (1/GPa) = 0.02900339
#
# Stress axis : x y z
#
# Youngs Moduli (GPa) = 77.22723 61.41601 81.32322
#
# Poissons Ratio (x) = -0.03593 0.31638
# Poissons Ratio (y) = -0.04519 0.24046
# Poissons Ratio (z) = 0.30045 0.18160
#
# Static dielectric constant tensor:
#      x y z
#    x 1.743580 0.000000 0.000000 
#    y 0.000000 1.715400 0.000000 
#    z 0.000000 0.000000 1.824870 
# 
# From -- ./inp_files/2572.got.cif
#   From: 2010.05.17/outbox.cif.g08.bks.cpg/sg51_2_cif.got.tgz:2572.got - 2010.06.03 11:52:47.
