data_PCOD9405725
_publ_section_title
;
Structure prediction by ZEFSAII (Michael W. Deem and Ramdas Pophale) SiO2 
 PCOD9405725
Probable space group: P M M A
;
_chemical_formula_sum "Si O2"
_cell_formula_units_Z 48
_cell_length_a 9.459974
_cell_length_b 8.881688
_cell_length_c 31.739854
_cell_angle_alpha 90.000000
_cell_angle_beta 90.000000
_cell_angle_gamma 90.000000
_cell_volume 2666.799595
_symmetry_space_group_name_H-M "P M M A"
_symmetry_group_IT_number 51
_symmetry_cell_setting 'orthorhombic'
loop_
_space_group_symop_operation_xyz
x,y,z
1/2-x,-y,z
1/2+x,-y,-z
-x,y,-z
-x,-y,-z
1/2+x,y,-z
1/2-x,y,z
x,-y,z
loop_
_atom_site_type_symbol
_atom_site_label
_atom_site_fract_x
_atom_site_fract_y
_atom_site_fract_z
Si Si1 0.085008 0.681584 0.457938
Si Si2 0.584792 0.181671 0.787260
Si Si3 0.415818 0.320240 0.709763
Si Si4 0.914763 0.818823 0.129634
Si Si5 0.915478 0.819940 0.380608
Si Si6 0.915652 0.319040 0.041241
O O1 0.250000 0.723033 0.461181
O O2 0.076550 0.500000 0.454319
O O3 0.000000 0.725999 0.500000
O O4 0.011616 0.754191 0.417471
O O5 0.750000 0.220432 0.788577
O O6 0.508767 0.254309 0.747273
O O7 0.506557 0.228859 0.830296
O O8 0.572668 0.000000 0.784145
O O9 0.250000 0.284256 0.717484
O O10 0.430246 0.500000 0.707569
O O11 0.454374 0.248820 0.664729
O O12 0.750000 0.774783 0.135685
O O13 0.964859 0.751303 0.085292
O O14 0.920028 0.000000 0.126975
O O15 0.750000 0.781042 0.388518
O O16 0.927182 0.000000 0.379010
O O17 0.750000 0.281303 0.036379
O O18 0.928033 0.500000 0.044056
O O19 0.000000 0.268074 0.000000
#
# Coordination Sequence:
#
# PCOD9405725 Si02
#       6
#     8   8   8   8   8   8
#     4  10  21  37  58  83 111 145 183 223 268 316
#     4  10  21  36  54  78 108 140 174 215 264 315
#     4  10  21  37  58  82 107 139 179 220 263 314
#     4   9  18  33  52  73  99 133 171 210 254 306
#     4  10  21  37  58  83 110 142 180 221 266 316
#     4   9  18  32  49  70  97 129 165 206 253 305
#
# _framework density 17.999103999999999
#
# number of rings (size 3 to 8) (size 9 to 14) (size 15 to 20)
#    0.000    2.333    0.000    2.000    0.000    6.667 
#    0.000    1.667    0.000    0.000    0.000    0.000 
#    0.000    0.000    0.000    0.000    0.000    0.000 
#
# Total GULP energy -267981.337946 kJ/mol
# GULP energy per Si atom -5582.944541 kJ/mol
# Density = 1.795814 g / cm^3
# Si number density = 17.999104 Si / 1000 Ang^3
#
#
#
# Elastic Constant Matrix: (Units=GPa)
#
#
# Indices 1 2 3 4 5 6 
#
# 1 113.5525 46.3021 125.3229 0.0000 0.0000 0.0000
# 2 46.3021 21.1951 55.4920 0.0000 0.0000 0.0000
# 3 125.3229 55.4920 217.5661 0.0000 0.0000 0.0000
# 4 0.0000 0.0000 0.0000 38.7446 0.0000 0.0000
# 5 0.0000 0.0000 0.0000 0.0000 39.3275 0.0000
# 6 0.0000 0.0000 0.0000 0.0000 0.0000 24.0105
#
#
#
# Elastic Compliance Matrix: (Units=1/GPa)
#
#
# Indices 1 2 3 4 5 6 
#
# 1 0.082168 -0.167307 -0.004657 0.000000 0.000000 0.000000
# 2 -0.167307 0.482683 -0.026740 0.000000 0.000000 0.000000
# 3 -0.004657 -0.026740 0.014099 0.000000 0.000000 0.000000
# 4 0.000000 0.000000 0.000000 0.025810 0.000000 0.000000
# 5 0.000000 0.000000 0.000000 0.000000 0.025427 0.000000
# 6 0.000000 0.000000 0.000000 0.000000 0.000000 0.041648
#
#
# Mechanical properties :
#
#
# Convention : Reuss Voigt Hill
#
# Bulk Modulus (GPa) = 5.50838 89.61642 47.56240
# Shear Modulus (GPa) = 4.42572 28.76297 16.59435
#
# Velocity S-wave (km/s) = 1.56978 4.00186 3.03966
# Velocity P-wave (km/s) = 2.52044 8.44101 6.22910
#
# Compressibility (1/GPa) = 0.18154168
#
# Stress axis : x y z
#
# Youngs Moduli (GPa) = 12.17023 2.07175 70.92621
#
# Poissons Ratio (x) = 0.34662 0.33032
# Poissons Ratio (y) = 2.03617 1.89654
# Poissons Ratio (z) = 0.05668 0.05540
#
# Static dielectric constant tensor:
#      x y z
#    x 1.607070 0.000000 0.000000 
#    y 0.000000 1.604460 0.000000 
#    z 0.000000 0.000000 1.580990 
# 
# From -- ./inp_files/36921.got.cif
#   From: 2010.05.17/outbox.cif.g08.bks.cpg/sg51_19_cif.got.tgz:36921.got - 2010.06.03 11:52:47.
