data_PCOD9405800
_publ_section_title
;
Structure prediction by ZEFSAII (Michael W. Deem and Ramdas Pophale) SiO2 
 PCOD9405800
Probable space group: P M M A
;
_chemical_formula_sum "Si O2"
_cell_formula_units_Z 32
_cell_length_a 13.699417
_cell_length_b 10.687704
_cell_length_c 10.585192
_cell_angle_alpha 90.000000
_cell_angle_beta 90.000000
_cell_angle_gamma 90.000000
_cell_volume 1549.834209
_symmetry_space_group_name_H-M "P M M A"
_symmetry_group_IT_number 51
_symmetry_cell_setting 'orthorhombic'
loop_
_space_group_symop_operation_xyz
x,y,z
1/2-x,-y,z
1/2+x,-y,-z
-x,y,-z
-x,-y,-z
1/2+x,y,-z
1/2-x,y,z
x,-y,z
loop_
_atom_site_type_symbol
_atom_site_label
_atom_site_fract_x
_atom_site_fract_y
_atom_site_fract_z
Si Si1 0.137783 0.139288 0.135915
Si Si2 0.006122 0.276365 0.704724
Si Si3 0.637416 0.360365 0.066696
Si Si4 0.862727 0.641798 0.502832
O O1 0.250000 0.150170 0.184431
O O2 0.054175 0.160188 0.239717
O O3 0.128597 0.000000 0.080104
O O4 0.124991 0.249855 0.034338
O O5 0.062328 0.340756 0.819943
O O6 0.087267 0.263429 0.595407
O O7 0.922165 0.353884 0.632932
O O8 0.750000 0.352364 0.113308
O O9 0.625009 0.500000 0.011711
O O10 0.750000 0.668339 0.522398
O O11 0.872036 0.500000 0.450232
#
# Coordination Sequence:
#
# PCOD9405800 Si02
#       4
#     8   8   8   8
#     4  10  23  42  61  84 118 157 195 239 293 351
#     4  11  20  34  59  84 112 151 197 240 285 341
#     4  10  21  36  57  88 123 156 193 239 288 341
#     4  10  21  36  55  84 122 158 192 237 293 347
#
# _framework density 20.647369000000001
#
# number of rings (size 3 to 8) (size 9 to 14) (size 15 to 20)
#    0.000    1.750    0.000    5.250    0.000    8.000 
#    0.000    5.000    0.000    3.750    0.000    3.500 
#    0.000    0.000    0.000    0.000    0.000    0.000 
#
# Total GULP energy -178493.477136 kJ/mol
# GULP energy per Si atom -5577.921161 kJ/mol
# Density = 2.060037 g / cm^3
# Si number density = 20.647369 Si / 1000 Ang^3
#
#
#
# Elastic Constant Matrix: (Units=GPa)
#
#
# Indices 1 2 3 4 5 6 
#
# 1 173.0753 45.0408 58.6412 0.0000 0.0000 0.0000
# 2 45.0408 120.7514 47.7676 0.0000 0.0000 0.0000
# 3 58.6412 47.7676 61.9426 0.0000 0.0000 0.0000
# 4 0.0000 0.0000 0.0000 -11.8689 0.0000 0.0000
# 5 0.0000 0.0000 0.0000 0.0000 23.0378 0.0000
# 6 0.0000 0.0000 0.0000 0.0000 0.0000 -73.9698
#
#
#
# Elastic Compliance Matrix: (Units=1/GPa)
#
#
# Indices 1 2 3 4 5 6 
#
# 1 0.008506 0.000018 -0.008067 0.000000 0.000000 0.000000
# 2 0.000018 0.011917 -0.009207 0.000000 0.000000 0.000000
# 3 -0.008067 -0.009207 0.030881 0.000000 0.000000 0.000000
# 4 0.000000 0.000000 0.000000 -0.084254 0.000000 0.000000
# 5 0.000000 0.000000 0.000000 0.000000 0.043407 0.000000
# 6 0.000000 0.000000 0.000000 0.000000 0.000000 -0.013519
#
#
# Mechanical properties :
#
#
# Convention : Reuss Voigt Hill
#
# Bulk Modulus (GPa) = 59.54985 73.18539 66.36762
# Shear Modulus (GPa) = 134.95935 1.06112 68.01024
#
# Velocity S-wave (km/s) = 8.09357 0.71766 5.74547
# Velocity P-wave (km/s) = 10.78170 6.01740 8.73081
#
# Compressibility (1/GPa) = 0.01679265
#
# Stress axis : x y z
#
# Youngs Moduli (GPa) = 117.55927 83.91467 32.38206
#
# Poissons Ratio (x) = -0.00154 0.26123
# Poissons Ratio (y) = -0.00215 0.29815
# Poissons Ratio (z) = 0.94836 0.77262
#
# Static dielectric constant tensor:
#      x y z
#    x 1.774870 0.000000 0.000000 
#    y 0.000000 1.729090 0.000000 
#    z 0.000000 0.000000 1.751060 
# 
# From -- ./inp_files/7473.got.cif
#   From: 2010.05.17/outbox.cif.g08.bks.cpg/sg51_4_cif.got.tgz:7473.got - 2010.06.03 11:52:47.
