data_PCOD9405260
_publ_section_title
;
Structure prediction by ZEFSAII (Michael W. Deem and Ramdas Pophale) SiO2 
 PCOD9405260
Probable space group: P M M A
;
_chemical_formula_sum "Si O2"
_cell_formula_units_Z 44
_cell_length_a 9.754999
_cell_length_b 18.495671
_cell_length_c 12.458263
_cell_angle_alpha 90.000000
_cell_angle_beta 90.000000
_cell_angle_gamma 90.000000
_cell_volume 2247.785243
_symmetry_space_group_name_H-M "P M M A"
_symmetry_group_IT_number 51
_symmetry_cell_setting 'orthorhombic'
loop_
_space_group_symop_operation_xyz
x,y,z
1/2-x,-y,z
1/2+x,-y,-z
-x,y,-z
-x,-y,-z
1/2+x,y,-z
1/2-x,y,z
x,-y,z
loop_
_atom_site_type_symbol
_atom_site_label
_atom_site_fract_x
_atom_site_fract_y
_atom_site_fract_z
Si Si1 0.016669 0.827977 0.809133
Si Si2 0.905843 0.240122 0.409567
Si Si3 0.750000 0.500000 0.318732
Si Si4 0.750000 0.083250 0.812847
Si Si5 0.088139 0.325352 0.102080
Si Si6 0.250000 0.915688 0.928622
Si Si7 0.250000 0.500000 0.391868
Si Si8 0.989363 0.392689 0.672747
O O1 0.885280 0.874960 0.777979
O O2 0.964442 0.754963 0.867480
O O3 0.091918 0.803753 0.701094
O O4 0.117501 0.874061 0.883799
O O5 0.750000 0.250430 0.446135
O O6 0.000000 0.204543 0.500000
O O7 0.976864 0.316457 0.381274
O O8 0.628897 0.562102 0.321426
O O9 0.750000 0.000000 0.779786
O O10 0.750000 0.086216 0.942898
O O11 0.250000 0.323414 0.077667
O O12 0.062286 0.375481 0.205917
O O13 0.000000 0.350665 0.000000
O O14 0.250000 0.000000 0.895421
O O15 0.370982 0.562658 0.386727
#
# Coordination Sequence:
#
# PCOD9405260 Si02
#       8
#     8   8   2   4   8   4   2   8
#     4  11  23  40  62  91 128 164 204 255 308 357
#     4  11  25  43  68  93 118 155 208 261 309 361
#     4  10  20  40  64  80 120 164 186 248 314 378
#     4  11  22  37  62  98 132 169 204 242 299 365
#     4  11  23  36  58  87 119 160 210 255 298 355
#     4  11  22  39  62  94 134 171 206 244 295 363
#     4  10  20  40  64  80 120 168 190 248 306 378
#     4  10  22  41  61  86 122 154 202 248 311 365
#
# _framework density 19.574825000000001
#
# number of rings (size 3 to 8) (size 9 to 14) (size 15 to 20)
#    0.000    1.273    3.636    2.182    5.091    1.455 
#    0.000    5.455    0.000    3.273    0.000    0.000 
#    0.000    0.000    0.000    0.000    0.000    0.000 
#
# Total GULP energy -244966.587554 kJ/mol
# GULP energy per Si atom -5567.422444 kJ/mol
# Density = 1.953027 g / cm^3
# Si number density = 19.574825 Si / 1000 Ang^3
#
#
#
# Elastic Constant Matrix: (Units=GPa)
#
#
# Indices 1 2 3 4 5 6 
#
# 1 171.2395 19.7759 13.5702 0.0000 0.0000 0.0000
# 2 19.7759 69.2384 -3.0366 0.0000 0.0000 0.0000
# 3 13.5702 -3.0366 61.4678 0.0000 0.0000 0.0000
# 4 0.0000 0.0000 0.0000 4.8483 0.0000 0.0000
# 5 0.0000 0.0000 0.0000 0.0000 37.9298 0.0000
# 6 0.0000 0.0000 0.0000 0.0000 0.0000 32.1097
#
#
#
# Elastic Compliance Matrix: (Units=1/GPa)
#
#
# Indices 1 2 3 4 5 6 
#
# 1 0.006166 -0.001825 -0.001451 0.000000 0.000000 0.000000
# 2 -0.001825 0.015014 0.001145 0.000000 0.000000 0.000000
# 3 -0.001451 0.001145 0.016646 0.000000 0.000000 0.000000
# 4 0.000000 0.000000 0.000000 0.206256 0.000000 0.000000
# 5 0.000000 0.000000 0.000000 0.000000 0.026364 0.000000
# 6 0.000000 0.000000 0.000000 0.000000 0.000000 0.031143
#
#
# Mechanical properties :
#
#
# Convention : Reuss Voigt Hill
#
# Bulk Modulus (GPa) = 29.79509 40.28495 35.04002
# Shear Modulus (GPa) = 15.77091 33.08664 24.42878
#
# Velocity S-wave (km/s) = 2.84152 4.11574 3.53649
# Velocity P-wave (km/s) = 5.10096 6.57347 5.88346
#
# Compressibility (1/GPa) = 0.03356258
#
# Stress axis : x y z
#
# Youngs Moduli (GPa) = 162.19261 66.60355 60.07585
#
# Poissons Ratio (x) = 0.12153 0.08719
# Poissons Ratio (y) = 0.29594 -0.06876
# Poissons Ratio (z) = 0.23539 -0.07623
#
# Static dielectric constant tensor:
#      x y z
#    x 1.660170 0.000000 0.000000 
#    y 0.000000 1.665450 0.000000 
#    z 0.000000 0.000000 1.718600 
# 
# From -- ./inp_files/21026.got.cif
#   From: 2010.05.17/outbox.cif.g08.bks.cpg/sg51_11_cif.got.tgz:21026.got - 2010.06.03 11:52:47.
