data_PCOD9405168
_publ_section_title
;
Structure prediction by ZEFSAII (Michael W. Deem and Ramdas Pophale) SiO2 
 PCOD9405168
Probable space group: P M M A
;
_chemical_formula_sum "Si O2"
_cell_formula_units_Z 44
_cell_length_a 8.588543
_cell_length_b 17.181906
_cell_length_c 15.681561
_cell_angle_alpha 90.000000
_cell_angle_beta 90.000000
_cell_angle_gamma 90.000000
_cell_volume 2314.089357
_symmetry_space_group_name_H-M "P M M A"
_symmetry_group_IT_number 51
_symmetry_cell_setting 'orthorhombic'
loop_
_space_group_symop_operation_xyz
x,y,z
1/2-x,-y,z
1/2+x,-y,-z
-x,y,-z
-x,-y,-z
1/2+x,y,-z
1/2-x,y,z
x,-y,z
loop_
_atom_site_type_symbol
_atom_site_label
_atom_site_fract_x
_atom_site_fract_y
_atom_site_fract_z
Si Si1 0.064113 0.500000 0.903010
Si Si2 0.561979 0.089613 0.594766
Si Si3 0.076652 0.592960 0.413843
Si Si4 0.437682 0.910401 0.088905
Si Si5 0.939421 0.808154 0.752920
Si Si6 0.560581 0.370732 0.774054
O O1 0.250000 0.500000 0.906614
O O2 0.006842 0.574855 0.848127
O O3 0.000000 0.500000 0.000000
O O4 0.500000 0.104829 0.500000
O O5 0.750000 0.091458 0.592858
O O6 0.508048 0.153301 0.663926
O O7 0.517740 0.000000 0.618548
O O8 0.250000 0.627044 0.409054
O O9 0.087846 0.500000 0.424381
O O10 0.004509 0.604380 0.320744
O O11 0.000000 0.624230 0.500000
O O12 0.250000 0.909307 0.087382
O O13 0.491469 0.863113 0.170373
O O14 0.488899 0.000000 0.095592
O O15 0.500000 0.877884 0.000000
O O16 0.750000 0.809219 0.750072
O O17 0.981767 0.720080 0.776094
O O18 0.750000 0.379555 0.777278
#
# Coordination Sequence:
#
# PCOD9405168 Si02
#       6
#     4   8   8   8   8   8
#     4  12  26  44  65  84 105 138 179 222 276 336
#     4   9  17  31  51  77 111 152 195 231 266 314
#     4   9  17  30  50  75 103 135 168 208 257 307
#     4   9  17  31  51  75 102 133 170 211 257 311
#     4   9  18  32  54  79 105 142 180 219 266 318
#     4  10  20  38  59  81 110 141 180 227 275 324
#
# _framework density 19.013957999999999
#
# number of rings (size 3 to 8) (size 9 to 14) (size 15 to 20)
#    0.000    2.545    0.909    1.364    0.000    4.364 
#    0.000    4.545    0.000    4.364    0.000    0.000 
#    0.000    0.000    0.000    0.000    0.000    0.000 
#
# Total GULP energy -245166.719356 kJ/mol
# GULP energy per Si atom -5571.970894 kJ/mol
# Density = 1.897068 g / cm^3
# Si number density = 19.013958 Si / 1000 Ang^3
#
#
#
# Elastic Constant Matrix: (Units=GPa)
#
#
# Indices 1 2 3 4 5 6 
#
# 1 25.8421 25.5733 38.6529 0.0000 0.0000 0.0000
# 2 25.5733 109.4999 89.0288 0.0000 0.0000 0.0000
# 3 38.6529 89.0288 189.0253 0.0000 0.0000 0.0000
# 4 0.0000 0.0000 0.0000 -6.4905 0.0000 0.0000
# 5 0.0000 0.0000 0.0000 0.0000 31.3738 0.0000
# 6 0.0000 0.0000 0.0000 0.0000 0.0000 12.6303
#
#
#
# Elastic Compliance Matrix: (Units=1/GPa)
#
#
# Indices 1 2 3 4 5 6 
#
# 1 0.058361 -0.006364 -0.008937 0.000000 0.000000 0.000000
# 2 -0.006364 0.015494 -0.005996 0.000000 0.000000 0.000000
# 3 -0.008937 -0.005996 0.009942 0.000000 0.000000 0.000000
# 4 0.000000 0.000000 0.000000 -0.154071 0.000000 0.000000
# 5 0.000000 0.000000 0.000000 0.000000 0.031874 0.000000
# 6 0.000000 0.000000 0.000000 0.000000 0.000000 0.079175
#
#
# Mechanical properties :
#
#
# Convention : Reuss Voigt Hill
#
# Bulk Modulus (GPa) = 24.26994 70.09748 47.18371
# Shear Modulus (GPa) = 51.49221 18.91020 35.20120
#
# Velocity S-wave (km/s) = 5.20961 3.15706 4.30738
# Velocity P-wave (km/s) = 6.99848 7.08772 7.04324
#
# Compressibility (1/GPa) = 0.04120323
#
# Stress axis : x y z
#
# Youngs Moduli (GPa) = 17.13467 64.54177 100.58580
#
# Poissons Ratio (x) = 0.41076 0.89889
# Poissons Ratio (y) = 0.10905 0.60312
# Poissons Ratio (z) = 0.15312 0.38700
#
# Static dielectric constant tensor:
#      x y z
#    x 1.672450 0.000000 0.000000 
#    y 0.000000 1.633050 0.000000 
#    z 0.000000 0.000000 1.661320 
# 
# From -- ./inp_files/20927.got.cif
#   From: 2010.05.17/outbox.cif.g08.bks.cpg/sg51_11_cif.got.tgz:20927.got - 2010.06.03 11:52:47.
