data_PCOD9405388
_publ_section_title
;
Structure prediction by ZEFSAII (Michael W. Deem and Ramdas Pophale) SiO2 
 PCOD9405388
Probable space group: P M M A
;
_chemical_formula_sum "Si O2"
_cell_formula_units_Z 64
_cell_length_a 9.386057
_cell_length_b 14.565017
_cell_length_c 31.801755
_cell_angle_alpha 90.000000
_cell_angle_beta 90.000000
_cell_angle_gamma 90.000000
_cell_volume 4347.556859
_symmetry_space_group_name_H-M "P M M A"
_symmetry_group_IT_number 51
_symmetry_cell_setting 'orthorhombic'
loop_
_space_group_symop_operation_xyz
x,y,z
1/2-x,-y,z
1/2+x,-y,-z
-x,y,-z
-x,-y,-z
1/2+x,y,-z
1/2-x,y,z
x,-y,z
loop_
_atom_site_type_symbol
_atom_site_label
_atom_site_fract_x
_atom_site_fract_y
_atom_site_fract_z
Si Si1 0.420224 0.205844 0.706078
Si Si2 0.913839 0.888408 0.877112
Si Si3 0.413628 0.111972 0.958653
Si Si4 0.581063 0.603017 0.332040
Si Si5 0.579837 0.205716 0.541317
Si Si6 0.579076 0.890974 0.781947
Si Si7 0.078955 0.397230 0.420460
Si Si8 0.917674 0.890367 0.629702
O O1 0.250000 0.192710 0.707672
O O2 0.450861 0.313900 0.699253
O O3 0.494656 0.164969 0.747145
O O4 0.486368 0.154872 0.665550
O O5 0.750000 0.859949 0.883992
O O6 0.958074 0.862720 0.829804
O O7 0.011991 0.857557 0.915442
O O8 0.913968 0.000000 0.877360
O O9 0.250000 0.140865 0.960895
O O10 0.415520 0.000000 0.958416
O O11 0.500000 0.140941 0.000000
O O12 0.750000 0.608165 0.341824
O O13 0.551309 0.500000 0.315995
O O14 0.494358 0.615167 0.375184
O O15 0.500000 0.171880 0.500000
O O16 0.750000 0.201168 0.534977
O O17 0.538437 0.311765 0.550499
O O18 0.546669 0.149693 0.583764
O O19 0.750000 0.879936 0.777043
O O20 0.549357 0.000000 0.777115
O O21 0.250000 0.393189 0.415107
O O22 0.041945 0.500000 0.435924
O O23 0.750000 0.868717 0.637725
O O24 0.933195 0.000000 0.630210
#
# Coordination Sequence:
#
# PCOD9405388 Si02
#       8
#     8   8   8   8   8   8   8   8
#     4  11  21  31  48  72  92 110 139 178 214 249
#     4   8  14  25  38  51  71 102 141 181 218 257
#     4   9  15  21  31  48  70  99 137 182 228 267
#     4   9  18  32  49  69  92 115 137 165 206 252
#     4  10  21  35  50  69  91 114 140 169 203 247
#     4   9  18  31  45  61  85 119 151 179 218 264
#     4   9  17  31  51  72  91 111 137 168 201 242
#     4  10  21  37  53  67  87 116 145 173 209 250
#
# _framework density 14.720912
#
# number of rings (size 3 to 8) (size 9 to 14) (size 15 to 20)
#    0.000    2.625    1.250    1.875    0.000    6.000 
#    0.000    1.250    0.000    0.000    0.000    0.000 
#    0.000    0.000    0.000    0.000    0.000    0.625 
#
# Total GULP energy -356634.583376 kJ/mol
# GULP energy per Si atom -5572.415365 kJ/mol
# Density = 1.468741 g / cm^3
# Si number density = 14.720912 Si / 1000 Ang^3
#
#
#
# Elastic Constant Matrix: (Units=GPa)
#
#
# Indices 1 2 3 4 5 6 
#
# 1 54.2132 30.8758 67.5045 0.0000 0.0000 0.0000
# 2 30.8758 51.7073 42.4592 0.0000 0.0000 0.0000
# 3 67.5045 42.4592 130.7399 0.0000 0.0000 0.0000
# 4 0.0000 0.0000 0.0000 3.6318 0.0000 0.0000
# 5 0.0000 0.0000 0.0000 0.0000 28.1113 0.0000
# 6 0.0000 0.0000 0.0000 0.0000 0.0000 14.4387
#
#
#
# Elastic Compliance Matrix: (Units=1/GPa)
#
#
# Indices 1 2 3 4 5 6 
#
# 1 0.057988 -0.013692 -0.025494 0.000000 0.000000 0.000000
# 2 -0.013692 0.029605 -0.002545 0.000000 0.000000 0.000000
# 3 -0.025494 -0.002545 0.021639 0.000000 0.000000 0.000000
# 4 0.000000 0.000000 0.000000 0.275345 0.000000 0.000000
# 5 0.000000 0.000000 0.000000 0.000000 0.035573 0.000000
# 6 0.000000 0.000000 0.000000 0.000000 0.000000 0.069258
#
#
# Mechanical properties :
#
#
# Convention : Reuss Voigt Hill
#
# Bulk Modulus (GPa) = 38.80529 57.59328 48.19928
# Shear Modulus (GPa) = 8.59903 15.62441 12.11172
#
# Velocity S-wave (km/s) = 2.41952 3.26141 2.87148
# Velocity P-wave (km/s) = 5.85007 7.30690 6.61869
#
# Compressibility (1/GPa) = 0.02576968
#
# Stress axis : x y z
#
# Youngs Moduli (GPa) = 17.24489 33.77758 46.21344
#
# Poissons Ratio (x) = 0.46248 1.17818
# Poissons Ratio (y) = 0.23611 0.11762
# Poissons Ratio (z) = 0.43965 0.08597
#
# Static dielectric constant tensor:
#      x y z
#    x 1.489940 0.000000 0.000000 
#    y 0.000000 1.487170 0.000000 
#    z 0.000000 0.000000 1.473060 
# 
# From -- ./inp_files/37551.got.cif
#   From: 2010.05.17/outbox.cif.g08.bks.cpg/sg51_19_cif.got.tgz:37551.got - 2010.06.03 11:52:47.
