data_PCOD9405877
_publ_section_title
;
Structure prediction by ZEFSAII (Michael W. Deem and Ramdas Pophale) SiO2 
 PCOD9405877
Probable space group: P M M A
;
_chemical_formula_sum "Si O2"
_cell_formula_units_Z 26
_cell_length_a 10.102867
_cell_length_b 7.432868
_cell_length_c 14.954022
_cell_angle_alpha 90.000000
_cell_angle_beta 90.000000
_cell_angle_gamma 90.000000
_cell_volume 1122.946514
_symmetry_space_group_name_H-M "P M M A"
_symmetry_group_IT_number 51
_symmetry_cell_setting 'orthorhombic'
loop_
_space_group_symop_operation_xyz
x,y,z
1/2-x,-y,z
1/2+x,-y,-z
-x,y,-z
-x,-y,-z
1/2+x,y,-z
1/2-x,y,z
x,-y,z
loop_
_atom_site_type_symbol
_atom_site_label
_atom_site_fract_x
_atom_site_fract_y
_atom_site_fract_z
Si Si1 0.096782 0.219701 0.418539
Si Si2 0.033190 0.705143 0.101495
Si Si3 0.393600 0.217407 0.729759
Si Si4 0.250000 0.000000 0.145493
O O1 0.250000 0.279268 0.423918
O O2 0.000000 0.270986 0.500000
O O3 0.017628 0.277931 0.329964
O O4 0.101687 0.000000 0.417879
O O5 0.081132 0.500000 0.098921
O O6 0.910439 0.717312 0.169174
O O7 0.136514 0.843736 0.141189
O O8 0.000000 0.758320 0.000000
O O9 0.250000 0.272766 0.692640
O O10 0.395142 0.000000 0.728863
#
# Coordination Sequence:
#
# PCOD9405877 Si02
#       4
#     8   8   8   2
#     4   9  17  30  53  86 127 170 224 282 334 399
#     4  11  26  43  66  98 133 178 228 277 335 401
#     4  10  21  36  60  90 128 178 229 279 339 401
#     4  12  24  44  70  94 134 176 224 292 328 404
#
# _framework density 23.153373999999999
#
# number of rings (size 3 to 8) (size 9 to 14) (size 15 to 20)
#    0.000    1.846    1.538    1.846    4.308    4.308 
#    0.000    0.000    0.000    0.923    0.000    0.000 
#    0.000    0.000    0.000    0.000    0.000    0.000 
#
# Total GULP energy -144777.620133 kJ/mol
# GULP energy per Si atom -5568.370005 kJ/mol
# Density = 2.310068 g / cm^3
# Si number density = 23.153374 Si / 1000 Ang^3
#
#
#
# Elastic Constant Matrix: (Units=GPa)
#
#
# Indices 1 2 3 4 5 6 
#
# 1 206.6345 18.3729 71.0108 0.0000 0.0000 0.0000
# 2 18.3729 85.6067 -8.7157 0.0000 0.0000 0.0000
# 3 71.0108 -8.7157 136.8147 0.0000 0.0000 0.0000
# 4 0.0000 0.0000 0.0000 2.4961 0.0000 0.0000
# 5 0.0000 0.0000 0.0000 0.0000 -4.7593 0.0000
# 6 0.0000 0.0000 0.0000 0.0000 0.0000 242.2173
#
#
#
# Elastic Compliance Matrix: (Units=1/GPa)
#
#
# Indices 1 2 3 4 5 6 
#
# 1 0.006112 -0.001645 -0.003277 0.000000 0.000000 0.000000
# 2 -0.001645 0.012201 0.001631 0.000000 0.000000 0.000000
# 3 -0.003277 0.001631 0.009114 0.000000 0.000000 0.000000
# 4 0.000000 0.000000 0.000000 0.400620 0.000000 0.000000
# 5 0.000000 0.000000 0.000000 0.000000 -0.210113 0.000000
# 6 0.000000 0.000000 0.000000 0.000000 0.000000 0.004129
#
#
# Mechanical properties :
#
#
# Convention : Reuss Voigt Hill
#
# Bulk Modulus (GPa) = 47.97552 65.59910 56.78731
# Shear Modulus (GPa) = 21.22313 71.21667 46.21990
#
# Velocity S-wave (km/s) = 3.03088 5.55207 4.47279
# Velocity P-wave (km/s) = 5.74578 8.33634 7.15921
#
# Compressibility (1/GPa) = 0.02084396
#
# Stress axis : x y z
#
# Youngs Moduli (GPa) = 163.61385 81.96357 109.72152
#
# Poissons Ratio (x) = 0.13486 0.35957
# Poissons Ratio (y) = 0.26921 -0.17898
# Poissons Ratio (z) = 0.53618 -0.13370
#
# Static dielectric constant tensor:
#      x y z
#    x 1.858600 0.000000 0.000000 
#    y 0.000000 1.845160 0.000000 
#    z 0.000000 0.000000 1.909430 
# 
# From -- ./inp_files/26841.got.cif
#   From: 2010.05.17/outbox.cif.g08.bks.cpg/sg51_14_cif.got.tgz:26841.got - 2010.06.03 11:52:47.
