data_PCOD9405157
_publ_section_title
;
Structure prediction by ZEFSAII (Michael W. Deem and Ramdas Pophale) SiO2 
 PCOD9405157
Probable space group: P M M A
;
_chemical_formula_sum "Si O2"
_cell_formula_units_Z 40
_cell_length_a 14.848988
_cell_length_b 7.791694
_cell_length_c 17.691272
_cell_angle_alpha 90.000000
_cell_angle_beta 90.000000
_cell_angle_gamma 90.000000
_cell_volume 2046.858423
_symmetry_space_group_name_H-M "P M M A"
_symmetry_group_IT_number 51
_symmetry_cell_setting 'orthorhombic'
loop_
_space_group_symop_operation_xyz
x,y,z
1/2-x,-y,z
1/2+x,-y,-z
-x,y,-z
-x,-y,-z
1/2+x,y,-z
1/2-x,y,z
x,-y,z
loop_
_atom_site_type_symbol
_atom_site_label
_atom_site_fract_x
_atom_site_fract_y
_atom_site_fract_z
Si Si1 0.750000 0.304261 0.493897
Si Si2 0.250000 0.198428 0.336552
Si Si3 0.061436 0.792432 0.570960
Si Si4 0.443797 0.794744 0.289932
Si Si5 0.011916 0.706964 0.119389
Si Si6 0.646911 0.290281 0.011299
O O1 0.750000 0.500000 0.519117
O O2 0.750000 0.200006 0.572276
O O3 0.661684 0.268613 0.445111
O O4 0.156389 0.275751 0.306771
O O5 0.250000 0.000000 0.311051
O O6 0.000000 0.739445 0.500000
O O7 0.014633 0.729984 0.647747
O O8 0.063811 0.000000 0.571684
O O9 0.474188 0.762845 0.204823
O O10 0.439102 0.000000 0.301912
O O11 0.011622 0.500000 0.117906
O O12 0.918422 0.763411 0.080128
O O13 0.094154 0.762742 0.064897
O O14 0.750000 0.231032 0.015336
O O15 0.648720 0.500000 0.011503
#
# Coordination Sequence:
#
# PCOD9405157 Si02
#       6
#     4   4   8   8   8   8
#     4  12  24  36  56  86 113 138 179 238 285 316
#     4  10  20  38  58  78 107 146 187 216 267 342
#     4  10  20  39  62  77 103 152 193 218 262 332
#     4  10  21  36  57  81 107 141 181 227 268 319
#     4   9  18  32  53  79 106 136 175 221 267 321
#     4   8  15  31  53  75 103 143 179 207 257 329
#
# _framework density 19.542142999999999
#
# number of rings (size 3 to 8) (size 9 to 14) (size 15 to 20)
#    0.000    2.400    2.000    2.100    1.400    2.000 
#    1.800    2.000    0.000    1.200    0.000    0.000 
#    0.000    0.000    0.000    0.000    0.000    0.000 
#
# Total GULP energy -223219.064253 kJ/mol
# GULP energy per Si atom -5580.476606 kJ/mol
# Density = 1.949766 g / cm^3
# Si number density = 19.542143 Si / 1000 Ang^3
#
#
#
# Elastic Constant Matrix: (Units=GPa)
#
#
# Indices 1 2 3 4 5 6 
#
# 1 205.8645 5.4674 91.6229 0.0000 0.0000 0.0000
# 2 5.4674 23.9508 -5.8624 0.0000 0.0000 0.0000
# 3 91.6229 -5.8624 145.0806 0.0000 0.0000 0.0000
# 4 0.0000 0.0000 0.0000 28.8137 0.0000 0.0000
# 5 0.0000 0.0000 0.0000 0.0000 14.8347 0.0000
# 6 0.0000 0.0000 0.0000 0.0000 0.0000 -37.1595
#
#
#
# Elastic Compliance Matrix: (Units=1/GPa)
#
#
# Indices 1 2 3 4 5 6 
#
# 1 0.006923 -0.002677 -0.004480 0.000000 0.000000 0.000000
# 2 -0.002677 0.043204 0.003436 0.000000 0.000000 0.000000
# 3 -0.004480 0.003436 0.009861 0.000000 0.000000 0.000000
# 4 0.000000 0.000000 0.000000 0.034706 0.000000 0.000000
# 5 0.000000 0.000000 0.000000 0.000000 0.067409 0.000000
# 6 0.000000 0.000000 0.000000 0.000000 0.000000 -0.026911
#
#
# Mechanical properties :
#
#
# Convention : Reuss Voigt Hill
#
# Bulk Modulus (GPa) = 19.03067 61.92797 40.47932
# Shear Modulus (GPa) = 31.22108 20.20900 25.71504
#
# Velocity S-wave (km/s) = 4.00137 3.21927 3.63144
# Velocity P-wave (km/s) = 5.57740 6.75104 6.19209
#
# Compressibility (1/GPa) = 0.05254676
#
# Stress axis : x y z
#
# Youngs Moduli (GPa) = 144.45616 23.14581 101.41172
#
# Poissons Ratio (x) = 0.06196 0.45432
# Poissons Ratio (y) = 0.38668 -0.34848
# Poissons Ratio (z) = 0.64716 -0.07954
#
# Static dielectric constant tensor:
#      x y z
#    x 1.695430 0.000000 0.000000 
#    y 0.000000 1.726590 0.000000 
#    z 0.000000 0.000000 1.647570 
# 
# From -- ./inp_files/23741.got.cif
#   From: 2010.05.17/outbox.cif.g08.bks.cpg/sg51_12_cif.got.tgz:23741.got - 2010.06.03 11:52:47.
