data_PCOD9405911
_publ_section_title
;
Structure prediction by ZEFSAII (Michael W. Deem and Ramdas Pophale) SiO2 
 PCOD9405911
Probable space group: P M M A
;
_chemical_formula_sum "Si O2"
_cell_formula_units_Z 56
_cell_length_a 8.542369
_cell_length_b 24.622432
_cell_length_c 14.833371
_cell_angle_alpha 90.000000
_cell_angle_beta 90.000000
_cell_angle_gamma 90.000000
_cell_volume 3119.960770
_symmetry_space_group_name_H-M "P M M A"
_symmetry_group_IT_number 51
_symmetry_cell_setting 'orthorhombic'
loop_
_space_group_symop_operation_xyz
x,y,z
1/2-x,-y,z
1/2+x,-y,-z
-x,y,-z
-x,-y,-z
1/2+x,y,-z
1/2-x,y,z
x,-y,z
loop_
_atom_site_type_symbol
_atom_site_label
_atom_site_fract_x
_atom_site_fract_y
_atom_site_fract_z
Si Si1 0.940804 0.265344 0.750000
Si Si2 0.437552 0.061107 0.601048
Si Si3 0.938937 0.351629 0.601494
Si Si4 0.062758 0.141252 0.250000
Si Si5 0.938937 0.648371 0.898506
Si Si6 0.562448 0.938893 0.101048
Si Si7 0.440861 0.561974 0.250000
O O1 0.750000 0.265194 0.750000
O O2 0.988467 0.299469 0.661403
O O3 0.995083 0.203374 0.750000
O O4 0.988466 0.299469 0.838597
O O5 0.500000 0.067305 0.500000
O O6 0.250000 0.063792 0.601651
O O7 0.504785 0.107440 0.664326
O O8 0.482835 0.000000 0.632072
O O9 0.750000 0.351586 0.598572
O O10 0.988054 0.403814 0.661450
O O11 0.000000 0.351642 0.500000
O O12 0.250000 0.142507 0.250000
O O13 0.004785 0.107440 0.164326
O O14 0.750000 0.648414 0.901428
O O15 0.988054 0.596186 0.838550
O O16 0.000000 0.648358 0.000000
O O17 0.750000 0.936208 0.101651
O O18 0.517165 0.000000 0.132073
O O19 0.500000 0.932695 0.000000
O O20 0.250000 0.561418 0.250000
O O21 0.495732 0.500000 0.250000
#
# Coordination Sequence:
#
# PCOD9405911 Si02
#       7
#     8   8   8   8   8   8   8
#     4   8  18  35  50  68  97 133 167 199 240 295
#     4  10  21  37  55  76 103 133 166 205 251 304
#     4   9  17  32  52  71  96 130 166 202 242 288
#     4  11  21  34  54  77 102 132 168 209 254 302
#     4   9  17  32  52  71  96 130 166 202 242 288
#     4  10  21  37  55  76 103 133 166 205 251 304
#     4   8  15  29  49  72  99 132 165 195 236 295
#
# _framework density 17.948944000000001
#
# number of rings (size 3 to 8) (size 9 to 14) (size 15 to 20)
#    0.000    2.714    0.000    3.429    0.000    5.143 
#    0.000    8.571    0.000    0.857    0.000    0.000 
#    0.000    0.000    0.000    0.000    0.000    0.000 
#
# Total GULP energy -312300.116426 kJ/mol
# GULP energy per Si atom -5576.787793 kJ/mol
# Density = 1.790809 g / cm^3
# Si number density = 17.948944 Si / 1000 Ang^3
#
#
#
# Elastic Constant Matrix: (Units=GPa)
#
#
# Indices 1 2 3 4 5 6 
#
# 1 22.9336 34.5061 25.5812 0.0000 0.0000 0.0000
# 2 34.5061 209.0661 114.5681 0.0000 0.0000 0.0000
# 3 25.5812 114.5681 171.0615 0.0000 0.0000 0.0000
# 4 0.0000 0.0000 0.0000 18.4074 0.0000 0.0000
# 5 0.0000 0.0000 0.0000 0.0000 36.6453 0.0000
# 6 0.0000 0.0000 0.0000 0.0000 0.0000 14.7081
#
#
#
# Elastic Compliance Matrix: (Units=1/GPa)
#
#
# Indices 1 2 3 4 5 6 
#
# 1 0.059427 -0.007802 -0.003662 0.000000 0.000000 0.000000
# 2 -0.007802 0.008581 -0.004580 0.000000 0.000000 0.000000
# 3 -0.003662 -0.004580 0.009461 0.000000 0.000000 0.000000
# 4 0.000000 0.000000 0.000000 0.054326 0.000000 0.000000
# 5 0.000000 0.000000 0.000000 0.000000 0.027289 0.000000
# 6 0.000000 0.000000 0.000000 0.000000 0.000000 0.067990
#
#
# Mechanical properties :
#
#
# Convention : Reuss Voigt Hill
#
# Bulk Modulus (GPa) = 22.03537 83.59690 52.81614
# Shear Modulus (GPa) = 18.22897 29.17920 23.70409
#
# Velocity S-wave (km/s) = 3.19031 4.03634 3.63800
# Velocity P-wave (km/s) = 5.08666 8.27035 6.86560
#
# Compressibility (1/GPa) = 0.04538158
#
# Stress axis : x y z
#
# Youngs Moduli (GPa) = 16.82728 116.53854 105.69603
#
# Poissons Ratio (x) = 0.90921 0.38703
# Poissons Ratio (y) = 0.13128 0.48412
# Poissons Ratio (z) = 0.06162 0.53378
#
# Static dielectric constant tensor:
#      x y z
#    x 1.614970 0.000000 0.000000 
#    y 0.000000 1.619520 0.000000 
#    z 0.000000 0.000000 1.585540 
# 
# From -- ./inp_files/21849.got.cif
#   From: 2010.05.17/outbox.cif.g08.bks.cpg/sg51_11_cif.got.tgz:21849.got - 2010.06.03 11:52:47.
