data_PCOD9405338
_publ_section_title
;
Structure prediction by ZEFSAII (Michael W. Deem and Ramdas Pophale) SiO2 
 PCOD9405338
Probable space group: P M M A
;
_chemical_formula_sum "Si O2"
_cell_formula_units_Z 48
_cell_length_a 8.894482
_cell_length_b 14.715994
_cell_length_c 19.031555
_cell_angle_alpha 90.000000
_cell_angle_beta 90.000000
_cell_angle_gamma 90.000000
_cell_volume 2491.062001
_symmetry_space_group_name_H-M "P M M A"
_symmetry_group_IT_number 51
_symmetry_cell_setting 'orthorhombic'
loop_
_space_group_symop_operation_xyz
x,y,z
1/2-x,-y,z
1/2+x,-y,-z
-x,y,-z
-x,-y,-z
1/2+x,y,-z
1/2-x,y,z
x,-y,z
loop_
_atom_site_type_symbol
_atom_site_label
_atom_site_fract_x
_atom_site_fract_y
_atom_site_fract_z
Si Si1 0.925473 0.391611 0.788477
Si Si2 0.071534 0.393560 0.639795
Si Si3 0.931048 0.896266 0.849243
Si Si4 0.428573 0.223370 0.426664
Si Si5 0.430485 0.281418 0.073539
Si Si6 0.073286 0.891398 0.698161
O O1 0.750000 0.366840 0.774869
O O2 0.931915 0.500000 0.799252
O O3 0.975434 0.341407 0.859097
O O4 0.021810 0.370284 0.719528
O O5 0.250000 0.381484 0.631782
O O6 0.035090 0.500000 0.628342
O O7 0.984048 0.325648 0.589273
O O8 0.750000 0.893028 0.841309
O O9 0.973868 0.822009 0.906969
O O10 0.003836 0.871154 0.774549
O O11 0.974152 0.000000 0.866484
O O12 0.500000 0.192430 0.500000
O O13 0.250000 0.219702 0.430131
O O14 0.489232 0.162544 0.362720
O O15 0.250000 0.286736 0.068324
O O16 0.500000 0.310325 0.000000
O O17 0.250000 0.868865 0.697212
O O18 0.057194 0.000000 0.687555
#
# Coordination Sequence:
#
# PCOD9405338 Si02
#       6
#     8   8   8   8   8   8
#     4   9  18  34  55  78 105 139 180 224 271 325
#     4  10  21  38  61  88 115 144 183 231 280 331
#     4   9  18  34  55  78 105 139 180 224 271 325
#     4  12  25  40  59  83 115 153 189 228 275 328
#     4  10  21  34  49  73 105 141 179 222 273 326
#     4  10  21  38  61  88 115 144 183 231 280 331
#
# _framework density 19.268889000000001
#
# number of rings (size 3 to 8) (size 9 to 14) (size 15 to 20)
#    0.000    2.000    0.000    3.500    0.000    6.000 
#    0.000    0.000    0.000    0.000    0.000    0.000 
#    0.000    0.000    0.000    0.000    0.000    0.000 
#
# Total GULP energy -268214.842441 kJ/mol
# GULP energy per Si atom -5587.809218 kJ/mol
# Density = 1.922503 g / cm^3
# Si number density = 19.268889 Si / 1000 Ang^3
#
#
#
# Elastic Constant Matrix: (Units=GPa)
#
#
# Indices 1 2 3 4 5 6 
#
# 1 52.4748 12.5857 8.5916 0.0000 0.0000 0.0000
# 2 12.5857 23.1041 5.2174 0.0000 0.0000 0.0000
# 3 8.5916 5.2174 40.0688 0.0000 0.0000 0.0000
# 4 0.0000 0.0000 0.0000 10.6363 0.0000 0.0000
# 5 0.0000 0.0000 0.0000 0.0000 35.8980 0.0000
# 6 0.0000 0.0000 0.0000 0.0000 0.0000 21.8669
#
#
#
# Elastic Compliance Matrix: (Units=1/GPa)
#
#
# Indices 1 2 3 4 5 6 
#
# 1 0.022337 -0.011422 -0.003302 0.000000 0.000000 0.000000
# 2 -0.011422 0.050434 -0.004118 0.000000 0.000000 0.000000
# 3 -0.003302 -0.004118 0.026201 0.000000 0.000000 0.000000
# 4 0.000000 0.000000 0.000000 0.094018 0.000000 0.000000
# 5 0.000000 0.000000 0.000000 0.000000 0.027857 0.000000
# 6 0.000000 0.000000 0.000000 0.000000 0.000000 0.045731
#
#
# Mechanical properties :
#
#
# Convention : Reuss Voigt Hill
#
# Bulk Modulus (GPa) = 16.31639 18.71524 17.51581
# Shear Modulus (GPa) = 15.39917 19.63042 17.51480
#
# Velocity S-wave (km/s) = 2.83003 3.19527 3.01818
# Velocity P-wave (km/s) = 4.37777 4.83185 4.61040
#
# Compressibility (1/GPa) = 0.06128807
#
# Stress axis : x y z
#
# Youngs Moduli (GPa) = 44.76883 19.82771 38.16592
#
# Poissons Ratio (x) = 0.22647 0.12603
# Poissons Ratio (y) = 0.51136 0.15717
# Poissons Ratio (z) = 0.14784 0.08165
#
# Static dielectric constant tensor:
#      x y z
#    x 1.646310 0.000000 0.000000 
#    y 0.000000 1.697030 0.000000 
#    z 0.000000 0.000000 1.630210 
# 
# From -- ./inp_files/27517.got.cif
#   From: 2010.05.17/outbox.cif.g08.bks.cpg/sg51_14_cif.got.tgz:27517.got - 2010.06.03 11:52:47.
