data_PCOD9405443
_publ_section_title
;
Structure prediction by ZEFSAII (Michael W. Deem and Ramdas Pophale) SiO2 
 PCOD9405443
Probable space group: P M M A
;
_chemical_formula_sum "Si O2"
_cell_formula_units_Z 64
_cell_length_a 9.401263
_cell_length_b 14.652484
_cell_length_c 24.270299
_cell_angle_alpha 90.000000
_cell_angle_beta 90.000000
_cell_angle_gamma 90.000000
_cell_volume 3343.278725
_symmetry_space_group_name_H-M "P M M A"
_symmetry_group_IT_number 51
_symmetry_cell_setting 'orthorhombic'
loop_
_space_group_symop_operation_xyz
x,y,z
1/2-x,-y,z
1/2+x,-y,-z
-x,y,-z
-x,-y,-z
1/2+x,y,-z
1/2-x,y,z
x,-y,z
loop_
_atom_site_type_symbol
_atom_site_label
_atom_site_fract_x
_atom_site_fract_y
_atom_site_fract_z
Si Si1 0.079619 0.895320 0.558626
Si Si2 0.095736 0.146750 0.048269
Si Si3 0.918419 0.774727 0.646248
Si Si4 0.413198 0.390301 0.834871
Si Si5 0.090327 0.890445 0.727195
Si Si6 0.901971 0.109262 0.146541
Si Si7 0.080198 0.607979 0.276615
Si Si8 0.411650 0.362035 0.052309
O O1 0.250000 0.883324 0.553121
O O2 0.000000 0.893032 0.500000
O O3 0.009816 0.816427 0.596045
O O4 0.057788 0.000000 0.581167
O O5 0.250000 0.105678 0.046061
O O6 0.104634 0.254943 0.040060
O O7 0.027438 0.136130 0.107551
O O8 0.000000 0.107575 0.000000
O O9 0.750000 0.778351 0.634198
O O10 0.952740 0.674560 0.671703
O O11 0.964587 0.843192 0.694835
O O12 0.250000 0.355636 0.837188
O O13 0.406221 0.500000 0.832464
O O14 0.493751 0.363195 0.778326
O O15 0.501330 0.369671 0.890506
O O16 0.250000 0.866663 0.705597
O O17 0.084887 0.860795 0.790716
O O18 0.079616 0.000000 0.724896
O O19 0.750000 0.141826 0.123414
O O20 0.897972 0.000000 0.148087
O O21 0.250000 0.616953 0.265806
O O22 0.051946 0.500000 0.287413
O O23 0.250000 0.398276 0.057390
O O24 0.500000 0.399671 0.000000
#
# Coordination Sequence:
#
# PCOD9405443 Si02
#       8
#     8   8   8   8   8   8   8   8
#     4  10  21  38  61  90 127 167 202 238 281 329
#     4  10  21  35  51  70  92 121 162 209 259 317
#     4  11  22  34  56  88 117 152 197 238 281 331
#     4  10  21  36  55  79 104 133 173 221 276 338
#     4   9  19  35  52  75 110 148 183 221 272 334
#     4   9  19  35  52  70  95 129 167 209 262 320
#     4   9  20  39  58  79 113 154 194 239 289 339
#     4  10  21  36  53  74 100 130 167 213 269 336
#
# _framework density 19.142885
#
# number of rings (size 3 to 8) (size 9 to 14) (size 15 to 20)
#    0.000    2.250    0.000    3.000    1.750    7.000 
#    0.000    1.250    0.000    0.375    0.000    0.000 
#    0.000    0.000    0.000    0.000    0.000    0.000 
#
# Total GULP energy -356939.729796 kJ/mol
# GULP energy per Si atom -5577.183278 kJ/mol
# Density = 1.909932 g / cm^3
# Si number density = 19.142885 Si / 1000 Ang^3
#
#
#
# Elastic Constant Matrix: (Units=GPa)
#
#
# Indices 1 2 3 4 5 6 
#
# 1 135.1426 42.6748 70.6233 0.0000 0.0000 0.0000
# 2 42.6748 88.5877 36.3048 0.0000 0.0000 0.0000
# 3 70.6233 36.3048 97.8635 0.0000 0.0000 0.0000
# 4 0.0000 0.0000 0.0000 30.9760 0.0000 0.0000
# 5 0.0000 0.0000 0.0000 0.0000 38.1416 0.0000
# 6 0.0000 0.0000 0.0000 0.0000 0.0000 0.5070
#
#
#
# Elastic Compliance Matrix: (Units=1/GPa)
#
#
# Indices 1 2 3 4 5 6 
#
# 1 0.012413 -0.002722 -0.007948 0.000000 0.000000 0.000000
# 2 -0.002722 0.013909 -0.003195 0.000000 0.000000 0.000000
# 3 -0.007948 -0.003195 0.017139 0.000000 0.000000 0.000000
# 4 0.000000 0.000000 0.000000 0.032283 0.000000 0.000000
# 5 0.000000 0.000000 0.000000 0.000000 0.026218 0.000000
# 6 0.000000 0.000000 0.000000 0.000000 0.000000 1.972569
#
#
# Mechanical properties :
#
#
# Convention : Reuss Voigt Hill
#
# Bulk Modulus (GPa) = 63.57192 68.97772 66.27482
# Shear Modulus (GPa) = 2.37247 25.39096 13.88172
#
# Velocity S-wave (km/s) = 1.11447 3.64592 2.69581
# Velocity P-wave (km/s) = 5.91078 7.33723 6.66229
#
# Compressibility (1/GPa) = 0.01573021
#
# Stress axis : x y z
#
# Youngs Moduli (GPa) = 80.56369 71.89497 58.34605
#
# Poissons Ratio (x) = 0.19572 0.46371
# Poissons Ratio (y) = 0.21932 0.18644
# Poissons Ratio (z) = 0.64029 0.22973
#
# Static dielectric constant tensor:
#      x y z
#    x 1.673700 0.000000 0.000000 
#    y 0.000000 1.703820 0.000000 
#    z 0.000000 0.000000 1.656600 
# 
# From -- ./inp_files/35008.got.cif
#   From: 2010.05.17/outbox.cif.g08.bks.cpg/sg51_18_cif.got.tgz:35008.got - 2010.06.03 11:52:47.
