data_PCOD9405166
_publ_section_title
;
Structure prediction by ZEFSAII (Michael W. Deem and Ramdas Pophale) SiO2 
 PCOD9405166
Probable space group: P M M A
;
_chemical_formula_sum "Si O2"
_cell_formula_units_Z 52
_cell_length_a 9.375810
_cell_length_b 15.235599
_cell_length_c 19.008292
_cell_angle_alpha 90.000000
_cell_angle_beta 90.000000
_cell_angle_gamma 90.000000
_cell_volume 2715.260027
_symmetry_space_group_name_H-M "P M M A"
_symmetry_group_IT_number 51
_symmetry_cell_setting 'orthorhombic'
loop_
_space_group_symop_operation_xyz
x,y,z
1/2-x,-y,z
1/2+x,-y,-z
-x,y,-z
-x,-y,-z
1/2+x,y,-z
1/2-x,y,z
x,-y,z
loop_
_atom_site_type_symbol
_atom_site_label
_atom_site_fract_x
_atom_site_fract_y
_atom_site_fract_z
Si Si1 0.420320 0.898294 0.144645
Si Si2 0.410612 0.896535 0.717131
Si Si3 0.082247 0.394629 0.810437
Si Si4 0.415954 0.500000 0.427409
Si Si5 0.088964 0.642464 0.649227
Si Si6 0.578588 0.282216 0.927664
Si Si7 0.085759 0.171452 0.571916
O O1 0.250000 0.899643 0.153961
O O2 0.493758 0.868911 0.217598
O O3 0.453455 0.820538 0.090180
O O4 0.463272 0.000000 0.127180
O O5 0.250000 0.856624 0.719769
O O6 0.471273 0.881480 0.639338
O O7 0.396194 0.000000 0.725900
O O8 0.250000 0.385589 0.829683
O O9 0.052206 0.500000 0.805912
O O10 0.065391 0.351942 0.732831
O O11 0.984683 0.343980 0.866227
O O12 0.250000 0.500000 0.440912
O O13 0.500000 0.500000 0.500000
O O14 0.467836 0.417739 0.382735
O O15 0.250000 0.604978 0.641036
O O16 0.085952 0.730786 0.603987
O O17 0.750000 0.291871 0.932464
O O18 0.500000 0.305293 0.000000
O O19 0.250000 0.144408 0.559274
O O20 0.000000 0.164596 0.500000
#
# Coordination Sequence:
#
# PCOD9405166 Si02
#       7
#     8   8   8   4   8   8   8
#     4   9  19  37  60  87 118 151 188 233 285 341
#     4   9  18  34  56  81 108 143 189 235 278 330
#     4  10  21  40  66  89 113 150 194 240 292 349
#     4  12  24  36  54  80 111 144 181 228 280 332
#     4  10  20  38  59  80 108 143 185 230 280 339
#     4  11  24  40  60  88 122 156 192 236 284 341
#     4  10  21  34  51  76 109 147 187 232 280 334
#
# _framework density 19.151021
#
# number of rings (size 3 to 8) (size 9 to 14) (size 15 to 20)
#    0.000    2.000    0.769    2.538    0.000    6.769 
#    0.000    0.000    0.000    0.000    0.000    0.000 
#    0.000    0.000    0.000    0.000    0.000    0.000 
#
# Total GULP energy -289998.255433 kJ/mol
# GULP energy per Si atom -5576.889528 kJ/mol
# Density = 1.910743 g / cm^3
# Si number density = 19.151021 Si / 1000 Ang^3
#
#
#
# Elastic Constant Matrix: (Units=GPa)
#
#
# Indices 1 2 3 4 5 6 
#
# 1 70.1330 11.2311 46.6896 0.0000 0.0000 0.0000
# 2 11.2311 17.4603 -4.4962 0.0000 0.0000 0.0000
# 3 46.6896 -4.4962 98.6669 0.0000 0.0000 0.0000
# 4 0.0000 0.0000 0.0000 27.3698 0.0000 0.0000
# 5 0.0000 0.0000 0.0000 0.0000 33.1324 0.0000
# 6 0.0000 0.0000 0.0000 0.0000 0.0000 24.1356
#
#
#
# Elastic Compliance Matrix: (Units=1/GPa)
#
#
# Indices 1 2 3 4 5 6 
#
# 1 0.026527 -0.020537 -0.013489 0.000000 0.000000 0.000000
# 2 -0.020537 0.073852 0.013083 0.000000 0.000000 0.000000
# 3 -0.013489 0.013083 0.017114 0.000000 0.000000 0.000000
# 4 0.000000 0.000000 0.000000 0.036537 0.000000 0.000000
# 5 0.000000 0.000000 0.000000 0.000000 0.030182 0.000000
# 6 0.000000 0.000000 0.000000 0.000000 0.000000 0.041433
#
#
# Mechanical properties :
#
#
# Convention : Reuss Voigt Hill
#
# Bulk Modulus (GPa) = 13.22589 32.56769 22.89679
# Shear Modulus (GPa) = 17.08056 25.78328 21.43192
#
# Velocity S-wave (km/s) = 2.98969 3.67320 3.34893
# Velocity P-wave (km/s) = 4.34036 5.91882 5.18995
#
# Compressibility (1/GPa) = 0.07560925
#
# Stress axis : x y z
#
# Youngs Moduli (GPa) = 37.69734 13.54068 58.43119
#
# Poissons Ratio (x) = 0.27808 0.78815
# Poissons Ratio (y) = 0.77417 -0.76448
# Poissons Ratio (z) = 0.50848 -0.17716
#
# Static dielectric constant tensor:
#      x y z
#    x 1.657980 0.000000 0.000000 
#    y 0.000000 1.770800 0.000000 
#    z 0.000000 0.000000 1.637790 
# 
# From -- ./inp_files/27897.got.cif
#   From: 2010.05.17/outbox.cif.g08.bks.cpg/sg51_14_cif.got.tgz:27897.got - 2010.06.03 11:52:47.
