data_PCOD9405347
_publ_section_title
;
Structure prediction by ZEFSAII (Michael W. Deem and Ramdas Pophale) SiO2 
 PCOD9405347
Probable space group: P M M A
;
_chemical_formula_sum "Si O2"
_cell_formula_units_Z 48
_cell_length_a 20.214050
_cell_length_b 7.896400
_cell_length_c 13.779056
_cell_angle_alpha 90.000000
_cell_angle_beta 90.000000
_cell_angle_gamma 90.000000
_cell_volume 2199.388453
_symmetry_space_group_name_H-M "P M M A"
_symmetry_group_IT_number 51
_symmetry_cell_setting 'orthorhombic'
loop_
_space_group_symop_operation_xyz
x,y,z
1/2-x,-y,z
1/2+x,-y,-z
-x,y,-z
-x,-y,-z
1/2+x,y,-z
1/2-x,y,z
x,-y,z
loop_
_atom_site_type_symbol
_atom_site_label
_atom_site_fract_x
_atom_site_fract_y
_atom_site_fract_z
Si Si1 0.673991 0.300253 0.179137
Si Si2 0.322784 0.798970 0.156564
Si Si3 0.534928 0.000000 0.394137
Si Si4 0.534040 0.311884 0.604214
Si Si5 0.924854 0.296790 0.007108
Si Si6 0.823168 0.000000 0.334396
Si Si7 0.320957 0.696944 0.377396
O O1 0.750000 0.288947 0.140627
O O2 0.663575 0.500000 0.205336
O O3 0.619518 0.246180 0.099959
O O4 0.671429 0.168447 0.267678
O O5 0.250000 0.758243 0.113691
O O6 0.325631 0.710848 0.260968
O O7 0.325181 0.000000 0.174147
O O8 0.381899 0.749390 0.086828
O O9 0.500000 0.000000 0.500000
O O10 0.508357 0.830573 0.342051
O O11 0.613062 0.000000 0.401256
O O12 0.500000 0.332959 0.500000
O O13 0.536667 0.500000 0.649938
O O14 0.607980 0.242143 0.587876
O O15 0.928602 0.500000 0.012303
O O16 0.000000 0.230603 0.000000
O O17 0.750000 0.000000 0.379016
O O18 0.250000 0.774586 0.405926
O O19 0.318845 0.500000 0.406567
#
# Coordination Sequence:
#
# PCOD9405347 Si02
#       7
#     8   8   4   8   8   4   8
#     4   9  19  37  60  84 113 154 201 248 295 338
#     4  10  21  34  51  77 110 148 190 235 283 336
#     4  10  22  40  60  87 118 149 184 225 291 362
#     4   9  19  37  59  84 116 150 186 233 290 354
#     4  10  21  36  53  78 113 151 193 239 289 343
#     4  10  22  40  63  87 114 149 198 249 289 342
#     4   9  18  34  56  81 111 150 194 237 284 342
#
# _framework density 21.824248000000001
#
# number of rings (size 3 to 8) (size 9 to 14) (size 15 to 20)
#    0.000    2.500    0.000    1.000    2.333    4.000 
#    0.000    6.667    0.000    1.000    0.000    0.000 
#    0.000    0.000    0.000    0.000    0.000    0.000 
#
# Total GULP energy -267621.462943 kJ/mol
# GULP energy per Si atom -5575.447145 kJ/mol
# Density = 2.177457 g / cm^3
# Si number density = 21.824248 Si / 1000 Ang^3
#
#
#
# Elastic Constant Matrix: (Units=GPa)
#
#
# Indices 1 2 3 4 5 6 
#
# 1 222.9375 37.5058 44.1426 0.0000 0.0000 0.0000
# 2 37.5058 69.4153 12.7504 0.0000 0.0000 0.0000
# 3 44.1426 12.7504 38.2461 0.0000 0.0000 0.0000
# 4 0.0000 0.0000 0.0000 15.8469 0.0000 0.0000
# 5 0.0000 0.0000 0.0000 0.0000 48.0821 0.0000
# 6 0.0000 0.0000 0.0000 0.0000 0.0000 24.8995
#
#
#
# Elastic Compliance Matrix: (Units=1/GPa)
#
#
# Indices 1 2 3 4 5 6 
#
# 1 0.006097 -0.002132 -0.006326 0.000000 0.000000 0.000000
# 2 -0.002132 0.016091 -0.002904 0.000000 0.000000 0.000000
# 3 -0.006326 -0.002904 0.034416 0.000000 0.000000 0.000000
# 4 0.000000 0.000000 0.000000 0.063104 0.000000 0.000000
# 5 0.000000 0.000000 0.000000 0.000000 0.020798 0.000000
# 6 0.000000 0.000000 0.000000 0.000000 0.000000 0.040162
#
#
# Mechanical properties :
#
#
# Convention : Reuss Voigt Hill
#
# Bulk Modulus (GPa) = 29.51555 57.71071 43.61313
# Shear Modulus (GPa) = 23.29006 33.51239 28.40122
#
# Velocity S-wave (km/s) = 3.27029 3.92287 3.61135
# Velocity P-wave (km/s) = 5.27383 6.85707 6.11689
#
# Compressibility (1/GPa) = 0.03388044
#
# Stress axis : x y z
#
# Youngs Moduli (GPa) = 164.01928 62.14482 29.05653
#
# Poissons Ratio (x) = 0.13251 0.18381
# Poissons Ratio (y) = 0.34972 0.08437
# Poissons Ratio (z) = 1.03758 0.18044
#
# Static dielectric constant tensor:
#      x y z
#    x 1.840940 0.000000 0.000000 
#    y 0.000000 1.900620 0.000000 
#    z 0.000000 0.000000 1.836590 
# 
# From -- ./inp_files/24891.got.cif
#   From: 2010.05.17/outbox.cif.g08.bks.cpg/sg51_13_cif.got.tgz:24891.got - 2010.06.03 11:52:47.
