data_PCOD9405286
_publ_section_title
;
Structure prediction by ZEFSAII (Michael W. Deem and Ramdas Pophale) SiO2 
 PCOD9405286
Probable space group: P M M A
;
_chemical_formula_sum "Si O2"
_cell_formula_units_Z 48
_cell_length_a 22.748767
_cell_length_b 16.547476
_cell_length_c 5.590234
_cell_angle_alpha 90.000000
_cell_angle_beta 90.000000
_cell_angle_gamma 90.000000
_cell_volume 2104.357924
_symmetry_space_group_name_H-M "P M M A"
_symmetry_group_IT_number 51
_symmetry_cell_setting 'orthorhombic'
loop_
_space_group_symop_operation_xyz
x,y,z
1/2-x,-y,z
1/2+x,-y,-z
-x,y,-z
-x,-y,-z
1/2+x,y,-z
1/2-x,y,z
x,-y,z
loop_
_atom_site_type_symbol
_atom_site_label
_atom_site_fract_x
_atom_site_fract_y
_atom_site_fract_z
Si Si1 0.485087 0.751018 0.242643
Si Si2 0.687677 0.590643 0.971961
Si Si3 0.131446 0.316821 0.395806
Si Si4 0.066275 0.589507 0.737556
Si Si5 0.821421 0.907064 0.821367
Si Si6 0.320799 0.821626 0.683308
O O1 0.500000 0.788379 0.500000
O O2 0.416521 0.732901 0.250051
O O3 0.522626 0.665923 0.234266
O O4 0.500000 0.796434 0.000000
O O5 0.750000 0.600609 0.110588
O O6 0.690041 0.500000 0.869713
O O7 0.624471 0.593564 0.098963
O O8 0.684587 0.657759 0.768349
O O9 0.095611 0.395672 0.479031
O O10 0.151314 0.265126 0.623859
O O11 0.039653 0.500000 0.759025
O O12 0.750000 0.906098 0.827381
O O13 0.839800 0.859193 0.062674
O O14 0.840709 0.000000 0.839621
O O15 0.836656 0.872096 0.558350
O O16 0.250000 0.815415 0.689080
#
# Coordination Sequence:
#
# PCOD9405286 Si02
#       6
#     8   8   8   8   8   8
#     4  10  21  37  57  80 105 141 190 249 298 342
#     4  10  21  35  52  74 105 151 197 237 288 349
#     4  11  22  35  54  78 115 146 195 238 299 343
#     4  10  22  38  56  77 107 150 201 255 301 342
#     4   9  18  35  57  83 117 155 192 226 270 339
#     4  10  21  33  54  85 118 156 188 228 287 343
#
# _framework density 22.809809000000001
#
# number of rings (size 3 to 8) (size 9 to 14) (size 15 to 20)
#    0.000    2.000    1.667    1.500    2.333    7.333 
#    0.000    1.667    0.000    0.000    0.000    0.000 
#    0.000   56.000    0.000    0.000    0.000    0.000 
#
# Total GULP energy -267695.615638 kJ/mol
# GULP energy per Si atom -5576.991992 kJ/mol
# Density = 2.275789 g / cm^3
# Si number density = 22.809809 Si / 1000 Ang^3
#
#
#
# Elastic Constant Matrix: (Units=GPa)
#
#
# Indices 1 2 3 4 5 6 
#
# 1 84.4508 13.6665 18.3248 0.0000 0.0000 0.0000
# 2 13.6665 74.9047 30.7007 0.0000 0.0000 0.0000
# 3 18.3248 30.7007 137.8771 0.0000 0.0000 0.0000
# 4 0.0000 0.0000 0.0000 32.0108 0.0000 0.0000
# 5 0.0000 0.0000 0.0000 0.0000 31.2119 0.0000
# 6 0.0000 0.0000 0.0000 0.0000 0.0000 12.2524
#
#
#
# Elastic Compliance Matrix: (Units=1/GPa)
#
#
# Indices 1 2 3 4 5 6 
#
# 1 0.012397 -0.001746 -0.001259 0.000000 0.000000 0.000000
# 2 -0.001746 0.014937 -0.003094 0.000000 0.000000 0.000000
# 3 -0.001259 -0.003094 0.008109 0.000000 0.000000 0.000000
# 4 0.000000 0.000000 0.000000 0.031239 0.000000 0.000000
# 5 0.000000 0.000000 0.000000 0.000000 0.032039 0.000000
# 6 0.000000 0.000000 0.000000 0.000000 0.000000 0.081617
#
#
# Mechanical properties :
#
#
# Convention : Reuss Voigt Hill
#
# Bulk Modulus (GPa) = 43.01901 46.95741 44.98821
# Shear Modulus (GPa) = 24.96456 30.73105 27.84780
#
# Velocity S-wave (km/s) = 3.31186 3.67450 3.49789
# Velocity P-wave (km/s) = 5.79011 6.21561 6.00663
#
# Compressibility (1/GPa) = 0.02324554
#
# Stress axis : x y z
#
# Youngs Moduli (GPa) = 80.66533 66.94821 123.31875
#
# Poissons Ratio (x) = 0.11688 0.15524
# Poissons Ratio (y) = 0.14083 0.38154
# Poissons Ratio (z) = 0.10155 0.20713
#
# Static dielectric constant tensor:
#      x y z
#    x 1.871150 0.000000 0.000000 
#    y 0.000000 1.874130 0.000000 
#    z 0.000000 0.000000 1.953770 
# 
# From -- ./inp_files/3519.got.cif
#   From: 2010.05.17/outbox.cif.g08.bks.cpg/sg51_2_cif.got.tgz:3519.got - 2010.06.03 11:52:47.
