data_PCOD9405332
_publ_section_title
;
Structure prediction by ZEFSAII (Michael W. Deem and Ramdas Pophale) SiO2 
 PCOD9405332
Probable space group: P M M A
;
_chemical_formula_sum "Si O2"
_cell_formula_units_Z 48
_cell_length_a 8.607687
_cell_length_b 30.838833
_cell_length_c 9.845082
_cell_angle_alpha 90.000000
_cell_angle_beta 90.000000
_cell_angle_gamma 90.000000
_cell_volume 2613.387078
_symmetry_space_group_name_H-M "P M M A"
_symmetry_group_IT_number 51
_symmetry_cell_setting 'orthorhombic'
loop_
_space_group_symop_operation_xyz
x,y,z
1/2-x,-y,z
1/2+x,-y,-z
-x,y,-z
-x,-y,-z
1/2+x,y,-z
1/2-x,y,z
x,-y,z
loop_
_atom_site_type_symbol
_atom_site_label
_atom_site_fract_x
_atom_site_fract_y
_atom_site_fract_z
Si Si1 0.435971 0.550630 0.648066
Si Si2 0.437485 0.049699 0.351378
Si Si3 0.063667 0.377665 0.151944
Si Si4 0.062501 0.797927 0.351499
Si Si5 0.062624 0.698518 0.351525
Si Si6 0.562185 0.125910 0.848094
O O1 0.500000 0.563705 0.500000
O O2 0.250000 0.554219 0.647304
O O3 0.477652 0.500000 0.668784
O O4 0.505327 0.580895 0.763967
O O5 0.500000 0.061978 0.500000
O O6 0.250000 0.050555 0.356579
O O7 0.488277 0.083605 0.237204
O O8 0.486453 0.000000 0.323621
O O9 0.250000 0.377985 0.148111
O O10 0.011783 0.335242 0.236994
O O11 0.000000 0.377341 0.000000
O O12 0.250000 0.798746 0.356657
O O13 0.013274 0.748221 0.324215
O O14 0.011780 0.831752 0.237070
O O15 0.000000 0.810355 0.500000
O O16 0.250000 0.697807 0.356761
O O17 0.000000 0.686056 0.500000
O O18 0.750000 0.125902 0.852286
O O19 0.500000 0.125891 0.000000
#
# Coordination Sequence:
#
# PCOD9405332 Si02
#       6
#     8   8   8   8   8   8
#     4  10  21  38  60  84 109 139 176 217 260 307
#     4   9  18  33  52  74  99 128 166 211 255 300
#     4  11  23  37  54  78 109 143 177 215 261 311
#     4   9  18  34  54  76 101 130 169 213 255 302
#     4   9  19  35  55  78 103 133 170 213 258 305
#     4  10  21  34  49  72 103 136 168 206 252 303
#
# _framework density 18.366968
#
# number of rings (size 3 to 8) (size 9 to 14) (size 15 to 20)
#    0.000    2.333    0.000    2.000    0.000    6.333 
#    0.000    0.000    0.000    0.000    0.000    0.000 
#    0.000    0.000    0.000    0.000    0.000    0.000 
#
# Total GULP energy -267980.344350 kJ/mol
# GULP energy per Si atom -5582.923841 kJ/mol
# Density = 1.832516 g / cm^3
# Si number density = 18.366968 Si / 1000 Ang^3
#
#
#
# Elastic Constant Matrix: (Units=GPa)
#
#
# Indices 1 2 3 4 5 6 
#
# 1 15.6792 32.1814 35.3083 0.0000 0.0000 0.0000
# 2 32.1814 123.6382 126.2779 0.0000 0.0000 0.0000
# 3 35.3083 126.2779 205.3746 0.0000 0.0000 0.0000
# 4 0.0000 0.0000 0.0000 -11.0388 0.0000 0.0000
# 5 0.0000 0.0000 0.0000 0.0000 37.2782 0.0000
# 6 0.0000 0.0000 0.0000 0.0000 0.0000 9.9241
#
#
#
# Elastic Compliance Matrix: (Units=1/GPa)
#
#
# Indices 1 2 3 4 5 6 
#
# 1 0.138411 -0.031512 -0.004420 0.000000 0.000000 0.000000
# 2 -0.031512 0.028916 -0.012362 0.000000 0.000000 0.000000
# 3 -0.004420 -0.012362 0.013230 0.000000 0.000000 0.000000
# 4 0.000000 0.000000 0.000000 -0.090589 0.000000 0.000000
# 5 0.000000 0.000000 0.000000 0.000000 0.026825 0.000000
# 6 0.000000 0.000000 0.000000 0.000000 0.000000 0.100764
#
#
# Mechanical properties :
#
#
# Convention : Reuss Voigt Hill
#
# Bulk Modulus (GPa) = 11.90918 81.35859 46.63389
# Shear Modulus (GPa) = 14.61409 17.29433 15.95421
#
# Velocity S-wave (km/s) = 2.82383 3.07188 2.95046
# Velocity P-wave (km/s) = 4.13885 7.54813 6.08705
#
# Compressibility (1/GPa) = 0.08396882
#
# Stress axis : x y z
#
# Youngs Moduli (GPa) = 7.22486 34.58265 75.58559
#
# Poissons Ratio (x) = 1.08977 0.33410
# Poissons Ratio (y) = 0.22767 0.93439
# Poissons Ratio (z) = 0.03193 0.42751
#
# Static dielectric constant tensor:
#      x y z
#    x 1.622720 0.000000 0.000000 
#    y 0.000000 1.651650 0.000000 
#    z 0.000000 0.000000 1.580920 
# 
# From -- ./inp_files/5971.got.cif
#   From: 2010.05.17/outbox.cif.g08.bks.cpg/sg51_3_cif.got.tgz:5971.got - 2010.06.03 11:52:47.
