data_PCOD9405965
_publ_section_title
;
Structure prediction by ZEFSAII (Michael W. Deem and Ramdas Pophale) SiO2 
 PCOD9405965
Probable space group: P M M A
;
_chemical_formula_sum "Si O2"
_cell_formula_units_Z 64
_cell_length_a 8.924500
_cell_length_b 14.158215
_cell_length_c 26.650027
_cell_angle_alpha 90.000000
_cell_angle_beta 90.000000
_cell_angle_gamma 90.000000
_cell_volume 3367.363889
_symmetry_space_group_name_H-M "P M M A"
_symmetry_group_IT_number 51
_symmetry_cell_setting 'orthorhombic'
loop_
_space_group_symop_operation_xyz
x,y,z
1/2-x,-y,z
1/2+x,-y,-z
-x,y,-z
-x,-y,-z
1/2+x,y,-z
1/2-x,y,z
x,-y,z
loop_
_atom_site_type_symbol
_atom_site_label
_atom_site_fract_x
_atom_site_fract_y
_atom_site_fract_z
Si Si1 0.428247 0.111414 0.695525
Si Si2 0.072245 0.613580 0.741504
Si Si3 0.572665 0.711386 0.949312
Si Si4 0.921169 0.885449 0.800827
Si Si5 0.572024 0.387713 0.446331
Si Si6 0.071685 0.718387 0.352554
Si Si7 0.071633 0.110646 0.906070
Si Si8 0.574619 0.386123 0.145647
O O1 0.250000 0.125797 0.696390
O O2 0.497589 0.140537 0.749303
O O3 0.505241 0.176917 0.654460
O O4 0.457100 0.000000 0.688278
O O5 0.250000 0.634919 0.736323
O O6 0.056973 0.500000 0.738134
O O7 0.025391 0.642352 0.798031
O O8 0.983050 0.661570 0.696736
O O9 0.750000 0.709767 0.953159
O O10 0.513326 0.818202 0.942292
O O11 0.517949 0.656836 0.899794
O O12 0.500000 0.671194 0.000000
O O13 0.750000 0.849922 0.803782
O O14 0.016729 0.862496 0.850031
O O15 0.913671 0.000000 0.800222
O O16 0.500000 0.363463 0.500000
O O17 0.750000 0.370702 0.447102
O O18 0.548326 0.500000 0.438240
O O19 0.496031 0.331447 0.401316
O O20 0.250000 0.720078 0.354689
O O21 0.250000 0.122277 0.910143
O O22 0.035882 0.000000 0.914383
O O23 0.750000 0.359366 0.140023
O O24 0.567174 0.500000 0.143874
#
# Coordination Sequence:
#
# PCOD9405965 Si02
#       8
#     8   8   8   8   8   8   8   8
#     4  10  21  37  56  79 112 157 205 250 296 346
#     4   9  19  37  60  86 118 155 192 233 286 349
#     4  12  26  42  61  84 112 145 187 238 289 346
#     4   9  17  31  52  79 110 143 183 231 282 338
#     4  10  21  39  63  90 123 162 205 252 300 351
#     4  12  24  35  55  88 125 163 202 246 296 350
#     4  10  21  38  60  84 112 148 187 229 282 344
#     4   9  20  41  66  88 113 147 187 234 290 349
#
# _framework density 19.005965
#
# number of rings (size 3 to 8) (size 9 to 14) (size 15 to 20)
#    0.000    1.875    0.000    4.875    1.750    6.750 
#    0.000    1.250    0.000    0.375    0.000    0.000 
#    0.000    0.000    0.000    0.000    0.000    0.000 
#
# Total GULP energy -357790.336750 kJ/mol
# GULP energy per Si atom -5590.474012 kJ/mol
# Density = 1.896271 g / cm^3
# Si number density = 19.005965 Si / 1000 Ang^3
#
#
#
# Elastic Constant Matrix: (Units=GPa)
#
#
# Indices 1 2 3 4 5 6 
#
# 1 126.9460 43.9826 76.5881 0.0000 0.0000 0.0000
# 2 43.9826 65.5753 56.1292 0.0000 0.0000 0.0000
# 3 76.5881 56.1292 142.1311 0.0000 0.0000 0.0000
# 4 0.0000 0.0000 0.0000 27.5650 0.0000 0.0000
# 5 0.0000 0.0000 0.0000 0.0000 34.3435 0.0000
# 6 0.0000 0.0000 0.0000 0.0000 0.0000 25.4242
#
#
#
# Elastic Compliance Matrix: (Units=1/GPa)
#
#
# Indices 1 2 3 4 5 6 
#
# 1 0.012296 -0.003891 -0.005089 0.000000 0.000000 0.000000
# 2 -0.003891 0.024268 -0.007487 0.000000 0.000000 0.000000
# 3 -0.005089 -0.007487 0.012735 0.000000 0.000000 0.000000
# 4 0.000000 0.000000 0.000000 0.036278 0.000000 0.000000
# 5 0.000000 0.000000 0.000000 0.000000 0.029118 0.000000
# 6 0.000000 0.000000 0.000000 0.000000 0.000000 0.039333
#
#
# Mechanical properties :
#
#
# Convention : Reuss Voigt Hill
#
# Bulk Modulus (GPa) = 61.10865 76.45024 68.77944
# Shear Modulus (GPa) = 25.98547 27.99671 26.99109
#
# Velocity S-wave (km/s) = 3.70161 3.84220 3.77256
# Velocity P-wave (km/s) = 7.10573 7.74564 7.43258
#
# Compressibility (1/GPa) = 0.01636430
#
# Stress axis : x y z
#
# Youngs Moduli (GPa) = 81.32891 41.20671 78.52568
#
# Poissons Ratio (x) = 0.16034 0.39962
# Poissons Ratio (y) = 0.31645 0.58792
# Poissons Ratio (z) = 0.41388 0.30851
#
# Static dielectric constant tensor:
#      x y z
#    x 1.632080 0.000000 0.000000 
#    y 0.000000 1.692770 0.000000 
#    z 0.000000 0.000000 1.639640 
# 
# From -- ./inp_files/34832.got.cif
#   From: 2010.05.17/outbox.cif.g08.bks.cpg/sg51_18_cif.got.tgz:34832.got - 2010.06.03 11:52:47.
