data_PCOD9405057
_publ_section_title
;
Structure prediction by ZEFSAII (Michael W. Deem and Ramdas Pophale) SiO2 
 PCOD9405057
Probable space group: P M M A
;
_chemical_formula_sum "Si O2"
_cell_formula_units_Z 56
_cell_length_a 18.406079
_cell_length_b 23.493908
_cell_length_c 6.831002
_cell_angle_alpha 90.000000
_cell_angle_beta 90.000000
_cell_angle_gamma 90.000000
_cell_volume 2953.935159
_symmetry_space_group_name_H-M "P M M A"
_symmetry_group_IT_number 51
_symmetry_cell_setting 'orthorhombic'
loop_
_space_group_symop_operation_xyz
x,y,z
1/2-x,-y,z
1/2+x,-y,-z
-x,y,-z
-x,-y,-z
1/2+x,y,-z
1/2-x,y,z
x,-y,z
loop_
_atom_site_type_symbol
_atom_site_label
_atom_site_fract_x
_atom_site_fract_y
_atom_site_fract_z
Si Si1 0.074449 0.565582 0.617288
Si Si2 0.333544 0.766050 0.098533
Si Si3 0.667741 0.128619 0.202157
Si Si4 0.579634 0.833746 0.585045
Si Si5 0.421995 0.936607 0.103052
Si Si6 0.336043 0.440242 0.233127
Si Si7 0.838578 0.353190 0.092891
O O1 0.065920 0.500000 0.697700
O O2 0.134024 0.562000 0.448242
O O3 0.107694 0.614287 0.757288
O O4 0.000000 0.579500 0.500000
O O5 0.250000 0.756594 0.167629
O O6 0.383899 0.783701 0.282775
O O7 0.333573 0.818859 0.949981
O O8 0.353868 0.711880 0.964494
O O9 0.750000 0.114802 0.254709
O O10 0.626242 0.147780 0.396756
O O11 0.632396 0.078836 0.073402
O O12 0.500000 0.819434 0.500000
O O13 0.577514 0.888476 0.729803
O O14 0.407769 0.000000 0.181655
O O15 0.500000 0.935478 0.000000
O O16 0.250000 0.441337 0.238582
O O17 0.361827 0.500000 0.140886
O O18 0.355496 0.386788 0.106040
O O19 0.750000 0.358856 0.138770
#
# Coordination Sequence:
#
# PCOD9405057 Si02
#       7
#     8   8   8   8   8   8   8
#     4  10  21  36  55  81 116 152 186 234 301 367
#     4   9  21  39  59  84 117 155 198 250 298 352
#     4  10  21  39  60  84 119 162 202 243 301 363
#     4  11  21  37  62  88 116 159 203 244 300 359
#     4  10  21  38  61  90 122 154 195 246 298 354
#     4   9  18  33  55  82 108 139 186 239 286 344
#     4  10  20  37  60  82 109 150 197 242 294 350
#
# _framework density 18.957761999999999
#
# number of rings (size 3 to 8) (size 9 to 14) (size 15 to 20)
#    0.000    2.143    1.429    1.286    0.000    4.857 
#    0.000   10.714    0.000    0.000    0.000    0.000 
#    0.000    0.000    0.000    0.000    0.000    0.000 
#
# Total GULP energy -311811.277383 kJ/mol
# GULP energy per Si atom -5568.058525 kJ/mol
# Density = 1.891461 g / cm^3
# Si number density = 18.957762 Si / 1000 Ang^3
#
#
#
# Elastic Constant Matrix: (Units=GPa)
#
#
# Indices 1 2 3 4 5 6 
#
# 1 81.0882 42.0634 52.5014 0.0000 0.0000 0.0000
# 2 42.0634 96.3458 21.7491 0.0000 0.0000 0.0000
# 3 52.5014 21.7491 82.8051 0.0000 0.0000 0.0000
# 4 0.0000 0.0000 0.0000 42.0688 0.0000 0.0000
# 5 0.0000 0.0000 0.0000 0.0000 35.8728 0.0000
# 6 0.0000 0.0000 0.0000 0.0000 0.0000 30.0782
#
#
#
# Elastic Compliance Matrix: (Units=1/GPa)
#
#
# Indices 1 2 3 4 5 6 
#
# 1 0.025654 -0.008003 -0.014164 0.000000 0.000000 0.000000
# 2 -0.008003 0.013530 0.001520 0.000000 0.000000 0.000000
# 3 -0.014164 0.001520 0.020657 0.000000 0.000000 0.000000
# 4 0.000000 0.000000 0.000000 0.023771 0.000000 0.000000
# 5 0.000000 0.000000 0.000000 0.000000 0.027876 0.000000
# 6 0.000000 0.000000 0.000000 0.000000 0.000000 0.033247
#
#
# Mechanical properties :
#
#
# Convention : Reuss Voigt Hill
#
# Bulk Modulus (GPa) = 53.91030 54.76297 54.33663
# Shear Modulus (GPa) = 26.01316 31.19897 28.60607
#
# Velocity S-wave (km/s) = 3.70829 4.06114 3.88872
# Velocity P-wave (km/s) = 6.84354 7.13722 6.99192
#
# Compressibility (1/GPa) = 0.01854933
#
# Stress axis : x y z
#
# Youngs Moduli (GPa) = 38.98018 73.90960 48.40868
#
# Poissons Ratio (x) = 0.59150 0.68564
# Poissons Ratio (y) = 0.31196 -0.07360
# Poissons Ratio (z) = 0.55210 -0.11238
#
# Static dielectric constant tensor:
#      x y z
#    x 1.834660 0.000000 0.000000 
#    y 0.000000 1.803350 0.000000 
#    z 0.000000 0.000000 1.645740 
# 
# From -- ./inp_files/2617.got.cif
#   From: 2010.05.17/outbox.cif.g08.bks.cpg/sg51_2_cif.got.tgz:2617.got - 2010.06.03 11:52:47.
