data_PCOD9405359
_publ_section_title
;
Structure prediction by ZEFSAII (Michael W. Deem and Ramdas Pophale) SiO2 
 PCOD9405359
Probable space group: P M M A
;
_chemical_formula_sum "Si O2"
_cell_formula_units_Z 48
_cell_length_a 34.628983
_cell_length_b 7.576203
_cell_length_c 9.942365
_cell_angle_alpha 90.000000
_cell_angle_beta 90.000000
_cell_angle_gamma 90.000000
_cell_volume 2608.441149
_symmetry_space_group_name_H-M "P M M A"
_symmetry_group_IT_number 51
_symmetry_cell_setting 'orthorhombic'
loop_
_space_group_symop_operation_xyz
x,y,z
1/2-x,-y,z
1/2+x,-y,-z
-x,y,-z
-x,-y,-z
1/2+x,y,-z
1/2-x,y,z
x,-y,z
loop_
_atom_site_type_symbol
_atom_site_label
_atom_site_fract_x
_atom_site_fract_y
_atom_site_fract_z
Si Si1 0.473457 0.500000 0.292050
Si Si2 0.378590 0.785162 0.648252
Si Si3 0.206945 0.704771 0.130462
Si Si4 0.845338 0.210499 0.629082
Si Si5 0.364663 0.205386 0.947657
Si Si6 0.081205 0.213179 0.183159
Si Si7 0.443178 0.500000 0.598909
O O1 0.455938 0.672437 0.219334
O O2 0.457328 0.500000 0.444791
O O3 0.519411 0.500000 0.305798
O O4 0.349939 0.737144 0.525625
O O5 0.363398 0.729935 0.795272
O O6 0.417371 0.673967 0.623696
O O7 0.384237 0.000000 0.641566
O O8 0.250000 0.781402 0.123415
O O9 0.209170 0.500000 0.095062
O O10 0.189066 0.716816 0.279977
O O11 0.175244 0.781862 0.029158
O O12 0.885711 0.251365 0.704782
O O13 0.841046 0.000000 0.634839
O O14 0.373891 0.000000 0.935636
O O15 0.398578 0.275569 0.044280
O O16 0.074882 0.000000 0.181895
#
# Coordination Sequence:
#
# PCOD9405359 Si02
#       7
#     4   8   8   8   8   8   4
#     4  11  22  35  55  85 110 142 189 222 283 339
#     4  10  21  38  56  82 111 142 187 228 269 328
#     4  10  21  34  53  85 115 141 177 224 272 318
#     4   9  18  33  56  78 102 144 185 220 267 314
#     4   9  20  36  57  80 106 146 187 224 273 324
#     4   9  18  34  55  80 106 142 187 230 268 317
#     4  11  24  35  55  85 110 148 179 226 291 325
#
# _framework density 18.401793999999999
#
# number of rings (size 3 to 8) (size 9 to 14) (size 15 to 20)
#    0.000    2.333    1.667    1.500    7.000    2.000 
#    0.000    4.167    0.000    8.000    0.000    0.000 
#    0.000    0.000    0.000    0.000    0.000    0.000 
#
# Total GULP energy -267490.019500 kJ/mol
# GULP energy per Si atom -5572.708740 kJ/mol
# Density = 1.835991 g / cm^3
# Si number density = 18.401794 Si / 1000 Ang^3
#
#
#
# Elastic Constant Matrix: (Units=GPa)
#
#
# Indices 1 2 3 4 5 6 
#
# 1 65.6528 6.3030 24.0480 0.0000 0.0000 0.0000
# 2 6.3030 46.1444 10.7024 0.0000 0.0000 0.0000
# 3 24.0480 10.7024 131.4618 0.0000 0.0000 0.0000
# 4 0.0000 0.0000 0.0000 2.7233 0.0000 0.0000
# 5 0.0000 0.0000 0.0000 0.0000 12.5591 0.0000
# 6 0.0000 0.0000 0.0000 0.0000 0.0000 53.7690
#
#
#
# Elastic Compliance Matrix: (Units=1/GPa)
#
#
# Indices 1 2 3 4 5 6 
#
# 1 0.016437 -0.001578 -0.002878 0.000000 0.000000 0.000000
# 2 -0.001578 0.022240 -0.001522 0.000000 0.000000 0.000000
# 3 -0.002878 -0.001522 0.008257 0.000000 0.000000 0.000000
# 4 0.000000 0.000000 0.000000 0.367204 0.000000 0.000000
# 5 0.000000 0.000000 0.000000 0.000000 0.079624 0.000000
# 6 0.000000 0.000000 0.000000 0.000000 0.000000 0.018598
#
#
# Mechanical properties :
#
#
# Convention : Reuss Voigt Hill
#
# Bulk Modulus (GPa) = 28.58924 36.15178 32.37051
# Shear Modulus (GPa) = 9.32878 27.29062 18.30970
#
# Velocity S-wave (km/s) = 2.25400 3.85521 3.15778
# Velocity P-wave (km/s) = 4.72693 6.28532 5.56098
#
# Compressibility (1/GPa) = 0.03497820
#
# Stress axis : x y z
#
# Youngs Moduli (GPa) = 60.83667 44.96485 121.10610
#
# Poissons Ratio (x) = 0.07094 0.34860
# Poissons Ratio (y) = 0.09598 0.18432
# Poissons Ratio (z) = 0.17511 0.06843
#
# Static dielectric constant tensor:
#      x y z
#    x 1.618450 0.000000 0.000000 
#    y 0.000000 1.668270 0.000000 
#    z 0.000000 0.000000 1.669800 
# 
# From -- ./inp_files/12945.got.cif
#   From: 2010.05.17/outbox.cif.g08.bks.cpg/sg51_7_cif.got.tgz:12945.got - 2010.06.03 11:52:47.
