data_PCOD9405219
_publ_section_title
;
Structure prediction by ZEFSAII (Michael W. Deem and Ramdas Pophale) SiO2 
 PCOD9405219
Probable space group: P M M A
;
_chemical_formula_sum "Si O2"
_cell_formula_units_Z 40
_cell_length_a 15.992969
_cell_length_b 9.413326
_cell_length_c 13.819384
_cell_angle_alpha 90.000000
_cell_angle_beta 90.000000
_cell_angle_gamma 90.000000
_cell_volume 2080.467230
_symmetry_space_group_name_H-M "P M M A"
_symmetry_group_IT_number 51
_symmetry_cell_setting 'orthorhombic'
loop_
_space_group_symop_operation_xyz
x,y,z
1/2-x,-y,z
1/2+x,-y,-z
-x,y,-z
-x,-y,-z
1/2+x,y,-z
1/2-x,y,z
x,-y,z
loop_
_atom_site_type_symbol
_atom_site_label
_atom_site_fract_x
_atom_site_fract_y
_atom_site_fract_z
Si Si1 0.250000 0.835660 0.246014
Si Si2 0.346504 0.663724 0.555916
Si Si3 0.088048 0.835488 0.380475
Si Si4 0.591659 0.830242 0.044853
Si Si5 0.250000 0.670927 0.048449
Si Si6 0.085696 0.833169 0.726123
O O1 0.168623 0.817909 0.312401
O O2 0.250000 0.725541 0.158842
O O3 0.250000 0.000000 0.209222
O O4 0.250000 0.673048 0.524198
O O5 0.370375 0.500000 0.564392
O O6 0.401517 0.741057 0.475149
O O7 0.355397 0.739598 0.658967
O O8 0.006773 0.806234 0.316355
O O9 0.084649 0.000000 0.411949
O O10 0.589359 0.804364 0.160046
O O11 0.606706 0.000000 0.028814
O O12 0.500000 0.798341 0.000000
O O13 0.666768 0.739372 0.999418
O O14 0.250000 0.500000 0.041108
O O15 0.104713 0.000000 0.712254
#
# Coordination Sequence:
#
# PCOD9405219 Si02
#       6
#     4   8   8   8   4   8
#     4  10  20  38  65  90 117 156 205 254 306 360
#     4  11  24  39  56  84 125 166 201 240 296 368
#     4  10  20  38  64  92 117 151 201 256 303 354
#     4  10  22  44  70  94 123 163 216 270 316 369
#     4  12  26  40  61  94 133 168 205 256 320 386
#     4  10  22  38  62  91 118 153 203 255 304 357
#
# _framework density 19.226451000000001
#
# number of rings (size 3 to 8) (size 9 to 14) (size 15 to 20)
#    0.000    1.600    1.000    3.300    1.400    9.600 
#    0.000    2.000    0.000    0.000    0.000    0.000 
#    0.000    0.000    0.000    0.000    0.000    0.000 
#
# Total GULP energy -223573.243218 kJ/mol
# GULP energy per Si atom -5589.331080 kJ/mol
# Density = 1.918269 g / cm^3
# Si number density = 19.226451 Si / 1000 Ang^3
#
#
#
# Elastic Constant Matrix: (Units=GPa)
#
#
# Indices 1 2 3 4 5 6 
#
# 1 93.1932 64.3483 36.0214 0.0000 0.0000 0.0000
# 2 64.3483 84.2363 73.6127 0.0000 0.0000 0.0000
# 3 36.0214 73.6127 112.3438 0.0000 0.0000 0.0000
# 4 0.0000 0.0000 0.0000 1.8371 0.0000 0.0000
# 5 0.0000 0.0000 0.0000 0.0000 24.6798 0.0000
# 6 0.0000 0.0000 0.0000 0.0000 0.0000 18.1761
#
#
#
# Elastic Compliance Matrix: (Units=1/GPa)
#
#
# Indices 1 2 3 4 5 6 
#
# 1 0.028146 -0.031854 0.011848 0.000000 0.000000 0.000000
# 2 -0.031854 0.063827 -0.031609 0.000000 0.000000 0.000000
# 3 0.011848 -0.031609 0.025814 0.000000 0.000000 0.000000
# 4 0.000000 0.000000 0.000000 0.544331 0.000000 0.000000
# 5 0.000000 0.000000 0.000000 0.000000 0.040519 0.000000
# 6 0.000000 0.000000 0.000000 0.000000 0.000000 0.055017
#
#
# Mechanical properties :
#
#
# Convention : Reuss Voigt Hill
#
# Bulk Modulus (GPa) = 68.69834 70.85980 69.77907
# Shear Modulus (GPa) = 5.77543 16.65800 11.21672
#
# Velocity S-wave (km/s) = 1.73506 2.94668 2.41799
# Velocity P-wave (km/s) = 6.31052 6.96510 6.64587
#
# Compressibility (1/GPa) = 0.01455639
#
# Stress axis : x y z
#
# Youngs Moduli (GPa) = 35.52957 15.66731 38.73854
#
# Poissons Ratio (x) = 0.49907 -0.45896
# Poissons Ratio (y) = 1.13176 1.22448
# Poissons Ratio (z) = -0.42094 0.49523
#
# Static dielectric constant tensor:
#      x y z
#    x 1.685280 0.000000 0.000000 
#    y 0.000000 1.648030 0.000000 
#    z 0.000000 0.000000 1.637550 
# 
# From -- ./inp_files/23757.got.cif
#   From: 2010.05.17/outbox.cif.g08.bks.cpg/sg51_12_cif.got.tgz:23757.got - 2010.06.03 11:52:47.
