data_PCOD9405456
_publ_section_title
;
Structure prediction by ZEFSAII (Michael W. Deem and Ramdas Pophale) SiO2 
 PCOD9405456
Probable space group: P M M A
;
_chemical_formula_sum "Si O2"
_cell_formula_units_Z 64
_cell_length_a 19.921846
_cell_length_b 7.768860
_cell_length_c 19.574601
_cell_angle_alpha 90.000000
_cell_angle_beta 90.000000
_cell_angle_gamma 90.000000
_cell_volume 3029.561633
_symmetry_space_group_name_H-M "P M M A"
_symmetry_group_IT_number 51
_symmetry_cell_setting 'orthorhombic'
loop_
_space_group_symop_operation_xyz
x,y,z
1/2-x,-y,z
1/2+x,-y,-z
-x,y,-z
-x,-y,-z
1/2+x,y,-z
1/2-x,y,z
x,-y,z
loop_
_atom_site_type_symbol
_atom_site_label
_atom_site_fract_x
_atom_site_fract_y
_atom_site_fract_z
Si Si1 0.461144 0.200388 0.435303
Si Si2 0.587981 0.789641 0.214365
Si Si3 0.459417 0.796677 0.284884
Si Si4 0.673093 0.702199 0.500702
Si Si5 0.827438 0.207677 0.346677
Si Si6 0.825393 0.699278 0.784200
Si Si7 0.831243 0.802997 0.935169
Si Si8 0.172016 0.211193 0.915749
O O1 0.500000 0.279575 0.500000
O O2 0.472455 0.277524 0.360388
O O3 0.382355 0.208821 0.452890
O O4 0.482554 0.000000 0.431860
O O5 0.511920 0.731757 0.228322
O O6 0.628497 0.738065 0.282480
O O7 0.625115 0.730184 0.146032
O O8 0.590193 0.000000 0.210663
O O9 0.383146 0.777328 0.261856
O O10 0.472598 0.000000 0.290261
O O11 0.750000 0.766433 0.507451
O O12 0.672882 0.500000 0.516744
O O13 0.652804 0.725680 0.421275
O O14 0.750000 0.257816 0.335237
O O15 0.830687 0.000000 0.350209
O O16 0.750000 0.774766 0.777703
O O17 0.821409 0.500000 0.765959
O O18 0.846280 0.713206 0.863847
O O19 0.750000 0.806049 0.939944
O O20 0.855102 0.000000 0.928862
O O21 0.852162 0.731564 0.008948
O O22 0.250000 0.261569 0.904709
O O23 0.171907 0.000000 0.917812
#
# Coordination Sequence:
#
# PCOD9405456 Si02
#       8
#     8   8   8   8   8   8   8   8
#     4  10  21  38  58  78 101 131 169 211 254 304
#     4   9  16  28  47  74 107 137 167 204 245 291
#     4  10  21  35  53  77 103 131 163 203 251 301
#     4  10  21  35  51  74 103 132 165 208 256 306
#     4   9  16  28  50  77 104 137 173 206 242 288
#     4  10  21  37  56  75  97 129 169 213 258 303
#     4   8  14  27  50  78 104 130 164 206 248 291
#     4   8  13  23  45  79 111 135 164 204 244 282
#
# _framework density 21.125167999999999
#
# number of rings (size 3 to 8) (size 9 to 14) (size 15 to 20)
#    0.000    2.750    0.000    2.625    0.000    6.250 
#    0.000    5.000    0.000    5.250    0.000    3.500 
#    0.000    0.000    0.000    0.000    0.000    0.000 
#
# Total GULP energy -356967.068233 kJ/mol
# GULP energy per Si atom -5577.610441 kJ/mol
# Density = 2.107709 g / cm^3
# Si number density = 21.125168 Si / 1000 Ang^3
#
#
#
# Elastic Constant Matrix: (Units=GPa)
#
#
# Indices 1 2 3 4 5 6 
#
# 1 71.4535 -2.3613 47.5160 0.0000 0.0000 0.0000
# 2 -2.3613 25.1433 0.4152 0.0000 0.0000 0.0000
# 3 47.5160 0.4152 96.3285 0.0000 0.0000 0.0000
# 4 0.0000 0.0000 0.0000 -132.6989 0.0000 0.0000
# 5 0.0000 0.0000 0.0000 0.0000 24.4295 0.0000
# 6 0.0000 0.0000 0.0000 0.0000 0.0000 -2.4834
#
#
#
# Elastic Compliance Matrix: (Units=1/GPa)
#
#
# Indices 1 2 3 4 5 6 
#
# 1 0.020941 0.002137 -0.010339 0.000000 0.000000 0.000000
# 2 0.002137 0.039993 -0.001227 0.000000 0.000000 0.000000
# 3 -0.010339 -0.001227 0.015486 0.000000 0.000000 0.000000
# 4 0.000000 0.000000 0.000000 -0.007536 0.000000 0.000000
# 5 0.000000 0.000000 0.000000 0.000000 0.040934 0.000000
# 6 0.000000 0.000000 0.000000 0.000000 0.000000 -0.402675
#
#
# Mechanical properties :
#
#
# Convention : Reuss Voigt Hill
#
# Bulk Modulus (GPa) = 17.37198 31.56280 24.46739
# Shear Modulus (GPa) = -19.62228 -12.32687 -15.97457
#
# Velocity S-wave (km/s) = -3.05102 -2.41823 -2.75287
# Velocity P-wave (km/s) = 2.04217 2.67884 1.22592
#
# Compressibility (1/GPa) = 0.05756395
#
# Stress axis : x y z
#
# Youngs Moduli (GPa) = 47.75334 25.00442 64.57352
#
# Poissons Ratio (x) = -0.05344 0.66761
# Poissons Ratio (y) = -0.10207 0.07921
# Poissons Ratio (z) = 0.49371 0.03067
#
# Static dielectric constant tensor:
#      x y z
#    x 1.762580 0.000000 0.000000 
#    y 0.000000 1.778960 0.000000 
#    z 0.000000 0.000000 1.768440 
# 
# From -- ./inp_files/30616.got.cif
#   From: 2010.05.17/outbox.cif.g08.bks.cpg/sg51_16_cif.got.tgz:30616.got - 2010.06.03 11:52:47.
