data_PCOD9405432
_publ_section_title
;
Structure prediction by ZEFSAII (Michael W. Deem and Ramdas Pophale) SiO2 
 PCOD9405432
Probable space group: P M M A
;
_chemical_formula_sum "Si O2"
_cell_formula_units_Z 64
_cell_length_a 28.249478
_cell_length_b 11.218817
_cell_length_c 9.066995
_cell_angle_alpha 90.000000
_cell_angle_beta 90.000000
_cell_angle_gamma 90.000000
_cell_volume 2873.563955
_symmetry_space_group_name_H-M "P M M A"
_symmetry_group_IT_number 51
_symmetry_cell_setting 'orthorhombic'
loop_
_space_group_symop_operation_xyz
x,y,z
1/2-x,-y,z
1/2+x,-y,-z
-x,y,-z
-x,-y,-z
1/2+x,y,-z
1/2-x,y,z
x,-y,z
loop_
_atom_site_type_symbol
_atom_site_label
_atom_site_fract_x
_atom_site_fract_y
_atom_site_fract_z
Si Si1 0.047487 0.337040 0.083803
Si Si2 0.442940 0.869807 0.903978
Si Si3 0.550664 0.137125 0.422471
Si Si4 0.307098 0.131400 0.520253
Si Si5 0.193398 0.367525 0.341740
Si Si6 0.155430 0.369829 0.012326
Si Si7 0.830841 0.870041 0.136361
Si Si8 0.552978 0.629444 0.568224
O O1 0.097634 0.367968 0.005631
O O2 0.049728 0.367092 0.254555
O O3 0.045191 0.195968 0.054391
O O4 0.000000 0.379614 0.000000
O O5 0.455391 0.814974 0.744742
O O6 0.386290 0.877515 0.898312
O O7 0.463141 0.000000 0.897033
O O8 0.500000 0.124532 0.500000
O O9 0.575171 0.246614 0.509162
O O10 0.570884 0.000000 0.418594
O O11 0.250000 0.130431 0.523814
O O12 0.320288 0.250585 0.432967
O O13 0.324019 0.139060 0.688782
O O14 0.321969 0.000000 0.460244
O O15 0.250000 0.361045 0.316305
O O16 0.184354 0.500000 0.407497
O O17 0.167380 0.363355 0.185220
O O18 0.171176 0.500000 0.956190
O O19 0.181148 0.256779 0.937525
O O20 0.809746 0.000000 0.090166
O O21 0.500000 0.628320 0.500000
O O22 0.574564 0.500000 0.527183
#
# Coordination Sequence:
#
# PCOD9405432 Si02
#       8
#     8   8   8   8   8   8   8   8
#     4  11  22  37  57  79 109 148 190 238 292 344
#     4   9  19  36  56  78 106 142 184 228 276 331
#     4   9  17  32  52  72  95 125 165 213 262 314
#     4   9  18  34  58  88 119 150 185 227 279 339
#     4   9  19  37  58  81 114 152 187 228 278 333
#     4  10  22  38  56  82 113 147 191 237 283 339
#     4   9  19  36  55  78 111 145 179 224 275 328
#     4  10  21  35  50  72 101 133 171 217 270 325
#
# _framework density 22.271995
#
# number of rings (size 3 to 8) (size 9 to 14) (size 15 to 20)
#    0.000    2.500    0.000    1.875    0.000    4.250 
#    0.000    4.375    0.000    0.000    0.000    0.000 
#    0.000    0.000    0.000    0.000    0.000    0.000 
#
# Total GULP energy -356494.168307 kJ/mol
# GULP energy per Si atom -5570.221380 kJ/mol
# Density = 2.222130 g / cm^3
# Si number density = 22.271995 Si / 1000 Ang^3
#
#
#
# Elastic Constant Matrix: (Units=GPa)
#
#
# Indices 1 2 3 4 5 6 
#
# 1 69.0256 11.7965 -2.7033 0.0000 0.0000 0.0000
# 2 11.7965 242.7764 71.2344 0.0000 0.0000 0.0000
# 3 -2.7033 71.2344 66.7289 0.0000 0.0000 0.0000
# 4 0.0000 0.0000 0.0000 25.6145 0.0000 0.0000
# 5 0.0000 0.0000 0.0000 0.0000 27.3275 0.0000
# 6 0.0000 0.0000 0.0000 0.0000 0.0000 -35.1027
#
#
#
# Elastic Compliance Matrix: (Units=1/GPa)
#
#
# Indices 1 2 3 4 5 6 
#
# 1 0.014788 -0.001302 0.001989 0.000000 0.000000 0.000000
# 2 -0.001302 0.006112 -0.006578 0.000000 0.000000 0.000000
# 3 0.001989 -0.006578 0.022088 0.000000 0.000000 0.000000
# 4 0.000000 0.000000 0.000000 0.039040 0.000000 0.000000
# 5 0.000000 0.000000 0.000000 0.000000 0.036593 0.000000
# 6 0.000000 0.000000 0.000000 0.000000 0.000000 -0.028488
#
#
# Mechanical properties :
#
#
# Convention : Reuss Voigt Hill
#
# Bulk Modulus (GPa) = 32.04400 59.90957 45.97679
# Shear Modulus (GPa) = 44.51635 23.44807 33.98221
#
# Velocity S-wave (km/s) = 4.47560 3.24822 3.91036
# Velocity P-wave (km/s) = 6.41302 6.40510 6.40906
#
# Compressibility (1/GPa) = 0.03120709
#
# Stress axis : x y z
#
# Youngs Moduli (GPa) = 67.62315 163.60436 45.27249
#
# Poissons Ratio (x) = 0.21305 -0.09006
# Poissons Ratio (y) = 0.08806 0.29779
# Poissons Ratio (z) = -0.13452 1.07615
#
# Static dielectric constant tensor:
#      x y z
#    x 1.875250 0.000000 0.000000 
#    y 0.000000 1.954490 0.000000 
#    z 0.000000 0.000000 1.774370 
# 
# From -- ./inp_files/13159.got.cif
#   From: 2010.05.17/outbox.cif.g08.bks.cpg/sg51_7_cif.got.tgz:13159.got - 2010.06.03 11:52:47.
