data_PCOD9405886
_publ_section_title
;
Structure prediction by ZEFSAII (Michael W. Deem and Ramdas Pophale) SiO2 
 PCOD9405886
Probable space group: P M M A
;
_chemical_formula_sum "Si O2"
_cell_formula_units_Z 36
_cell_length_a 8.718303
_cell_length_b 12.943136
_cell_length_c 20.608415
_cell_angle_alpha 90.000000
_cell_angle_beta 90.000000
_cell_angle_gamma 90.000000
_cell_volume 2325.498504
_symmetry_space_group_name_H-M "P M M A"
_symmetry_group_IT_number 51
_symmetry_cell_setting 'orthorhombic'
loop_
_space_group_symop_operation_xyz
x,y,z
1/2-x,-y,z
1/2+x,-y,-z
-x,y,-z
-x,-y,-z
1/2+x,y,-z
1/2-x,y,z
x,-y,z
loop_
_atom_site_type_symbol
_atom_site_label
_atom_site_fract_x
_atom_site_fract_y
_atom_site_fract_z
Si Si1 0.565988 0.000000 0.072831
Si Si2 0.063061 0.879882 0.291564
Si Si3 0.933333 0.379641 0.071407
Si Si4 0.065367 0.194813 0.152052
Si Si5 0.570870 0.125432 0.567327
O O1 0.505588 0.100786 0.110801
O O2 0.750000 0.000000 0.070845
O O3 0.500000 0.000000 0.000000
O O4 0.250000 0.879642 0.294377
O O5 0.018197 0.818857 0.227262
O O6 0.007823 0.841310 0.362177
O O7 0.017172 0.000000 0.283318
O O8 0.750000 0.366138 0.070309
O O9 0.967095 0.500000 0.085695
O O10 0.008208 0.301492 0.121851
O O11 0.000000 0.356792 0.000000
O O12 0.250000 0.187635 0.148335
O O13 0.500000 0.162953 0.500000
O O14 0.750000 0.150396 0.565363
O O15 0.557239 0.000000 0.568101
#
# Coordination Sequence:
#
# PCOD9405886 Si02
#       5
#     4   8   8   8   8
#     4  12  24  36  48  66  93 124 157 190 229 278
#     4   8  14  26  43  62  88 122 154 182 222 269
#     4  10  21  37  54  71  92 118 151 193 239 283
#     4  11  20  33  52  71  93 122 157 193 231 277
#     4   8  13  22  37  56  81 115 152 185 214 254
#
# _framework density 15.480551999999999
#
# number of rings (size 3 to 8) (size 9 to 14) (size 15 to 20)
#    0.000    2.444    1.111    4.333    0.000    1.333 
#    0.000    2.222    0.000    0.000    0.000    0.000 
#    0.000    0.889    0.000    2.000    0.000    3.556 
#
# Total GULP energy -200601.647270 kJ/mol
# GULP energy per Si atom -5572.267980 kJ/mol
# Density = 1.544532 g / cm^3
# Si number density = 15.480552 Si / 1000 Ang^3
#
#
#
# Elastic Constant Matrix: (Units=GPa)
#
#
# Indices 1 2 3 4 5 6 
#
# 1 50.2022 27.5462 52.7211 0.0000 0.0000 0.0000
# 2 27.5462 53.7375 66.3697 0.0000 0.0000 0.0000
# 3 52.7211 66.3697 190.7030 0.0000 0.0000 0.0000
# 4 0.0000 0.0000 0.0000 12.7698 0.0000 0.0000
# 5 0.0000 0.0000 0.0000 0.0000 23.1911 0.0000
# 6 0.0000 0.0000 0.0000 0.0000 0.0000 15.3393
#
#
#
# Elastic Compliance Matrix: (Units=1/GPa)
#
#
# Indices 1 2 3 4 5 6 
#
# 1 0.030427 -0.009134 -0.005233 0.000000 0.000000 0.000000
# 2 -0.009134 0.035380 -0.009788 0.000000 0.000000 0.000000
# 3 -0.005233 -0.009788 0.010097 0.000000 0.000000 0.000000
# 4 0.000000 0.000000 0.000000 0.078310 0.000000 0.000000
# 5 0.000000 0.000000 0.000000 0.000000 0.043120 0.000000
# 6 0.000000 0.000000 0.000000 0.000000 0.000000 0.065192
#
#
# Mechanical properties :
#
#
# Convention : Reuss Voigt Hill
#
# Bulk Modulus (GPa) = 36.23988 65.32407 50.78197
# Shear Modulus (GPa) = 15.62337 20.12709 17.87523
#
# Velocity S-wave (km/s) = 3.18028 3.60968 3.40176
# Velocity P-wave (km/s) = 6.07835 7.72413 6.95012
#
# Compressibility (1/GPa) = 0.02759391
#
# Stress axis : x y z
#
# Youngs Moduli (GPa) = 32.86593 28.26445 99.04051
#
# Poissons Ratio (x) = 0.25817 0.51825
# Poissons Ratio (y) = 0.30020 0.96941
# Poissons Ratio (z) = 0.17198 0.27665
#
# Static dielectric constant tensor:
#      x y z
#    x 1.527250 0.000000 0.000000 
#    y 0.000000 1.486180 0.000000 
#    z 0.000000 0.000000 1.546540 
# 
# From -- ./inp_files/31298.got.cif
#   From: 2010.05.17/outbox.cif.g08.bks.cpg/sg51_16_cif.got.tgz:31298.got - 2010.06.03 11:52:47.
