data_PCOD9405888
_publ_section_title
;
Structure prediction by ZEFSAII (Michael W. Deem and Ramdas Pophale) SiO2 
 PCOD9405888
Probable space group: P M M A
;
_chemical_formula_sum "Si O2"
_cell_formula_units_Z 52
_cell_length_a 8.561081
_cell_length_b 13.894090
_cell_length_c 24.620294
_cell_angle_alpha 90.000000
_cell_angle_beta 90.000000
_cell_angle_gamma 90.000000
_cell_volume 2928.545315
_symmetry_space_group_name_H-M "P M M A"
_symmetry_group_IT_number 51
_symmetry_cell_setting 'orthorhombic'
loop_
_space_group_symop_operation_xyz
x,y,z
1/2-x,-y,z
1/2+x,-y,-z
-x,y,-z
-x,-y,-z
1/2+x,y,-z
1/2-x,y,z
x,-y,z
loop_
_atom_site_type_symbol
_atom_site_label
_atom_site_fract_x
_atom_site_fract_y
_atom_site_fract_z
Si Si1 0.440652 0.392622 0.355008
Si Si2 0.434793 0.000000 0.560686
Si Si3 0.062912 0.887796 0.940607
Si Si4 0.929797 0.112777 0.271576
Si Si5 0.566734 0.186844 0.621504
Si Si6 0.437531 0.202741 0.167201
Si Si7 0.560264 0.393803 0.771477
O O1 0.250000 0.391234 0.355605
O O2 0.489054 0.500000 0.373548
O O3 0.492001 0.296637 0.386952
O O4 0.488427 0.382709 0.291551
O O5 0.500000 0.000000 0.500000
O O6 0.488681 0.901919 0.590408
O O7 0.750000 0.000000 0.440069
O O8 0.250000 0.882609 0.940255
O O9 0.994726 0.823537 0.892496
O O10 0.017435 0.000000 0.931210
O O11 0.000000 0.860598 0.000000
O O12 0.750000 0.145070 0.277396
O O13 0.038316 0.166506 0.314661
O O14 0.988779 0.130039 0.210909
O O15 0.935274 0.000000 0.284354
O O16 0.750000 0.183624 0.609185
O O17 0.250000 0.197054 0.169379
O O18 0.488930 0.307184 0.189833
O O19 0.750000 0.392527 0.770718
O O20 0.510245 0.500000 0.789867
#
# Coordination Sequence:
#
# PCOD9405888 Si02
#       7
#     8   4   8   8   8   8   8
#     4   8  14  27  50  81 114 146 182 224 271 323
#     4  12  26  44  62  84 114 152 191 232 275 324
#     4  10  21  37  54  72  97 131 170 214 264 319
#     4  11  22  33  46  71 110 149 178 216 269 321
#     4  11  20  34  58  85 112 146 186 228 272 325
#     4  11  20  31  51  77 102 135 176 219 265 321
#     4   8  14  26  45  72 105 138 173 213 258 311
#
# _framework density 17.756257000000002
#
# number of rings (size 3 to 8) (size 9 to 14) (size 15 to 20)
#    0.000    2.000    2.308    3.923    0.000    3.692 
#    0.000    0.000    0.000    5.538    0.000    0.000 
#    0.000    0.000    0.000    0.000    0.000    0.000 
#
# Total GULP energy -289994.197384 kJ/mol
# GULP energy per Si atom -5576.811488 kJ/mol
# Density = 1.771584 g / cm^3
# Si number density = 17.756257 Si / 1000 Ang^3
#
#
#
# Elastic Constant Matrix: (Units=GPa)
#
#
# Indices 1 2 3 4 5 6 
#
# 1 41.1392 31.5438 12.1177 0.0000 0.0000 0.0000
# 2 31.5438 142.7744 45.0581 0.0000 0.0000 0.0000
# 3 12.1177 45.0581 62.2883 0.0000 0.0000 0.0000
# 4 0.0000 0.0000 0.0000 13.0332 0.0000 0.0000
# 5 0.0000 0.0000 0.0000 0.0000 26.6453 0.0000
# 6 0.0000 0.0000 0.0000 0.0000 0.0000 -1.3396
#
#
#
# Elastic Compliance Matrix: (Units=1/GPa)
#
#
# Indices 1 2 3 4 5 6 
#
# 1 0.029349 -0.006067 -0.001321 0.000000 0.000000 0.000000
# 2 -0.006067 0.010330 -0.006292 0.000000 0.000000 0.000000
# 3 -0.001321 -0.006292 0.020863 0.000000 0.000000 0.000000
# 4 0.000000 0.000000 0.000000 0.076727 0.000000 0.000000
# 5 0.000000 0.000000 0.000000 0.000000 0.037530 0.000000
# 6 0.000000 0.000000 0.000000 0.000000 0.000000 -0.746517
#
#
# Mechanical properties :
#
#
# Convention : Reuss Voigt Hill
#
# Bulk Modulus (GPa) = 30.13716 47.07122 38.60419
# Shear Modulus (GPa) = -9.37566 18.16662 4.39548
#
# Velocity S-wave (km/s) = -2.30036 3.20208 1.57507
# Velocity P-wave (km/s) = 3.15500 6.34337 5.00961
#
# Compressibility (1/GPa) = 0.03318163
#
# Stress axis : x y z
#
# Youngs Moduli (GPa) = 34.07279 96.80185 47.93159
#
# Poissons Ratio (x) = 0.58734 0.06329
# Poissons Ratio (y) = 0.20673 0.30161
# Poissons Ratio (z) = 0.04499 0.60912
#
# Static dielectric constant tensor:
#      x y z
#    x 1.605690 0.000000 0.000000 
#    y 0.000000 1.654370 0.000000 
#    z 0.000000 0.000000 1.971760 
# 
# From -- ./inp_files/31723.got.cif
#   From: 2010.05.17/outbox.cif.g08.bks.cpg/sg51_16_cif.got.tgz:31723.got - 2010.06.03 11:52:47.
