data_PCOD9405874
_publ_section_title
;
Structure prediction by ZEFSAII (Michael W. Deem and Ramdas Pophale) SiO2 
 PCOD9405874
Probable space group: P M M A
;
_chemical_formula_sum "Si O2"
_cell_formula_units_Z 64
_cell_length_a 16.082088
_cell_length_b 22.492038
_cell_length_c 8.719029
_cell_angle_alpha 90.000000
_cell_angle_beta 90.000000
_cell_angle_gamma 90.000000
_cell_volume 3153.837879
_symmetry_space_group_name_H-M "P M M A"
_symmetry_group_IT_number 51
_symmetry_cell_setting 'orthorhombic'
loop_
_space_group_symop_operation_xyz
x,y,z
1/2-x,-y,z
1/2+x,-y,-z
-x,y,-z
-x,-y,-z
1/2+x,y,-z
1/2-x,y,z
x,-y,z
loop_
_atom_site_type_symbol
_atom_site_label
_atom_site_fract_x
_atom_site_fract_y
_atom_site_fract_z
Si Si1 0.480729 0.103566 0.166427
Si Si2 0.159099 0.750364 0.791952
Si Si3 0.989217 0.569755 0.817198
Si Si4 0.578650 0.237878 0.898832
Si Si5 0.916254 0.846789 0.402176
Si Si6 0.150191 0.658763 0.309558
Si Si7 0.654191 0.623019 0.332979
Si Si8 0.660134 0.064621 0.618359
O O1 0.447790 0.172178 0.153565
O O2 0.564709 0.108917 0.262616
O O3 0.412690 0.068560 0.259627
O O4 0.500000 0.080541 0.000000
O O5 0.250000 0.768331 0.739371
O O6 0.100235 0.783586 0.673372
O O7 0.151667 0.680072 0.777828
O O8 0.145905 0.768566 0.966725
O O9 0.971835 0.500000 0.795288
O O10 0.910511 0.608411 0.760871
O O11 0.074614 0.585017 0.723169
O O12 0.000000 0.580455 0.000000
O O13 0.611996 0.280351 0.763741
O O14 0.500000 0.262900 0.000000
O O15 0.849796 0.878955 0.507855
O O16 0.000000 0.843719 0.500000
O O17 0.250000 0.655080 0.272470
O O18 0.143914 0.648753 0.493716
O O19 0.750000 0.597797 0.324402
O O20 0.750000 0.067685 0.694017
O O21 0.653561 0.000000 0.538744
#
# Coordination Sequence:
#
# PCOD9405874 Si02
#       8
#     8   8   8   8   8   8   8   8
#     4  10  21  39  60  89 120 158 204 256 315 374
#     4  11  21  35  57  87 122 159 199 248 308 371
#     4  11  25  44  67  92 122 167 215 264 315 368
#     4  11  21  37  59  88 128 165 202 252 314 378
#     4  10  21  36  60  86 118 161 204 249 303 364
#     4  11  24  40  62  94 128 167 210 258 318 377
#     4  10  24  41  62  94 128 165 209 260 317 377
#     4  10  23  42  62  86 120 162 208 260 314 371
#
# _framework density 20.292736000000001
#
# number of rings (size 3 to 8) (size 9 to 14) (size 15 to 20)
#    0.000    1.500    2.500    3.000    3.500    6.500 
#    0.000    2.500    0.000    1.500    0.000    0.000 
#    0.000    0.000    0.000    0.000    0.000    0.000 
#
# Total GULP energy -356778.476896 kJ/mol
# GULP energy per Si atom -5574.663701 kJ/mol
# Density = 2.024655 g / cm^3
# Si number density = 20.292736 Si / 1000 Ang^3
#
#
#
# Elastic Constant Matrix: (Units=GPa)
#
#
# Indices 1 2 3 4 5 6 
#
# 1 77.7973 21.8056 1.8541 0.0000 0.0000 0.0000
# 2 21.8056 64.2759 8.9535 0.0000 0.0000 0.0000
# 3 1.8541 8.9535 61.0087 0.0000 0.0000 0.0000
# 4 0.0000 0.0000 0.0000 14.5310 0.0000 0.0000
# 5 0.0000 0.0000 0.0000 0.0000 14.2526 0.0000
# 6 0.0000 0.0000 0.0000 0.0000 0.0000 19.2645
#
#
#
# Elastic Compliance Matrix: (Units=1/GPa)
#
#
# Indices 1 2 3 4 5 6 
#
# 1 0.014209 -0.004860 0.000281 0.000000 0.000000 0.000000
# 2 -0.004860 0.017545 -0.002427 0.000000 0.000000 0.000000
# 3 0.000281 -0.002427 0.016739 0.000000 0.000000 0.000000
# 4 0.000000 0.000000 0.000000 0.068818 0.000000 0.000000
# 5 0.000000 0.000000 0.000000 0.000000 0.070163 0.000000
# 6 0.000000 0.000000 0.000000 0.000000 0.000000 0.051909
#
#
# Mechanical properties :
#
#
# Convention : Reuss Voigt Hill
#
# Bulk Modulus (GPa) = 29.00078 29.81203 29.40641
# Shear Modulus (GPa) = 18.87594 20.97420 19.92507
#
# Velocity S-wave (km/s) = 3.05320 3.21842 3.13690
# Velocity P-wave (km/s) = 5.17219 5.34171 5.25764
#
# Compressibility (1/GPa) = 0.03448183
#
# Stress axis : x y z
#
# Youngs Moduli (GPa) = 70.37631 56.99727 59.74161
#
# Poissons Ratio (x) = 0.27699 -0.01681
# Poissons Ratio (y) = 0.34201 0.14500
# Poissons Ratio (z) = -0.01980 0.13834
#
# Static dielectric constant tensor:
#      x y z
#    x 1.793340 0.000000 0.000000 
#    y 0.000000 1.711050 0.000000 
#    z 0.000000 0.000000 1.741970 
# 
# From -- ./inp_files/8700.got.cif
#   From: 2010.05.17/outbox.cif.g08.bks.cpg/sg51_5_cif.got.tgz:8700.got - 2010.06.03 11:52:47.
