data_PCOD9405869
_publ_section_title
;
Structure prediction by ZEFSAII (Michael W. Deem and Ramdas Pophale) SiO2 
 PCOD9405869
Probable space group: P M M A
;
_chemical_formula_sum "Si O2"
_cell_formula_units_Z 40
_cell_length_a 16.302237
_cell_length_b 7.740883
_cell_length_c 14.363591
_cell_angle_alpha 90.000000
_cell_angle_beta 90.000000
_cell_angle_gamma 90.000000
_cell_volume 1812.594827
_symmetry_space_group_name_H-M "P M M A"
_symmetry_group_IT_number 51
_symmetry_cell_setting 'orthorhombic'
loop_
_space_group_symop_operation_xyz
x,y,z
1/2-x,-y,z
1/2+x,-y,-z
-x,y,-z
-x,-y,-z
1/2+x,y,-z
1/2-x,y,z
x,-y,z
loop_
_atom_site_type_symbol
_atom_site_label
_atom_site_fract_x
_atom_site_fract_y
_atom_site_fract_z
Si Si1 0.250000 0.208194 0.742633
Si Si2 0.418880 0.211986 0.056422
Si Si3 0.157337 0.790596 0.453183
Si Si4 0.750000 0.210442 0.042260
Si Si5 0.581592 0.303428 0.357193
Si Si6 0.080166 0.196677 0.266885
O O1 0.250000 0.263026 0.850090
O O2 0.331537 0.272098 0.692041
O O3 0.250000 0.000000 0.737852
O O4 0.419923 0.272465 0.163609
O O5 0.421084 0.000000 0.056560
O O6 0.500000 0.267534 0.000000
O O7 0.333977 0.265406 0.007764
O O8 0.250000 0.737363 0.476638
O O9 0.096324 0.733719 0.534267
O O10 0.132799 0.724917 0.351048
O O11 0.154857 0.000000 0.451863
O O12 0.750000 0.000000 0.040754
O O13 0.555661 0.500000 0.345073
O O14 0.511686 0.193313 0.307673
O O15 0.110907 0.000000 0.255636
#
# Coordination Sequence:
#
# PCOD9405869 Si02
#       6
#     4   8   8   4   8   8
#     4  11  21  37  62  87 114 150 193 243 296 345
#     4   9  17  31  53  86 121 150 188 240 294 345
#     4  10  21  37  58  85 117 154 194 239 289 344
#     4   9  18  31  56  89 118 146 187 245 302 347
#     4  12  24  38  57  84 116 154 196 240 290 345
#     4  10  21  36  59  86 118 155 194 236 288 345
#
# _framework density 22.067812
#
# number of rings (size 3 to 8) (size 9 to 14) (size 15 to 20)
#    0.000    1.800    1.000    3.900    1.400    6.400 
#    0.000    0.000    0.000    6.600    0.000    0.000 
#    0.000    0.000    0.000    0.000    0.000    0.000 
#
# Total GULP energy -223586.175186 kJ/mol
# GULP energy per Si atom -5589.654380 kJ/mol
# Density = 2.201759 g / cm^3
# Si number density = 22.067812 Si / 1000 Ang^3
#
#
#
# Elastic Constant Matrix: (Units=GPa)
#
#
# Indices 1 2 3 4 5 6 
#
# 1 111.5815 -6.1791 54.6393 0.0000 0.0000 0.0000
# 2 -6.1791 51.1773 6.0062 0.0000 0.0000 0.0000
# 3 54.6393 6.0062 193.5810 0.0000 0.0000 0.0000
# 4 0.0000 0.0000 0.0000 -87.5551 0.0000 0.0000
# 5 0.0000 0.0000 0.0000 0.0000 47.2474 0.0000
# 6 0.0000 0.0000 0.0000 0.0000 0.0000 -8.5606
#
#
#
# Elastic Compliance Matrix: (Units=1/GPa)
#
#
# Indices 1 2 3 4 5 6 
#
# 1 0.010533 0.001627 -0.003023 0.000000 0.000000 0.000000
# 2 0.001627 0.019862 -0.001075 0.000000 0.000000 0.000000
# 3 -0.003023 -0.001075 0.006053 0.000000 0.000000 0.000000
# 4 0.000000 0.000000 0.000000 -0.011421 0.000000 0.000000
# 5 0.000000 0.000000 0.000000 0.000000 0.021165 0.000000
# 6 0.000000 0.000000 0.000000 0.000000 0.000000 -0.116814
#
#
# Mechanical properties :
#
#
# Convention : Reuss Voigt Hill
#
# Bulk Modulus (GPa) = 31.74280 51.69696 41.71988
# Shear Modulus (GPa) = -90.61646 10.35124 -40.13261
#
# Velocity S-wave (km/s) = -6.41497 2.16814 -4.26914
# Velocity P-wave (km/s) = 6.36032 5.45390 2.31395
#
# Compressibility (1/GPa) = 0.03150321
#
# Stress axis : x y z
#
# Youngs Moduli (GPa) = 94.94331 50.34617 165.22056
#
# Poissons Ratio (x) = -0.08189 0.49952
# Poissons Ratio (y) = -0.15443 0.17767
# Poissons Ratio (z) = 0.28705 0.05414
#
# Static dielectric constant tensor:
#      x y z
#    x 1.777610 0.000000 0.000000 
#    y 0.000000 1.826470 0.000000 
#    z 0.000000 0.000000 1.785570 
# 
# From -- ./inp_files/23731.got.cif
#   From: 2010.05.17/outbox.cif.g08.bks.cpg/sg51_12_cif.got.tgz:23731.got - 2010.06.03 11:52:47.
