data_PCOD9405256
_publ_section_title
;
Structure prediction by ZEFSAII (Michael W. Deem and Ramdas Pophale) SiO2 
 PCOD9405256
Probable space group: P M M A
;
_chemical_formula_sum "Si O2"
_cell_formula_units_Z 48
_cell_length_a 19.563146
_cell_length_b 8.985063
_cell_length_c 15.378558
_cell_angle_alpha 90.000000
_cell_angle_beta 90.000000
_cell_angle_gamma 90.000000
_cell_volume 2703.182938
_symmetry_space_group_name_H-M "P M M A"
_symmetry_group_IT_number 51
_symmetry_cell_setting 'orthorhombic'
loop_
_space_group_symop_operation_xyz
x,y,z
1/2-x,-y,z
1/2+x,-y,-z
-x,y,-z
-x,-y,-z
1/2+x,y,-z
1/2-x,y,z
x,-y,z
loop_
_atom_site_type_symbol
_atom_site_label
_atom_site_fract_x
_atom_site_fract_y
_atom_site_fract_z
Si Si1 0.091692 0.178440 0.728941
Si Si2 0.669541 0.321821 0.429210
Si Si3 0.923941 0.821232 0.964328
Si Si4 0.169726 0.678053 0.891631
Si Si5 0.328726 0.320779 0.369968
Si Si6 0.934467 0.179026 0.763007
O O1 0.123058 0.236578 0.639091
O O2 0.134245 0.249316 0.807784
O O3 0.012218 0.221186 0.739377
O O4 0.096217 0.000000 0.734278
O O5 0.750000 0.291665 0.412468
O O6 0.659947 0.500000 0.419866
O O7 0.655340 0.281441 0.529607
O O8 0.920201 0.779046 0.863122
O O9 0.914747 0.000000 0.971712
O O10 0.868879 0.739820 0.023823
O O11 0.000000 0.787845 0.000000
O O12 0.250000 0.715071 0.893587
O O13 0.162908 0.500000 0.886908
O O14 0.250000 0.276313 0.352506
O O15 0.331795 0.500000 0.364348
O O16 0.380902 0.249973 0.302844
O O17 0.930002 0.000000 0.757736
#
# Coordination Sequence:
#
# PCOD9405256 Si02
#       6
#     8   8   8   8   8   8
#     4  11  22  37  57  84 117 151 189 233 283 339
#     4   9  19  37  58  81 113 151 190 234 283 334
#     4  10  20  40  62  80 111 152 191 231 281 338
#     4  11  24  39  57  86 119 149 188 237 284 336
#     4   9  20  39  60  82 112 150 190 234 283 337
#     4  10  22  38  58  84 114 148 187 234 283 334
#
# _framework density 17.756844000000001
#
# number of rings (size 3 to 8) (size 9 to 14) (size 15 to 20)
#    0.000    2.000    1.667    2.500    0.000    8.333 
#    0.000    8.333    0.000    0.000    0.000    0.000 
#    0.000    0.000    0.000    0.000    0.000    0.000 
#
# Total GULP energy -268089.238540 kJ/mol
# GULP energy per Si atom -5585.192470 kJ/mol
# Density = 1.771643 g / cm^3
# Si number density = 17.756844 Si / 1000 Ang^3
#
#
#
# Elastic Constant Matrix: (Units=GPa)
#
#
# Indices 1 2 3 4 5 6 
#
# 1 167.7051 68.7233 131.3423 0.0000 0.0000 0.0000
# 2 68.7233 39.6336 63.4233 0.0000 0.0000 0.0000
# 3 131.3423 63.4233 177.4053 0.0000 0.0000 0.0000
# 4 0.0000 0.0000 0.0000 38.9838 0.0000 0.0000
# 5 0.0000 0.0000 0.0000 0.0000 36.7282 0.0000
# 6 0.0000 0.0000 0.0000 0.0000 0.0000 36.1105
#
#
#
# Elastic Compliance Matrix: (Units=1/GPa)
#
#
# Indices 1 2 3 4 5 6 
#
# 1 0.023515 -0.030182 -0.006619 0.000000 0.000000 0.000000
# 2 -0.030182 0.097703 -0.012584 0.000000 0.000000 0.000000
# 3 -0.006619 -0.012584 0.015036 0.000000 0.000000 0.000000
# 4 0.000000 0.000000 0.000000 0.025652 0.000000 0.000000
# 5 0.000000 0.000000 0.000000 0.000000 0.027227 0.000000
# 6 0.000000 0.000000 0.000000 0.000000 0.000000 0.027693
#
#
# Mechanical properties :
#
#
# Convention : Reuss Voigt Hill
#
# Bulk Modulus (GPa) = 26.67819 101.30242 63.99030
# Shear Modulus (GPa) = 15.23973 30.44817 22.84395
#
# Velocity S-wave (km/s) = 2.93276 4.14542 3.59065
# Velocity P-wave (km/s) = 5.15023 8.94910 7.30107
#
# Compressibility (1/GPa) = 0.03748380
#
# Stress axis : x y z
#
# Youngs Moduli (GPa) = 42.52642 10.23513 66.50614
#
# Poissons Ratio (x) = 0.30891 0.44021
# Poissons Ratio (y) = 1.28352 0.83693
# Poissons Ratio (z) = 0.28149 0.12880
#
# Static dielectric constant tensor:
#      x y z
#    x 1.581160 0.000000 0.000000 
#    y 0.000000 1.592820 0.000000 
#    z 0.000000 0.000000 1.585550 
# 
# From -- ./inp_files/24672.got.cif
#   From: 2010.05.17/outbox.cif.g08.bks.cpg/sg51_13_cif.got.tgz:24672.got - 2010.06.03 11:52:47.
