data_PCOD9405054
_publ_section_title
;
Structure prediction by ZEFSAII (Michael W. Deem and Ramdas Pophale) SiO2 
 PCOD9405054
Probable space group: P M M A
;
_chemical_formula_sum "Si O2"
_cell_formula_units_Z 64
_cell_length_a 15.504945
_cell_length_b 8.038446
_cell_length_c 24.583854
_cell_angle_alpha 90.000000
_cell_angle_beta 90.000000
_cell_angle_gamma 90.000000
_cell_volume 3064.024945
_symmetry_space_group_name_H-M "P M M A"
_symmetry_group_IT_number 51
_symmetry_cell_setting 'orthorhombic'
loop_
_space_group_symop_operation_xyz
x,y,z
1/2-x,-y,z
1/2+x,-y,-z
-x,y,-z
-x,-y,-z
1/2+x,y,-z
1/2-x,y,z
x,-y,z
loop_
_atom_site_type_symbol
_atom_site_label
_atom_site_fract_x
_atom_site_fract_y
_atom_site_fract_z
Si Si1 0.344600 0.798420 0.239215
Si Si2 0.648933 0.297306 0.510106
Si Si3 0.019112 0.303851 0.705502
Si Si4 0.378860 0.189226 0.119230
Si Si5 0.942002 0.315440 0.105323
Si Si6 0.987076 0.296992 0.417738
Si Si7 0.845529 0.194223 0.205214
Si Si8 0.849095 0.803616 0.000678
O O1 0.250000 0.759084 0.261460
O O2 0.422741 0.724813 0.272827
O O3 0.349251 0.738101 0.176462
O O4 0.354402 0.000000 0.237977
O O5 0.750000 0.241494 0.512717
O O6 0.652219 0.500000 0.510806
O O7 0.580693 0.246294 0.557586
O O8 0.593670 0.248491 0.456234
O O9 0.037602 0.500000 0.705136
O O10 0.084566 0.223855 0.748186
O O11 0.025567 0.239734 0.643913
O O12 0.482026 0.190592 0.120169
O O13 0.345911 0.000000 0.117629
O O14 0.355454 0.264383 0.060739
O O15 0.978833 0.500000 0.109678
O O16 0.869357 0.292501 0.150661
O O17 0.907626 0.283653 0.045130
O O18 0.988321 0.500000 0.418050
O O19 0.750000 0.240072 0.224551
O O20 0.846057 0.000000 0.190550
O O21 0.750000 0.791968 0.018337
O O22 0.873198 0.000000 0.999279
#
# Coordination Sequence:
#
# PCOD9405054 Si02
#       8
#     8   8   8   8   8   8   8   8
#     4  10  21  38  60  83 110 151 199 240 280 335
#     4   8  13  25  46  71 106 153 193 224 265 322
#     4  11  22  36  56  86 122 153 185 236 295 342
#     4  10  20  37  60  81 106 143 189 234 278 336
#     4  12  24  37  56  83 113 143 179 229 293 352
#     4   8  16  28  44  74 113 149 187 227 273 331
#     4  11  24  42  62  81 106 148 198 242 285 342
#     4  10  21  37  57  81 107 140 185 231 277 338
#
# _framework density 20.887557999999999
#
# number of rings (size 3 to 8) (size 9 to 14) (size 15 to 20)
#    0.000    2.000    1.250    3.750    0.000    7.500 
#    0.000    2.500    0.000    2.250    0.000    7.000 
#    0.000   12.000    0.000    0.000    0.000    0.000 
#
# Total GULP energy -357222.379977 kJ/mol
# GULP energy per Si atom -5581.599687 kJ/mol
# Density = 2.084002 g / cm^3
# Si number density = 20.887558 Si / 1000 Ang^3
#
#
#
# Elastic Constant Matrix: (Units=GPa)
#
#
# Indices 1 2 3 4 5 6 
#
# 1 104.9941 5.9840 6.7097 0.0000 0.0000 0.0000
# 2 5.9840 33.1724 3.2474 0.0000 0.0000 0.0000
# 3 6.7097 3.2474 79.0054 0.0000 0.0000 0.0000
# 4 0.0000 0.0000 0.0000 20.8723 0.0000 0.0000
# 5 0.0000 0.0000 0.0000 0.0000 33.4408 0.0000
# 6 0.0000 0.0000 0.0000 0.0000 0.0000 -2.9379
#
#
#
# Elastic Compliance Matrix: (Units=1/GPa)
#
#
# Indices 1 2 3 4 5 6 
#
# 1 0.009668 -0.001670 -0.000752 0.000000 0.000000 0.000000
# 2 -0.001670 0.030556 -0.001114 0.000000 0.000000 0.000000
# 3 -0.000752 -0.001114 0.012767 0.000000 0.000000 0.000000
# 4 0.000000 0.000000 0.000000 0.047910 0.000000 0.000000
# 5 0.000000 0.000000 0.000000 0.000000 0.029904 0.000000
# 6 0.000000 0.000000 0.000000 0.000000 0.000000 -0.340375
#
#
# Mechanical properties :
#
#
# Convention : Reuss Voigt Hill
#
# Bulk Modulus (GPa) = 21.77843 27.67269 24.72556
# Shear Modulus (GPa) = -26.71069 23.69041 -1.51014
#
# Velocity S-wave (km/s) = -3.57989 3.37142 -0.85121
# Velocity P-wave (km/s) = 2.57650 5.33221 3.30107
#
# Compressibility (1/GPa) = 0.04591699
#
# Stress axis : x y z
#
# Youngs Moduli (GPa) = 103.43802 32.72690 78.32661
#
# Poissons Ratio (x) = 0.05466 0.05893
# Poissons Ratio (y) = 0.17277 0.08726
# Poissons Ratio (z) = 0.07783 0.03646
#
# Static dielectric constant tensor:
#      x y z
#    x 1.748910 0.000000 0.000000 
#    y 0.000000 1.764040 0.000000 
#    z 0.000000 0.000000 1.739060 
# 
# From -- ./inp_files/35707.got.cif
#   From: 2010.05.17/outbox.cif.g08.bks.cpg/sg51_18_cif.got.tgz:35707.got - 2010.06.03 11:52:47.
