data_PCOD9405270
_publ_section_title
;
Structure prediction by ZEFSAII (Michael W. Deem and Ramdas Pophale) SiO2 
 PCOD9405270
Probable space group: P M M A
;
_chemical_formula_sum "Si O2"
_cell_formula_units_Z 48
_cell_length_a 28.768112
_cell_length_b 8.715982
_cell_length_c 10.393909
_cell_angle_alpha 90.000000
_cell_angle_beta 90.000000
_cell_angle_gamma 90.000000
_cell_volume 2606.193131
_symmetry_space_group_name_H-M "P M M A"
_symmetry_group_IT_number 51
_symmetry_cell_setting 'orthorhombic'
loop_
_space_group_symop_operation_xyz
x,y,z
1/2-x,-y,z
1/2+x,-y,-z
-x,y,-z
-x,-y,-z
1/2+x,y,-z
1/2-x,y,z
x,-y,z
loop_
_atom_site_type_symbol
_atom_site_label
_atom_site_fract_x
_atom_site_fract_y
_atom_site_fract_z
Si Si1 0.250000 0.685493 0.091881
Si Si2 0.344125 0.315754 0.494254
Si Si3 0.147668 0.314576 0.004577
Si Si4 0.392834 0.815842 0.742009
Si Si5 0.089667 0.684560 0.257852
Si Si6 0.250000 0.182950 0.380077
Si Si7 0.504818 0.184904 0.350791
O O1 0.250000 0.500000 0.105174
O O2 0.298089 0.729070 0.021975
O O3 0.250000 0.755636 0.234117
O O4 0.341267 0.500000 0.496665
O O5 0.360561 0.252823 0.630587
O O6 0.381757 0.270502 0.385476
O O7 0.295350 0.246968 0.450736
O O8 0.145956 0.500000 0.995422
O O9 0.118929 0.268682 0.132261
O O10 0.124449 0.243072 0.879261
O O11 0.445716 0.767780 0.708202
O O12 0.390955 0.000000 0.737869
O O13 0.086525 0.500000 0.256152
O O14 0.038480 0.753094 0.269823
O O15 0.250000 0.000000 0.380265
O O16 0.500000 0.236720 0.500000
O O17 0.503061 0.000000 0.351218
#
# Coordination Sequence:
#
# PCOD9405270 Si02
#       7
#     4   8   8   8   8   4   8
#     4  10  20  41  66  87 120 162 206 246 298 365
#     4  11  22  40  64  90 121 159 202 251 302 356
#     4  10  22  41  63  89 122 162 205 253 307 369
#     4  11  24  41  60  89 126 163 203 254 311 368
#     4  10  21  37  63  92 117 154 206 254 298 359
#     4  12  24  37  62  97 126 156 200 254 304 359
#     4  10  21  38  60  86 122 163 202 250 312 370
#
# _framework density 18.417669
#
# number of rings (size 3 to 8) (size 9 to 14) (size 15 to 20)
#    0.000    1.500    3.333    1.750    0.000    5.000 
#    0.000    5.833    0.000    0.000    0.000    0.000 
#    0.000    0.000    0.000    0.000    0.000    0.000 
#
# Total GULP energy -268232.067335 kJ/mol
# GULP energy per Si atom -5588.168069 kJ/mol
# Density = 1.837575 g / cm^3
# Si number density = 18.417669 Si / 1000 Ang^3
#
#
#
# Elastic Constant Matrix: (Units=GPa)
#
#
# Indices 1 2 3 4 5 6 
#
# 1 148.1467 29.5844 53.8700 0.0000 0.0000 0.0000
# 2 29.5844 22.6311 25.2294 0.0000 0.0000 0.0000
# 3 53.8700 25.2294 120.7151 0.0000 0.0000 0.0000
# 4 0.0000 0.0000 0.0000 28.8966 0.0000 0.0000
# 5 0.0000 0.0000 0.0000 0.0000 30.6177 0.0000
# 6 0.0000 0.0000 0.0000 0.0000 0.0000 26.2950
#
#
#
# Elastic Compliance Matrix: (Units=1/GPa)
#
#
# Indices 1 2 3 4 5 6 
#
# 1 0.009546 -0.010078 -0.002154 0.000000 0.000000 0.000000
# 2 -0.010078 0.068249 -0.009767 0.000000 0.000000 0.000000
# 3 -0.002154 -0.009767 0.011286 0.000000 0.000000 0.000000
# 4 0.000000 0.000000 0.000000 0.034606 0.000000 0.000000
# 5 0.000000 0.000000 0.000000 0.000000 0.032661 0.000000
# 6 0.000000 0.000000 0.000000 0.000000 0.000000 0.038030
#
#
# Mechanical properties :
#
#
# Convention : Reuss Voigt Hill
#
# Bulk Modulus (GPa) = 22.18039 56.54005 39.36022
# Shear Modulus (GPa) = 19.73148 29.34915 24.54032
#
# Velocity S-wave (km/s) = 3.27668 3.99624 3.65421
# Velocity P-wave (km/s) = 5.13660 7.21517 6.26272
#
# Compressibility (1/GPa) = 0.04508486
#
# Stress axis : x y z
#
# Youngs Moduli (GPa) = 104.75992 14.65224 88.60322
#
# Poissons Ratio (x) = 0.14766 0.19081
# Poissons Ratio (y) = 1.05573 0.86537
# Poissons Ratio (z) = 0.22561 0.14311
#
# Static dielectric constant tensor:
#      x y z
#    x 1.623490 0.000000 0.000000 
#    y 0.000000 1.620930 0.000000 
#    z 0.000000 0.000000 1.599550 
# 
# From -- ./inp_files/12878.got.cif
#   From: 2010.05.17/outbox.cif.g08.bks.cpg/sg51_7_cif.got.tgz:12878.got - 2010.06.03 11:52:47.
