data_PCOD9405815
_publ_section_title
;
Structure prediction by ZEFSAII (Michael W. Deem and Ramdas Pophale) SiO2 
 PCOD9405815
Probable space group: P M M A
;
_chemical_formula_sum "Si O2"
_cell_formula_units_Z 44
_cell_length_a 7.434441
_cell_length_b 17.184352
_cell_length_c 14.879162
_cell_angle_alpha 90.000000
_cell_angle_beta 90.000000
_cell_angle_gamma 90.000000
_cell_volume 1900.902980
_symmetry_space_group_name_H-M "P M M A"
_symmetry_group_IT_number 51
_symmetry_cell_setting 'orthorhombic'
loop_
_space_group_symop_operation_xyz
x,y,z
1/2-x,-y,z
1/2+x,-y,-z
-x,y,-z
-x,-y,-z
1/2+x,y,-z
1/2-x,y,z
x,-y,z
loop_
_atom_site_type_symbol
_atom_site_label
_atom_site_fract_x
_atom_site_fract_y
_atom_site_fract_z
Si Si1 0.033655 0.417828 0.138890
Si Si2 0.965357 0.759430 0.397729
Si Si3 0.049149 0.136295 0.760184
Si Si4 0.966392 0.000000 0.108569
Si Si5 0.963226 0.747408 0.904872
Si Si6 0.962730 0.585956 0.352067
O O1 0.250000 0.418374 0.131206
O O2 0.962491 0.500000 0.104696
O O3 0.966122 0.340463 0.092703
O O4 0.989153 0.412702 0.244561
O O5 0.750000 0.755776 0.381136
O O6 0.035851 0.826028 0.329402
O O7 0.034564 0.669998 0.384978
O O8 0.000000 0.781716 0.500000
O O9 0.250000 0.107675 0.736274
O O10 0.057872 0.211042 0.823773
O O11 0.968862 0.073074 0.830027
O O12 0.750000 0.000000 0.111632
O O13 0.000000 0.000000 0.000000
O O14 0.750000 0.748045 0.888066
O O15 0.000000 0.786836 0.000000
O O16 0.750000 0.585237 0.372568
O O17 0.033906 0.500000 0.382551
#
# Coordination Sequence:
#
# PCOD9405815 Si02
#       6
#     8   8   8   4   8   8
#     4   9  18  32  49  72 104 142 185 231 277 325
#     4  10  21  36  56  82 114 150 190 233 280 333
#     4  10  21  40  61  84 114 147 182 229 283 336
#     4  10  22  40  65  92 118 146 181 224 277 340
#     4  11  22  34  53  80 110 146 186 229 278 335
#     4   9  17  31  52  77 106 144 190 237 283 329
#
# _framework density 23.146895000000001
#
# number of rings (size 3 to 8) (size 9 to 14) (size 15 to 20)
#    0.000    2.182    1.818    1.091    0.000    5.091 
#    0.000    0.455    0.000    0.000    0.000    0.000 
#    0.000    0.000    0.000    0.000    0.000    0.000 
#
# Total GULP energy -245306.499392 kJ/mol
# GULP energy per Si atom -5575.147713 kJ/mol
# Density = 2.309421 g / cm^3
# Si number density = 23.146895 Si / 1000 Ang^3
#
#
#
# Elastic Constant Matrix: (Units=GPa)
#
#
# Indices 1 2 3 4 5 6 
#
# 1 90.0762 6.8857 -8.5178 0.0000 0.0000 0.0000
# 2 6.8857 143.7037 73.5680 0.0000 0.0000 0.0000
# 3 -8.5178 73.5680 170.2302 0.0000 0.0000 0.0000
# 4 0.0000 0.0000 0.0000 -1.5710 0.0000 0.0000
# 5 0.0000 0.0000 0.0000 0.0000 0.4349 0.0000
# 6 0.0000 0.0000 0.0000 0.0000 0.0000 4.9237
#
#
#
# Elastic Compliance Matrix: (Units=1/GPa)
#
#
# Indices 1 2 3 4 5 6 
#
# 1 0.011280 -0.001065 0.001025 0.000000 0.000000 0.000000
# 2 -0.001065 0.009036 -0.003958 0.000000 0.000000 0.000000
# 3 0.001025 -0.003958 0.007636 0.000000 0.000000 0.000000
# 4 0.000000 0.000000 0.000000 -0.636534 0.000000 0.000000
# 5 0.000000 0.000000 0.000000 0.000000 2.299254 0.000000
# 6 0.000000 0.000000 0.000000 0.000000 0.000000 0.203101
#
#
# Mechanical properties :
#
#
# Convention : Reuss Voigt Hill
#
# Bulk Modulus (GPa) = 50.11274 60.87578 55.49426
# Shear Modulus (GPa) = 2.61996 22.89580 12.75788
#
# Velocity S-wave (km/s) = 1.06506 3.14849 2.35025
# Velocity P-wave (km/s) = 4.81761 6.29080 5.60283
#
# Compressibility (1/GPa) = 0.01995500
#
# Stress axis : x y z
#
# Youngs Moduli (GPa) = 88.65227 110.66455 130.95165
#
# Poissons Ratio (x) = 0.11787 -0.13419
# Poissons Ratio (y) = 0.09442 0.51837
# Poissons Ratio (z) = -0.09084 0.43807
#
# Static dielectric constant tensor:
#      x y z
#    x 1.916720 0.000000 0.000000 
#    y 0.000000 1.948780 0.000000 
#    z 0.000000 0.000000 1.811900 
# 
# From -- ./inp_files/20854.got.cif
#   From: 2010.05.17/outbox.cif.g08.bks.cpg/sg51_11_cif.got.tgz:20854.got - 2010.06.03 11:52:47.
