data_PCOD9405448
_publ_section_title
;
Structure prediction by ZEFSAII (Michael W. Deem and Ramdas Pophale) SiO2 
 PCOD9405448
Probable space group: P M M A
;
_chemical_formula_sum "Si O2"
_cell_formula_units_Z 40
_cell_length_a 15.926015
_cell_length_b 16.557086
_cell_length_c 8.899888
_cell_angle_alpha 90.000000
_cell_angle_beta 90.000000
_cell_angle_gamma 90.000000
_cell_volume 2346.797227
_symmetry_space_group_name_H-M "P M M A"
_symmetry_group_IT_number 51
_symmetry_cell_setting 'orthorhombic'
loop_
_space_group_symop_operation_xyz
x,y,z
1/2-x,-y,z
1/2+x,-y,-z
-x,y,-z
-x,-y,-z
1/2+x,y,-z
1/2-x,y,z
x,-y,z
loop_
_atom_site_type_symbol
_atom_site_label
_atom_site_fract_x
_atom_site_fract_y
_atom_site_fract_z
Si Si1 0.654196 0.805701 0.671630
Si Si2 0.344398 0.500000 0.612370
Si Si3 0.495082 0.500000 0.180615
Si Si4 0.581223 0.632559 0.603090
Si Si5 0.010524 0.092785 0.177711
Si Si6 0.843836 0.904307 0.361923
O O1 0.750000 0.813036 0.726736
O O2 0.628324 0.712871 0.651686
O O3 0.585569 0.849863 0.772857
O O4 0.649923 0.850763 0.510773
O O5 0.250000 0.500000 0.668184
O O6 0.412354 0.500000 0.745104
O O7 0.362555 0.576391 0.504828
O O8 0.449084 0.577778 0.255983
O O9 0.500000 0.500000 0.000000
O O10 0.500000 0.652955 0.500000
O O11 0.922092 0.115042 0.255308
O O12 0.029870 0.000000 0.222885
O O13 0.000000 0.095070 0.000000
O O14 0.750000 0.891545 0.295964
O O15 0.849528 0.000000 0.399431
#
# Coordination Sequence:
#
# PCOD9405448 Si02
#       6
#     8   4   4   8   8   8
#     4  11  21  33  53  79 103 132 173 217 258 300
#     4   9  17  33  54  76 101 130 170 211 250 301
#     4   9  19  35  55  78 105 136 166 201 251 305
#     4   9  18  33  54  76 101 136 169 204 252 303
#     4  10  21  35  51  73 104 141 174 210 259 310
#     4   9  18  33  53  75  99 131 174 221 263 303
#
# _framework density 17.044505999999998
#
# number of rings (size 3 to 8) (size 9 to 14) (size 15 to 20)
#    0.000    2.400    0.000    4.200    0.000    4.400 
#    0.000    5.000    0.000    0.000    0.000    0.000 
#    0.000    0.000    0.000    0.000    0.000    0.000 
#
# Total GULP energy -223060.005722 kJ/mol
# GULP energy per Si atom -5576.500143 kJ/mol
# Density = 1.700571 g / cm^3
# Si number density = 17.044506 Si / 1000 Ang^3
#
#
#
# Elastic Constant Matrix: (Units=GPa)
#
#
# Indices 1 2 3 4 5 6 
#
# 1 143.8990 73.6931 52.1546 0.0000 0.0000 0.0000
# 2 73.6931 85.9191 36.7360 0.0000 0.0000 0.0000
# 3 52.1546 36.7360 84.6590 0.0000 0.0000 0.0000
# 4 0.0000 0.0000 0.0000 -155.4145 0.0000 0.0000
# 5 0.0000 0.0000 0.0000 0.0000 3.9633 0.0000
# 6 0.0000 0.0000 0.0000 0.0000 0.0000 19.8631
#
#
#
# Elastic Compliance Matrix: (Units=1/GPa)
#
#
# Indices 1 2 3 4 5 6 
#
# 1 0.013421 -0.009793 -0.004019 0.000000 0.000000 0.000000
# 2 -0.009793 0.021436 -0.003269 0.000000 0.000000 0.000000
# 3 -0.004019 -0.003269 0.015706 0.000000 0.000000 0.000000
# 4 0.000000 0.000000 0.000000 -0.006434 0.000000 0.000000
# 5 0.000000 0.000000 0.000000 0.000000 0.252317 0.000000
# 6 0.000000 0.000000 0.000000 0.000000 0.000000 0.050345
#
#
# Mechanical properties :
#
#
# Convention : Reuss Voigt Hill
#
# Bulk Modulus (GPa) = 60.96615 71.07162 66.01889
# Shear Modulus (GPa) = 12.93936 -16.19140 -1.62602
#
# Velocity S-wave (km/s) = 2.75826 -3.08547 -0.97778
# Velocity P-wave (km/s) = 6.78163 5.39395 6.12720
#
# Compressibility (1/GPa) = 0.01640254
#
# Stress axis : x y z
#
# Youngs Moduli (GPa) = 74.51018 46.65063 63.66941
#
# Poissons Ratio (x) = 0.45685 0.25586
# Poissons Ratio (y) = 0.72968 0.20811
# Poissons Ratio (z) = 0.29943 0.15248
#
# Static dielectric constant tensor:
#      x y z
#    x 1.585820 0.000000 0.000000 
#    y 0.000000 1.572660 0.000000 
#    z 0.000000 0.000000 1.536320 
# 
# From -- ./inp_files/8000.got.cif
#   From: 2010.05.17/outbox.cif.g08.bks.cpg/sg51_4_cif.got.tgz:8000.got - 2010.06.03 11:52:47.
