data_PCOD9405708
_publ_section_title
;
Structure prediction by ZEFSAII (Michael W. Deem and Ramdas Pophale) SiO2 
 PCOD9405708
Probable space group: P M M A
;
_chemical_formula_sum "Si O2"
_cell_formula_units_Z 48
_cell_length_a 9.386739
_cell_length_b 8.995099
_cell_length_c 31.742211
_cell_angle_alpha 90.000000
_cell_angle_beta 90.000000
_cell_angle_gamma 90.000000
_cell_volume 2680.142368
_symmetry_space_group_name_H-M "P M M A"
_symmetry_group_IT_number 51
_symmetry_cell_setting 'orthorhombic'
loop_
_space_group_symop_operation_xyz
x,y,z
1/2-x,-y,z
1/2+x,-y,-z
-x,y,-z
-x,-y,-z
1/2+x,y,-z
1/2-x,y,z
x,-y,z
loop_
_atom_site_type_symbol
_atom_site_label
_atom_site_fract_x
_atom_site_fract_y
_atom_site_fract_z
Si Si1 0.914035 0.818558 0.041355
Si Si2 0.583125 0.821097 0.542594
Si Si3 0.079818 0.675600 0.213353
Si Si4 0.419949 0.824580 0.708929
Si Si5 0.917955 0.821727 0.875093
Si Si6 0.582245 0.677569 0.379951
O O1 0.750000 0.770958 0.040052
O O2 0.992055 0.773383 0.084380
O O3 0.915220 0.000000 0.040979
O O4 0.000000 0.769640 0.000000
O O5 0.500000 0.778502 0.500000
O O6 0.750000 0.783186 0.539391
O O7 0.510257 0.744977 0.582553
O O8 0.571630 0.000000 0.547057
O O9 0.250000 0.698684 0.217606
O O10 0.051617 0.500000 0.214117
O O11 0.037651 0.743646 0.168203
O O12 0.000571 0.754572 0.251642
O O13 0.250000 0.803900 0.714379
O O14 0.460238 0.746216 0.665056
O O15 0.448841 0.000000 0.706130
O O16 0.750000 0.791534 0.882358
O O17 0.933419 0.000000 0.870217
O O18 0.750000 0.713828 0.386779
O O19 0.568208 0.500000 0.378607
#
# Coordination Sequence:
#
# PCOD9405708 Si02
#       6
#     8   8   8   8   8   8
#     4   9  16  26  43  69  99 129 163 206 255 305
#     4  10  21  37  58  83 110 143 183 225 268 314
#     4  10  21  36  54  77 106 140 176 215 262 315
#     4  10  21  37  58  82 107 138 177 220 265 313
#     4   9  17  30  48  70  98 132 169 210 256 305
#     4  10  21  37  57  81 110 144 180 219 266 318
#
# _framework density 17.909495
#
# number of rings (size 3 to 8) (size 9 to 14) (size 15 to 20)
#    0.000    2.333    0.000    2.500    0.000    7.667 
#    0.000    1.667    0.000    0.500    0.000    0.000 
#    0.000    0.000    0.000    0.000    0.000    0.000 
#
# Total GULP energy -267978.878945 kJ/mol
# GULP energy per Si atom -5582.893311 kJ/mol
# Density = 1.786873 g / cm^3
# Si number density = 17.909495 Si / 1000 Ang^3
#
#
#
# Elastic Constant Matrix: (Units=GPa)
#
#
# Indices 1 2 3 4 5 6 
#
# 1 101.4630 54.5445 113.6772 0.0000 0.0000 0.0000
# 2 54.5445 43.3133 73.3126 0.0000 0.0000 0.0000
# 3 113.6772 73.3126 219.3461 0.0000 0.0000 0.0000
# 4 0.0000 0.0000 0.0000 -25.4021 0.0000 0.0000
# 5 0.0000 0.0000 0.0000 0.0000 42.4961 0.0000
# 6 0.0000 0.0000 0.0000 0.0000 0.0000 22.1610
#
#
#
# Elastic Compliance Matrix: (Units=1/GPa)
#
#
# Indices 1 2 3 4 5 6 
#
# 1 0.035730 -0.031437 -0.008010 0.000000 0.000000 0.000000
# 2 -0.031437 0.080823 -0.010721 0.000000 0.000000 0.000000
# 3 -0.008010 -0.010721 0.012294 0.000000 0.000000 0.000000
# 4 0.000000 0.000000 0.000000 -0.039367 0.000000 0.000000
# 5 0.000000 0.000000 0.000000 0.000000 0.023532 0.000000
# 6 0.000000 0.000000 0.000000 0.000000 0.000000 0.045124
#
#
# Mechanical properties :
#
#
# Convention : Reuss Voigt Hill
#
# Bulk Modulus (GPa) = 35.07507 94.13232 64.60370
# Shear Modulus (GPa) = 18.65838 16.02353 17.34095
#
# Velocity S-wave (km/s) = 3.23122 2.99439 3.11505
# Velocity P-wave (km/s) = 5.79208 8.03923 7.00633
#
# Compressibility (1/GPa) = 0.02851028
#
# Stress axis : x y z
#
# Youngs Moduli (GPa) = 27.98781 12.37265 81.34281
#
# Poissons Ratio (x) = 0.38896 0.65155
# Poissons Ratio (y) = 0.87985 0.87211
# Poissons Ratio (z) = 0.22418 0.13265
#
# Static dielectric constant tensor:
#      x y z
#    x 1.601160 0.000000 0.000000 
#    y 0.000000 1.593700 0.000000 
#    z 0.000000 0.000000 1.575920 
# 
# From -- ./inp_files/36953.got.cif
#   From: 2010.05.17/outbox.cif.g08.bks.cpg/sg51_19_cif.got.tgz:36953.got - 2010.06.03 11:52:47.
