data_PCOD9405101
_publ_section_title
;
Structure prediction by ZEFSAII (Michael W. Deem and Ramdas Pophale) SiO2 
 PCOD9405101
Probable space group: P M M A
;
_chemical_formula_sum "Si O2"
_cell_formula_units_Z 44
_cell_length_a 15.898231
_cell_length_b 17.056758
_cell_length_c 7.644485
_cell_angle_alpha 90.000000
_cell_angle_beta 90.000000
_cell_angle_gamma 90.000000
_cell_volume 2072.972418
_symmetry_space_group_name_H-M "P M M A"
_symmetry_group_IT_number 51
_symmetry_cell_setting 'orthorhombic'
loop_
_space_group_symop_operation_xyz
x,y,z
1/2-x,-y,z
1/2+x,-y,-z
-x,y,-z
-x,-y,-z
1/2+x,y,-z
1/2-x,y,z
x,-y,z
loop_
_atom_site_type_symbol
_atom_site_label
_atom_site_fract_x
_atom_site_fract_y
_atom_site_fract_z
Si Si1 0.500000 0.864163 0.500000
Si Si2 0.651521 0.582852 0.360430
Si Si3 0.598594 0.415352 0.959519
Si Si4 0.148615 0.245554 0.632040
Si Si5 0.348194 0.752806 0.053234
Si Si6 0.429106 0.084024 0.148140
O O1 0.417033 0.813500 0.547187
O O2 0.524374 0.913494 0.667841
O O3 0.750000 0.580868 0.404121
O O4 0.611873 0.500000 0.416681
O O5 0.621351 0.666697 0.425069
O O6 0.644318 0.585504 0.148639
O O7 0.621512 0.500000 0.874048
O O8 0.614838 0.329929 0.877811
O O9 0.500000 0.417719 0.000000
O O10 0.250000 0.234137 0.598268
O O11 0.137218 0.241861 0.843186
O O12 0.250000 0.746609 0.083500
O O13 0.379889 0.834228 0.132080
O O14 0.382548 0.000000 0.129763
O O15 0.500000 0.086586 0.000000
#
# Coordination Sequence:
#
# PCOD9405101 Si02
#       6
#     4   8   8   8   8   8
#     4  12  23  40  69  92 124 166 197 260 324 376
#     4   8  14  27  48  75 112 159 205 249 301 359
#     4   9  16  25  47  84 121 157 205 256 302 363
#     4   9  19  35  58  91 124 163 214 259 308 373
#     4  10  20  37  61  88 126 169 208 258 314 370
#     4  11  24  43  66  93 122 157 205 255 312 380
#
# _framework density 21.225560000000002
#
# number of rings (size 3 to 8) (size 9 to 14) (size 15 to 20)
#    0.000    2.364    1.818    2.455    2.545    2.182 
#    0.000    0.455    0.000    2.727    0.000    2.545 
#    0.000    0.000    0.000    0.000    0.000    0.000 
#
# Total GULP energy -245179.937727 kJ/mol
# GULP energy per Si atom -5572.271312 kJ/mol
# Density = 2.117725 g / cm^3
# Si number density = 21.225560 Si / 1000 Ang^3
#
#
#
# Elastic Constant Matrix: (Units=GPa)
#
#
# Indices 1 2 3 4 5 6 
#
# 1 47.3630 49.8542 18.6622 0.0000 0.0000 0.0000
# 2 49.8542 217.5234 30.1800 0.0000 0.0000 0.0000
# 3 18.6622 30.1800 62.2186 0.0000 0.0000 0.0000
# 4 0.0000 0.0000 0.0000 -88.0238 0.0000 0.0000
# 5 0.0000 0.0000 0.0000 0.0000 19.2602 0.0000
# 6 0.0000 0.0000 0.0000 0.0000 0.0000 -57.7849
#
#
#
# Elastic Compliance Matrix: (Units=1/GPa)
#
#
# Indices 1 2 3 4 5 6 
#
# 1 0.029798 -0.005993 -0.006031 0.000000 0.000000 0.000000
# 2 -0.005993 0.006134 -0.001178 0.000000 0.000000 0.000000
# 3 -0.006031 -0.001178 0.018453 0.000000 0.000000 0.000000
# 4 0.000000 0.000000 0.000000 -0.011361 0.000000 0.000000
# 5 0.000000 0.000000 0.000000 0.000000 0.051921 0.000000
# 6 0.000000 0.000000 0.000000 0.000000 0.000000 -0.017306
#
#
# Mechanical properties :
#
#
# Convention : Reuss Voigt Hill
#
# Bulk Modulus (GPa) = 35.73789 58.27755 47.00772
# Shear Modulus (GPa) = 44.10376 -10.08249 17.01064
#
# Velocity S-wave (km/s) = 4.56330 -2.18185 2.83401
# Velocity P-wave (km/s) = 6.68122 4.60094 5.73617
#
# Compressibility (1/GPa) = 0.02798151
#
# Stress axis : x y z
#
# Youngs Moduli (GPa) = 33.55971 163.02351 54.19264
#
# Poissons Ratio (x) = 0.97693 0.32683
# Poissons Ratio (y) = 0.20111 0.06384
# Poissons Ratio (z) = 0.20240 0.19204
#
# Static dielectric constant tensor:
#      x y z
#    x 1.700820 0.000000 0.000000 
#    y 0.000000 1.857960 0.000000 
#    z 0.000000 0.000000 1.773540 
# 
# From -- ./inp_files/8162.got.cif
#   From: 2010.05.17/outbox.cif.g08.bks.cpg/sg51_5_cif.got.tgz:8162.got - 2010.06.03 11:52:47.
