data_PCOD9405537
_publ_section_title
;
Structure prediction by ZEFSAII (Michael W. Deem and Ramdas Pophale) SiO2 
 PCOD9405537
Probable space group: P M M A
;
_chemical_formula_sum "Si O2"
_cell_formula_units_Z 52
_cell_length_a 9.412229
_cell_length_b 14.344859
_cell_length_c 20.406494
_cell_angle_alpha 90.000000
_cell_angle_beta 90.000000
_cell_angle_gamma 90.000000
_cell_volume 2755.225598
_symmetry_space_group_name_H-M "P M M A"
_symmetry_group_IT_number 51
_symmetry_cell_setting 'orthorhombic'
loop_
_space_group_symop_operation_xyz
x,y,z
1/2-x,-y,z
1/2+x,-y,-z
-x,y,-z
-x,-y,-z
1/2+x,y,-z
1/2-x,y,z
x,-y,z
loop_
_atom_site_type_symbol
_atom_site_label
_atom_site_fract_x
_atom_site_fract_y
_atom_site_fract_z
Si Si1 0.419246 0.777871 0.706182
Si Si2 0.420141 0.705618 0.569032
Si Si3 0.581997 0.391444 0.196180
Si Si4 0.087807 0.386560 0.063936
Si Si5 0.411762 0.113798 0.936147
Si Si6 0.911893 0.112062 0.809368
Si Si7 0.581399 0.500000 0.431850
O O1 0.250000 0.796618 0.711253
O O2 0.456947 0.771620 0.629591
O O3 0.444268 0.680275 0.744779
O O4 0.511131 0.852775 0.744571
O O5 0.500000 0.719235 0.500000
O O6 0.250000 0.711165 0.557728
O O7 0.451919 0.601013 0.596765
O O8 0.750000 0.386136 0.179974
O O9 0.551987 0.500000 0.213570
O O10 0.491683 0.365631 0.131969
O O11 0.250000 0.352236 0.063025
O O12 0.092714 0.500000 0.060925
O O13 0.000000 0.355987 0.000000
O O14 0.250000 0.147639 0.937147
O O15 0.494810 0.143336 0.871323
O O16 0.406747 0.000000 0.935706
O O17 0.500000 0.140440 0.000000
O O18 0.750000 0.145891 0.814000
O O19 0.908896 0.000000 0.810752
O O20 0.750000 0.500000 0.442623
O O21 0.500000 0.500000 0.500000
#
# Coordination Sequence:
#
# PCOD9405537 Si02
#       7
#     8   8   8   8   8   8   4
#     4  10  21  35  54  80 107 138 176 216 261 315
#     4   9  18  32  52  78 108 141 176 213 256 309
#     4   9  18  32  50  73 103 137 171 208 253 305
#     4   9  16  27  45  67  93 129 174 219 260 301
#     4   9  16  28  50  79 109 140 174 215 265 321
#     4  10  21  37  56  78 106 141 180 223 272 322
#     4   8  14  26  46  72 104 138 171 204 243 298
#
# _framework density 18.873227
#
# number of rings (size 3 to 8) (size 9 to 14) (size 15 to 20)
#    0.000    2.769    0.000    1.385    1.077    5.846 
#    0.000    0.769    0.000    4.154    0.000    0.000 
#    0.000    0.000    0.000    0.000    0.000    0.000 
#
# Total GULP energy -290066.981649 kJ/mol
# GULP energy per Si atom -5578.211186 kJ/mol
# Density = 1.883027 g / cm^3
# Si number density = 18.873227 Si / 1000 Ang^3
#
#
#
# Elastic Constant Matrix: (Units=GPa)
#
#
# Indices 1 2 3 4 5 6 
#
# 1 97.1941 23.6939 75.1981 0.0000 0.0000 0.0000
# 2 23.6939 31.8692 13.6836 0.0000 0.0000 0.0000
# 3 75.1981 13.6836 135.0771 0.0000 0.0000 0.0000
# 4 0.0000 0.0000 0.0000 66.4655 0.0000 0.0000
# 5 0.0000 0.0000 0.0000 0.0000 27.4156 0.0000
# 6 0.0000 0.0000 0.0000 0.0000 0.0000 14.6832
#
#
#
# Elastic Compliance Matrix: (Units=1/GPa)
#
#
# Indices 1 2 3 4 5 6 
#
# 1 0.021343 -0.011256 -0.010742 0.000000 0.000000 0.000000
# 2 -0.011256 0.038741 0.002342 0.000000 0.000000 0.000000
# 3 -0.010742 0.002342 0.013146 0.000000 0.000000 0.000000
# 4 0.000000 0.000000 0.000000 0.015045 0.000000 0.000000
# 5 0.000000 0.000000 0.000000 0.000000 0.036476 0.000000
# 6 0.000000 0.000000 0.000000 0.000000 0.000000 0.068105
#
#
# Mechanical properties :
#
#
# Convention : Reuss Voigt Hill
#
# Bulk Modulus (GPa) = 29.48241 54.36574 41.92408
# Shear Modulus (GPa) = 20.53599 31.81720 26.17660
#
# Velocity S-wave (km/s) = 3.30222 4.11035 3.72824
# Velocity P-wave (km/s) = 5.49497 7.16902 6.38708
#
# Compressibility (1/GPa) = 0.03391853
#
# Stress axis : x y z
#
# Youngs Moduli (GPa) = 46.85277 25.81224 76.06914
#
# Poissons Ratio (x) = 0.29054 0.81711
# Poissons Ratio (y) = 0.52738 -0.17813
# Poissons Ratio (z) = 0.50328 -0.06045
#
# Static dielectric constant tensor:
#      x y z
#    x 1.632790 0.000000 0.000000 
#    y 0.000000 1.717340 0.000000 
#    z 0.000000 0.000000 1.617330 
# 
# From -- ./inp_files/31777.got.cif
#   From: 2010.05.17/outbox.cif.g08.bks.cpg/sg51_16_cif.got.tgz:31777.got - 2010.06.03 11:52:47.
