data_PCOD9405220
_publ_section_title
;
Structure prediction by ZEFSAII (Michael W. Deem and Ramdas Pophale) SiO2 
 PCOD9405220
Probable space group: P M M A
;
_chemical_formula_sum "Si O2"
_cell_formula_units_Z 40
_cell_length_a 14.439831
_cell_length_b 13.817766
_cell_length_c 10.209821
_cell_angle_alpha 90.000000
_cell_angle_beta 90.000000
_cell_angle_gamma 90.000000
_cell_volume 2037.126846
_symmetry_space_group_name_H-M "P M M A"
_symmetry_group_IT_number 51
_symmetry_cell_setting 'orthorhombic'
loop_
_space_group_symop_operation_xyz
x,y,z
1/2-x,-y,z
1/2+x,-y,-z
-x,y,-z
-x,-y,-z
1/2+x,y,-z
1/2-x,y,z
x,-y,z
loop_
_atom_site_type_symbol
_atom_site_label
_atom_site_fract_x
_atom_site_fract_y
_atom_site_fract_z
Si Si1 0.250000 0.883106 0.293121
Si Si2 0.536312 0.615700 0.789004
Si Si3 0.057921 0.886700 0.866753
Si Si4 0.250000 0.881407 0.983848
Si Si5 0.056503 0.206974 0.368090
Si Si6 0.855107 0.382727 0.051433
O O1 0.250000 0.855178 0.137833
O O2 0.342567 0.841386 0.359662
O O3 0.250000 0.000000 0.299527
O O4 0.543057 0.500000 0.770308
O O5 0.562725 0.678926 0.664310
O O6 0.432294 0.639613 0.839491
O O7 0.603123 0.645235 0.910061
O O8 0.003344 0.836164 0.751271
O O9 0.065883 0.000000 0.832467
O O10 0.158832 0.849388 0.906704
O O11 0.000000 0.879562 0.000000
O O12 0.250000 0.000000 0.984393
O O13 0.000000 0.189137 0.500000
O O14 0.750000 0.349574 0.070842
O O15 0.852995 0.500000 0.048378
#
# Coordination Sequence:
#
# PCOD9405220 Si02
#       6
#     4   8   8   4   8   8
#     4  11  24  45  70  94 127 166 209 272 333 382
#     4   9  20  38  59  90 130 169 211 264 319 374
#     4  10  20  38  64  93 123 159 209 265 321 378
#     4   9  18  35  65 100 123 154 206 258 322 388
#     4  12  27  43  62  96 131 172 221 258 315 394
#     4   8  15  31  59  93 124 162 212 264 322 372
#
# _framework density 19.635497999999998
#
# number of rings (size 3 to 8) (size 9 to 14) (size 15 to 20)
#    0.000    2.200    2.000    1.800    4.200    2.800 
#    3.600    1.000    0.000    0.000    0.000    0.000 
#    0.000    0.000    0.000    0.000    0.000    0.000 
#
# Total GULP energy -223473.203167 kJ/mol
# GULP energy per Si atom -5586.830079 kJ/mol
# Density = 1.959081 g / cm^3
# Si number density = 19.635498 Si / 1000 Ang^3
#
#
#
# Elastic Constant Matrix: (Units=GPa)
#
#
# Indices 1 2 3 4 5 6 
#
# 1 168.6807 56.0057 31.5131 0.0000 0.0000 0.0000
# 2 56.0057 91.2939 39.7842 0.0000 0.0000 0.0000
# 3 31.5131 39.7842 62.5356 0.0000 0.0000 0.0000
# 4 0.0000 0.0000 0.0000 -3.0204 0.0000 0.0000
# 5 0.0000 0.0000 0.0000 0.0000 21.5458 0.0000
# 6 0.0000 0.0000 0.0000 0.0000 0.0000 25.0957
#
#
#
# Elastic Compliance Matrix: (Units=1/GPa)
#
#
# Indices 1 2 3 4 5 6 
#
# 1 0.007507 -0.004091 -0.001180 0.000000 0.000000 0.000000
# 2 -0.004091 0.017385 -0.008998 0.000000 0.000000 0.000000
# 3 -0.001180 -0.008998 0.022310 0.000000 0.000000 0.000000
# 4 0.000000 0.000000 0.000000 -0.331084 0.000000 0.000000
# 5 0.000000 0.000000 0.000000 0.000000 0.046413 0.000000
# 6 0.000000 0.000000 0.000000 0.000000 0.000000 0.039847
#
#
# Mechanical properties :
#
#
# Convention : Reuss Voigt Hill
#
# Bulk Modulus (GPa) = 53.58277 64.12403 58.85340
# Shear Modulus (GPa) = -30.70099 21.73803 -4.48148
#
# Velocity S-wave (km/s) = -3.95846 3.33089 -1.51238
# Velocity P-wave (km/s) = 2.54075 6.89356 5.19503
#
# Compressibility (1/GPa) = 0.01866272
#
# Stress axis : x y z
#
# Youngs Moduli (GPa) = 133.20564 57.52211 44.82230
#
# Poissons Ratio (x) = 0.23532 0.05291
# Poissons Ratio (y) = 0.54494 0.40332
# Poissons Ratio (z) = 0.15724 0.51760
#
# Static dielectric constant tensor:
#      x y z
#    x 1.694610 0.000000 0.000000 
#    y 0.000000 1.772780 0.000000 
#    z 0.000000 0.000000 1.632410 
# 
# From -- ./inp_files/8013.got.cif
#   From: 2010.05.17/outbox.cif.g08.bks.cpg/sg51_5_cif.got.tgz:8013.got - 2010.06.03 11:52:47.
