data_PCOD9405204
_publ_section_title
;
Structure prediction by ZEFSAII (Michael W. Deem and Ramdas Pophale) SiO2 
 PCOD9405204
Probable space group: P M M A
;
_chemical_formula_sum "Si O2"
_cell_formula_units_Z 52
_cell_length_a 21.080216
_cell_length_b 23.781918
_cell_length_c 5.383523
_cell_angle_alpha 90.000000
_cell_angle_beta 90.000000
_cell_angle_gamma 90.000000
_cell_volume 2698.910648
_symmetry_space_group_name_H-M "P M M A"
_symmetry_group_IT_number 51
_symmetry_cell_setting 'orthorhombic'
loop_
_space_group_symop_operation_xyz
x,y,z
1/2-x,-y,z
1/2+x,-y,-z
-x,y,-z
-x,-y,-z
1/2+x,y,-z
1/2-x,y,z
x,-y,z
loop_
_atom_site_type_symbol
_atom_site_label
_atom_site_fract_x
_atom_site_fract_y
_atom_site_fract_z
Si Si1 0.500000 0.845655 0.000000
Si Si2 0.827301 0.370852 0.629974
Si Si3 0.827337 0.434916 0.130372
Si Si4 0.174064 0.759119 0.344071
Si Si5 0.323355 0.936351 0.686687
Si Si6 0.872128 0.180739 0.155698
Si Si7 0.439721 0.939904 0.315593
O O1 0.551130 0.815358 0.170677
O O2 0.454276 0.886348 0.153921
O O3 0.750000 0.371305 0.628649
O O4 0.847788 0.402097 0.378262
O O5 0.846970 0.305839 0.637329
O O6 0.847467 0.403651 0.878325
O O7 0.750000 0.434594 0.130720
O O8 0.847143 0.500000 0.133934
O O9 0.250000 0.759929 0.326181
O O10 0.154874 0.791654 0.593914
O O11 0.147849 0.787405 0.094236
O O12 0.250000 0.929125 0.608985
O O13 0.344124 0.883005 0.849550
O O14 0.374475 0.935141 0.464870
O O15 0.327793 0.000000 0.795972
O O16 0.500000 0.941814 0.500000
O O17 0.439463 0.000000 0.178096
#
# Coordination Sequence:
#
# PCOD9405204 Si02
#       7
#     4   8   8   8   8   8   8
#     4  12  25  38  60  84 112 144 193 242 298 358
#     4   9  17  29  46  70 105 148 191 228 270 330
#     4   9  15  24  42  71 107 148 190 228 267 319
#     4  11  23  40  60  83 113 155 199 239 287 348
#     4  10  21  39  62  89 118 147 186 244 309 363
#     4  12  25  40  62  84 112 150 194 246 297 356
#     4  10  20  38  63  86 112 148 185 227 287 373
#
# _framework density 19.267032
#
# number of rings (size 3 to 8) (size 9 to 14) (size 15 to 20)
#    0.000    1.692    1.538    3.923    0.000    4.923 
#    0.000    2.308    0.000    8.308    0.000    0.000 
#    0.000    0.000    0.000   48.462    0.000   21.538 
#
# Total GULP energy -290224.569597 kJ/mol
# GULP energy per Si atom -5581.241723 kJ/mol
# Density = 1.922318 g / cm^3
# Si number density = 19.267032 Si / 1000 Ang^3
#
#
#
# Elastic Constant Matrix: (Units=GPa)
#
#
# Indices 1 2 3 4 5 6 
#
# 1 104.7401 29.5414 30.4274 0.0000 0.0000 0.0000
# 2 29.5414 147.8076 71.0196 0.0000 0.0000 0.0000
# 3 30.4274 71.0196 124.4695 0.0000 0.0000 0.0000
# 4 0.0000 0.0000 0.0000 57.7638 0.0000 0.0000
# 5 0.0000 0.0000 0.0000 0.0000 27.3969 0.0000
# 6 0.0000 0.0000 0.0000 0.0000 0.0000 -97.3543
#
#
#
# Elastic Compliance Matrix: (Units=1/GPa)
#
#
# Indices 1 2 3 4 5 6 
#
# 1 0.010425 -0.001184 -0.001873 0.000000 0.000000 0.000000
# 2 -0.001184 0.009455 -0.005106 0.000000 0.000000 0.000000
# 3 -0.001873 -0.005106 0.011405 0.000000 0.000000 0.000000
# 4 0.000000 0.000000 0.000000 0.017312 0.000000 0.000000
# 5 0.000000 0.000000 0.000000 0.000000 0.036500 0.000000
# 6 0.000000 0.000000 0.000000 0.000000 0.000000 -0.010272
#
#
# Mechanical properties :
#
#
# Convention : Reuss Voigt Hill
#
# Bulk Modulus (GPa) = 66.84057 70.99934 68.91995
# Shear Modulus (GPa) = 52.00830 13.96320 32.98575
#
# Velocity S-wave (km/s) = 5.20116 2.69498 4.14216
# Velocity P-wave (km/s) = 8.41643 6.82745 7.66324
#
# Compressibility (1/GPa) = 0.01496097
#
# Stress axis : x y z
#
# Youngs Moduli (GPa) = 95.91908 105.76062 87.67929
#
# Poissons Ratio (x) = 0.12518 0.16424
# Poissons Ratio (y) = 0.11353 0.44766
# Poissons Ratio (z) = 0.17968 0.53998
#
# Static dielectric constant tensor:
#      x y z
#    x 1.675600 0.000000 0.000000 
#    y 0.000000 1.702500 0.000000 
#    z 0.000000 0.000000 1.712240 
# 
# From -- ./inp_files/2594.got.cif
#   From: 2010.05.17/outbox.cif.g08.bks.cpg/sg51_2_cif.got.tgz:2594.got - 2010.06.03 11:52:47.
