data_PCOD9405770
_publ_section_title
;
Structure prediction by ZEFSAII (Michael W. Deem and Ramdas Pophale) SiO2 
 PCOD9405770
Probable space group: P M M A
;
_chemical_formula_sum "Si O2"
_cell_formula_units_Z 56
_cell_length_a 14.712140
_cell_length_b 8.905100
_cell_length_c 23.931775
_cell_angle_alpha 90.000000
_cell_angle_beta 90.000000
_cell_angle_gamma 90.000000
_cell_volume 3135.375503
_symmetry_space_group_name_H-M "P M M A"
_symmetry_group_IT_number 51
_symmetry_cell_setting 'orthorhombic'
loop_
_space_group_symop_operation_xyz
x,y,z
1/2-x,-y,z
1/2+x,-y,-z
-x,y,-z
-x,-y,-z
1/2+x,y,-z
1/2-x,y,z
x,-y,z
loop_
_atom_site_type_symbol
_atom_site_label
_atom_site_fract_x
_atom_site_fract_y
_atom_site_fract_z
Si Si1 0.144389 0.175692 0.020191
Si Si2 0.037074 0.820131 0.131949
Si Si3 0.250000 0.327383 0.402610
Si Si4 0.576277 0.820202 0.652715
Si Si5 0.354051 0.321009 0.899871
Si Si6 0.857027 0.680114 0.764844
Si Si7 0.750000 0.671081 0.463612
Si Si8 0.442058 0.819343 0.554802
O O1 0.250000 0.188018 0.038331
O O2 0.079397 0.217535 0.071139
O O3 0.127712 0.000000 0.005791
O O4 0.133289 0.272480 0.964551
O O5 0.100279 0.746971 0.178937
O O6 0.934367 0.758964 0.133888
O O7 0.038340 0.000000 0.137506
O O8 0.250000 0.500000 0.381372
O O9 0.163206 0.239221 0.380885
O O10 0.250000 0.330737 0.469103
O O11 0.585436 0.744274 0.712953
O O12 0.492476 0.779534 0.612499
O O13 0.578898 0.000000 0.658736
O O14 0.250000 0.277495 0.884673
O O15 0.362081 0.500000 0.894617
O O16 0.750000 0.722631 0.758643
O O17 0.861640 0.500000 0.765631
O O18 0.750000 0.500000 0.443401
O O19 0.658119 0.752926 0.446084
O O20 0.500000 0.768373 0.500000
O O21 0.437642 0.000000 0.551392
#
# Coordination Sequence:
#
# PCOD9405770 Si02
#       8
#     8   8   4   8   8   8   4   8
#     4   9  18  33  53  80 114 148 183 226 276 334
#     4  11  22  36  57  83 112 148 190 233 279 331
#     4  11  21  33  53  85 121 153 187 230 279 334
#     4  11  22  37  60  85 112 151 194 234 277 332
#     4  10  21  36  55  80 111 148 188 232 284 338
#     4  11  24  40  59  85 117 149 183 228 282 336
#     4  11  23  35  55  87 121 155 187 230 285 336
#     4  10  21  37  58  85 116 152 192 234 281 332
#
# _framework density 17.860697999999999
#
# number of rings (size 3 to 8) (size 9 to 14) (size 15 to 20)
#    0.000    1.571    2.143    3.000    0.000    7.143 
#    0.000    1.429    1.571    0.000    0.000    0.000 
#    0.000    0.000    0.000    0.000    0.000    0.000 
#
# Total GULP energy -312765.470966 kJ/mol
# GULP energy per Si atom -5585.097696 kJ/mol
# Density = 1.782005 g / cm^3
# Si number density = 17.860698 Si / 1000 Ang^3
#
#
#
# Elastic Constant Matrix: (Units=GPa)
#
#
# Indices 1 2 3 4 5 6 
#
# 1 115.5744 34.5108 36.0552 0.0000 0.0000 0.0000
# 2 34.5108 38.3164 26.0816 0.0000 0.0000 0.0000
# 3 36.0552 26.0816 53.8967 0.0000 0.0000 0.0000
# 4 0.0000 0.0000 0.0000 23.6224 0.0000 0.0000
# 5 0.0000 0.0000 0.0000 0.0000 36.6042 0.0000
# 6 0.0000 0.0000 0.0000 0.0000 0.0000 35.7660
#
#
#
# Elastic Compliance Matrix: (Units=1/GPa)
#
#
# Indices 1 2 3 4 5 6 
#
# 1 0.012481 -0.008288 -0.004338 0.000000 0.000000 0.000000
# 2 -0.008288 0.044422 -0.015952 0.000000 0.000000 0.000000
# 3 -0.004338 -0.015952 0.029176 0.000000 0.000000 0.000000
# 4 0.000000 0.000000 0.000000 0.042333 0.000000 0.000000
# 5 0.000000 0.000000 0.000000 0.000000 0.027319 0.000000
# 6 0.000000 0.000000 0.000000 0.000000 0.000000 0.027959
#
#
# Mechanical properties :
#
#
# Convention : Reuss Voigt Hill
#
# Bulk Modulus (GPa) = 34.57677 44.56474 39.57076
# Shear Modulus (GPa) = 19.96109 26.60787 23.28448
#
# Velocity S-wave (km/s) = 3.34668 3.86391 3.61456
# Velocity P-wave (km/s) = 5.85959 6.70163 6.29471
#
# Compressibility (1/GPa) = 0.02892115
#
# Stress axis : x y z
#
# Youngs Moduli (GPa) = 80.12388 22.51147 34.27488
#
# Poissons Ratio (x) = 0.18657 0.14870
# Poissons Ratio (y) = 0.66406 0.54676
# Poissons Ratio (z) = 0.34762 0.35911
#
# Static dielectric constant tensor:
#      x y z
#    x 1.604990 0.000000 0.000000 
#    y 0.000000 1.601150 0.000000 
#    z 0.000000 0.000000 1.601830 
# 
# From -- ./inp_files/33554.got.cif
#   From: 2010.05.17/outbox.cif.g08.bks.cpg/sg51_17_cif.got.tgz:33554.got - 2010.06.03 11:52:47.
