data_PCOD9405912
_publ_section_title
;
Structure prediction by ZEFSAII (Michael W. Deem and Ramdas Pophale) SiO2 
 PCOD9405912
Probable space group: P M M A
;
_chemical_formula_sum "Si O2"
_cell_formula_units_Z 64
_cell_length_a 15.389082
_cell_length_b 10.049321
_cell_length_c 20.435736
_cell_angle_alpha 90.000000
_cell_angle_beta 90.000000
_cell_angle_gamma 90.000000
_cell_volume 3160.382994
_symmetry_space_group_name_H-M "P M M A"
_symmetry_group_IT_number 51
_symmetry_cell_setting 'orthorhombic'
loop_
_space_group_symop_operation_xyz
x,y,z
1/2-x,-y,z
1/2+x,-y,-z
-x,y,-z
-x,-y,-z
1/2+x,y,-z
1/2-x,y,z
x,-y,z
loop_
_atom_site_type_symbol
_atom_site_label
_atom_site_fract_x
_atom_site_fract_y
_atom_site_fract_z
Si Si1 0.851479 0.854961 0.773695
Si Si2 0.650025 0.352835 0.008143
Si Si3 0.424778 0.652605 0.853821
Si Si4 0.644995 0.347942 0.290262
Si Si5 0.143955 0.152419 0.448466
Si Si6 0.569217 0.845485 0.909354
Si Si7 0.643399 0.651963 0.667401
Si Si8 0.356135 0.152451 0.596713
O O1 0.750000 0.861585 0.756484
O O2 0.859558 0.840021 0.851423
O O3 0.886681 0.731683 0.732090
O O4 0.890916 0.000000 0.756670
O O5 0.750000 0.345320 0.988036
O O6 0.615387 0.500000 0.988983
O O7 0.598927 0.235654 0.972689
O O8 0.643644 0.345730 0.086497
O O9 0.459979 0.500000 0.852258
O O10 0.387412 0.682754 0.782618
O O11 0.492093 0.763824 0.875910
O O12 0.750000 0.341009 0.289045
O O13 0.620840 0.500000 0.305638
O O14 0.612686 0.249689 0.346588
O O15 0.250000 0.151539 0.447856
O O16 0.116484 0.258970 0.394618
O O17 0.116492 0.186183 0.522572
O O18 0.116906 0.000000 0.433650
O O19 0.550181 0.000000 0.922971
O O20 0.750000 0.646817 0.667261
O O21 0.612909 0.500000 0.665754
O O22 0.250000 0.157095 0.596616
O O23 0.381052 0.000000 0.609641
#
# Coordination Sequence:
#
# PCOD9405912 Si02
#       8
#     8   8   8   8   8   8   8   8
#     4   9  18  33  50  67  93 130 166 201 246 299
#     4  10  21  38  60  82 104 134 170 206 247 298
#     4  10  21  37  55  76 104 137 171 206 248 300
#     4   9  17  30  49  72  98 130 169 212 254 296
#     4   8  13  22  36  56  88 129 164 195 241 299
#     4  11  23  37  54  78 106 135 169 209 252 298
#     4   9  16  24  38  64  94 122 158 205 249 290
#     4   8  14  24  39  62  93 128 165 204 247 297
#
# _framework density 20.250710000000002
#
# number of rings (size 3 to 8) (size 9 to 14) (size 15 to 20)
#    0.000    2.750    0.000    2.625    0.000    7.750 
#    0.000    3.750    0.000    2.250    0.000    0.875 
#    0.000    7.000    0.000    0.000    0.000    0.000 
#
# Total GULP energy -356985.524972 kJ/mol
# GULP energy per Si atom -5577.898828 kJ/mol
# Density = 2.020462 g / cm^3
# Si number density = 20.250710 Si / 1000 Ang^3
#
#
#
# Elastic Constant Matrix: (Units=GPa)
#
#
# Indices 1 2 3 4 5 6 
#
# 1 22.9334 23.8133 4.5731 0.0000 0.0000 0.0000
# 2 23.8133 134.4958 75.0516 0.0000 0.0000 0.0000
# 3 4.5731 75.0516 112.7959 0.0000 0.0000 0.0000
# 4 0.0000 0.0000 0.0000 35.2615 0.0000 0.0000
# 5 0.0000 0.0000 0.0000 0.0000 -3.1716 0.0000
# 6 0.0000 0.0000 0.0000 0.0000 0.0000 10.5845
#
#
#
# Elastic Compliance Matrix: (Units=1/GPa)
#
#
# Indices 1 2 3 4 5 6 
#
# 1 0.056670 -0.013920 0.006965 0.000000 0.000000 0.000000
# 2 -0.013920 0.015245 -0.009580 0.000000 0.000000 0.000000
# 3 0.006965 -0.009580 0.014957 0.000000 0.000000 0.000000
# 4 0.000000 0.000000 0.000000 0.028360 0.000000 0.000000
# 5 0.000000 0.000000 0.000000 0.000000 -0.315301 0.000000
# 6 0.000000 0.000000 0.000000 0.000000 0.000000 0.094478
#
#
# Mechanical properties :
#
#
# Convention : Reuss Voigt Hill
#
# Bulk Modulus (GPa) = 18.58657 53.01123 35.79890
# Shear Modulus (GPa) = -91.59784 19.65403 -35.97191
#
# Velocity S-wave (km/s) = -6.73276 3.11872 -4.21922
# Velocity P-wave (km/s) = 7.15835 6.26122 2.45348
#
# Compressibility (1/GPa) = 0.05380230
#
# Stress axis : x y z
#
# Youngs Moduli (GPa) = 17.64602 65.59341 66.85738
#
# Poissons Ratio (x) = 0.91307 -0.46563
# Poissons Ratio (y) = 0.24564 0.64046
# Poissons Ratio (z) = -0.12290 0.62836
#
# Static dielectric constant tensor:
#      x y z
#    x 1.762750 0.000000 0.000000 
#    y 0.000000 1.710120 0.000000 
#    z 0.000000 0.000000 1.707240 
# 
# From -- ./inp_files/33899.got.cif
#   From: 2010.05.17/outbox.cif.g08.bks.cpg/sg51_17_cif.got.tgz:33899.got - 2010.06.03 11:52:47.
