data_PCOD9405429
_publ_section_title
;
Structure prediction by ZEFSAII (Michael W. Deem and Ramdas Pophale) SiO2 
 PCOD9405429
Probable space group: P M M A
;
_chemical_formula_sum "Si O2"
_cell_formula_units_Z 40
_cell_length_a 7.528545
_cell_length_b 27.324674
_cell_length_c 9.093395
_cell_angle_alpha 90.000000
_cell_angle_beta 90.000000
_cell_angle_gamma 90.000000
_cell_volume 1870.648096
_symmetry_space_group_name_H-M "P M M A"
_symmetry_group_IT_number 51
_symmetry_cell_setting 'orthorhombic'
loop_
_space_group_symop_operation_xyz
x,y,z
1/2-x,-y,z
1/2+x,-y,-z
-x,y,-z
-x,-y,-z
1/2+x,y,-z
1/2-x,y,z
x,-y,z
loop_
_atom_site_type_symbol
_atom_site_label
_atom_site_fract_x
_atom_site_fract_y
_atom_site_fract_z
Si Si1 0.536898 0.901336 0.327156
Si Si2 0.963107 0.000000 0.172884
Si Si3 0.036611 0.606200 0.825901
Si Si4 0.036930 0.197259 0.827302
Si Si5 0.536894 0.295695 0.327667
Si Si6 0.037326 0.500000 0.825007
O O1 0.500000 0.901934 0.500000
O O2 0.750000 0.901235 0.307888
O O3 0.468119 0.851615 0.252342
O O4 0.468156 0.950545 0.249311
O O5 0.750000 0.000000 0.192073
O O6 0.000000 0.000000 0.000000
O O7 0.250000 0.605147 0.809080
O O8 0.967441 0.653609 0.740914
O O9 0.968887 0.552876 0.772441
O O10 0.000000 0.611045 0.000000
O O11 0.250000 0.197513 0.807775
O O12 0.968173 0.247377 0.754982
O O13 0.000000 0.195809 0.000000
O O14 0.500000 0.292664 0.500000
O O15 0.750000 0.296358 0.307466
O O16 0.250000 0.500000 0.803863
O O17 0.000000 0.500000 0.000000
#
# Coordination Sequence:
#
# PCOD9405429 Si02
#       6
#     8   4   8   8   8   4
#     4  10  21  36  54  78 106 135 169 207 248 296
#     4  10  21  36  54  78 106 136 173 212 248 292
#     4   9  17  30  49  72  96 124 160 200 242 289
#     4  10  21  36  54  77 102 129 165 206 247 294
#     4  10  21  35  50  71  99 130 164 201 243 292
#     4   8  14  26  45  68  94 122 154 196 241 284
#
# _framework density 21.382964999999999
#
# number of rings (size 3 to 8) (size 9 to 14) (size 15 to 20)
#    0.000    2.400    0.000    2.100    0.000    3.200 
#    0.000    0.500    0.000    0.000    0.000    0.000 
#    0.000    0.000    0.000    0.000    0.000    0.000 
#
# Total GULP energy -223366.095675 kJ/mol
# GULP energy per Si atom -5584.152392 kJ/mol
# Density = 2.133430 g / cm^3
# Si number density = 21.382965 Si / 1000 Ang^3
#
#
#
# Elastic Constant Matrix: (Units=GPa)
#
#
# Indices 1 2 3 4 5 6 
#
# 1 57.1647 16.2809 -14.0135 0.0000 0.0000 0.0000
# 2 16.2809 292.8703 135.8562 0.0000 0.0000 0.0000
# 3 -14.0135 135.8562 156.1108 0.0000 0.0000 0.0000
# 4 0.0000 0.0000 0.0000 -43.1086 0.0000 0.0000
# 5 0.0000 0.0000 0.0000 0.0000 28.3880 0.0000
# 6 0.0000 0.0000 0.0000 0.0000 0.0000 5.6491
#
#
#
# Elastic Compliance Matrix: (Units=1/GPa)
#
#
# Indices 1 2 3 4 5 6 
#
# 1 0.019507 -0.003181 0.004519 0.000000 0.000000 0.000000
# 2 -0.003181 0.006245 -0.005720 0.000000 0.000000 0.000000
# 3 0.004519 -0.005720 0.011789 0.000000 0.000000 0.000000
# 4 0.000000 0.000000 0.000000 -0.023197 0.000000 0.000000
# 5 0.000000 0.000000 0.000000 0.000000 0.035226 0.000000
# 6 0.000000 0.000000 0.000000 0.000000 0.000000 0.177019
#
#
# Mechanical properties :
#
#
# Convention : Reuss Voigt Hill
#
# Bulk Modulus (GPa) = 34.74910 86.93256 60.84083
# Shear Modulus (GPa) = 20.41280 22.72053 21.56666
#
# Velocity S-wave (km/s) = 3.09306 3.26322 3.17928
# Velocity P-wave (km/s) = 5.38908 7.41225 6.48011
#
# Compressibility (1/GPa) = 0.02877772
#
# Stress axis : x y z
#
# Youngs Moduli (GPa) = 51.26359 160.13635 84.82327
#
# Poissons Ratio (x) = 0.50935 -0.38333
# Poissons Ratio (y) = 0.16306 0.48519
# Poissons Ratio (z) = -0.23167 0.91598
#
# Static dielectric constant tensor:
#      x y z
#    x 1.779700 0.000000 0.000000 
#    y 0.000000 1.815080 0.000000 
#    z 0.000000 0.000000 1.683890 
# 
# From -- ./inp_files/5619.got.cif
#   From: 2010.05.17/outbox.cif.g08.bks.cpg/sg51_3_cif.got.tgz:5619.got - 2010.06.03 11:52:47.
