data_PCOD9405127
_publ_section_title
;
Structure prediction by ZEFSAII (Michael W. Deem and Ramdas Pophale) SiO2 
 PCOD9405127
Probable space group: P M M A
;
_chemical_formula_sum "Si O2"
_cell_formula_units_Z 48
_cell_length_a 18.944340
_cell_length_b 8.490230
_cell_length_c 14.660701
_cell_angle_alpha 90.000000
_cell_angle_beta 90.000000
_cell_angle_gamma 90.000000
_cell_volume 2358.053594
_symmetry_space_group_name_H-M "P M M A"
_symmetry_group_IT_number 51
_symmetry_cell_setting 'orthorhombic'
loop_
_space_group_symop_operation_xyz
x,y,z
1/2-x,-y,z
1/2+x,-y,-z
-x,y,-z
-x,-y,-z
1/2+x,y,-z
1/2-x,y,z
x,-y,z
loop_
_atom_site_type_symbol
_atom_site_label
_atom_site_fract_x
_atom_site_fract_y
_atom_site_fract_z
Si Si1 0.404621 0.188891 0.747259
Si Si2 0.351665 0.183240 0.138283
Si Si3 0.825742 0.688400 0.664496
Si Si4 0.250000 0.810192 0.780211
Si Si5 0.750000 0.312420 0.012713
Si Si6 0.501123 0.679445 0.891392
Si Si7 0.520002 0.309410 0.603004
O O1 0.323438 0.240584 0.733438
O O2 0.430764 0.260593 0.843295
O O3 0.461132 0.246070 0.672689
O O4 0.406840 0.000000 0.751577
O O5 0.326214 0.271875 0.228416
O O6 0.435218 0.208667 0.137016
O O7 0.334026 0.000000 0.143846
O O8 0.316496 0.254733 0.047750
O O9 0.750000 0.747703 0.626719
O O10 0.826377 0.500000 0.652708
O O11 0.900414 0.747960 0.625417
O O12 0.250000 0.755718 0.885591
O O13 0.250000 0.000000 0.780515
O O14 0.750000 0.500000 0.017482
O O15 0.515860 0.500000 0.860480
O O16 0.500000 0.679704 0.000000
O O17 0.500000 0.266455 0.500000
O O18 0.519696 0.500000 0.610447
#
# Coordination Sequence:
#
# PCOD9405127 Si02
#       7
#     8   8   8   4   4   8   8
#     4  11  23  41  65  90 124 167 211 264 322 381
#     4  12  23  35  56  86 122 163 207 254 310 372
#     4  10  20  37  62  89 124 165 202 249 312 377
#     4  10  24  44  62  87 126 169 214 263 319 379
#     4  12  24  38  58  87 126 171 216 265 315 365
#     4  11  23  38  58  86 120 161 210 261 312 374
#     4  10  22  42  67  96 129 164 208 265 325 385
#
# _framework density 20.355772999999999
#
# number of rings (size 3 to 8) (size 9 to 14) (size 15 to 20)
#    0.000    1.167    2.500    4.250    0.000    5.667 
#    1.500    0.000    0.000    0.000    0.000    0.000 
#    0.000    0.000    0.000    0.000    0.000    0.000 
#
# Total GULP energy -268175.553453 kJ/mol
# GULP energy per Si atom -5586.990697 kJ/mol
# Density = 2.030944 g / cm^3
# Si number density = 20.355773 Si / 1000 Ang^3
#
#
#
# Elastic Constant Matrix: (Units=GPa)
#
#
# Indices 1 2 3 4 5 6 
#
# 1 193.5735 24.2234 55.2671 0.0000 0.0000 0.0000
# 2 24.2234 28.0295 7.0602 0.0000 0.0000 0.0000
# 3 55.2671 7.0602 88.0388 0.0000 0.0000 0.0000
# 4 0.0000 0.0000 0.0000 -4.4241 0.0000 0.0000
# 5 0.0000 0.0000 0.0000 0.0000 21.2844 0.0000
# 6 0.0000 0.0000 0.0000 0.0000 0.0000 22.8251
#
#
#
# Elastic Compliance Matrix: (Units=1/GPa)
#
#
# Indices 1 2 3 4 5 6 
#
# 1 0.006915 -0.004983 -0.003941 0.000000 0.000000 0.000000
# 2 -0.004983 0.040003 -0.000080 0.000000 0.000000 0.000000
# 3 -0.003941 -0.000080 0.013839 0.000000 0.000000 0.000000
# 4 0.000000 0.000000 0.000000 -0.226034 0.000000 0.000000
# 5 0.000000 0.000000 0.000000 0.000000 0.046983 0.000000
# 6 0.000000 0.000000 0.000000 0.000000 0.000000 0.043811
#
#
# Mechanical properties :
#
#
# Convention : Reuss Voigt Hill
#
# Bulk Modulus (GPa) = 23.39245 53.63815 38.51530
# Shear Modulus (GPa) = -118.41365 22.80982 -47.80191
#
# Velocity S-wave (km/s) = -7.63533 3.35110 -4.85121
# Velocity P-wave (km/s) = 8.13722 6.43279 3.52375
#
# Compressibility (1/GPa) = 0.04274884
#
# Stress axis : x y z
#
# Youngs Moduli (GPa) = 144.61669 24.99798 72.25871
#
# Poissons Ratio (x) = 0.12457 0.28479
# Poissons Ratio (y) = 0.72064 0.00577
# Poissons Ratio (z) = 0.56997 0.00200
#
# Static dielectric constant tensor:
#      x y z
#    x 1.784580 0.000000 0.000000 
#    y 0.000000 1.694360 0.000000 
#    z 0.000000 0.000000 1.685610 
# 
# From -- ./inp_files/24978.got.cif
#   From: 2010.05.17/outbox.cif.g08.bks.cpg/sg51_13_cif.got.tgz:24978.got - 2010.06.03 11:52:47.
