data_PCOD9405996
_publ_section_title
;
Structure prediction by ZEFSAII (Michael W. Deem and Ramdas Pophale) SiO2 
 PCOD9405996
Probable space group: P M M A
;
_chemical_formula_sum "Si O2"
_cell_formula_units_Z 64
_cell_length_a 15.053440
_cell_length_b 8.881985
_cell_length_c 24.338508
_cell_angle_alpha 90.000000
_cell_angle_beta 90.000000
_cell_angle_gamma 90.000000
_cell_volume 3254.166297
_symmetry_space_group_name_H-M "P M M A"
_symmetry_group_IT_number 51
_symmetry_cell_setting 'orthorhombic'
loop_
_space_group_symop_operation_xyz
x,y,z
1/2-x,-y,z
1/2+x,-y,-z
-x,y,-z
-x,-y,-z
1/2+x,y,-z
1/2-x,y,z
x,-y,z
loop_
_atom_site_type_symbol
_atom_site_label
_atom_site_fract_x
_atom_site_fract_y
_atom_site_fract_z
Si Si1 0.852613 0.816627 0.902523
Si Si2 0.105926 0.674639 0.509522
Si Si3 0.358029 0.172406 0.976690
Si Si4 0.014425 0.321213 0.312015
Si Si5 0.647272 0.178890 0.372770
Si Si6 0.645844 0.321266 0.137892
Si Si7 0.982726 0.180366 0.804268
Si Si8 0.649041 0.824705 0.603636
O O1 0.750000 0.767873 0.895085
O O2 0.915542 0.770577 0.852738
O O3 0.851711 0.000000 0.904016
O O4 0.886710 0.771282 0.963192
O O5 0.134173 0.500000 0.509548
O O6 0.129246 0.750613 0.567241
O O7 0.146137 0.763894 0.458362
O O8 0.000000 0.678226 0.500000
O O9 0.250000 0.167095 0.980117
O O10 0.379712 0.271355 0.924008
O O11 0.389275 0.000000 0.967869
O O12 0.010067 0.500000 0.308858
O O13 0.041866 0.251413 0.253912
O O14 0.083042 0.270461 0.358976
O O15 0.919585 0.254872 0.330235
O O16 0.750000 0.204064 0.358316
O O17 0.630849 0.000000 0.374954
O O18 0.750000 0.282415 0.145736
O O19 0.636171 0.500000 0.144276
O O20 0.580534 0.235459 0.178678
O O21 0.980357 0.000000 0.800636
O O22 0.750000 0.813160 0.624158
O O23 0.622172 0.000000 0.604490
#
# Coordination Sequence:
#
# PCOD9405996 Si02
#       8
#     8   8   8   8   8   8   8   8
#     4   8  16  33  58  87 116 147 187 235 287 345
#     4  11  22  37  62  97 132 165 195 237 298 355
#     4   8  14  29  55  84 113 146 186 233 285 345
#     4  12  26  44  63  86 119 158 200 249 304 356
#     4  11  24  42  66  94 122 157 201 247 296 353
#     4  10  21  37  56  81 116 155 193 238 293 350
#     4  11  23  39  61  86 113 151 198 246 293 347
#     4  11  24  42  66  94 123 160 204 248 294 347
#
# _framework density 19.667095
#
# number of rings (size 3 to 8) (size 9 to 14) (size 15 to 20)
#    0.000    1.750    1.250    4.125    0.000    6.250 
#    0.000    5.000    0.000    2.625    0.000    0.000 
#    0.000    0.000    0.000    0.000    0.000    0.000 
#
# Total GULP energy -357731.001954 kJ/mol
# GULP energy per Si atom -5589.546906 kJ/mol
# Density = 1.962233 g / cm^3
# Si number density = 19.667095 Si / 1000 Ang^3
#
#
#
# Elastic Constant Matrix: (Units=GPa)
#
#
# Indices 1 2 3 4 5 6 
#
# 1 47.5919 16.3792 -8.6852 0.0000 0.0000 0.0000
# 2 16.3792 71.3860 2.0484 0.0000 0.0000 0.0000
# 3 -8.6852 2.0484 48.5303 0.0000 0.0000 0.0000
# 4 0.0000 0.0000 0.0000 94.2042 0.0000 0.0000
# 5 0.0000 0.0000 0.0000 0.0000 -10.7194 0.0000
# 6 0.0000 0.0000 0.0000 0.0000 0.0000 55.2645
#
#
#
# Elastic Compliance Matrix: (Units=1/GPa)
#
#
# Indices 1 2 3 4 5 6 
#
# 1 0.023750 -0.005578 0.004486 0.000000 0.000000 0.000000
# 2 -0.005578 0.015335 -0.001646 0.000000 0.000000 0.000000
# 3 0.004486 -0.001646 0.021478 0.000000 0.000000 0.000000
# 4 0.000000 0.000000 0.000000 0.010615 0.000000 0.000000
# 5 0.000000 0.000000 0.000000 0.000000 -0.093289 0.000000
# 6 0.000000 0.000000 0.000000 0.000000 0.000000 0.018095
#
#
# Mechanical properties :
#
#
# Convention : Reuss Voigt Hill
#
# Bulk Modulus (GPa) = 18.15271 20.77702 19.46486
# Shear Modulus (GPa) = 252.22839 38.26759 145.24799
#
# Velocity S-wave (km/s) = 11.33699 4.41587 8.60312
# Velocity P-wave (km/s) = 13.43949 6.04873 10.42130
#
# Compressibility (1/GPa) = 0.05508820
#
# Stress axis : x y z
#
# Youngs Moduli (GPa) = 42.10452 65.20840 46.55937
#
# Poissons Ratio (x) = 0.36374 -0.20886
# Poissons Ratio (y) = 0.23487 0.07662
# Poissons Ratio (z) = -0.18888 0.10731
#
# Static dielectric constant tensor:
#      x y z
#    x 1.709820 0.000000 0.000000 
#    y 0.000000 1.658220 0.000000 
#    z 0.000000 0.000000 1.668190 
# 
# From -- ./inp_files/35862.got.cif
#   From: 2010.05.17/outbox.cif.g08.bks.cpg/sg51_18_cif.got.tgz:35862.got - 2010.06.03 11:52:47.
