data_PCOD9405312
_publ_section_title
;
Structure prediction by ZEFSAII (Michael W. Deem and Ramdas Pophale) SiO2 
 PCOD9405312
Probable space group: P M M A
;
_chemical_formula_sum "Si O2"
_cell_formula_units_Z 48
_cell_length_a 8.485541
_cell_length_b 32.838764
_cell_length_c 9.243199
_cell_angle_alpha 90.000000
_cell_angle_beta 90.000000
_cell_angle_gamma 90.000000
_cell_volume 2575.660644
_symmetry_space_group_name_H-M "P M M A"
_symmetry_group_IT_number 51
_symmetry_cell_setting 'orthorhombic'
loop_
_space_group_symop_operation_xyz
x,y,z
1/2-x,-y,z
1/2+x,-y,-z
-x,y,-z
-x,-y,-z
1/2+x,y,-z
1/2-x,y,z
x,-y,z
loop_
_atom_site_type_symbol
_atom_site_label
_atom_site_fract_x
_atom_site_fract_y
_atom_site_fract_z
Si Si1 0.440335 0.500000 0.163441
Si Si2 0.940768 0.000000 0.662509
Si Si3 0.060580 0.256103 0.166066
Si Si4 0.439123 0.580421 0.336787
Si Si5 0.062618 0.341715 0.835092
Si Si6 0.940131 0.168202 0.834444
Si Si7 0.559355 0.079586 0.835470
O O1 0.250000 0.500000 0.161354
O O2 0.492584 0.540544 0.247861
O O3 0.500000 0.500000 0.000000
O O4 0.995246 0.040836 0.744456
O O5 0.000000 0.000000 0.500000
O O6 0.750000 0.000000 0.663869
O O7 0.750000 0.258671 0.833992
O O8 0.992686 0.298004 0.227429
O O9 0.011023 0.212038 0.230272
O O10 0.000000 0.255370 0.000000
O O11 0.500000 0.578434 0.500000
O O12 0.250000 0.580850 0.337691
O O13 0.499189 0.620914 0.257896
O O14 0.250000 0.342525 0.839831
O O15 0.000000 0.345184 0.000000
O O16 0.750000 0.168543 0.836191
O O17 0.990693 0.124113 0.774565
O O18 0.000000 0.168030 0.000000
O O19 0.750000 0.078986 0.838152
O O20 0.500000 0.076184 0.000000
#
# Coordination Sequence:
#
# PCOD9405312 Si02
#       7
#     4   4   8   8   8   8   8
#     4  10  23  40  62  88 114 142 177 218 261 308
#     4  10  21  34  48  66  94 128 163 200 244 296
#     4   9  15  25  43  69  99 132 166 207 255 304
#     4  11  23  40  59  83 112 145 181 219 263 312
#     4  11  21  34  53  79 109 143 180 221 261 305
#     4   8  14  24  41  66  96 125 157 199 251 300
#     4   9  17  30  48  72  97 124 159 203 250 300
#
# _framework density 18.635995999999999
#
# number of rings (size 3 to 8) (size 9 to 14) (size 15 to 20)
#    0.000    2.333    0.000    4.500    0.000    4.000 
#    0.000    0.000    0.000    1.000    0.000    2.333 
#    0.000    0.000    0.000    0.000    0.000    0.000 
#
# Total GULP energy -267568.908662 kJ/mol
# GULP energy per Si atom -5574.352264 kJ/mol
# Density = 1.859358 g / cm^3
# Si number density = 18.635996 Si / 1000 Ang^3
#
#
#
# Elastic Constant Matrix: (Units=GPa)
#
#
# Indices 1 2 3 4 5 6 
#
# 1 50.4242 43.1430 19.0044 0.0000 0.0000 0.0000
# 2 43.1430 251.0845 84.7978 0.0000 0.0000 0.0000
# 3 19.0044 84.7978 80.7404 0.0000 0.0000 0.0000
# 4 0.0000 0.0000 0.0000 -6.0299 0.0000 0.0000
# 5 0.0000 0.0000 0.0000 0.0000 24.4317 0.0000
# 6 0.0000 0.0000 0.0000 0.0000 0.0000 5.2899
#
#
#
# Elastic Compliance Matrix: (Units=1/GPa)
#
#
# Indices 1 2 3 4 5 6 
#
# 1 0.023456 -0.003356 -0.001996 0.000000 0.000000 0.000000
# 2 -0.003356 0.006652 -0.006196 0.000000 0.000000 0.000000
# 3 -0.001996 -0.006196 0.019363 0.000000 0.000000 0.000000
# 4 0.000000 0.000000 0.000000 -0.165839 0.000000 0.000000
# 5 0.000000 0.000000 0.000000 0.000000 0.040930 0.000000
# 6 0.000000 0.000000 0.000000 0.000000 0.000000 0.189039
#
#
# Mechanical properties :
#
#
# Convention : Reuss Voigt Hill
#
# Bulk Modulus (GPa) = 37.91706 75.12660 56.52183
# Shear Modulus (GPa) = 34.36667 20.42526 27.39597
#
# Velocity S-wave (km/s) = 4.29896 3.31420 3.83829
# Velocity P-wave (km/s) = 6.71057 7.41926 7.07379
#
# Compressibility (1/GPa) = 0.02637336
#
# Stress axis : x y z
#
# Youngs Moduli (GPa) = 42.63378 150.32868 51.64489
#
# Poissons Ratio (x) = 0.50453 0.10309
# Poissons Ratio (y) = 0.14309 0.32001
# Poissons Ratio (z) = 0.08510 0.93150
#
# Static dielectric constant tensor:
#      x y z
#    x 1.621080 0.000000 0.000000 
#    y 0.000000 1.715500 0.000000 
#    z 0.000000 0.000000 1.589970 
# 
# From -- ./inp_files/6213.got.cif
#   From: 2010.05.17/outbox.cif.g08.bks.cpg/sg51_4_cif.got.tgz:6213.got - 2010.06.03 11:52:47.
