data_PCOD9405152
_publ_section_title
;
Structure prediction by ZEFSAII (Michael W. Deem and Ramdas Pophale) SiO2 
 PCOD9405152
Probable space group: P M M A
;
_chemical_formula_sum "Si O2"
_cell_formula_units_Z 58
_cell_length_a 7.724256
_cell_length_b 17.931957
_cell_length_c 19.660679
_cell_angle_alpha 90.000000
_cell_angle_beta 90.000000
_cell_angle_gamma 90.000000
_cell_volume 2723.220829
_symmetry_space_group_name_H-M "P M M A"
_symmetry_group_IT_number 51
_symmetry_cell_setting 'orthorhombic'
loop_
_space_group_symop_operation_xyz
x,y,z
1/2-x,-y,z
1/2+x,-y,-z
-x,y,-z
-x,-y,-z
1/2+x,y,-z
1/2-x,y,z
x,-y,z
loop_
_atom_site_type_symbol
_atom_site_label
_atom_site_fract_x
_atom_site_fract_y
_atom_site_fract_z
Si Si1 0.957733 0.085186 0.075245
Si Si2 0.548616 0.618234 0.641625
Si Si3 0.037340 0.829589 0.791935
Si Si4 0.043684 0.585485 0.074889
Si Si5 0.454170 0.225154 0.422075
Si Si6 0.046566 0.340205 0.783787
Si Si7 0.454917 0.082906 0.660179
Si Si8 0.250000 0.500000 0.606258
O O1 0.750000 0.081711 0.080896
O O2 0.020431 0.136293 0.136491
O O3 0.024052 0.000000 0.080991
O O4 0.000000 0.113351 0.000000
O O5 0.750000 0.605816 0.619557
O O6 0.494698 0.703077 0.622413
O O7 0.541186 0.612750 0.723771
O O8 0.405249 0.564250 0.610232
O O9 0.250000 0.828488 0.791643
O O10 0.980559 0.744670 0.782468
O O11 0.976309 0.881562 0.730213
O O12 0.250000 0.583838 0.080634
O O13 0.977041 0.500000 0.076557
O O14 0.975038 0.628376 0.140438
O O15 0.000000 0.616721 0.000000
O O16 0.500000 0.239353 0.500000
O O17 0.250000 0.219358 0.415314
O O18 0.524479 0.146196 0.396518
O O19 0.250000 0.340546 0.767292
O O20 0.250000 0.075145 0.670474
O O21 0.524633 0.000000 0.645305
#
# Coordination Sequence:
#
# PCOD9405152 Si02
#       8
#     8   8   8   8   8   8   8   2
#     4   9  17  31  50  74 107 151 205 263 323 385
#     4  11  25  45  69 106 138 175 231 274 335 404
#     4   9  18  33  56  84 118 162 212 265 325 394
#     4  10  22  39  57  81 115 157 208 274 337 404
#     4  11  25  44  72  98 135 181 217 268 332 399
#     4  11  21  36  61  90 124 170 213 266 334 404
#     4  10  20  37  65  98 131 171 225 279 330 397
#     4  12  26  44  78 102 138 184 212 292 334 390
#
# _framework density 21.298310000000001
#
# number of rings (size 3 to 8) (size 9 to 14) (size 15 to 20)
#    0.000    1.793    2.069    1.862    2.897    3.586 
#    0.000    3.793    0.000    1.655    0.000    0.000 
#    0.000    0.000    0.000    0.000    0.000    0.000 
#
# Total GULP energy -323408.338921 kJ/mol
# GULP energy per Si atom -5576.005843 kJ/mol
# Density = 2.124983 g / cm^3
# Si number density = 21.298310 Si / 1000 Ang^3
#
#
#
# Elastic Constant Matrix: (Units=GPa)
#
#
# Indices 1 2 3 4 5 6 
#
# 1 69.1794 24.8056 -6.5796 0.0000 0.0000 0.0000
# 2 24.8056 101.3378 18.0268 0.0000 0.0000 0.0000
# 3 -6.5796 18.0268 80.4625 0.0000 0.0000 0.0000
# 4 0.0000 0.0000 0.0000 -0.2820 0.0000 0.0000
# 5 0.0000 0.0000 0.0000 0.0000 25.1724 0.0000
# 6 0.0000 0.0000 0.0000 0.0000 0.0000 19.4828
#
#
#
# Elastic Compliance Matrix: (Units=1/GPa)
#
#
# Indices 1 2 3 4 5 6 
#
# 1 0.016249 -0.004389 0.002312 0.000000 0.000000 0.000000
# 2 -0.004389 0.011463 -0.002927 0.000000 0.000000 0.000000
# 3 0.002312 -0.002927 0.013273 0.000000 0.000000 0.000000
# 4 0.000000 0.000000 0.000000 -3.545524 0.000000 0.000000
# 5 0.000000 0.000000 0.000000 0.000000 0.039726 0.000000
# 6 0.000000 0.000000 0.000000 0.000000 0.000000 0.051327
#
#
# Mechanical properties :
#
#
# Convention : Reuss Voigt Hill
#
# Bulk Modulus (GPa) = 32.28193 35.94284 34.11239
# Shear Modulus (GPa) = -1.47356 23.18976 10.85810
#
# Velocity S-wave (km/s) = -0.83269 3.30329 2.26035
# Velocity P-wave (km/s) = 3.77696 5.60906 4.78158
#
# Compressibility (1/GPa) = 0.03097708
#
# Stress axis : x y z
#
# Youngs Moduli (GPa) = 61.54341 87.23778 75.34112
#
# Poissons Ratio (x) = 0.38286 -0.17418
# Poissons Ratio (y) = 0.27009 0.22053
# Poissons Ratio (z) = -0.14228 0.25535
#
# Static dielectric constant tensor:
#      x y z
#    x 1.792420 0.000000 0.000000 
#    y 0.000000 1.779050 0.000000 
#    z 0.000000 0.000000 1.753760 
# 
# From -- ./inp_files/28066.got.cif
#   From: 2010.05.17/outbox.cif.g08.bks.cpg/sg51_15_cif.got.tgz:28066.got - 2010.06.03 11:52:47.
