data_PCOD9405173
_publ_section_title
;
Structure prediction by ZEFSAII (Michael W. Deem and Ramdas Pophale) SiO2 
 PCOD9405173
Probable space group: P M M A
;
_chemical_formula_sum "Si O2"
_cell_formula_units_Z 56
_cell_length_a 15.898491
_cell_length_b 14.692718
_cell_length_c 11.918223
_cell_angle_alpha 90.000000
_cell_angle_beta 90.000000
_cell_angle_gamma 90.000000
_cell_volume 2784.002082
_symmetry_space_group_name_H-M "P M M A"
_symmetry_group_IT_number 51
_symmetry_cell_setting 'orthorhombic'
loop_
_space_group_symop_operation_xyz
x,y,z
1/2-x,-y,z
1/2+x,-y,-z
-x,y,-z
-x,-y,-z
1/2+x,y,-z
1/2-x,y,z
x,-y,z
loop_
_atom_site_type_symbol
_atom_site_label
_atom_site_fract_x
_atom_site_fract_y
_atom_site_fract_z
Si Si1 0.010940 0.393898 0.718806
Si Si2 0.404088 0.143446 0.989771
Si Si3 0.156357 0.103634 0.749592
Si Si4 0.002032 0.202218 0.628607
Si Si5 0.847838 0.891622 0.757877
Si Si6 0.837033 0.395234 0.835059
Si Si7 0.087000 0.358316 0.944352
O O1 0.006609 0.500000 0.682217
O O2 0.082387 0.386274 0.815393
O O3 0.018019 0.311479 0.632455
O O4 0.924179 0.364120 0.782327
O O5 0.357101 0.101629 0.883844
O O6 0.410414 0.249923 0.957707
O O7 0.500000 0.109156 0.000000
O O8 0.360827 0.130060 0.109719
O O9 0.250000 0.140573 0.725947
O O10 0.080451 0.159108 0.695375
O O11 0.152235 0.000000 0.708000
O O12 0.916797 0.166820 0.689541
O O13 0.000000 0.171998 0.500000
O O14 0.750000 0.874687 0.727641
O O15 0.864451 0.000000 0.742252
O O16 0.750000 0.348481 0.799847
O O17 0.833301 0.500000 0.800603
O O18 0.843843 0.392508 0.969435
O O19 0.000000 0.392766 0.000000
#
# Coordination Sequence:
#
# PCOD9405173 Si02
#       7
#     8   8   8   8   8   8   8
#     4  10  20  38  60  83 117 159 206 261 316 368
#     4  11  19  34  62  97 134 169 199 242 306 376
#     4  11  24  42  65  94 127 165 208 255 314 384
#     4  12  26  45  66  89 121 166 220 274 323 372
#     4  11  24  41  65  99 134 168 209 259 317 381
#     4   9  17  28  48  83 119 152 193 239 295 368
#     4   9  16  29  50  79 118 159 193 231 289 361
#
# _framework density 20.114927999999999
#
# number of rings (size 3 to 8) (size 9 to 14) (size 15 to 20)
#    0.000    1.571    2.857    3.429    0.000    8.286 
#    0.000    1.429    0.000    0.429    0.000    2.000 
#    0.000    0.000    0.000    0.000    0.000    0.000 
#
# Total GULP energy -312228.814533 kJ/mol
# GULP energy per Si atom -5575.514545 kJ/mol
# Density = 2.006915 g / cm^3
# Si number density = 20.114928 Si / 1000 Ang^3
#
#
#
# Elastic Constant Matrix: (Units=GPa)
#
#
# Indices 1 2 3 4 5 6 
#
# 1 105.7710 30.8348 25.7011 0.0000 0.0000 0.0000
# 2 30.8348 115.8302 22.6488 0.0000 0.0000 0.0000
# 3 25.7011 22.6488 89.3011 0.0000 0.0000 0.0000
# 4 0.0000 0.0000 0.0000 2.4072 0.0000 0.0000
# 5 0.0000 0.0000 0.0000 0.0000 -27.4100 0.0000
# 6 0.0000 0.0000 0.0000 0.0000 0.0000 -21.0263
#
#
#
# Elastic Compliance Matrix: (Units=1/GPa)
#
#
# Indices 1 2 3 4 5 6 
#
# 1 0.010752 -0.002375 -0.002492 0.000000 0.000000 0.000000
# 2 -0.002375 0.009608 -0.001753 0.000000 0.000000 0.000000
# 3 -0.002492 -0.001753 0.012360 0.000000 0.000000 0.000000
# 4 0.000000 0.000000 0.000000 0.415426 0.000000 0.000000
# 5 0.000000 0.000000 0.000000 0.000000 -0.036483 0.000000
# 6 0.000000 0.000000 0.000000 0.000000 0.000000 -0.047559
#
#
# Mechanical properties :
#
#
# Convention : Reuss Voigt Hill
#
# Bulk Modulus (GPa) = 51.33577 52.14129 51.73853
# Shear Modulus (GPa) = 13.02630 6.24202 9.63416
#
# Velocity S-wave (km/s) = 2.54755 1.76350 2.19088
# Velocity P-wave (km/s) = 5.85064 5.48858 5.67250
#
# Compressibility (1/GPa) = 0.01947959
#
# Stress axis : x y z
#
# Youngs Moduli (GPa) = 93.00301 104.07539 80.90600
#
# Poissons Ratio (x) = 0.24718 0.20163
# Poissons Ratio (y) = 0.22089 0.14186
# Poissons Ratio (z) = 0.23178 0.18248
#
# Static dielectric constant tensor:
#      x y z
#    x 1.752290 0.000000 0.000000 
#    y 0.000000 1.770050 0.000000 
#    z 0.000000 0.000000 1.691680 
# 
# From -- ./inp_files/16683.got.cif
#   From: 2010.05.17/outbox.cif.g08.bks.cpg/sg51_9_cif.got.tgz:16683.got - 2010.06.03 11:52:47.
