data_PCOD9405217
_publ_section_title
;
Structure prediction by ZEFSAII (Michael W. Deem and Ramdas Pophale) SiO2 
 PCOD9405217
Probable space group: P M M A
;
_chemical_formula_sum "Si O2"
_cell_formula_units_Z 40
_cell_length_a 16.999323
_cell_length_b 7.700830
_cell_length_c 11.753013
_cell_angle_alpha 90.000000
_cell_angle_beta 90.000000
_cell_angle_gamma 90.000000
_cell_volume 1538.573963
_symmetry_space_group_name_H-M "P M M A"
_symmetry_group_IT_number 51
_symmetry_cell_setting 'orthorhombic'
loop_
_space_group_symop_operation_xyz
x,y,z
1/2-x,-y,z
1/2+x,-y,-z
-x,y,-z
-x,-y,-z
1/2+x,y,-z
1/2-x,y,z
x,-y,z
loop_
_atom_site_type_symbol
_atom_site_label
_atom_site_fract_x
_atom_site_fract_y
_atom_site_fract_z
Si Si1 0.109897 0.202503 0.536669
Si Si2 0.006884 0.292461 0.737726
Si Si3 0.250000 0.201373 0.967431
Si Si4 0.418045 0.203686 0.960924
Si Si5 0.250000 0.707253 0.706747
Si Si6 0.337725 0.701455 0.287747
O O1 0.176518 0.240301 0.630096
O O2 0.140414 0.294091 0.422254
O O3 0.032211 0.252071 0.608760
O O4 0.106155 0.000000 0.508866
O O5 0.007385 0.500000 0.749632
O O6 0.918718 0.223311 0.764263
O O7 0.069655 0.215758 0.825203
O O8 0.334496 0.280093 0.999920
O O9 0.250000 0.206457 0.830226
O O10 0.250000 0.000000 0.003743
O O11 0.417529 0.000000 0.991390
O O12 0.500000 0.287008 0.000000
O O13 0.250000 0.500000 0.725454
O O14 0.250000 0.777555 0.268812
O O15 0.333749 0.500000 0.254125
#
# Coordination Sequence:
#
# PCOD9405217 Si02
#       6
#     8   8   4   8   4   8
#     4  12  23  36  58  89 122 158 200 249 301 353
#     4  11  23  39  61  88 119 158 203 251 304 359
#     4  10  20  38  64  89 118 157 198 243 302 366
#     4  10  22  41  64  90 121 157 198 249 308 365
#     4  12  22  34  58  89 120 157 200 247 296 348
#     4  10  22  40  59  81 118 166 208 245 294 357
#
# _framework density 25.998099
#
# number of rings (size 3 to 8) (size 9 to 14) (size 15 to 20)
#    0.000    1.200    3.000    3.900    0.000    4.400 
#    1.800    0.000    0.000    0.000    0.000    0.000 
#    0.000    0.000    0.000    0.000    0.000    0.000 
#
# Total GULP energy -223716.218547 kJ/mol
# GULP energy per Si atom -5592.905464 kJ/mol
# Density = 2.593893 g / cm^3
# Si number density = 25.998099 Si / 1000 Ang^3
#
#
#
# Elastic Constant Matrix: (Units=GPa)
#
#
# Indices 1 2 3 4 5 6 
#
# 1 254.7972 12.7888 16.6596 0.0000 0.0000 0.0000
# 2 12.7888 100.4696 1.7395 0.0000 0.0000 0.0000
# 3 16.6596 1.7395 66.0903 0.0000 0.0000 0.0000
# 4 0.0000 0.0000 0.0000 24.2763 0.0000 0.0000
# 5 0.0000 0.0000 0.0000 0.0000 42.5099 0.0000
# 6 0.0000 0.0000 0.0000 0.0000 0.0000 16.2728
#
#
#
# Elastic Compliance Matrix: (Units=1/GPa)
#
#
# Indices 1 2 3 4 5 6 
#
# 1 0.004015 -0.000494 -0.000999 0.000000 0.000000 0.000000
# 2 -0.000494 0.010019 -0.000139 0.000000 0.000000 0.000000
# 3 -0.000999 -0.000139 0.015386 0.000000 0.000000 0.000000
# 4 0.000000 0.000000 0.000000 0.041192 0.000000 0.000000
# 5 0.000000 0.000000 0.000000 0.000000 0.023524 0.000000
# 6 0.000000 0.000000 0.000000 0.000000 0.000000 0.061452
#
#
# Mechanical properties :
#
#
# Convention : Reuss Voigt Hill
#
# Bulk Modulus (GPa) = 38.23273 53.74810 45.99041
# Shear Modulus (GPa) = 29.83815 42.62308 36.23062
#
# Velocity S-wave (km/s) = 3.39146 4.05343 3.73713
# Velocity P-wave (km/s) = 5.48396 6.52884 6.02908
#
# Compressibility (1/GPa) = 0.02615560
#
# Stress axis : x y z
#
# Youngs Moduli (GPa) = 249.07883 99.81511 64.99288
#
# Poissons Ratio (x) = 0.04928 0.06493
# Poissons Ratio (y) = 0.12298 0.00905
# Poissons Ratio (z) = 0.24884 0.01390
#
# Static dielectric constant tensor:
#      x y z
#    x 2.112960 0.000000 0.000000 
#    y 0.000000 1.934550 0.000000 
#    z 0.000000 0.000000 2.078270 
# 
# From -- ./inp_files/23747.got.cif
#   From: 2010.05.17/outbox.cif.g08.bks.cpg/sg51_12_cif.got.tgz:23747.got - 2010.06.03 11:52:47.
