data_PCOD9405404
_publ_section_title
;
Structure prediction by ZEFSAII (Michael W. Deem and Ramdas Pophale) SiO2 
 PCOD9405404
Probable space group: P M M A
;
_chemical_formula_sum "Si O2"
_cell_formula_units_Z 44
_cell_length_a 7.501246
_cell_length_b 30.248699
_cell_length_c 9.062469
_cell_angle_alpha 90.000000
_cell_angle_beta 90.000000
_cell_angle_gamma 90.000000
_cell_volume 2056.300791
_symmetry_space_group_name_H-M "P M M A"
_symmetry_group_IT_number 51
_symmetry_cell_setting 'orthorhombic'
loop_
_space_group_symop_operation_xyz
x,y,z
1/2-x,-y,z
1/2+x,-y,-z
-x,y,-z
-x,-y,-z
1/2+x,y,-z
1/2-x,y,z
x,-y,z
loop_
_atom_site_type_symbol
_atom_site_label
_atom_site_fract_x
_atom_site_fract_y
_atom_site_fract_z
Si Si1 0.963728 0.589319 0.326541
Si Si2 0.463733 0.500000 0.826503
Si Si3 0.536304 0.678578 0.173318
Si Si4 0.536270 0.232297 0.327028
Si Si5 0.535999 0.143442 0.174767
Si Si6 0.463654 0.952525 0.823875
O O1 0.750000 0.589419 0.306225
O O2 0.033003 0.544772 0.249293
O O3 0.033033 0.634331 0.252384
O O4 0.000000 0.588766 0.500000
O O5 0.250000 0.500000 0.806263
O O6 0.500000 0.500000 0.000000
O O7 0.750000 0.678827 0.193883
O O8 0.467028 0.723942 0.245000
O O9 0.500000 0.677252 0.000000
O O10 0.500000 0.235021 0.500000
O O11 0.750000 0.231669 0.305829
O O12 0.466355 0.186434 0.258957
O O13 0.750000 0.142425 0.192482
O O14 0.467956 0.095289 0.228350
O O15 0.500000 0.147729 0.000000
O O16 0.250000 0.952726 0.803687
O O17 0.532304 0.000000 0.766234
O O18 0.500000 0.952481 0.000000
#
# Coordination Sequence:
#
# PCOD9405404 Si02
#       6
#     8   4   8   8   8   8
#     4  10  21  36  54  78 106 135 169 206 245 292
#     4  10  21  36  54  78 106 136 173 212 248 290
#     4  10  21  36  54  77 102 128 162 202 243 290
#     4  10  21  35  50  70  96 126 161 198 237 285
#     4   9  17  29  46  69  94 120 154 194 235 282
#     4   8  13  22  38  61  88 116 146 184 230 276
#
# _framework density 21.397648
#
# number of rings (size 3 to 8) (size 9 to 14) (size 15 to 20)
#    0.000    2.545    0.000    1.909    0.000    2.909 
#    0.000    0.000    0.000    0.545    0.000    0.000 
#    0.000    0.000    0.000    0.000    0.000    0.000 
#
# Total GULP energy -245576.014290 kJ/mol
# GULP energy per Si atom -5581.273052 kJ/mol
# Density = 2.134895 g / cm^3
# Si number density = 21.397648 Si / 1000 Ang^3
#
#
#
# Elastic Constant Matrix: (Units=GPa)
#
#
# Indices 1 2 3 4 5 6 
#
# 1 61.9310 16.2202 -13.6565 0.0000 0.0000 0.0000
# 2 16.2202 300.0268 124.3286 0.0000 0.0000 0.0000
# 3 -13.6565 124.3286 132.7743 0.0000 0.0000 0.0000
# 4 0.0000 0.0000 0.0000 3.2357 0.0000 0.0000
# 5 0.0000 0.0000 0.0000 0.0000 24.9836 0.0000
# 6 0.0000 0.0000 0.0000 0.0000 0.0000 -4.7937
#
#
#
# Elastic Compliance Matrix: (Units=1/GPa)
#
#
# Indices 1 2 3 4 5 6 
#
# 1 0.017875 -0.002824 0.004483 0.000000 0.000000 0.000000
# 2 -0.002824 0.005893 -0.005808 0.000000 0.000000 0.000000
# 3 0.004483 -0.005808 0.013431 0.000000 0.000000 0.000000
# 4 0.000000 0.000000 0.000000 0.309055 0.000000 0.000000
# 5 0.000000 0.000000 0.000000 0.000000 0.040026 0.000000
# 6 0.000000 0.000000 0.000000 0.000000 0.000000 -0.208608
#
#
# Mechanical properties :
#
#
# Convention : Reuss Voigt Hill
#
# Bulk Modulus (GPa) = 34.60134 83.16850 58.88492
# Shear Modulus (GPa) = 25.56172 29.20777 27.38474
#
# Velocity S-wave (km/s) = 3.46005 3.69860 3.58131
# Velocity P-wave (km/s) = 5.67172 7.56253 6.68432
#
# Compressibility (1/GPa) = 0.02890061
#
# Stress axis : x y z
#
# Youngs Moduli (GPa) = 55.94339 169.70427 74.45201
#
# Poissons Ratio (x) = 0.47926 -0.33377
# Poissons Ratio (y) = 0.15799 0.43244
# Poissons Ratio (z) = -0.25079 0.98568
#
# Static dielectric constant tensor:
#      x y z
#    x 1.772820 0.000000 0.000000 
#    y 0.000000 1.830850 0.000000 
#    z 0.000000 0.000000 1.679500 
# 
# From -- ./inp_files/5809.got.cif
#   From: 2010.05.17/outbox.cif.g08.bks.cpg/sg51_3_cif.got.tgz:5809.got - 2010.06.03 11:52:47.
