data_PCOD9405072
_publ_section_title
;
Structure prediction by ZEFSAII (Michael W. Deem and Ramdas Pophale) SiO2 
 PCOD9405072
Probable space group: P M M A
;
_chemical_formula_sum "Si O2"
_cell_formula_units_Z 48
_cell_length_a 19.338561
_cell_length_b 9.158131
_cell_length_c 15.410111
_cell_angle_alpha 90.000000
_cell_angle_beta 90.000000
_cell_angle_gamma 90.000000
_cell_volume 2729.208864
_symmetry_space_group_name_H-M "P M M A"
_symmetry_group_IT_number 51
_symmetry_cell_setting 'orthorhombic'
loop_
_space_group_symop_operation_xyz
x,y,z
1/2-x,-y,z
1/2+x,-y,-z
-x,y,-z
-x,-y,-z
1/2+x,y,-z
1/2-x,y,z
x,-y,z
loop_
_atom_site_type_symbol
_atom_site_label
_atom_site_fract_x
_atom_site_fract_y
_atom_site_fract_z
Si Si1 0.409115 0.324538 0.732329
Si Si2 0.831300 0.326121 0.444131
Si Si3 0.569631 0.325242 0.762166
Si Si4 0.331219 0.174125 0.375080
Si Si5 0.668625 0.174422 0.107874
Si Si6 0.577158 0.325411 0.965174
O O1 0.401872 0.500000 0.744017
O O2 0.376652 0.286098 0.639263
O O3 0.490254 0.289755 0.738559
O O4 0.368291 0.245007 0.808860
O O5 0.750000 0.298080 0.425577
O O6 0.838979 0.500000 0.459158
O O7 0.850442 0.241169 0.531375
O O8 0.578215 0.500000 0.751933
O O9 0.622037 0.243171 0.699465
O O10 0.581237 0.290018 0.863414
O O11 0.250000 0.209203 0.360758
O O12 0.338588 0.000000 0.376791
O O13 0.750000 0.208931 0.108768
O O14 0.660435 0.000000 0.109571
O O15 0.631982 0.240378 0.023171
O O16 0.587273 0.500000 0.975587
O O17 0.500000 0.292475 0.000000
#
# Coordination Sequence:
#
# PCOD9405072 Si02
#       6
#     8   8   8   8   8   8
#     4  10  20  37  60  86 115 148 189 236 284 336
#     4   9  18  34  58  84 110 146 190 234 281 331
#     4  10  21  37  60  86 112 144 186 237 286 335
#     4  10  22  39  57  79 112 152 190 232 282 338
#     4  11  24  38  55  85 121 154 189 231 281 339
#     4  10  20  39  62  83 110 147 192 236 282 335
#
# _framework density 17.587515
#
# number of rings (size 3 to 8) (size 9 to 14) (size 15 to 20)
#    0.000    2.000    1.667    1.500    0.000    6.667 
#    0.000    8.333    0.000    0.000    0.000    0.000 
#    0.000    0.000    0.000    0.000    0.000    0.000 
#
# Total GULP energy -268085.232158 kJ/mol
# GULP energy per Si atom -5585.109003 kJ/mol
# Density = 1.754748 g / cm^3
# Si number density = 17.587515 Si / 1000 Ang^3
#
#
#
# Elastic Constant Matrix: (Units=GPa)
#
#
# Indices 1 2 3 4 5 6 
#
# 1 128.3047 70.4505 116.4405 0.0000 0.0000 0.0000
# 2 70.4505 47.0355 79.1074 0.0000 0.0000 0.0000
# 3 116.4405 79.1074 192.1274 0.0000 0.0000 0.0000
# 4 0.0000 0.0000 0.0000 -4.5817 0.0000 0.0000
# 5 0.0000 0.0000 0.0000 0.0000 38.9246 0.0000
# 6 0.0000 0.0000 0.0000 0.0000 0.0000 28.2290
#
#
#
# Elastic Compliance Matrix: (Units=1/GPa)
#
#
# Indices 1 2 3 4 5 6 
#
# 1 0.044030 -0.068515 0.001526 0.000000 0.000000 0.000000
# 2 -0.068515 0.175756 -0.030843 0.000000 0.000000 0.000000
# 3 0.001526 -0.030843 0.016979 0.000000 0.000000 0.000000
# 4 0.000000 0.000000 0.000000 -0.218262 0.000000 0.000000
# 5 0.000000 0.000000 0.000000 0.000000 0.025691 0.000000
# 6 0.000000 0.000000 0.000000 0.000000 0.000000 0.035425
#
#
# Mechanical properties :
#
#
# Convention : Reuss Voigt Hill
#
# Bulk Modulus (GPa) = 24.32954 99.94048 62.13501
# Shear Modulus (GPa) = 17.30211 19.27900 18.29056
#
# Velocity S-wave (km/s) = 3.13992 3.31445 3.22836
# Velocity P-wave (km/s) = 5.19701 8.46141 7.02155
#
# Compressibility (1/GPa) = 0.04110230
#
# Stress axis : x y z
#
# Youngs Moduli (GPa) = 22.71200 5.68970 58.89536
#
# Poissons Ratio (x) = 0.38983 -0.08988
# Poissons Ratio (y) = 1.55611 1.81649
# Poissons Ratio (z) = -0.03466 0.17549
#
# Static dielectric constant tensor:
#      x y z
#    x 1.579060 0.000000 0.000000 
#    y 0.000000 1.582380 0.000000 
#    z 0.000000 0.000000 1.569100 
# 
# From -- ./inp_files/24813.got.cif
#   From: 2010.05.17/outbox.cif.g08.bks.cpg/sg51_13_cif.got.tgz:24813.got - 2010.06.03 11:52:47.
