data_PCOD9405153
_publ_section_title
;
Structure prediction by ZEFSAII (Michael W. Deem and Ramdas Pophale) SiO2 
 PCOD9405153
Probable space group: P M M A
;
_chemical_formula_sum "Si O2"
_cell_formula_units_Z 36
_cell_length_a 13.993383
_cell_length_b 15.760796
_cell_length_c 8.789110
_cell_angle_alpha 90.000000
_cell_angle_beta 90.000000
_cell_angle_gamma 90.000000
_cell_volume 1938.410567
_symmetry_space_group_name_H-M "P M M A"
_symmetry_group_IT_number 51
_symmetry_cell_setting 'orthorhombic'
loop_
_space_group_symop_operation_xyz
x,y,z
1/2-x,-y,z
1/2+x,-y,-z
-x,y,-z
-x,-y,-z
1/2+x,y,-z
1/2-x,y,z
x,-y,z
loop_
_atom_site_type_symbol
_atom_site_label
_atom_site_fract_x
_atom_site_fract_y
_atom_site_fract_z
Si Si1 0.960560 0.676527 0.669591
Si Si2 0.454908 0.000000 0.334214
Si Si3 0.750000 0.000000 0.532253
Si Si4 0.250000 0.835585 0.690826
Si Si5 0.954120 0.500000 0.830987
Si Si6 0.750000 0.500000 0.672594
Si Si7 0.043150 0.161405 0.831730
Si Si8 0.750000 0.686817 0.564478
O O1 0.982970 0.587754 0.750922
O O2 0.848486 0.701141 0.655559
O O3 0.000000 0.670503 0.500000
O O4 0.011954 0.751300 0.755868
O O5 0.500000 0.000000 0.500000
O O6 0.493155 0.917218 0.250992
O O7 0.342452 0.000000 0.361355
O O8 0.750000 0.915715 0.425953
O O9 0.343631 0.842998 0.797126
O O10 0.250000 0.748786 0.584844
O O11 0.840429 0.500000 0.787704
O O12 0.000000 0.500000 0.000000
O O13 0.750000 0.582745 0.561943
O O14 0.000000 0.160908 0.000000
#
# Coordination Sequence:
#
# PCOD9405153 Si02
#       8
#     8   4   2   4   4   2   8   4
#     4  11  21  40  64  93 122 168 217 260 306 375
#     4  12  23  44  67  97 123 167 215 261 307 375
#     4  12  24  38  74  96 122 162 216 266 304 368
#     4  12  22  42  65  93 125 166 211 263 319 370
#     4  10  21  39  61  92 129 165 203 264 322 364
#     4   8  20  38  62  96 126 162 216 260 306 382
#     4  12  26  42  64  95 134 166 207 263 323 382
#     4  10  20  37  67  91 123 162 217 268 305 366
#
# _framework density 18.571916999999999
#
# number of rings (size 3 to 8) (size 9 to 14) (size 15 to 20)
#    0.000    0.889    4.444    3.333    0.000    1.778 
#    0.000    4.444    0.000    0.000    0.000    0.000 
#    0.000    0.000    0.000    0.000    0.000    0.000 
#
# Total GULP energy -200745.773733 kJ/mol
# GULP energy per Si atom -5576.271493 kJ/mol
# Density = 1.852965 g / cm^3
# Si number density = 18.571917 Si / 1000 Ang^3
#
#
#
# Elastic Constant Matrix: (Units=GPa)
#
#
# Indices 1 2 3 4 5 6 
#
# 1 177.4867 75.6224 70.9357 0.0000 0.0000 0.0000
# 2 75.6224 165.4077 96.5981 0.0000 0.0000 0.0000
# 3 70.9357 96.5981 170.2406 0.0000 0.0000 0.0000
# 4 0.0000 0.0000 0.0000 24.8300 0.0000 0.0000
# 5 0.0000 0.0000 0.0000 0.0000 10.3399 0.0000
# 6 0.0000 0.0000 0.0000 0.0000 0.0000 18.8976
#
#
#
# Elastic Compliance Matrix: (Units=1/GPa)
#
#
# Indices 1 2 3 4 5 6 
#
# 1 0.007320 -0.002341 -0.001722 0.000000 0.000000 0.000000
# 2 -0.002341 0.009791 -0.004580 0.000000 0.000000 0.000000
# 3 -0.001722 -0.004580 0.009190 0.000000 0.000000 0.000000
# 4 0.000000 0.000000 0.000000 0.040274 0.000000 0.000000
# 5 0.000000 0.000000 0.000000 0.000000 0.096712 0.000000
# 6 0.000000 0.000000 0.000000 0.000000 0.000000 0.052917
#
#
# Mechanical properties :
#
#
# Convention : Reuss Voigt Hill
#
# Bulk Modulus (GPa) = 110.92251 111.04969 110.98610
# Shear Modulus (GPa) = 21.14217 28.81208 24.97712
#
# Velocity S-wave (km/s) = 3.37767 3.94303 3.67125
# Velocity P-wave (km/s) = 8.66413 8.98077 8.82387
#
# Compressibility (1/GPa) = 0.00901530
#
# Stress axis : x y z
#
# Youngs Moduli (GPa) = 136.61617 102.13794 108.81200
#
# Poissons Ratio (x) = 0.23911 0.18733
# Poissons Ratio (y) = 0.31983 0.49835
# Poissons Ratio (z) = 0.23520 0.46779
#
# Static dielectric constant tensor:
#      x y z
#    x 1.681910 0.000000 0.000000 
#    y 0.000000 1.642080 0.000000 
#    z 0.000000 0.000000 1.587450 
# 
# From -- ./inp_files/7881.got.cif
#   From: 2010.05.17/outbox.cif.g08.bks.cpg/sg51_4_cif.got.tgz:7881.got - 2010.06.03 11:52:47.
