data_PCOD9405276
_publ_section_title
;
Structure prediction by ZEFSAII (Michael W. Deem and Ramdas Pophale) SiO2 
 PCOD9405276
Probable space group: P M M A
;
_chemical_formula_sum "Si O2"
_cell_formula_units_Z 44
_cell_length_a 28.815186
_cell_length_b 13.432520
_cell_length_c 6.112503
_cell_angle_alpha 90.000000
_cell_angle_beta 90.000000
_cell_angle_gamma 90.000000
_cell_volume 2365.908848
_symmetry_space_group_name_H-M "P M M A"
_symmetry_group_IT_number 51
_symmetry_cell_setting 'orthorhombic'
loop_
_space_group_symop_operation_xyz
x,y,z
1/2-x,-y,z
1/2+x,-y,-z
-x,y,-z
-x,-y,-z
1/2+x,y,-z
1/2-x,y,z
x,-y,z
loop_
_atom_site_type_symbol
_atom_site_label
_atom_site_fract_x
_atom_site_fract_y
_atom_site_fract_z
Si Si1 0.134329 0.271332 0.800345
Si Si2 0.522637 0.000000 0.246132
Si Si3 0.448168 0.802248 0.555428
Si Si4 0.803281 0.800250 0.578556
Si Si5 0.197113 0.612117 0.097587
Si Si6 0.385382 0.113092 0.174654
O O1 0.088606 0.277799 0.648347
O O2 0.175019 0.223266 0.655614
O O3 0.157715 0.365185 0.918296
O O4 0.120878 0.193089 0.986460
O O5 0.500000 0.000000 0.500000
O O6 0.547717 0.106441 0.271743
O O7 0.500000 0.000000 0.000000
O O8 0.500000 0.765929 0.500000
O O9 0.425590 0.850317 0.338335
O O10 0.750000 0.830871 0.570763
O O11 0.806602 0.697496 0.718581
O O12 0.837271 0.879197 0.690667
O O13 0.250000 0.620437 0.006624
O O14 0.192096 0.500000 0.184408
O O15 0.393593 0.000000 0.104563
#
# Coordination Sequence:
#
# PCOD9405276 Si02
#       6
#     8   4   8   8   8   8
#     4  10  21  32  54  80 109 139 183 231 279 344
#     4  10  22  34  54  84 113 154 211 256 294 342
#     4  10  22  34  52  77 112 154 192 239 288 334
#     4   9  19  36  51  74 108 140 175 220 275 340
#     4   9  18  35  59  83 105 132 172 227 289 348
#     4  10  21  35  50  76 108 148 189 231 274 326
#
# _framework density 18.597504000000001
#
# number of rings (size 3 to 8) (size 9 to 14) (size 15 to 20)
#    0.000    2.364    0.909    0.545    6.364    2.545 
#    0.000    1.818    0.000    0.545    0.000   11.455 
#    0.000    0.000    0.000    0.000    0.000    0.000 
#
# Total GULP energy -245016.876739 kJ/mol
# GULP energy per Si atom -5568.565380 kJ/mol
# Density = 1.855517 g / cm^3
# Si number density = 18.597504 Si / 1000 Ang^3
#
#
#
# Elastic Constant Matrix: (Units=GPa)
#
#
# Indices 1 2 3 4 5 6 
#
# 1 126.0284 19.0015 25.5895 0.0000 0.0000 0.0000
# 2 19.0015 58.1348 10.6191 0.0000 0.0000 0.0000
# 3 25.5895 10.6191 51.5445 0.0000 0.0000 0.0000
# 4 0.0000 0.0000 0.0000 11.8839 0.0000 0.0000
# 5 0.0000 0.0000 0.0000 0.0000 36.2539 0.0000
# 6 0.0000 0.0000 0.0000 0.0000 0.0000 23.9891
#
#
#
# Elastic Compliance Matrix: (Units=1/GPa)
#
#
# Indices 1 2 3 4 5 6 
#
# 1 0.009095 -0.002232 -0.004055 0.000000 0.000000 0.000000
# 2 -0.002232 0.018422 -0.002687 0.000000 0.000000 0.000000
# 3 -0.004055 -0.002687 0.021968 0.000000 0.000000 0.000000
# 4 0.000000 0.000000 0.000000 0.084148 0.000000 0.000000
# 5 0.000000 0.000000 0.000000 0.000000 0.027583 0.000000
# 6 0.000000 0.000000 0.000000 0.000000 0.000000 0.041686
#
#
# Mechanical properties :
#
#
# Convention : Reuss Voigt Hill
#
# Bulk Modulus (GPa) = 31.71047 38.45864 35.08456
# Shear Modulus (GPa) = 21.61127 26.45856 24.03491
#
# Velocity S-wave (km/s) = 3.41259 3.77595 3.59886
# Velocity P-wave (km/s) = 5.71101 6.30355 6.01458
#
# Compressibility (1/GPa) = 0.03153532
#
# Stress axis : x y z
#
# Youngs Moduli (GPa) = 109.95512 54.28369 45.52165
#
# Poissons Ratio (x) = 0.12115 0.18460
# Poissons Ratio (y) = 0.24540 0.12233
# Poissons Ratio (z) = 0.44590 0.14587
#
# Static dielectric constant tensor:
#      x y z
#    x 1.692010 0.000000 0.000000 
#    y 0.000000 1.613760 0.000000 
#    z 0.000000 0.000000 1.689420 
# 
# From -- ./inp_files/3475.got.cif
#   From: 2010.05.17/outbox.cif.g08.bks.cpg/sg51_2_cif.got.tgz:3475.got - 2010.06.03 11:52:47.
