data_PCOD9405887
_publ_section_title
;
Structure prediction by ZEFSAII (Michael W. Deem and Ramdas Pophale) SiO2 
 PCOD9405887
Probable space group: P M M A
;
_chemical_formula_sum "Si O2"
_cell_formula_units_Z 64
_cell_length_a 8.577959
_cell_length_b 24.529878
_cell_length_c 15.619868
_cell_angle_alpha 90.000000
_cell_angle_beta 90.000000
_cell_angle_gamma 90.000000
_cell_volume 3286.674640
_symmetry_space_group_name_H-M "P M M A"
_symmetry_group_IT_number 51
_symmetry_cell_setting 'orthorhombic'
loop_
_space_group_symop_operation_xyz
x,y,z
1/2-x,-y,z
1/2+x,-y,-z
-x,y,-z
-x,-y,-z
1/2+x,y,-z
1/2-x,y,z
x,-y,z
loop_
_atom_site_type_symbol
_atom_site_label
_atom_site_fract_x
_atom_site_fract_y
_atom_site_fract_z
Si Si1 0.439096 0.848694 0.765321
Si Si2 0.062100 0.798740 0.407723
Si Si3 0.430681 0.769412 0.911356
Si Si4 0.064548 0.561584 0.903651
Si Si5 0.437776 0.936824 0.906514
Si Si6 0.569151 0.679847 0.644975
Si Si7 0.939363 0.440561 0.596948
Si Si8 0.574124 0.668060 0.844046
O O1 0.250000 0.848341 0.757387
O O2 0.506848 0.836241 0.671670
O O3 0.493923 0.799879 0.828041
O O4 0.483494 0.901351 0.823135
O O5 0.250000 0.797539 0.407300
O O6 0.002076 0.735820 0.393884
O O7 0.000000 0.817419 0.500000
O O8 0.250000 0.780940 0.913765
O O9 0.462878 0.705663 0.899774
O O10 0.500000 0.788725 0.000000
O O11 0.250000 0.570291 0.903526
O O12 0.032410 0.500000 0.875405
O O13 0.977744 0.605933 0.847755
O O14 0.000000 0.567319 0.000000
O O15 0.250000 0.934187 0.911030
O O16 0.485482 0.000000 0.896041
O O17 0.500000 0.918413 0.000000
O O18 0.750000 0.677465 0.615873
O O19 0.503003 0.618937 0.629072
O O20 0.567639 0.687069 0.746654
O O21 0.750000 0.439700 0.600887
O O22 0.987359 0.500000 0.636194
O O23 0.000000 0.442368 0.500000
O O24 0.750000 0.674243 0.876607
#
# Coordination Sequence:
#
# PCOD9405887 Si02
#       8
#     8   8   8   8   8   8   8   8
#     4  10  21  37  57  85 118 154 196 238 284 336
#     4  11  22  38  59  83 113 150 195 245 297 349
#     4  11  22  35  53  78 111 148 185 225 275 331
#     4  10  21  37  54  72  95 127 171 221 274 333
#     4   9  18  34  58  90 128 166 202 240 283 335
#     4   9  19  34  52  75 102 135 176 223 276 337
#     4   9  17  31  50  71  95 123 159 206 263 329
#     4  11  21  35  53  74 102 134 175 222 274 334
#
# _framework density 19.472567999999999
#
# number of rings (size 3 to 8) (size 9 to 14) (size 15 to 20)
#    0.000    2.000    1.250    2.625    0.000    2.250 
#    0.000    3.125    0.000    1.875    0.000    0.000 
#    0.000    0.000    0.000    0.000    0.000    0.000 
#
# Total GULP energy -356784.613423 kJ/mol
# GULP energy per Si atom -5574.759585 kJ/mol
# Density = 1.942825 g / cm^3
# Si number density = 19.472568 Si / 1000 Ang^3
#
#
#
# Elastic Constant Matrix: (Units=GPa)
#
#
# Indices 1 2 3 4 5 6 
#
# 1 19.1784 14.8994 27.7827 0.0000 0.0000 0.0000
# 2 14.8994 100.6963 53.8445 0.0000 0.0000 0.0000
# 3 27.7827 53.8445 121.9418 0.0000 0.0000 0.0000
# 4 0.0000 0.0000 0.0000 57.1849 0.0000 0.0000
# 5 0.0000 0.0000 0.0000 0.0000 26.9150 0.0000
# 6 0.0000 0.0000 0.0000 0.0000 0.0000 12.9261
#
#
#
# Elastic Compliance Matrix: (Units=1/GPa)
#
#
# Indices 1 2 3 4 5 6 
#
# 1 0.078379 -0.002682 -0.016673 0.000000 0.000000 0.000000
# 2 -0.002682 0.013092 -0.005170 0.000000 0.000000 0.000000
# 3 -0.016673 -0.005170 0.014282 0.000000 0.000000 0.000000
# 4 0.000000 0.000000 0.000000 0.017487 0.000000 0.000000
# 5 0.000000 0.000000 0.000000 0.000000 0.037154 0.000000
# 6 0.000000 0.000000 0.000000 0.000000 0.000000 0.077363
#
#
# Mechanical properties :
#
#
# Convention : Reuss Voigt Hill
#
# Bulk Modulus (GPa) = 17.63561 48.31887 32.97724
# Shear Modulus (GPa) = 16.35542 29.09119 22.72330
#
# Velocity S-wave (km/s) = 2.90128 3.86937 3.41976
# Velocity P-wave (km/s) = 4.50550 6.69555 5.70657
#
# Compressibility (1/GPa) = 0.05670346
#
# Stress axis : x y z
#
# Youngs Moduli (GPa) = 12.75848 76.38171 70.01670
#
# Poissons Ratio (x) = 0.20483 1.16742
# Poissons Ratio (y) = 0.03421 0.36199
# Poissons Ratio (z) = 0.21273 0.39489
#
# Static dielectric constant tensor:
#      x y z
#    x 1.685560 0.000000 0.000000 
#    y 0.000000 1.730270 0.000000 
#    z 0.000000 0.000000 1.375280 
# 
# From -- ./inp_files/22394.got.cif
#   From: 2010.05.17/outbox.cif.g08.bks.cpg/sg51_12_cif.got.tgz:22394.got - 2010.06.03 11:52:47.
