data_PCOD9405910
_publ_section_title
;
Structure prediction by ZEFSAII (Michael W. Deem and Ramdas Pophale) SiO2 
 PCOD9405910
Probable space group: P M M A
;
_chemical_formula_sum "Si O2"
_cell_formula_units_Z 44
_cell_length_a 8.858427
_cell_length_b 11.043572
_cell_length_c 24.901935
_cell_angle_alpha 90.000000
_cell_angle_beta 90.000000
_cell_angle_gamma 90.000000
_cell_volume 2436.123340
_symmetry_space_group_name_H-M "P M M A"
_symmetry_group_IT_number 51
_symmetry_cell_setting 'orthorhombic'
loop_
_space_group_symop_operation_xyz
x,y,z
1/2-x,-y,z
1/2+x,-y,-z
-x,y,-z
-x,-y,-z
1/2+x,y,-z
1/2-x,y,z
x,-y,z
loop_
_atom_site_type_symbol
_atom_site_label
_atom_site_fract_x
_atom_site_fract_y
_atom_site_fract_z
Si Si1 0.931559 0.639256 0.365442
Si Si2 0.080050 0.856980 0.946804
Si Si3 0.567466 0.862865 0.440477
Si Si4 0.570229 0.290082 0.866452
Si Si5 0.069351 0.500000 0.940156
Si Si6 0.425110 0.355399 0.250889
O O1 0.750000 0.636727 0.367573
O O2 0.983972 0.500000 0.378091
O O3 0.982909 0.748546 0.404267
O O4 0.983265 0.668385 0.304900
O O5 0.250000 0.808290 0.940991
O O6 0.978218 0.832514 0.895192
O O7 0.092589 0.000000 0.954313
O O8 0.000000 0.805642 0.000000
O O9 0.500000 0.850462 0.500000
O O10 0.750000 0.858635 0.443333
O O11 0.527153 0.000000 0.420912
O O12 0.750000 0.310332 0.867199
O O13 0.490300 0.387600 0.904795
O O14 0.519783 0.297890 0.804720
O O15 0.250000 0.500000 0.943775
O O16 0.000000 0.500000 0.000000
O O17 0.250000 0.320975 0.259530
O O18 0.429332 0.500000 0.241687
#
# Coordination Sequence:
#
# PCOD9405910 Si02
#       6
#     8   8   8   8   4   8
#     4   9  18  32  51  76 104 135 175 219 260 308
#     4  10  21  37  55  75  99 130 170 213 260 316
#     4   9  18  33  52  75 106 142 176 213 261 313
#     4  11  21  36  55  76 104 134 169 213 262 315
#     4  12  24  36  52  76 106 136 169 210 263 318
#     4   9  18  34  53  74 102 135 170 210 257 306
#
# _framework density 18.061482999999999
#
# number of rings (size 3 to 8) (size 9 to 14) (size 15 to 20)
#    0.000    2.182    0.909    2.455    0.000    3.636 
#    0.000    0.909    0.000    3.273    0.000    0.000 
#    0.000    0.000    0.000    0.000    0.000    0.000 
#
# Total GULP energy -245212.893511 kJ/mol
# GULP energy per Si atom -5573.020307 kJ/mol
# Density = 1.802037 g / cm^3
# Si number density = 18.061483 Si / 1000 Ang^3
#
#
#
# Elastic Constant Matrix: (Units=GPa)
#
#
# Indices 1 2 3 4 5 6 
#
# 1 44.6061 27.0999 29.2182 0.0000 0.0000 0.0000
# 2 27.0999 86.8742 69.3513 0.0000 0.0000 0.0000
# 3 29.2182 69.3513 126.2048 0.0000 0.0000 0.0000
# 4 0.0000 0.0000 0.0000 15.2597 0.0000 0.0000
# 5 0.0000 0.0000 0.0000 0.0000 31.0792 0.0000
# 6 0.0000 0.0000 0.0000 0.0000 0.0000 20.4935
#
#
#
# Elastic Compliance Matrix: (Units=1/GPa)
#
#
# Indices 1 2 3 4 5 6 
#
# 1 0.028296 -0.006408 -0.003029 0.000000 0.000000 0.000000
# 2 -0.006408 0.021958 -0.010583 0.000000 0.000000 0.000000
# 3 -0.003029 -0.010583 0.014440 0.000000 0.000000 0.000000
# 4 0.000000 0.000000 0.000000 0.065532 0.000000 0.000000
# 5 0.000000 0.000000 0.000000 0.000000 0.032176 0.000000
# 6 0.000000 0.000000 0.000000 0.000000 0.000000 0.048796
#
#
# Mechanical properties :
#
#
# Convention : Reuss Voigt Hill
#
# Bulk Modulus (GPa) = 40.56212 56.55820 48.56016
# Shear Modulus (GPa) = 19.27100 22.16752 20.71926
#
# Velocity S-wave (km/s) = 3.26999 3.50714 3.39064
# Velocity P-wave (km/s) = 6.06330 6.91247 6.50177
#
# Compressibility (1/GPa) = 0.02465354
#
# Stress axis : x y z
#
# Youngs Moduli (GPa) = 35.34042 45.54150 69.25080
#
# Poissons Ratio (x) = 0.29185 0.20979
# Poissons Ratio (y) = 0.22648 0.73285
# Poissons Ratio (z) = 0.10706 0.48195
#
# Static dielectric constant tensor:
#      x y z
#    x 1.627620 0.000000 0.000000 
#    y 0.000000 1.709480 0.000000 
#    z 0.000000 0.000000 1.587140 
# 
# From -- ./inp_files/34559.got.cif
#   From: 2010.05.17/outbox.cif.g08.bks.cpg/sg51_18_cif.got.tgz:34559.got - 2010.06.03 11:52:47.
