data_PCOD9405265
_publ_section_title
;
Structure prediction by ZEFSAII (Michael W. Deem and Ramdas Pophale) SiO2 
 PCOD9405265
Probable space group: P M M A
;
_chemical_formula_sum "Si O2"
_cell_formula_units_Z 48
_cell_length_a 9.771150
_cell_length_b 9.338296
_cell_length_c 28.983565
_cell_angle_alpha 90.000000
_cell_angle_beta 90.000000
_cell_angle_gamma 90.000000
_cell_volume 2644.631212
_symmetry_space_group_name_H-M "P M M A"
_symmetry_group_IT_number 51
_symmetry_cell_setting 'orthorhombic'
loop_
_space_group_symop_operation_xyz
x,y,z
1/2-x,-y,z
1/2+x,-y,-z
-x,y,-z
-x,-y,-z
1/2+x,y,-z
1/2-x,y,z
x,-y,z
loop_
_atom_site_type_symbol
_atom_site_label
_atom_site_fract_x
_atom_site_fract_y
_atom_site_fract_z
Si Si1 0.909817 0.667357 0.292426
Si Si2 0.410483 0.328632 0.123023
Si Si3 0.411566 0.167307 0.219299
Si Si4 0.250000 0.830789 0.434813
Si Si5 0.750000 0.665537 0.469685
Si Si6 0.411916 0.829356 0.953646
Si Si7 0.495137 0.333438 0.602291
O O1 0.750000 0.690071 0.282560
O O2 0.942220 0.500000 0.283012
O O3 0.001777 0.767394 0.260826
O O4 0.935325 0.690809 0.346793
O O5 0.250000 0.298450 0.110917
O O6 0.426574 0.500000 0.125196
O O7 0.436394 0.257161 0.172741
O O8 0.513802 0.259397 0.086462
O O9 0.250000 0.178885 0.229885
O O10 0.443380 0.000000 0.211707
O O11 0.250000 0.766145 0.486307
O O12 0.118534 0.770510 0.408564
O O13 0.250000 0.000000 0.436599
O O14 0.750000 0.500000 0.485776
O O15 0.619444 0.686084 0.436851
O O16 0.250000 0.794252 0.958974
O O17 0.420494 0.000000 0.943667
O O18 0.500000 0.803576 0.000000
O O19 0.540074 0.500000 0.600060
#
# Coordination Sequence:
#
# PCOD9405265 Si02
#       7
#     8   8   8   4   4   8   8
#     4  10  21  39  62  87 113 144 188 239 288 339
#     4  10  21  38  60  86 116 153 198 245 293 341
#     4  10  22  39  60  87 119 154 192 234 286 348
#     4  12  26  38  54  86 122 152 186 230 283 342
#     4  10  20  40  66  86 110 146 194 238 279 338
#     4  10  21  37  59  87 119 158 201 244 294 351
#     4  10  21  40  63  86 111 147 192 236 283 337
#
# _framework density 18.149977
#
# number of rings (size 3 to 8) (size 9 to 14) (size 15 to 20)
#    0.000    1.833    0.833    2.750    1.167    7.667 
#    0.000    0.000    0.000    0.000    0.000    0.000 
#    0.000    0.000    0.000    0.000    0.000    0.000 
#
# Total GULP energy -268141.644111 kJ/mol
# GULP energy per Si atom -5586.284252 kJ/mol
# Density = 1.810867 g / cm^3
# Si number density = 18.149977 Si / 1000 Ang^3
#
#
#
# Elastic Constant Matrix: (Units=GPa)
#
#
# Indices 1 2 3 4 5 6 
#
# 1 83.5969 64.2443 37.6307 0.0000 0.0000 0.0000
# 2 64.2443 86.4302 49.5222 0.0000 0.0000 0.0000
# 3 37.6307 49.5222 71.2036 0.0000 0.0000 0.0000
# 4 0.0000 0.0000 0.0000 62.0001 0.0000 0.0000
# 5 0.0000 0.0000 0.0000 0.0000 22.3755 0.0000
# 6 0.0000 0.0000 0.0000 0.0000 0.0000 -56.1581
#
#
#
# Elastic Compliance Matrix: (Units=1/GPa)
#
#
# Indices 1 2 3 4 5 6 
#
# 1 0.027911 -0.020440 -0.000535 0.000000 0.000000 0.000000
# 2 -0.020440 0.034205 -0.012987 0.000000 0.000000 0.000000
# 3 -0.000535 -0.012987 0.023359 0.000000 0.000000 0.000000
# 4 0.000000 0.000000 0.000000 0.016129 0.000000 0.000000
# 5 0.000000 0.000000 0.000000 0.000000 0.044692 0.000000
# 6 0.000000 0.000000 0.000000 0.000000 0.000000 -0.017807
#
#
# Mechanical properties :
#
#
# Convention : Reuss Voigt Hill
#
# Bulk Modulus (GPa) = 56.97525 60.44723 58.71124
# Shear Modulus (GPa) = 24.72028 11.63238 18.17633
#
# Velocity S-wave (km/s) = 3.69453 2.53435 3.16801
# Velocity P-wave (km/s) = 7.04691 6.47615 6.76755
#
# Compressibility (1/GPa) = 0.01755148
#
# Stress axis : x y z
#
# Youngs Moduli (GPa) = 35.82778 29.23579 42.80983
#
# Poissons Ratio (x) = 0.59759 0.02289
# Poissons Ratio (y) = 0.73233 0.55596
# Poissons Ratio (z) = 0.01915 0.37968
#
# Static dielectric constant tensor:
#      x y z
#    x 1.587680 0.000000 0.000000 
#    y 0.000000 1.601030 0.000000 
#    z 0.000000 0.000000 1.590060 
# 
# From -- ./inp_files/37135.got.cif
#   From: 2010.05.17/outbox.cif.g08.bks.cpg/sg51_19_cif.got.tgz:37135.got - 2010.06.03 11:52:47.
