data_PCOD9405671
_publ_section_title
;
Structure prediction by ZEFSAII (Michael W. Deem and Ramdas Pophale) SiO2 
 PCOD9405671
Probable space group: P M M A
;
_chemical_formula_sum "Si O2"
_cell_formula_units_Z 40
_cell_length_a 9.207929
_cell_length_b 7.669321
_cell_length_c 30.524118
_cell_angle_alpha 90.000000
_cell_angle_beta 90.000000
_cell_angle_gamma 90.000000
_cell_volume 2155.569358
_symmetry_space_group_name_H-M "P M M A"
_symmetry_group_IT_number 51
_symmetry_cell_setting 'orthorhombic'
loop_
_space_group_symop_operation_xyz
x,y,z
1/2-x,-y,z
1/2+x,-y,-z
-x,y,-z
-x,-y,-z
1/2+x,y,-z
1/2-x,y,z
x,-y,z
loop_
_atom_site_type_symbol
_atom_site_label
_atom_site_fract_x
_atom_site_fract_y
_atom_site_fract_z
Si Si1 0.073450 0.000000 0.712621
Si Si2 0.426828 0.000000 0.612799
Si Si3 0.585919 0.791012 0.042374
Si Si4 0.924374 0.702828 0.454298
Si Si5 0.415041 0.709844 0.130876
Si Si6 0.924258 0.295045 0.219546
O O1 0.020393 0.000000 0.662718
O O2 0.031803 0.170989 0.740379
O O3 0.250000 0.000000 0.710955
O O4 0.469741 0.830426 0.584794
O O5 0.250000 0.000000 0.614433
O O6 0.750000 0.721971 0.044375
O O7 0.500978 0.757238 0.087131
O O8 0.595055 0.000000 0.037469
O O9 0.500000 0.722607 0.000000
O O10 0.750000 0.717606 0.459482
O O11 0.958281 0.500000 0.445100
O O12 0.000000 0.751453 0.500000
O O13 0.250000 0.775954 0.129438
O O14 0.410193 0.500000 0.132545
O O15 0.497713 0.764706 0.174979
O O16 0.750000 0.280275 0.213629
O O17 0.956595 0.500000 0.227389
#
# Coordination Sequence:
#
# PCOD9405671 Si02
#       6
#     4   4   8   8   8   8
#     4   9  18  31  50  76 101 129 168 210 259 310
#     4   9  17  29  46  72 102 129 165 214 257 300
#     4  10  21  36  54  77 105 135 167 204 248 301
#     4   9  17  29  47  71  99 133 171 209 252 300
#     4  10  21  36  54  76 101 131 167 207 252 302
#     4   9  18  33  52  74 100 129 165 211 257 304
#
# _framework density 18.556581999999999
#
# number of rings (size 3 to 8) (size 9 to 14) (size 15 to 20)
#    0.000    2.600    0.000    1.500    1.400    3.600 
#    0.000    4.000    0.000    2.400    0.000    5.600 
#    0.000    0.000    0.000    0.000    0.000    0.000 
#
# Total GULP energy -223164.463447 kJ/mol
# GULP energy per Si atom -5579.111586 kJ/mol
# Density = 1.851435 g / cm^3
# Si number density = 18.556582 Si / 1000 Ang^3
#
#
#
# Elastic Constant Matrix: (Units=GPa)
#
#
# Indices 1 2 3 4 5 6 
#
# 1 66.7942 36.4997 68.1023 0.0000 0.0000 0.0000
# 2 36.4997 74.3676 78.9678 0.0000 0.0000 0.0000
# 3 68.1023 78.9678 217.4674 0.0000 0.0000 0.0000
# 4 0.0000 0.0000 0.0000 26.2582 0.0000 0.0000
# 5 0.0000 0.0000 0.0000 0.0000 26.4900 0.0000
# 6 0.0000 0.0000 0.0000 0.0000 0.0000 117.9762
#
#
#
# Elastic Compliance Matrix: (Units=1/GPa)
#
#
# Indices 1 2 3 4 5 6 
#
# 1 0.023565 -0.006070 -0.005175 0.000000 0.000000 0.000000
# 2 -0.006070 0.023449 -0.006614 0.000000 0.000000 0.000000
# 3 -0.005175 -0.006614 0.008621 0.000000 0.000000 0.000000
# 4 0.000000 0.000000 0.000000 0.038083 0.000000 0.000000
# 5 0.000000 0.000000 0.000000 0.000000 0.037750 0.000000
# 6 0.000000 0.000000 0.000000 0.000000 0.000000 0.008476
#
#
# Mechanical properties :
#
#
# Convention : Reuss Voigt Hill
#
# Bulk Modulus (GPa) = 50.21132 80.64099 65.42615
# Shear Modulus (GPa) = 27.42689 45.81552 36.62120
#
# Velocity S-wave (km/s) = 3.84867 4.97426 4.44722
# Velocity P-wave (km/s) = 6.84594 8.74884 7.85522
#
# Compressibility (1/GPa) = 0.01991583
#
# Stress axis : x y z
#
# Youngs Moduli (GPa) = 42.43539 42.64555 115.99785
#
# Poissons Ratio (x) = 0.25887 0.60034
# Poissons Ratio (y) = 0.25759 0.76721
# Poissons Ratio (z) = 0.21962 0.28206
#
# Static dielectric constant tensor:
#      x y z
#    x 1.637780 0.000000 0.000000 
#    y 0.000000 1.668540 0.000000 
#    z 0.000000 0.000000 1.603940 
# 
# From -- ./inp_files/36013.got.cif
#   From: 2010.05.17/outbox.cif.g08.bks.cpg/sg51_19_cif.got.tgz:36013.got - 2010.06.03 11:52:47.
