data_PCOD9405262
_publ_section_title
;
Structure prediction by ZEFSAII (Michael W. Deem and Ramdas Pophale) SiO2 
 PCOD9405262
Probable space group: P M M A
;
_chemical_formula_sum "Si O2"
_cell_formula_units_Z 48
_cell_length_a 14.746800
_cell_length_b 9.120276
_cell_length_c 19.991611
_cell_angle_alpha 90.000000
_cell_angle_beta 90.000000
_cell_angle_gamma 90.000000
_cell_volume 2688.769445
_symmetry_space_group_name_H-M "P M M A"
_symmetry_group_IT_number 51
_symmetry_cell_setting 'orthorhombic'
loop_
_space_group_symop_operation_xyz
x,y,z
1/2-x,-y,z
1/2+x,-y,-z
-x,y,-z
-x,-y,-z
1/2+x,y,-z
1/2-x,y,z
x,-y,z
loop_
_atom_site_type_symbol
_atom_site_label
_atom_site_fract_x
_atom_site_fract_y
_atom_site_fract_z
Si Si1 0.065519 0.675338 0.062783
Si Si2 0.008298 0.175224 0.671065
Si Si3 0.143179 0.826282 0.550721
Si Si4 0.750000 0.324988 0.121627
Si Si5 0.142408 0.673262 0.411470
Si Si6 0.750000 0.175084 0.977122
Si Si7 0.441232 0.325459 0.809265
O O1 0.083135 0.500000 0.059498
O O2 0.159236 0.761285 0.056627
O O3 0.011351 0.707016 0.130814
O O4 0.000000 0.710895 0.000000
O O5 0.915502 0.245416 0.644527
O O6 0.083526 0.213389 0.614776
O O7 0.036038 0.238664 0.742468
O O8 0.001170 0.000000 0.673839
O O9 0.250000 0.801250 0.563857
O O10 0.117485 0.738351 0.484154
O O11 0.130630 0.000000 0.537394
O O12 0.750000 0.500000 0.105587
O O13 0.659452 0.293165 0.163373
O O14 0.750000 0.235979 0.052970
O O15 0.250000 0.697584 0.402715
O O16 0.124919 0.500000 0.409750
O O17 0.750000 0.000000 0.976201
O O18 0.445851 0.500000 0.795944
#
# Coordination Sequence:
#
# PCOD9405262 Si02
#       7
#     8   8   8   4   8   4   8
#     4  10  20  40  66  87 114 155 202 243 285 343
#     4  11  23  37  57  84 119 157 188 229 289 351
#     4   9  19  36  57  83 116 153 189 226 280 347
#     4  10  20  40  64  88 118 155 196 231 284 348
#     4  10  21  38  60  84 110 145 195 248 289 332
#     4  12  24  36  60  94 124 151 188 243 298 348
#     4  10  22  39  62  88 116 153 195 240 283 337
#
# _framework density 17.852034
#
# number of rings (size 3 to 8) (size 9 to 14) (size 15 to 20)
#    0.000    1.833    1.667    2.250    1.167    6.000 
#    1.500    0.000    0.000    0.000    0.000    0.000 
#    0.000    0.000    0.000    0.000    0.000    0.000 
#
# Total GULP energy -268198.306781 kJ/mol
# GULP energy per Si atom -5587.464725 kJ/mol
# Density = 1.781140 g / cm^3
# Si number density = 17.852034 Si / 1000 Ang^3
#
#
#
# Elastic Constant Matrix: (Units=GPa)
#
#
# Indices 1 2 3 4 5 6 
#
# 1 135.5657 81.9685 88.2456 0.0000 0.0000 0.0000
# 2 81.9685 71.0376 76.4231 0.0000 0.0000 0.0000
# 3 88.2456 76.4231 129.7836 0.0000 0.0000 0.0000
# 4 0.0000 0.0000 0.0000 169.7842 0.0000 0.0000
# 5 0.0000 0.0000 0.0000 0.0000 9.8147 0.0000
# 6 0.0000 0.0000 0.0000 0.0000 0.0000 12.1246
#
#
#
# Elastic Compliance Matrix: (Units=1/GPa)
#
#
# Indices 1 2 3 4 5 6 
#
# 1 0.024400 -0.028119 -0.000032 0.000000 0.000000 0.000000
# 2 -0.028119 0.070815 -0.022580 0.000000 0.000000 0.000000
# 3 -0.000032 -0.022580 0.021023 0.000000 0.000000 0.000000
# 4 0.000000 0.000000 0.000000 0.005890 0.000000 0.000000
# 5 0.000000 0.000000 0.000000 0.000000 0.101888 0.000000
# 6 0.000000 0.000000 0.000000 0.000000 0.000000 0.082477
#
#
# Mechanical properties :
#
#
# Convention : Reuss Voigt Hill
#
# Bulk Modulus (GPa) = 67.68261 92.18459 79.93360
# Shear Modulus (GPa) = 12.11004 44.32800 28.21902
#
# Velocity S-wave (km/s) = 2.60735 4.98846 3.98014
# Velocity P-wave (km/s) = 6.86001 9.21574 8.12372
#
# Compressibility (1/GPa) = 0.01477484
#
# Stress axis : x y z
#
# Youngs Moduli (GPa) = 40.98420 14.12132 47.56658
#
# Poissons Ratio (x) = 0.39708 0.00153
# Poissons Ratio (y) = 1.15245 1.07404
# Poissons Ratio (z) = 0.00132 0.31886
#
# Static dielectric constant tensor:
#      x y z
#    x 1.608730 0.000000 0.000000 
#    y 0.000000 1.592210 0.000000 
#    z 0.000000 0.000000 1.572430 
# 
# From -- ./inp_files/29504.got.cif
#   From: 2010.05.17/outbox.cif.g08.bks.cpg/sg51_15_cif.got.tgz:29504.got - 2010.06.03 11:52:47.
