data_PCOD9405010
_publ_section_title
;
Structure prediction by ZEFSAII (Michael W. Deem and Ramdas Pophale) SiO2 
 PCOD9405010
Probable space group: P M M A
;
_chemical_formula_sum "Si O2"
_cell_formula_units_Z 40
_cell_length_a 9.042166
_cell_length_b 10.157258
_cell_length_c 25.096602
_cell_angle_alpha 90.000000
_cell_angle_beta 90.000000
_cell_angle_gamma 90.000000
_cell_volume 2304.962600
_symmetry_space_group_name_H-M "P M M A"
_symmetry_group_IT_number 51
_symmetry_cell_setting 'orthorhombic'
loop_
_space_group_symop_operation_xyz
x,y,z
1/2-x,-y,z
1/2+x,-y,-z
-x,y,-z
-x,-y,-z
1/2+x,y,-z
1/2-x,y,z
x,-y,z
loop_
_atom_site_type_symbol
_atom_site_label
_atom_site_fract_x
_atom_site_fract_y
_atom_site_fract_z
Si Si1 0.426507 0.000000 0.441746
Si Si2 0.928569 0.153648 0.835061
Si Si3 0.071951 0.265357 0.378465
Si Si4 0.574295 0.500000 0.442526
Si Si5 0.080389 0.160046 0.946250
Si Si6 0.570472 0.652656 0.740511
O O1 0.500000 0.000000 0.500000
O O2 0.462901 0.127049 0.406115
O O3 0.250000 0.000000 0.450214
O O4 0.750000 0.157825 0.838254
O O5 0.978180 0.253437 0.788811
O O6 0.995723 0.193626 0.891963
O O7 0.969012 0.000000 0.824176
O O8 0.250000 0.287085 0.382898
O O9 0.033030 0.282014 0.316311
O O10 0.984543 0.374826 0.410655
O O11 0.750000 0.500000 0.447207
O O12 0.500000 0.500000 0.500000
O O13 0.250000 0.204117 0.944785
O O14 0.080807 0.000000 0.948315
O O15 0.000000 0.206279 0.000000
O O16 0.750000 0.648669 0.742779
O O17 0.519661 0.500000 0.743155
#
# Coordination Sequence:
#
# PCOD9405010 Si02
#       6
#     4   8   8   4   8   8
#     4  10  22  36  56  82 110 140 173 214 267 322
#     4   9  17  28  47  76 104 132 170 212 252 302
#     4  10  20  37  58  82 109 141 178 220 266 318
#     4  12  24  38  58  82 106 138 179 222 267 318
#     4   9  16  27  45  70 102 136 169 209 257 305
#     4   9  17  31  53  77 102 134 173 214 256 303
#
# _framework density 17.353860999999998
#
# number of rings (size 3 to 8) (size 9 to 14) (size 15 to 20)
#    0.000    2.400    1.000    2.100    1.400    4.800 
#    0.000    1.000    0.000    0.600    0.000    0.000 
#    0.000    0.000    0.000    0.000    0.000    0.000 
#
# Total GULP energy -223022.547701 kJ/mol
# GULP energy per Si atom -5575.563693 kJ/mol
# Density = 1.731436 g / cm^3
# Si number density = 17.353861 Si / 1000 Ang^3
#
#
#
# Elastic Constant Matrix: (Units=GPa)
#
#
# Indices 1 2 3 4 5 6 
#
# 1 44.6587 45.8808 58.2156 0.0000 0.0000 0.0000
# 2 45.8808 127.0750 98.0332 0.0000 0.0000 0.0000
# 3 58.2156 98.0332 207.1779 0.0000 0.0000 0.0000
# 4 0.0000 0.0000 0.0000 23.8318 0.0000 0.0000
# 5 0.0000 0.0000 0.0000 0.0000 28.3362 0.0000
# 6 0.0000 0.0000 0.0000 0.0000 0.0000 29.4600
#
#
#
# Elastic Compliance Matrix: (Units=1/GPa)
#
#
# Indices 1 2 3 4 5 6 
#
# 1 0.041434 -0.009415 -0.007188 0.000000 0.000000 0.000000
# 2 -0.009415 0.014533 -0.004231 0.000000 0.000000 0.000000
# 3 -0.007188 -0.004231 0.008849 0.000000 0.000000 0.000000
# 4 0.000000 0.000000 0.000000 0.041961 0.000000 0.000000
# 5 0.000000 0.000000 0.000000 0.000000 0.035291 0.000000
# 6 0.000000 0.000000 0.000000 0.000000 0.000000 0.033944
#
#
# Mechanical properties :
#
#
# Convention : Reuss Voigt Hill
#
# Bulk Modulus (GPa) = 43.20019 87.01898 65.10958
# Shear Modulus (GPa) = 22.18328 28.11108 25.14718
#
# Velocity S-wave (km/s) = 3.57920 4.02913 3.81081
# Velocity P-wave (km/s) = 6.48295 8.47927 7.54740
#
# Compressibility (1/GPa) = 0.02314805
#
# Stress axis : x y z
#
# Youngs Moduli (GPa) = 24.13458 68.80975 113.01208
#
# Poissons Ratio (x) = 0.64784 0.81231
# Poissons Ratio (y) = 0.22722 0.47817
# Poissons Ratio (z) = 0.17347 0.29115
#
# Static dielectric constant tensor:
#      x y z
#    x 1.584200 0.000000 0.000000 
#    y 0.000000 1.611090 0.000000 
#    z 0.000000 0.000000 1.577930 
# 
# From -- ./inp_files/36002.got.cif
#   From: 2010.05.17/outbox.cif.g08.bks.cpg/sg51_19_cif.got.tgz:36002.got - 2010.06.03 11:52:47.
