data_PCOD9405653
_publ_section_title
;
Structure prediction by ZEFSAII (Michael W. Deem and Ramdas Pophale) SiO2 
 PCOD9405653
Probable space group: P M M A
;
_chemical_formula_sum "Si O2"
_cell_formula_units_Z 64
_cell_length_a 8.935002
_cell_length_b 14.223316
_cell_length_c 26.806909
_cell_angle_alpha 90.000000
_cell_angle_beta 90.000000
_cell_angle_gamma 90.000000
_cell_volume 3406.765598
_symmetry_space_group_name_H-M "P M M A"
_symmetry_group_IT_number 51
_symmetry_cell_setting 'orthorhombic'
loop_
_space_group_symop_operation_xyz
x,y,z
1/2-x,-y,z
1/2+x,-y,-z
-x,y,-z
-x,-y,-z
1/2+x,y,-z
1/2-x,y,z
x,-y,z
loop_
_atom_site_type_symbol
_atom_site_label
_atom_site_fract_x
_atom_site_fract_y
_atom_site_fract_z
Si Si1 0.427732 0.887120 0.256663
Si Si2 0.071942 0.389594 0.300893
Si Si3 0.072157 0.389765 0.092419
Si Si4 0.925678 0.886647 0.855426
Si Si5 0.427136 0.211887 0.949555
Si Si6 0.579379 0.614036 0.196630
Si Si7 0.429209 0.778644 0.651140
Si Si8 0.069937 0.109277 0.552335
O O1 0.250000 0.866594 0.261060
O O2 0.475345 0.858236 0.200527
O O3 0.514834 0.838503 0.301399
O O4 0.445091 0.000000 0.259984
O O5 0.250000 0.377813 0.297522
O O6 0.040241 0.500000 0.308603
O O7 0.997367 0.359282 0.248469
O O8 0.002631 0.323343 0.342732
O O9 0.250000 0.377610 0.087438
O O10 0.036738 0.500000 0.084148
O O11 0.984782 0.318649 0.057243
O O12 0.019836 0.363658 0.148495
O O13 0.750000 0.861089 0.860724
O O14 0.016941 0.842389 0.900480
O O15 0.934804 0.000000 0.857523
O O16 0.250000 0.209289 0.953214
O O17 0.500000 0.172312 0.000000
O O18 0.750000 0.649252 0.192104
O O19 0.586534 0.500000 0.197559
O O20 0.250000 0.771826 0.652361
O O21 0.475223 0.829954 0.600108
O O22 0.250000 0.112533 0.548604
O O23 0.000000 0.140748 0.500000
O O24 0.026270 0.000000 0.560198
#
# Coordination Sequence:
#
# PCOD9405653 Si02
#       8
#     8   8   8   8   8   8   8   8
#     4   9  19  36  58  85 117 152 187 224 274 339
#     4  10  21  36  53  76 110 153 198 241 284 333
#     4  10  21  38  60  84 112 147 184 226 279 338
#     4   9  20  41  65  86 112 146 184 230 282 337
#     4  12  26  42  61  84 111 144 186 235 285 340
#     4   9  17  31  52  78 107 140 181 227 275 329
#     4  11  22  34  54  85 120 155 192 238 290 341
#     4   9  19  36  57  83 116 154 194 238 287 339
#
# _framework density 18.786147
#
# number of rings (size 3 to 8) (size 9 to 14) (size 15 to 20)
#    0.000    2.125    0.000    3.750    1.750    6.000 
#    0.000    2.500    0.000    0.375    0.000    0.000 
#    0.000    0.000    0.000    0.000    0.000    0.000 
#
# Total GULP energy -357587.566307 kJ/mol
# GULP energy per Si atom -5587.305724 kJ/mol
# Density = 1.874339 g / cm^3
# Si number density = 18.786147 Si / 1000 Ang^3
#
#
#
# Elastic Constant Matrix: (Units=GPa)
#
#
# Indices 1 2 3 4 5 6 
#
# 1 84.8738 32.5987 56.1930 0.0000 0.0000 0.0000
# 2 32.5987 64.1085 53.8956 0.0000 0.0000 0.0000
# 3 56.1930 53.8956 140.1516 0.0000 0.0000 0.0000
# 4 0.0000 0.0000 0.0000 28.5645 0.0000 0.0000
# 5 0.0000 0.0000 0.0000 0.0000 32.4520 0.0000
# 6 0.0000 0.0000 0.0000 0.0000 0.0000 28.2827
#
#
#
# Elastic Compliance Matrix: (Units=1/GPa)
#
#
# Indices 1 2 3 4 5 6 
#
# 1 0.016790 -0.004253 -0.005096 0.000000 0.000000 0.000000
# 2 -0.004253 0.024128 -0.007573 0.000000 0.000000 0.000000
# 3 -0.005096 -0.007573 0.012091 0.000000 0.000000 0.000000
# 4 0.000000 0.000000 0.000000 0.035008 0.000000 0.000000
# 5 0.000000 0.000000 0.000000 0.000000 0.030815 0.000000
# 6 0.000000 0.000000 0.000000 0.000000 0.000000 0.035357
#
#
# Mechanical properties :
#
#
# Convention : Reuss Voigt Hill
#
# Bulk Modulus (GPa) = 52.18278 63.83429 58.00854
# Shear Modulus (GPa) = 25.71722 27.62293 26.67007
#
# Velocity S-wave (km/s) = 3.70394 3.83872 3.77193
# Velocity P-wave (km/s) = 6.79189 7.32809 7.06508
#
# Compressibility (1/GPa) = 0.01916341
#
# Stress axis : x y z
#
# Youngs Moduli (GPa) = 59.55962 41.44561 82.70791
#
# Poissons Ratio (x) = 0.17627 0.42150
# Poissons Ratio (y) = 0.25332 0.62636
# Poissons Ratio (z) = 0.30353 0.31388
#
# Static dielectric constant tensor:
#      x y z
#    x 1.627130 0.000000 0.000000 
#    y 0.000000 1.684010 0.000000 
#    z 0.000000 0.000000 1.632900 
# 
# From -- ./inp_files/34910.got.cif
#   From: 2010.05.17/outbox.cif.g08.bks.cpg/sg51_18_cif.got.tgz:34910.got - 2010.06.03 11:52:47.
