data_PCOD9405604
_publ_section_title
;
Structure prediction by ZEFSAII (Michael W. Deem and Ramdas Pophale) SiO2 
 PCOD9405604
Probable space group: P M M A
;
_chemical_formula_sum "Si O2"
_cell_formula_units_Z 40
_cell_length_a 9.890376
_cell_length_b 7.364200
_cell_length_c 26.466477
_cell_angle_alpha 90.000000
_cell_angle_beta 90.000000
_cell_angle_gamma 90.000000
_cell_volume 1927.678096
_symmetry_space_group_name_H-M "P M M A"
_symmetry_group_IT_number 51
_symmetry_cell_setting 'orthorhombic'
loop_
_space_group_symop_operation_xyz
x,y,z
1/2-x,-y,z
1/2+x,-y,-z
-x,y,-z
-x,-y,-z
1/2+x,y,-z
1/2-x,y,z
x,-y,z
loop_
_atom_site_type_symbol
_atom_site_label
_atom_site_fract_x
_atom_site_fract_y
_atom_site_fract_z
Si Si1 0.093696 0.221281 0.045653
Si Si2 0.593904 0.778759 0.841625
Si Si3 0.903949 0.218649 0.363220
Si Si4 0.403210 0.713830 0.456246
Si Si5 0.095207 0.221175 0.751114
O O1 0.250000 0.275075 0.038907
O O2 0.049172 0.276979 0.102041
O O3 0.091607 0.000000 0.045173
O O4 0.000000 0.283850 0.000000
O O5 0.750000 0.725217 0.835259
O O6 0.502791 0.715630 0.795347
O O7 0.591013 0.000000 0.841201
O O8 0.750000 0.280173 0.375820
O O9 0.937765 0.278927 0.306136
O O10 0.015484 0.270222 0.403967
O O11 0.899433 0.000000 0.362531
O O12 0.500000 0.791839 0.500000
O O13 0.250000 0.787801 0.454685
O O14 0.389756 0.500000 0.466960
O O15 0.250000 0.273035 0.761311
O O16 0.090601 0.000000 0.750998
#
# Coordination Sequence:
#
# PCOD9405604 Si02
#       5
#     8   8   8   8   8
#     4   8  13  19  25  35  53  79 115 159 202 242
#     4   8  13  20  29  42  62  89 122 161 204 248
#     4   9  18  32  49  70  95 120 148 184 223 263
#     4  10  21  36  53  72  93 119 151 183 217 261
#     4   8  14  24  37  54  76 101 130 165 205 249
#
# _framework density 20.750351999999999
#
# number of rings (size 3 to 8) (size 9 to 14) (size 15 to 20)
#    0.000    3.400    0.000    3.000    0.000    3.600 
#    0.000    6.000    0.000    0.000    0.000    0.000 
#    0.000    0.000    0.000    0.000    0.000    1.000 
#
# Total GULP energy -223119.658514 kJ/mol
# GULP energy per Si atom -5577.991463 kJ/mol
# Density = 2.070312 g / cm^3
# Si number density = 20.750352 Si / 1000 Ang^3
#
#
#
# Elastic Constant Matrix: (Units=GPa)
#
#
# Indices 1 2 3 4 5 6 
#
# 1 161.0479 6.0757 150.2637 0.0000 0.0000 0.0000
# 2 6.0757 74.2676 0.9686 0.0000 0.0000 0.0000
# 3 150.2637 0.9686 203.4565 0.0000 0.0000 0.0000
# 4 0.0000 0.0000 0.0000 21.9270 0.0000 0.0000
# 5 0.0000 0.0000 0.0000 0.0000 40.4769 0.0000
# 6 0.0000 0.0000 0.0000 0.0000 0.0000 0.0586
#
#
#
# Elastic Compliance Matrix: (Units=1/GPa)
#
#
# Indices 1 2 3 4 5 6 
#
# 1 0.020128 -0.001453 -0.014858 0.000000 0.000000 0.000000
# 2 -0.001453 0.013571 0.001008 0.000000 0.000000 0.000000
# 3 -0.014858 0.001008 0.015884 0.000000 0.000000 0.000000
# 4 0.000000 0.000000 0.000000 0.045606 0.000000 0.000000
# 5 0.000000 0.000000 0.000000 0.000000 0.024705 0.000000
# 6 0.000000 0.000000 0.000000 0.000000 0.000000 17.078729
#
#
# Mechanical properties :
#
#
# Convention : Reuss Voigt Hill
#
# Bulk Modulus (GPa) = 52.69697 83.70976 68.20337
# Shear Modulus (GPa) = 0.29010 31.25677 15.77343
#
# Velocity S-wave (km/s) = 0.37431 3.88535 2.76008
# Velocity P-wave (km/s) = 5.06336 7.78183 6.56485
#
# Compressibility (1/GPa) = 0.01897642
#
# Stress axis : x y z
#
# Youngs Moduli (GPa) = 49.68316 73.68918 62.95659
#
# Poissons Ratio (x) = 0.10706 0.93543
# Poissons Ratio (y) = 0.07218 -0.06348
# Poissons Ratio (z) = 0.73821 -0.07431
#
# Static dielectric constant tensor:
#      x y z
#    x 1.702230 0.000000 0.000000 
#    y 0.000000 1.818000 0.000000 
#    z 0.000000 0.000000 1.721630 
# 
# From -- ./inp_files/32799.got.cif
#   From: 2010.05.17/outbox.cif.g08.bks.cpg/sg51_17_cif.got.tgz:32799.got - 2010.06.03 11:52:47.
