data_PCOD9405836
_publ_section_title
;
Structure prediction by ZEFSAII (Michael W. Deem and Ramdas Pophale) SiO2 
 PCOD9405836
Probable space group: P M M A
;
_chemical_formula_sum "Si O2"
_cell_formula_units_Z 48
_cell_length_a 16.227074
_cell_length_b 8.874422
_cell_length_c 18.383283
_cell_angle_alpha 90.000000
_cell_angle_beta 90.000000
_cell_angle_gamma 90.000000
_cell_volume 2647.301259
_symmetry_space_group_name_H-M "P M M A"
_symmetry_group_IT_number 51
_symmetry_cell_setting 'orthorhombic'
loop_
_space_group_symop_operation_xyz
x,y,z
1/2-x,-y,z
1/2+x,-y,-z
-x,y,-z
-x,-y,-z
1/2+x,y,-z
1/2-x,y,z
x,-y,z
loop_
_atom_site_type_symbol
_atom_site_label
_atom_site_fract_x
_atom_site_fract_y
_atom_site_fract_z
Si Si1 0.750000 0.677855 0.708086
Si Si2 0.409727 0.319758 0.531489
Si Si3 0.091846 0.178696 0.221502
Si Si4 0.344329 0.676057 0.824229
Si Si5 0.575312 0.822136 0.311517
Si Si6 0.485178 0.180855 0.916345
Si Si7 0.750000 0.819593 0.547923
O O1 0.750000 0.500000 0.694523
O O2 0.669457 0.727113 0.752732
O O3 0.750000 0.764024 0.631143
O O4 0.500000 0.276847 0.500000
O O5 0.401203 0.500000 0.524969
O O6 0.410247 0.269165 0.615216
O O7 0.332858 0.243124 0.490505
O O8 0.058418 0.216416 0.140745
O O9 0.015358 0.203884 0.276753
O O10 0.111387 0.000000 0.223367
O O11 0.250000 0.693434 0.846122
O O12 0.360928 0.500000 0.809840
O O13 0.362794 0.768643 0.751143
O O14 0.405364 0.737080 0.885262
O O15 0.583845 0.000000 0.325513
O O16 0.473041 0.000000 0.911362
O O17 0.500000 0.220074 0.000000
O O18 0.750000 0.000000 0.544653
#
# Coordination Sequence:
#
# PCOD9405836 Si02
#       7
#     4   8   8   8   8   8   4
#     4  12  24  38  58  84 115 150 195 242 286 344
#     4  11  24  41  61  87 120 156 195 245 303 358
#     4   9  19  37  60  85 114 151 193 238 286 340
#     4  10  21  36  56  84 117 154 190 231 283 340
#     4  10  21  37  60  85 113 151 196 242 287 343
#     4   9  19  38  62  87 115 148 190 237 286 339
#     4  12  26  42  62  86 117 158 201 250 300 350
#
# _framework density 18.131674
#
# number of rings (size 3 to 8) (size 9 to 14) (size 15 to 20)
#    0.000    1.833    0.000    5.000    1.167    9.000 
#    1.500    0.000    0.000    0.000    0.000    0.000 
#    0.000    0.000    0.000    0.000    0.000    0.000 
#
# Total GULP energy -268132.859807 kJ/mol
# GULP energy per Si atom -5586.101246 kJ/mol
# Density = 1.809041 g / cm^3
# Si number density = 18.131674 Si / 1000 Ang^3
#
#
#
# Elastic Constant Matrix: (Units=GPa)
#
#
# Indices 1 2 3 4 5 6 
#
# 1 110.9253 66.5231 57.9590 0.0000 0.0000 0.0000
# 2 66.5231 75.3057 45.4042 0.0000 0.0000 0.0000
# 3 57.9590 45.4042 107.2303 0.0000 0.0000 0.0000
# 4 0.0000 0.0000 0.0000 -22.2708 0.0000 0.0000
# 5 0.0000 0.0000 0.0000 0.0000 7.5226 0.0000
# 6 0.0000 0.0000 0.0000 0.0000 0.0000 33.6186
#
#
#
# Elastic Compliance Matrix: (Units=1/GPa)
#
#
# Indices 1 2 3 4 5 6 
#
# 1 0.020760 -0.015541 -0.004640 0.000000 0.000000 0.000000
# 2 -0.015541 0.029465 -0.004077 0.000000 0.000000 0.000000
# 3 -0.004640 -0.004077 0.013560 0.000000 0.000000 0.000000
# 4 0.000000 0.000000 0.000000 -0.044902 0.000000 0.000000
# 5 0.000000 0.000000 0.000000 0.000000 0.132933 0.000000
# 6 0.000000 0.000000 0.000000 0.000000 0.000000 0.029745
#
#
# Mechanical properties :
#
#
# Convention : Reuss Voigt Hill
#
# Bulk Modulus (GPa) = 65.48913 70.35931 67.92422
# Shear Modulus (GPa) = 21.26148 12.01242 16.63695
#
# Velocity S-wave (km/s) = 3.42806 2.57672 3.03242
# Velocity P-wave (km/s) = 7.20180 6.90952 7.05717
#
# Compressibility (1/GPa) = 0.01526971
#
# Stress axis : x y z
#
# Youngs Moduli (GPa) = 48.17043 33.93828 73.74611
#
# Poissons Ratio (x) = 0.52742 0.34222
# Poissons Ratio (y) = 0.74860 0.30063
# Poissons Ratio (z) = 0.22353 0.13835
#
# Static dielectric constant tensor:
#      x y z
#    x 1.612780 0.000000 0.000000 
#    y 0.000000 1.608870 0.000000 
#    z 0.000000 0.000000 1.599310 
# 
# From -- ./inp_files/29617.got.cif
#   From: 2010.05.17/outbox.cif.g08.bks.cpg/sg51_15_cif.got.tgz:29617.got - 2010.06.03 11:52:47.
