data_PCOD9405461
_publ_section_title
;
Structure prediction by ZEFSAII (Michael W. Deem and Ramdas Pophale) SiO2 
 PCOD9405461
Probable space group: P M M A
;
_chemical_formula_sum "Si O2"
_cell_formula_units_Z 48
_cell_length_a 9.450859
_cell_length_b 9.147792
_cell_length_c 31.709106
_cell_angle_alpha 90.000000
_cell_angle_beta 90.000000
_cell_angle_gamma 90.000000
_cell_volume 2741.394662
_symmetry_space_group_name_H-M "P M M A"
_symmetry_group_IT_number 51
_symmetry_cell_setting 'orthorhombic'
loop_
_space_group_symop_operation_xyz
x,y,z
1/2-x,-y,z
1/2+x,-y,-z
-x,y,-z
-x,-y,-z
1/2+x,y,-z
1/2-x,y,z
x,-y,z
loop_
_atom_site_type_symbol
_atom_site_label
_atom_site_fract_x
_atom_site_fract_y
_atom_site_fract_z
Si Si1 0.919057 0.327308 0.713307
Si Si2 0.415071 0.823951 0.542132
Si Si3 0.413073 0.678362 0.041174
Si Si4 0.415685 0.676025 0.382884
Si Si5 0.416505 0.675433 0.875727
Si Si6 0.417953 0.827044 0.788386
O O1 0.750000 0.309688 0.717840
O O2 0.950415 0.500000 0.717854
O O3 0.955130 0.283654 0.665224
O O4 0.999952 0.238824 0.748841
O O5 0.500000 0.780637 0.500000
O O6 0.250000 0.784016 0.538682
O O7 0.487576 0.751539 0.582527
O O8 0.424095 0.000000 0.545800
O O9 0.250000 0.725516 0.039820
O O10 0.413473 0.500000 0.040740
O O11 0.491626 0.722490 0.084126
O O12 0.500000 0.726171 0.000000
O O13 0.250000 0.714465 0.389422
O O14 0.426133 0.500000 0.385995
O O15 0.250000 0.707538 0.883177
O O16 0.429612 0.500000 0.871180
O O17 0.461057 0.750965 0.832244
O O18 0.250000 0.799699 0.783163
O O19 0.440427 0.000000 0.791238
#
# Coordination Sequence:
#
# PCOD9405461 Si02
#       6
#     8   8   8   8   8   8
#     4   9  19  36  56  77 102 133 170 211 254 302
#     4  10  21  36  54  77 105 138 175 212 251 298
#     4   9  16  26  43  69  98 125 156 198 246 294
#     4   9  19  36  56  78 104 134 169 210 256 304
#     4   9  17  30  48  69  95 129 166 203 246 294
#     4  10  21  35  51  74 104 136 170 209 253 302
#
# _framework density 17.509336999999999
#
# number of rings (size 3 to 8) (size 9 to 14) (size 15 to 20)
#    0.000    2.667    0.000    2.500    0.000    7.000 
#    0.000    6.667    0.000    0.500    0.000    0.000 
#    0.000    0.000    0.000    0.000    0.000    0.000 
#
# Total GULP energy -267773.807081 kJ/mol
# GULP energy per Si atom -5578.620981 kJ/mol
# Density = 1.746948 g / cm^3
# Si number density = 17.509337 Si / 1000 Ang^3
#
#
#
# Elastic Constant Matrix: (Units=GPa)
#
#
# Indices 1 2 3 4 5 6 
#
# 1 106.5215 40.2788 111.2286 0.0000 0.0000 0.0000
# 2 40.2788 19.9210 55.9889 0.0000 0.0000 0.0000
# 3 111.2286 55.9889 198.4866 0.0000 0.0000 0.0000
# 4 0.0000 0.0000 0.0000 -32.9550 0.0000 0.0000
# 5 0.0000 0.0000 0.0000 0.0000 40.6758 0.0000
# 6 0.0000 0.0000 0.0000 0.0000 0.0000 23.3232
#
#
#
# Elastic Compliance Matrix: (Units=1/GPa)
#
#
# Indices 1 2 3 4 5 6 
#
# 1 0.040022 -0.086328 0.001923 0.000000 0.000000 0.000000
# 2 -0.086328 0.428470 -0.072485 0.000000 0.000000 0.000000
# 3 0.001923 -0.072485 0.024407 0.000000 0.000000 0.000000
# 4 0.000000 0.000000 0.000000 -0.030344 0.000000 0.000000
# 5 0.000000 0.000000 0.000000 0.000000 0.024585 0.000000
# 6 0.000000 0.000000 0.000000 0.000000 0.000000 0.042876
#
#
# Mechanical properties :
#
#
# Convention : Reuss Voigt Hill
#
# Bulk Modulus (GPa) = 5.58288 82.21351 43.89820
# Shear Modulus (GPa) = 5.53403 14.03767 9.78585
#
# Velocity S-wave (km/s) = 1.77974 2.83455 2.36666
# Velocity P-wave (km/s) = 2.72374 7.60059 5.70910
#
# Compressibility (1/GPa) = 0.17911894
#
# Stress axis : x y z
#
# Youngs Moduli (GPa) = 24.98596 2.33389 40.97204
#
# Poissons Ratio (x) = 0.20148 -0.07880
# Poissons Ratio (y) = 2.15699 2.96987
# Poissons Ratio (z) = -0.04806 0.16917
#
# Static dielectric constant tensor:
#      x y z
#    x 1.583900 0.000000 0.000000 
#    y 0.000000 1.578730 0.000000 
#    z 0.000000 0.000000 1.571510 
# 
# From -- ./inp_files/36909.got.cif
#   From: 2010.05.17/outbox.cif.g08.bks.cpg/sg51_19_cif.got.tgz:36909.got - 2010.06.03 11:52:47.
