data_PCOD9405078
_publ_section_title
;
Structure prediction by ZEFSAII (Michael W. Deem and Ramdas Pophale) SiO2 
 PCOD9405078
Probable space group: P M M A
;
_chemical_formula_sum "Si O2"
_cell_formula_units_Z 48
_cell_length_a 18.331491
_cell_length_b 13.830840
_cell_length_c 10.125101
_cell_angle_alpha 90.000000
_cell_angle_beta 90.000000
_cell_angle_gamma 90.000000
_cell_volume 2567.117287
_symmetry_space_group_name_H-M "P M M A"
_symmetry_group_IT_number 51
_symmetry_cell_setting 'orthorhombic'
loop_
_space_group_symop_operation_xyz
x,y,z
1/2-x,-y,z
1/2+x,-y,-z
-x,y,-z
-x,-y,-z
1/2+x,y,-z
1/2-x,y,z
x,-y,z
loop_
_atom_site_type_symbol
_atom_site_label
_atom_site_fract_x
_atom_site_fract_y
_atom_site_fract_z
Si Si1 0.672621 0.793139 0.999458
Si Si2 0.013190 0.000000 0.222100
Si Si3 0.162321 0.500000 0.768446
Si Si4 0.446400 0.675096 0.123254
Si Si5 0.021835 0.205372 0.649525
Si Si6 0.667201 0.709395 0.288220
Si Si7 0.120079 0.000000 0.984447
Si Si8 0.160327 0.500000 0.083954
O O1 0.750000 0.773585 0.930891
O O2 0.600901 0.767368 0.920296
O O3 0.670897 0.728918 0.131106
O O4 0.666345 0.904226 0.036982
O O5 0.004964 0.900814 0.304637
O O6 0.946436 0.000000 0.118106
O O7 0.085723 0.000000 0.131829
O O8 0.250000 0.500000 0.761821
O O9 0.139138 0.400733 0.699584
O O10 0.146285 0.500000 0.925068
O O11 0.490752 0.712842 0.249652
O O12 0.384936 0.592075 0.139484
O O13 0.500000 0.649902 0.000000
O O14 0.109318 0.215358 0.657282
O O15 0.000000 0.224152 0.500000
O O16 0.750000 0.718222 0.339410
O O17 0.250000 0.500000 0.103345
#
# Coordination Sequence:
#
# PCOD9405078 Si02
#       8
#     8   4   4   8   8   8   4   4
#     4  11  20  33  58  91 126 157 193 247 308 361
#     4  11  21  38  62  88 120 158 199 248 305 359
#     4   9  16  31  59  90 120 151 196 248 299 357
#     4  12  21  38  61  92 124 157 202 256 306 361
#     4  12  25  42  62  87 120 165 208 247 299 364
#     4  10  20  37  60  90 122 159 202 249 302 358
#     4  11  19  34  62  92 120 152 198 255 306 366
#     4  11  21  35  59  94 126 159 198 252 316 365
#
# _framework density 18.698015999999999
#
# number of rings (size 3 to 8) (size 9 to 14) (size 15 to 20)
#    0.000    1.000    6.667    1.250    0.000    0.667 
#    0.000    3.750    0.000    1.000    0.000    0.000 
#    0.000    0.000    0.000    0.000    0.000    0.000 
#
# Total GULP energy -267607.649351 kJ/mol
# GULP energy per Si atom -5575.159361 kJ/mol
# Density = 1.865546 g / cm^3
# Si number density = 18.698016 Si / 1000 Ang^3
#
#
#
# Elastic Constant Matrix: (Units=GPa)
#
#
# Indices 1 2 3 4 5 6 
#
# 1 103.2202 16.0496 29.9963 0.0000 0.0000 0.0000
# 2 16.0496 89.1571 10.3162 0.0000 0.0000 0.0000
# 3 29.9963 10.3162 73.4498 0.0000 0.0000 0.0000
# 4 0.0000 0.0000 0.0000 2.9908 0.0000 0.0000
# 5 0.0000 0.0000 0.0000 0.0000 10.6267 0.0000
# 6 0.0000 0.0000 0.0000 0.0000 0.0000 -142.0764
#
#
#
# Elastic Compliance Matrix: (Units=1/GPa)
#
#
# Indices 1 2 3 4 5 6 
#
# 1 0.011189 -0.001510 -0.004357 0.000000 0.000000 0.000000
# 2 -0.001510 0.011605 -0.001013 0.000000 0.000000 0.000000
# 3 -0.004357 -0.001013 0.015537 0.000000 0.000000 0.000000
# 4 0.000000 0.000000 0.000000 0.334360 0.000000 0.000000
# 5 0.000000 0.000000 0.000000 0.000000 0.094103 0.000000
# 6 0.000000 0.000000 0.000000 0.000000 0.000000 -0.007038
#
#
# Mechanical properties :
#
#
# Convention : Reuss Voigt Hill
#
# Bulk Modulus (GPa) = 40.70102 42.06125 41.38113
# Shear Modulus (GPa) = 10.37976 -11.72745 -0.67385
#
# Velocity S-wave (km/s) = 2.35867 -2.50712 -0.60097
# Velocity P-wave (km/s) = 5.40671 3.76338 4.65809
#
# Compressibility (1/GPa) = 0.02456941
#
# Stress axis : x y z
#
# Youngs Moduli (GPa) = 89.37254 86.16800 64.36411
#
# Poissons Ratio (x) = 0.13012 0.28046
# Poissons Ratio (y) = 0.13495 0.06522
# Poissons Ratio (z) = 0.38944 0.08731
#
# Static dielectric constant tensor:
#      x y z
#    x 1.678410 0.000000 0.000000 
#    y 0.000000 1.702270 0.000000 
#    z 0.000000 0.000000 1.628510 
# 
# From -- ./inp_files/9748.got.cif
#   From: 2010.05.17/outbox.cif.g08.bks.cpg/sg51_5_cif.got.tgz:9748.got - 2010.06.03 11:52:47.
