data_PCOD9405102
_publ_section_title
;
Structure prediction by ZEFSAII (Michael W. Deem and Ramdas Pophale) SiO2 
 PCOD9405102
Probable space group: P M M A
;
_chemical_formula_sum "Si O2"
_cell_formula_units_Z 48
_cell_length_a 19.086126
_cell_length_b 8.514149
_cell_length_c 15.267085
_cell_angle_alpha 90.000000
_cell_angle_beta 90.000000
_cell_angle_gamma 90.000000
_cell_volume 2480.933688
_symmetry_space_group_name_H-M "P M M A"
_symmetry_group_IT_number 51
_symmetry_cell_setting 'orthorhombic'
loop_
_space_group_symop_operation_xyz
x,y,z
1/2-x,-y,z
1/2+x,-y,-z
-x,y,-z
-x,-y,-z
1/2+x,y,-z
1/2-x,y,z
x,-y,z
loop_
_atom_site_type_symbol
_atom_site_label
_atom_site_fract_x
_atom_site_fract_y
_atom_site_fract_z
Si Si1 0.580208 0.190241 0.818500
Si Si2 0.057141 0.190453 0.378212
Si Si3 0.101509 0.189814 0.565008
Si Si4 0.829723 0.314174 0.270257
Si Si5 0.427317 0.185542 0.877742
Si Si6 0.829005 0.687363 0.969875
O O1 0.580209 0.244986 0.717529
O O2 0.506782 0.241970 0.863050
O O3 0.643558 0.249718 0.877195
O O4 0.580243 0.000000 0.818195
O O5 0.101568 0.239352 0.463281
O O6 0.976102 0.230325 0.398020
O O7 0.059306 0.000000 0.377310
O O8 0.156307 0.269886 0.629157
O O9 0.108857 0.000000 0.569370
O O10 0.750000 0.275436 0.245404
O O11 0.840135 0.500000 0.256727
O O12 0.884205 0.220665 0.210527
O O13 0.430482 0.000000 0.893594
O O14 0.384127 0.260717 0.956508
O O15 0.750000 0.744164 0.989531
O O16 0.827690 0.500000 0.968076
#
# Coordination Sequence:
#
# PCOD9405102 Si02
#       6
#     8   8   8   8   8   8
#     4  10  20  37  61  89 114 141 185 238 283 331
#     4   8  15  31  57  85 111 138 177 233 282 319
#     4   9  16  32  57  81 108 145 185 227 276 330
#     4  11  23  36  51  78 119 158 189 230 284 339
#     4  11  22  38  62  88 110 141 188 239 287 337
#     4  11  25  42  57  79 115 154 188 227 280 339
#
# _framework density 19.347553000000001
#
# number of rings (size 3 to 8) (size 9 to 14) (size 15 to 20)
#    0.000    2.000    1.667    3.500    0.000    8.000 
#    0.000    3.333    0.000    5.000    0.000    0.000 
#    0.000    0.000    0.000    0.000    0.000    0.000 
#
# Total GULP energy -267994.138592 kJ/mol
# GULP energy per Si atom -5583.211221 kJ/mol
# Density = 1.930352 g / cm^3
# Si number density = 19.347553 Si / 1000 Ang^3
#
#
#
# Elastic Constant Matrix: (Units=GPa)
#
#
# Indices 1 2 3 4 5 6 
#
# 1 31.9602 6.3111 11.9519 0.0000 0.0000 0.0000
# 2 6.3111 10.0489 6.4240 0.0000 0.0000 0.0000
# 3 11.9519 6.4240 117.2612 0.0000 0.0000 0.0000
# 4 0.0000 0.0000 0.0000 -31.3595 0.0000 0.0000
# 5 0.0000 0.0000 0.0000 0.0000 13.2306 0.0000
# 6 0.0000 0.0000 0.0000 0.0000 0.0000 24.7953
#
#
#
# Elastic Compliance Matrix: (Units=1/GPa)
#
#
# Indices 1 2 3 4 5 6 
#
# 1 0.036440 -0.021255 -0.002550 0.000000 0.000000 0.000000
# 2 -0.021255 0.115523 -0.004162 0.000000 0.000000 0.000000
# 3 -0.002550 -0.004162 0.009016 0.000000 0.000000 0.000000
# 4 0.000000 0.000000 0.000000 -0.031888 0.000000 0.000000
# 5 0.000000 0.000000 0.000000 0.000000 0.075582 0.000000
# 6 0.000000 0.000000 0.000000 0.000000 0.000000 0.040330
#
#
# Mechanical properties :
#
#
# Convention : Reuss Voigt Hill
#
# Bulk Modulus (GPa) = 9.51982 23.18270 16.35126
# Shear Modulus (GPa) = 14.88305 10.30550 12.59427
#
# Velocity S-wave (km/s) = 2.77654 2.31043 2.55414
# Velocity P-wave (km/s) = 3.90000 4.37329 4.14341
#
# Compressibility (1/GPa) = 0.10504402
#
# Stress axis : x y z
#
# Youngs Moduli (GPa) = 27.44268 8.65625 110.91542
#
# Poissons Ratio (x) = 0.18399 0.28280
# Poissons Ratio (y) = 0.58331 0.46167
# Poissons Ratio (z) = 0.06997 0.03603
#
# Static dielectric constant tensor:
#      x y z
#    x 1.660470 0.000000 0.000000 
#    y 0.000000 1.657540 0.000000 
#    z 0.000000 0.000000 1.699290 
# 
# From -- ./inp_files/24710.got.cif
#   From: 2010.05.17/outbox.cif.g08.bks.cpg/sg51_13_cif.got.tgz:24710.got - 2010.06.03 11:52:47.
