data_PCOD9405715
_publ_section_title
;
Structure prediction by ZEFSAII (Michael W. Deem and Ramdas Pophale) SiO2 
 PCOD9405715
Probable space group: P M M A
;
_chemical_formula_sum "Si O2"
_cell_formula_units_Z 56
_cell_length_a 14.916718
_cell_length_b 8.410748
_cell_length_c 22.007189
_cell_angle_alpha 90.000000
_cell_angle_beta 90.000000
_cell_angle_gamma 90.000000
_cell_volume 2761.038571
_symmetry_space_group_name_H-M "P M M A"
_symmetry_group_IT_number 51
_symmetry_cell_setting 'orthorhombic'
loop_
_space_group_symop_operation_xyz
x,y,z
1/2-x,-y,z
1/2+x,-y,-z
-x,y,-z
-x,-y,-z
1/2+x,y,-z
1/2-x,y,z
x,-y,z
loop_
_atom_site_type_symbol
_atom_site_label
_atom_site_fract_x
_atom_site_fract_y
_atom_site_fract_z
Si Si1 0.078635 0.334595 0.047659
Si Si2 0.850795 0.690555 0.251623
Si Si3 0.543015 0.189755 0.366622
Si Si4 0.464810 0.685503 0.190946
Si Si5 0.146881 0.000000 0.056451
Si Si6 0.349312 0.312476 0.379962
Si Si7 0.352456 0.811887 0.515885
Si Si8 0.143072 0.000000 0.201377
O O1 0.866347 0.500000 0.955931
O O2 0.049393 0.321502 0.118248
O O3 0.116827 0.165590 0.029961
O O4 0.000000 0.351437 0.000000
O O5 0.750000 0.752521 0.239484
O O6 0.845332 0.500000 0.252166
O O7 0.888734 0.746480 0.316404
O O8 0.932016 0.729241 0.205672
O O9 0.441146 0.241605 0.354138
O O10 0.577854 0.242774 0.433110
O O11 0.546656 0.000000 0.366331
O O12 0.447735 0.500000 0.212684
O O13 0.403477 0.829715 0.218116
O O14 0.250000 0.000000 0.049638
O O15 0.129357 0.000000 0.128540
O O16 0.250000 0.249381 0.360931
O O17 0.349706 0.500000 0.368705
O O18 0.356234 0.278455 0.452273
O O19 0.250000 0.797717 0.539513
O O20 0.368423 0.000000 0.503161
O O21 0.250000 0.000000 0.214823
#
# Coordination Sequence:
#
# PCOD9405715 Si02
#       8
#     8   8   8   8   4   8   8   4
#     4   9  17  31  53  79 109 148 189 229 278 338
#     4  10  22  40  60  81 109 146 186 231 282 333
#     4  11  22  35  55  81 108 141 185 232 278 332
#     4   9  19  36  57  83 116 152 191 236 288 340
#     4   9  17  29  47  74 109 141 175 226 275 326
#     4  10  21  36  54  77 107 143 181 224 278 340
#     4   9  18  33  52  77 109 141 175 220 278 338
#     4   9  18  33  56  84 110 143 185 226 277 336
#
# _framework density 20.282222999999998
#
# number of rings (size 3 to 8) (size 9 to 14) (size 15 to 20)
#    0.000    2.429    0.000    1.929    1.000    5.143 
#    0.000    5.714    0.000    3.429    0.000    0.000 
#    0.000    0.000    0.000    0.000    0.000    0.000 
#
# Total GULP energy -311866.906831 kJ/mol
# GULP energy per Si atom -5569.051908 kJ/mol
# Density = 2.023606 g / cm^3
# Si number density = 20.282223 Si / 1000 Ang^3
#
#
#
# Elastic Constant Matrix: (Units=GPa)
#
#
# Indices 1 2 3 4 5 6 
#
# 1 171.4283 69.2176 29.5340 0.0000 0.0000 0.0000
# 2 69.2176 99.7594 24.0757 0.0000 0.0000 0.0000
# 3 29.5340 24.0757 35.1911 0.0000 0.0000 0.0000
# 4 0.0000 0.0000 0.0000 2.7395 0.0000 0.0000
# 5 0.0000 0.0000 0.0000 0.0000 6.9451 0.0000
# 6 0.0000 0.0000 0.0000 0.0000 0.0000 39.4715
#
#
#
# Elastic Compliance Matrix: (Units=1/GPa)
#
#
# Indices 1 2 3 4 5 6 
#
# 1 0.008489 -0.004995 -0.003707 0.000000 0.000000 0.000000
# 2 -0.004995 0.014946 -0.006033 0.000000 0.000000 0.000000
# 3 -0.003707 -0.006033 0.035654 0.000000 0.000000 0.000000
# 4 0.000000 0.000000 0.000000 0.365025 0.000000 0.000000
# 5 0.000000 0.000000 0.000000 0.000000 0.143986 0.000000
# 6 0.000000 0.000000 0.000000 0.000000 0.000000 0.025335
#
#
# Mechanical properties :
#
#
# Convention : Reuss Voigt Hill
#
# Bulk Modulus (GPa) = 33.76158 61.33705 47.54931
# Shear Modulus (GPa) = 7.90166 22.06802 14.98484
#
# Velocity S-wave (km/s) = 1.97593 3.30213 2.72107
# Velocity P-wave (km/s) = 4.67844 6.69673 5.77642
#
# Compressibility (1/GPa) = 0.02961947
#
# Stress axis : x y z
#
# Youngs Moduli (GPa) = 117.80012 66.90694 28.04701
#
# Poissons Ratio (x) = 0.33423 0.10396
# Poissons Ratio (y) = 0.58846 0.16920
# Poissons Ratio (z) = 0.43665 0.40364
#
# Static dielectric constant tensor:
#      x y z
#    x 1.737050 0.000000 0.000000 
#    y 0.000000 1.689440 0.000000 
#    z 0.000000 0.000000 1.694640 
# 
# From -- ./inp_files/33592.got.cif
#   From: 2010.05.17/outbox.cif.g08.bks.cpg/sg51_17_cif.got.tgz:33592.got - 2010.06.03 11:52:47.
