data_PCOD9405688
_publ_section_title
;
Structure prediction by ZEFSAII (Michael W. Deem and Ramdas Pophale) SiO2 
 PCOD9405688
Probable space group: P M M A
;
_chemical_formula_sum "Si O2"
_cell_formula_units_Z 40
_cell_length_a 9.863542
_cell_length_b 7.709950
_cell_length_c 26.515359
_cell_angle_alpha 90.000000
_cell_angle_beta 90.000000
_cell_angle_gamma 90.000000
_cell_volume 2016.424527
_symmetry_space_group_name_H-M "P M M A"
_symmetry_group_IT_number 51
_symmetry_cell_setting 'orthorhombic'
loop_
_space_group_symop_operation_xyz
x,y,z
1/2-x,-y,z
1/2+x,-y,-z
-x,y,-z
-x,-y,-z
1/2+x,y,-z
1/2-x,y,z
x,-y,z
loop_
_atom_site_type_symbol
_atom_site_label
_atom_site_fract_x
_atom_site_fract_y
_atom_site_fract_z
Si Si1 0.597913 0.791893 0.250654
Si Si2 0.407511 0.288274 0.454217
Si Si3 0.094430 0.209593 0.862914
Si Si4 0.404283 0.293475 0.044543
Si Si5 0.903489 0.291925 0.657497
O O1 0.750000 0.727729 0.261760
O O2 0.560936 0.731363 0.194158
O O3 0.497219 0.749508 0.295506
O O4 0.603746 0.000000 0.247539
O O5 0.500000 0.225732 0.500000
O O6 0.250000 0.239671 0.460676
O O7 0.412066 0.500000 0.455013
O O8 0.451479 0.231777 0.397976
O O9 0.250000 0.265749 0.874687
O O10 0.984882 0.267472 0.903485
O O11 0.095388 0.000000 0.863386
O O12 0.250000 0.224088 0.044887
O O13 0.393345 0.500000 0.036283
O O14 0.500000 0.221312 0.000000
O O15 0.750000 0.226859 0.665195
O O16 0.896665 0.500000 0.654383
#
# Coordination Sequence:
#
# PCOD9405688 Si02
#       5
#     8   8   8   8   8
#     4   9  19  35  52  71  97 129 165 203 242 286
#     4   8  14  25  41  63  92 123 154 192 238 285
#     4   9  19  36  55  74  98 129 165 204 244 286
#     4  10  21  36  54  77 104 133 164 198 239 287
#     4   9  18  31  47  71 101 128 158 199 244 291
#
# _framework density 19.837092999999999
#
# number of rings (size 3 to 8) (size 9 to 14) (size 15 to 20)
#    0.000    3.000    0.000    3.000    0.000    5.200 
#    0.000    8.000    0.000    0.600    0.000    0.000 
#    0.000    0.000    0.000    0.000    0.000    0.000 
#
# Total GULP energy -223022.633637 kJ/mol
# GULP energy per Si atom -5575.565841 kJ/mol
# Density = 1.979194 g / cm^3
# Si number density = 19.837093 Si / 1000 Ang^3
#
#
#
# Elastic Constant Matrix: (Units=GPa)
#
#
# Indices 1 2 3 4 5 6 
#
# 1 151.2504 6.7738 140.7794 0.0000 0.0000 0.0000
# 2 6.7738 28.1012 2.4506 0.0000 0.0000 0.0000
# 3 140.7794 2.4506 199.3778 0.0000 0.0000 0.0000
# 4 0.0000 0.0000 0.0000 33.6328 0.0000 0.0000
# 5 0.0000 0.0000 0.0000 0.0000 41.0010 0.0000
# 6 0.0000 0.0000 0.0000 0.0000 0.0000 73.7359
#
#
#
# Elastic Compliance Matrix: (Units=1/GPa)
#
#
# Indices 1 2 3 4 5 6 
#
# 1 0.019631 -0.003527 -0.013818 0.000000 0.000000 0.000000
# 2 -0.003527 0.036257 0.002045 0.000000 0.000000 0.000000
# 3 -0.013818 0.002045 0.014747 0.000000 0.000000 0.000000
# 4 0.000000 0.000000 0.000000 0.029733 0.000000 0.000000
# 5 0.000000 0.000000 0.000000 0.000000 0.024390 0.000000
# 6 0.000000 0.000000 0.000000 0.000000 0.000000 0.013562
#
#
# Mechanical properties :
#
#
# Convention : Reuss Voigt Hill
#
# Bulk Modulus (GPa) = 24.97796 75.41521 50.19659
# Shear Modulus (GPa) = 27.43265 44.92233 36.17749
#
# Velocity S-wave (km/s) = 3.72277 4.76390 4.27515
# Velocity P-wave (km/s) = 5.57652 8.26798 7.05185
#
# Compressibility (1/GPa) = 0.04003529
#
# Stress axis : x y z
#
# Youngs Moduli (GPa) = 50.94085 27.58050 67.81015
#
# Poissons Ratio (x) = 0.09727 0.93698
# Poissons Ratio (y) = 0.17967 -0.13865
# Poissons Ratio (z) = 0.70389 -0.05639
#
# Static dielectric constant tensor:
#      x y z
#    x 1.684820 0.000000 0.000000 
#    y 0.000000 1.749380 0.000000 
#    z 0.000000 0.000000 1.696560 
# 
# From -- ./inp_files/28811.got.cif
#   From: 2010.05.17/outbox.cif.g08.bks.cpg/sg51_15_cif.got.tgz:28811.got - 2010.06.03 11:52:47.
