data_PCOD9405221
_publ_section_title
;
Structure prediction by ZEFSAII (Michael W. Deem and Ramdas Pophale) SiO2 
 PCOD9405221
Probable space group: P M M A
;
_chemical_formula_sum "Si O2"
_cell_formula_units_Z 64
_cell_length_a 17.574842
_cell_length_b 13.892992
_cell_length_c 12.945421
_cell_angle_alpha 90.000000
_cell_angle_beta 90.000000
_cell_angle_gamma 90.000000
_cell_volume 3160.846413
_symmetry_space_group_name_H-M "P M M A"
_symmetry_group_IT_number 51
_symmetry_cell_setting 'orthorhombic'
loop_
_space_group_symop_operation_xyz
x,y,z
1/2-x,-y,z
1/2+x,-y,-z
-x,y,-z
-x,-y,-z
1/2+x,y,-z
1/2-x,y,z
x,-y,z
loop_
_atom_site_type_symbol
_atom_site_label
_atom_site_fract_x
_atom_site_fract_y
_atom_site_fract_z
Si Si1 0.163291 0.358988 0.759531
Si Si2 0.918351 0.689985 0.449232
Si Si3 0.840442 0.888513 0.941668
Si Si4 0.026138 0.603475 0.881696
Si Si5 0.160618 0.388690 0.356048
Si Si6 0.568951 0.235700 0.777100
Si Si7 0.457971 0.109463 0.646783
Si Si8 0.663945 0.862443 0.180187
O O1 0.250000 0.394067 0.742408
O O2 0.109253 0.360849 0.657282
O O3 0.115488 0.400821 0.855145
O O4 0.170168 0.248345 0.790247
O O5 0.856929 0.657400 0.532600
O O6 0.925192 0.805591 0.427933
O O7 0.000000 0.661265 0.500000
O O8 0.750000 0.868749 0.933524
O O9 0.886905 0.820297 0.866269
O O10 0.853372 0.000000 0.913887
O O11 0.861305 0.875336 0.061949
O O12 0.994153 0.500000 0.843626
O O13 0.997131 0.698993 0.825839
O O14 0.000000 0.610904 0.000000
O O15 0.250000 0.389951 0.336190
O O16 0.133296 0.500000 0.352677
O O17 0.120760 0.315288 0.277982
O O18 0.532615 0.160008 0.696470
O O19 0.397280 0.099924 0.739420
O O20 0.470480 0.000000 0.608055
O O21 0.750000 0.901131 0.189253
#
# Coordination Sequence:
#
# PCOD9405221 Si02
#       8
#     8   8   8   8   8   8   8   8
#     4  10  20  38  64  93 127 167 213 262 319 382
#     4  11  21  42  64  97 123 163 202 267 325 381
#     4  10  21  36  59  91 126 167 211 257 312 373
#     4  11  23  39  61  91 129 169 210 258 317 382
#     4  11  25  45  68  92 118 154 207 266 325 387
#     4  12  22  41  61  88 123 167 207 261 312 378
#     4  11  23  38  61  93 125 168 210 252 309 373
#     4   9  18  36  59  88 127 165 205 256 308 367
#
# _framework density 20.247741999999999
#
# number of rings (size 3 to 8) (size 9 to 14) (size 15 to 20)
#    0.000    1.375    3.750    2.625    0.000    2.500 
#    0.000    1.875    0.000    3.000    0.000    0.000 
#    0.000    0.000    0.000    0.000    0.000    0.000 
#
# Total GULP energy -356903.795757 kJ/mol
# GULP energy per Si atom -5576.621809 kJ/mol
# Density = 2.020166 g / cm^3
# Si number density = 20.247742 Si / 1000 Ang^3
#
#
#
# Elastic Constant Matrix: (Units=GPa)
#
#
# Indices 1 2 3 4 5 6 
#
# 1 102.0597 48.6645 62.0413 0.0000 0.0000 0.0000
# 2 48.6645 110.5853 36.4371 0.0000 0.0000 0.0000
# 3 62.0413 36.4371 97.9173 0.0000 0.0000 0.0000
# 4 0.0000 0.0000 0.0000 -27.7549 0.0000 0.0000
# 5 0.0000 0.0000 0.0000 0.0000 34.8369 0.0000
# 6 0.0000 0.0000 0.0000 0.0000 0.0000 -28.3991
#
#
#
# Elastic Compliance Matrix: (Units=1/GPa)
#
#
# Indices 1 2 3 4 5 6 
#
# 1 0.017855 -0.004707 -0.009561 0.000000 0.000000 0.000000
# 2 -0.004707 0.011547 -0.001315 0.000000 0.000000 0.000000
# 3 -0.009561 -0.001315 0.016760 0.000000 0.000000 0.000000
# 4 0.000000 0.000000 0.000000 -0.036030 0.000000 0.000000
# 5 0.000000 0.000000 0.000000 0.000000 0.028705 0.000000
# 6 0.000000 0.000000 0.000000 0.000000 0.000000 -0.035212
#
#
# Mechanical properties :
#
#
# Convention : Reuss Voigt Hill
#
# Bulk Modulus (GPa) = 66.68316 67.20532 66.94424
# Shear Modulus (GPa) = 125.65925 6.63122 66.14524
#
# Velocity S-wave (km/s) = 7.88642 1.81167 5.72179
# Velocity P-wave (km/s) = 10.76720 6.13513 8.76277
#
# Compressibility (1/GPa) = 0.01499629
#
# Stress axis : x y z
#
# Youngs Moduli (GPa) = 56.00720 86.60053 59.66526
#
# Poissons Ratio (x) = 0.40761 0.57049
# Poissons Ratio (y) = 0.26362 0.07844
# Poissons Ratio (z) = 0.53551 0.11385
#
# Static dielectric constant tensor:
#      x y z
#    x 1.752510 0.000000 0.000000 
#    y 0.000000 1.747260 0.000000 
#    z 0.000000 0.000000 1.724070 
# 
# From -- ./inp_files/17596.got.cif
#   From: 2010.05.17/outbox.cif.g08.bks.cpg/sg51_9_cif.got.tgz:17596.got - 2010.06.03 11:52:47.
