data_PCOD9405016
_publ_section_title
;
Structure prediction by ZEFSAII (Michael W. Deem and Ramdas Pophale) SiO2 
 PCOD9405016
Probable space group: P M M A
;
_chemical_formula_sum "Si O2"
_cell_formula_units_Z 36
_cell_length_a 8.531268
_cell_length_b 23.853440
_cell_length_c 9.483439
_cell_angle_alpha 90.000000
_cell_angle_beta 90.000000
_cell_angle_gamma 90.000000
_cell_volume 1929.880684
_symmetry_space_group_name_H-M "P M M A"
_symmetry_group_IT_number 51
_symmetry_cell_setting 'orthorhombic'
loop_
_space_group_symop_operation_xyz
x,y,z
1/2-x,-y,z
1/2+x,-y,-z
-x,y,-z
-x,-y,-z
1/2+x,y,-z
1/2-x,y,z
x,-y,z
loop_
_atom_site_type_symbol
_atom_site_label
_atom_site_fract_x
_atom_site_fract_y
_atom_site_fract_z
Si Si1 0.937278 0.500000 0.340040
Si Si2 0.438758 0.293027 0.659652
Si Si3 0.939378 0.938264 0.158875
Si Si4 0.938993 0.833952 0.342665
Si Si5 0.437102 0.395484 0.159475
O O1 0.750000 0.500000 0.343848
O O2 0.000000 0.500000 0.500000
O O3 0.996628 0.554176 0.254946
O O4 0.500000 0.302781 0.500000
O O5 0.250000 0.297418 0.658937
O O6 0.484260 0.229267 0.701038
O O7 0.508807 0.338071 0.766239
O O8 0.750000 0.936798 0.157418
O O9 0.996428 0.884857 0.246365
O O10 0.986480 0.000000 0.215251
O O11 0.000000 0.934410 0.000000
O O12 0.750000 0.835276 0.343853
O O13 0.000000 0.842215 0.500000
O O14 0.250000 0.398753 0.157120
O O15 0.500000 0.399387 0.000000
#
# Coordination Sequence:
#
# PCOD9405016 Si02
#       5
#     4   8   8   8   8
#     4  12  25  44  67  92 120 154 192 230 275 328
#     4  10  20  37  58  82 112 148 188 230 278 333
#     4   9  18  33  51  73 103 139 179 224 274 329
#     4   9  19  34  53  78 108 141 180 226 274 326
#     4  12  25  42  62  88 119 152 189 232 280 329
#
# _framework density 18.654004
#
# number of rings (size 3 to 8) (size 9 to 14) (size 15 to 20)
#    0.000    1.778    0.000    4.667    0.000    3.111 
#    0.000    2.222    0.000    0.000    0.000    0.000 
#    0.000    0.000    0.000    0.000    0.000    0.000 
#
# Total GULP energy -201070.263035 kJ/mol
# GULP energy per Si atom -5585.285084 kJ/mol
# Density = 1.861155 g / cm^3
# Si number density = 18.654004 Si / 1000 Ang^3
#
#
#
# Elastic Constant Matrix: (Units=GPa)
#
#
# Indices 1 2 3 4 5 6 
#
# 1 94.5733 58.7929 51.2084 0.0000 0.0000 0.0000
# 2 58.7929 197.2143 123.8301 0.0000 0.0000 0.0000
# 3 51.2084 123.8301 137.1785 0.0000 0.0000 0.0000
# 4 0.0000 0.0000 0.0000 81.5665 0.0000 0.0000
# 5 0.0000 0.0000 0.0000 0.0000 35.3265 0.0000
# 6 0.0000 0.0000 0.0000 0.0000 0.0000 140.7278
#
#
#
# Elastic Compliance Matrix: (Units=1/GPa)
#
#
# Indices 1 2 3 4 5 6 
#
# 1 0.013585 -0.001998 -0.003267 0.000000 0.000000 0.000000
# 2 -0.001998 0.011999 -0.010085 0.000000 0.000000 0.000000
# 3 -0.003267 -0.010085 0.017614 0.000000 0.000000 0.000000
# 4 0.000000 0.000000 0.000000 0.012260 0.000000 0.000000
# 5 0.000000 0.000000 0.000000 0.000000 0.028307 0.000000
# 6 0.000000 0.000000 0.000000 0.000000 0.000000 0.007106
#
#
# Mechanical properties :
#
#
# Convention : Reuss Voigt Hill
#
# Bulk Modulus (GPa) = 80.02959 99.62544 89.82751
# Shear Modulus (GPa) = 39.76504 64.53313 52.14908
#
# Velocity S-wave (km/s) = 4.62206 5.88811 5.29308
# Velocity P-wave (km/s) = 8.45457 9.98747 9.25282
#
# Compressibility (1/GPa) = 0.01249538
#
# Stress axis : x y z
#
# Youngs Moduli (GPa) = 73.60863 83.34052 56.77463
#
# Poissons Ratio (x) = 0.16655 0.18551
# Poissons Ratio (y) = 0.14710 0.57259
# Poissons Ratio (z) = 0.24051 0.84052
#
# Static dielectric constant tensor:
#      x y z
#    x 1.626930 0.000000 0.000000 
#    y 0.000000 1.668530 0.000000 
#    z 0.000000 0.000000 1.596200 
# 
# From -- ./inp_files/5043.got.cif
#   From: 2010.05.17/outbox.cif.g08.bks.cpg/sg51_3_cif.got.tgz:5043.got - 2010.06.03 11:52:47.
