data_PCOD9405894
_publ_section_title
;
Structure prediction by ZEFSAII (Michael W. Deem and Ramdas Pophale) SiO2 
 PCOD9405894
Probable space group: P M M A
;
_chemical_formula_sum "Si O2"
_cell_formula_units_Z 40
_cell_length_a 19.522724
_cell_length_b 13.538395
_cell_length_c 7.194024
_cell_angle_alpha 90.000000
_cell_angle_beta 90.000000
_cell_angle_gamma 90.000000
_cell_volume 1901.426218
_symmetry_space_group_name_H-M "P M M A"
_symmetry_group_IT_number 51
_symmetry_cell_setting 'orthorhombic'
loop_
_space_group_symop_operation_xyz
x,y,z
1/2-x,-y,z
1/2+x,-y,-z
-x,y,-z
-x,-y,-z
1/2+x,y,-z
1/2-x,y,z
x,-y,z
loop_
_atom_site_type_symbol
_atom_site_label
_atom_site_fract_x
_atom_site_fract_y
_atom_site_fract_z
Si Si1 0.472380 0.393094 0.289425
Si Si2 0.827559 0.613264 0.871386
Si Si3 0.172581 0.000000 0.127629
Si Si4 0.468241 0.196501 0.706663
Si Si5 0.030549 0.000000 0.291481
Si Si6 0.327224 0.194466 0.867222
O O1 0.500000 0.397616 0.500000
O O2 0.488674 0.500000 0.206211
O O3 0.390518 0.378407 0.272364
O O4 0.509047 0.298964 0.203040
O O5 0.750000 0.622483 0.793043
O O6 0.832061 0.500000 0.948640
O O7 0.834878 0.703016 0.017427
O O8 0.250000 0.000000 0.203902
O O9 0.165255 0.099046 0.002213
O O10 0.112086 0.000000 0.277322
O O11 0.500000 0.199810 0.500000
O O12 0.501285 0.099757 0.795368
O O13 0.386868 0.188806 0.715897
O O14 0.000000 0.000000 0.500000
O O15 0.250000 0.191897 0.791399
#
# Coordination Sequence:
#
# PCOD9405894 Si02
#       6
#     8   8   4   8   4   8
#     4   9  18  33  52  77 110 145 182 221 265 321
#     4   9  18  33  54  80 109 142 180 223 272 323
#     4  10  21  37  58  84 113 146 183 223 269 319
#     4  10  21  37  54  78 110 143 181 222 271 329
#     4  10  21  37  55  82 115 148 185 220 262 317
#     4  10  21  37  57  81 109 141 179 225 275 326
#
# _framework density 21.036840000000002
#
# number of rings (size 3 to 8) (size 9 to 14) (size 15 to 20)
#    0.000    2.400    0.000    1.800    0.000    4.800 
#    0.000   10.000    0.000    1.200    0.000    0.000 
#    0.000    0.000    0.000    0.000    0.000    0.000 
#
# Total GULP energy -222904.842227 kJ/mol
# GULP energy per Si atom -5572.621056 kJ/mol
# Density = 2.098896 g / cm^3
# Si number density = 21.036840 Si / 1000 Ang^3
#
#
#
# Elastic Constant Matrix: (Units=GPa)
#
#
# Indices 1 2 3 4 5 6 
#
# 1 216.2783 53.2848 61.3142 0.0000 0.0000 0.0000
# 2 53.2848 179.2532 10.5167 0.0000 0.0000 0.0000
# 3 61.3142 10.5167 84.0251 0.0000 0.0000 0.0000
# 4 0.0000 0.0000 0.0000 31.5775 0.0000 0.0000
# 5 0.0000 0.0000 0.0000 0.0000 52.7608 0.0000
# 6 0.0000 0.0000 0.0000 0.0000 0.0000 30.0537
#
#
#
# Elastic Compliance Matrix: (Units=1/GPa)
#
#
# Indices 1 2 3 4 5 6 
#
# 1 0.006256 -0.001604 -0.004364 0.000000 0.000000 0.000000
# 2 -0.001604 0.006031 0.000415 0.000000 0.000000 0.000000
# 3 -0.004364 0.000415 0.015034 0.000000 0.000000 0.000000
# 4 0.000000 0.000000 0.000000 0.031668 0.000000 0.000000
# 5 0.000000 0.000000 0.000000 0.000000 0.018953 0.000000
# 6 0.000000 0.000000 0.000000 0.000000 0.000000 0.033274
#
#
# Mechanical properties :
#
#
# Convention : Reuss Voigt Hill
#
# Bulk Modulus (GPa) = 61.66875 81.08757 71.37816
# Shear Modulus (GPa) = 39.14598 46.50779 42.82689
#
# Velocity S-wave (km/s) = 4.31841 4.70699 4.51688
# Velocity P-wave (km/s) = 7.36500 8.25653 7.82347
#
# Compressibility (1/GPa) = 0.01621567
#
# Stress axis : x y z
#
# Youngs Moduli (GPa) = 159.84516 165.80933 66.51591
#
# Poissons Ratio (x) = 0.26589 0.29030
# Poissons Ratio (y) = 0.25633 -0.02763
# Poissons Ratio (z) = 0.69763 -0.06886
#
# Static dielectric constant tensor:
#      x y z
#    x 1.752470 0.000000 0.000000 
#    y 0.000000 1.673070 0.000000 
#    z 0.000000 0.000000 1.678180 
# 
# From -- ./inp_files/8011.got.cif
#   From: 2010.05.17/outbox.cif.g08.bks.cpg/sg51_5_cif.got.tgz:8011.got - 2010.06.03 11:52:47.
