data_PCOD9405660
_publ_section_title
;
Structure prediction by ZEFSAII (Michael W. Deem and Ramdas Pophale) SiO2 
 PCOD9405660
Probable space group: P M M A
;
_chemical_formula_sum "Si O2"
_cell_formula_units_Z 56
_cell_length_a 22.259378
_cell_length_b 15.463698
_cell_length_c 8.685435
_cell_angle_alpha 90.000000
_cell_angle_beta 90.000000
_cell_angle_gamma 90.000000
_cell_volume 2989.633550
_symmetry_space_group_name_H-M "P M M A"
_symmetry_group_IT_number 51
_symmetry_cell_setting 'orthorhombic'
loop_
_space_group_symop_operation_xyz
x,y,z
1/2-x,-y,z
1/2+x,-y,-z
-x,y,-z
-x,-y,-z
1/2+x,y,-z
1/2-x,y,z
x,-y,z
loop_
_atom_site_type_symbol
_atom_site_label
_atom_site_fract_x
_atom_site_fract_y
_atom_site_fract_z
Si Si1 0.818605 0.101493 0.502127
Si Si2 0.318218 0.738153 0.986552
Si Si3 0.605917 0.223980 0.297213
Si Si4 0.937487 0.653209 0.570976
Si Si5 0.680720 0.401921 0.743093
Si Si6 0.869369 0.898603 0.844097
Si Si7 0.516423 0.784283 0.833823
O O1 0.750000 0.129233 0.522302
O O2 0.849175 0.155186 0.368516
O O3 0.851093 0.113457 0.665681
O O4 0.820120 0.000000 0.466443
O O5 0.250000 0.728994 0.932985
O O6 0.363451 0.727484 0.845327
O O7 0.328013 0.669541 0.123757
O O8 0.329003 0.834252 0.054470
O O9 0.586616 0.287318 0.433219
O O10 0.544975 0.180454 0.237830
O O11 0.877120 0.604686 0.629925
O O12 0.957861 0.713574 0.714850
O O13 0.000000 0.612447 0.500000
O O14 0.750000 0.387754 0.680602
O O15 0.680504 0.500000 0.805166
O O16 0.935917 0.859998 0.859519
O O17 0.864049 0.000000 0.882083
O O18 0.500000 0.744947 0.000000
#
# Coordination Sequence:
#
# PCOD9405660 Si02
#       7
#     8   8   8   8   8   8   8
#     4  10  21  36  53  77 113 154 198 247 298 355
#     4  11  22  38  60  86 116 155 196 246 300 350
#     4  11  21  36  59  83 117 155 195 242 300 358
#     4  10  21  37  62  92 122 158 199 244 306 365
#     4  10  21  40  66  92 120 158 203 247 299 364
#     4  11  22  37  58  84 114 158 205 246 292 350
#     4  11  20  38  59  81 115 155 202 247 291 346
#
# _framework density 18.731393000000001
#
# number of rings (size 3 to 8) (size 9 to 14) (size 15 to 20)
#    0.000    1.429    4.286    0.857    0.000    4.857 
#    0.000    2.143    0.000    9.857    0.000    0.000 
#    0.000    0.000    0.000    0.000    0.000    0.000 
#
# Total GULP energy -312187.950622 kJ/mol
# GULP energy per Si atom -5574.784833 kJ/mol
# Density = 1.868876 g / cm^3
# Si number density = 18.731393 Si / 1000 Ang^3
#
#
#
# Elastic Constant Matrix: (Units=GPa)
#
#
# Indices 1 2 3 4 5 6 
#
# 1 134.1882 30.3132 39.4140 0.0000 0.0000 0.0000
# 2 30.3132 55.6199 31.6957 0.0000 0.0000 0.0000
# 3 39.4140 31.6957 71.9506 0.0000 0.0000 0.0000
# 4 0.0000 0.0000 0.0000 5.5848 0.0000 0.0000
# 5 0.0000 0.0000 0.0000 0.0000 36.3721 0.0000
# 6 0.0000 0.0000 0.0000 0.0000 0.0000 22.4614
#
#
#
# Elastic Compliance Matrix: (Units=1/GPa)
#
#
# Indices 1 2 3 4 5 6 
#
# 1 0.009211 -0.002863 -0.003784 0.000000 0.000000 0.000000
# 2 -0.002863 0.024896 -0.009398 0.000000 0.000000 0.000000
# 3 -0.003784 -0.009398 0.020112 0.000000 0.000000 0.000000
# 4 0.000000 0.000000 0.000000 0.179057 0.000000 0.000000
# 5 0.000000 0.000000 0.000000 0.000000 0.027494 0.000000
# 6 0.000000 0.000000 0.000000 0.000000 0.000000 0.044521
#
#
# Mechanical properties :
#
#
# Convention : Reuss Voigt Hill
#
# Bulk Modulus (GPa) = 45.19617 51.62272 48.40945
# Shear Modulus (GPa) = 14.50302 23.57272 19.03787
#
# Velocity S-wave (km/s) = 2.78558 3.55133 3.19150
# Velocity P-wave (km/s) = 5.87596 6.66597 6.28339
#
# Compressibility (1/GPa) = 0.02212577
#
# Stress axis : x y z
#
# Youngs Moduli (GPa) = 108.57149 40.16778 49.72271
#
# Poissons Ratio (x) = 0.11502 0.18815
# Poissons Ratio (y) = 0.31088 0.46732
# Poissons Ratio (z) = 0.41084 0.37752
#
# Static dielectric constant tensor:
#      x y z
#    x 1.700380 0.000000 0.000000 
#    y 0.000000 1.619200 0.000000 
#    z 0.000000 0.000000 1.640390 
# 
# From -- ./inp_files/11021.got.cif
#   From: 2010.05.17/outbox.cif.g08.bks.cpg/sg51_6_cif.got.tgz:11021.got - 2010.06.03 11:52:47.
