data_PCOD9405705
_publ_section_title
;
Structure prediction by ZEFSAII (Michael W. Deem and Ramdas Pophale) SiO2 
 PCOD9405705
Probable space group: P M M A
;
_chemical_formula_sum "Si O2"
_cell_formula_units_Z 48
_cell_length_a 14.213260
_cell_length_b 8.782016
_cell_length_c 21.314966
_cell_angle_alpha 90.000000
_cell_angle_beta 90.000000
_cell_angle_gamma 90.000000
_cell_volume 2660.557007
_symmetry_space_group_name_H-M "P M M A"
_symmetry_group_IT_number 51
_symmetry_cell_setting 'orthorhombic'
loop_
_space_group_symop_operation_xyz
x,y,z
1/2-x,-y,z
1/2+x,-y,-z
-x,y,-z
-x,-y,-z
1/2+x,y,-z
1/2-x,y,z
x,-y,z
loop_
_atom_site_type_symbol
_atom_site_label
_atom_site_fract_x
_atom_site_fract_y
_atom_site_fract_z
Si Si1 0.046751 0.315837 0.097225
Si Si2 0.140442 0.182484 0.221194
Si Si3 0.861969 0.678536 0.530158
Si Si4 0.140646 0.181105 0.603892
Si Si5 0.463373 0.682161 0.341532
Si Si6 0.144043 0.685033 0.966155
O O1 0.048459 0.500000 0.102502
O O2 0.088504 0.244053 0.159514
O O3 0.109602 0.274429 0.036324
O O4 0.939535 0.268226 0.080865
O O5 0.250000 0.230563 0.220552
O O6 0.089285 0.246146 0.282716
O O7 0.137214 0.000000 0.221868
O O8 0.750000 0.690947 0.540095
O O9 0.884337 0.500000 0.519341
O O10 0.885212 0.768785 0.467034
O O11 0.913014 0.729539 0.593323
O O12 0.250000 0.224046 0.613234
O O13 0.070361 0.263064 0.651304
O O14 0.132064 0.000000 0.609716
O O15 0.458485 0.500000 0.337358
O O16 0.250000 0.739459 0.953434
O O17 0.145590 0.500000 0.964388
#
# Coordination Sequence:
#
# PCOD9405705 Si02
#       6
#     8   8   8   8   8   8
#     4   9  17  31  54  81 107 140 179 216 257 306
#     4  11  24  39  54  75 106 141 174 213 265 322
#     4   9  18  33  53  78 106 134 169 216 267 317
#     4  10  21  36  54  77 106 139 173 213 265 321
#     4  11  22  36  56  79 103 136 179 223 264 309
#     4   8  14  27  51  83 113 138 171 217 262 304
#
# _framework density 18.041335
#
# number of rings (size 3 to 8) (size 9 to 14) (size 15 to 20)
#    0.000    2.333    0.000    4.000    0.000    7.000 
#    0.000    4.167    0.000    4.500    0.000    0.000 
#    0.000    0.000    0.000    0.000    0.000    0.000 
#
# Total GULP energy -267926.762369 kJ/mol
# GULP energy per Si atom -5581.807549 kJ/mol
# Density = 1.800027 g / cm^3
# Si number density = 18.041335 Si / 1000 Ang^3
#
#
#
# Elastic Constant Matrix: (Units=GPa)
#
#
# Indices 1 2 3 4 5 6 
#
# 1 160.8432 41.0084 100.2421 0.0000 0.0000 0.0000
# 2 41.0084 29.0207 36.3418 0.0000 0.0000 0.0000
# 3 100.2421 36.3418 110.7513 0.0000 0.0000 0.0000
# 4 0.0000 0.0000 0.0000 65.9058 0.0000 0.0000
# 5 0.0000 0.0000 0.0000 0.0000 26.0970 0.0000
# 6 0.0000 0.0000 0.0000 0.0000 0.0000 21.3603
#
#
#
# Elastic Compliance Matrix: (Units=1/GPa)
#
#
# Indices 1 2 3 4 5 6 
#
# 1 0.015092 -0.007164 -0.011309 0.000000 0.000000 0.000000
# 2 -0.007164 0.061896 -0.013826 0.000000 0.000000 0.000000
# 3 -0.011309 -0.013826 0.023802 0.000000 0.000000 0.000000
# 4 0.000000 0.000000 0.000000 0.015173 0.000000 0.000000
# 5 0.000000 0.000000 0.000000 0.000000 0.038319 0.000000
# 6 0.000000 0.000000 0.000000 0.000000 0.000000 0.046816
#
#
# Mechanical properties :
#
#
# Convention : Reuss Voigt Hill
#
# Bulk Modulus (GPa) = 27.63104 72.86664 50.24884
# Shear Modulus (GPa) = 18.00122 30.87415 24.43769
#
# Velocity S-wave (km/s) = 3.16219 4.14128 3.68440
# Velocity P-wave (km/s) = 5.35549 7.95885 6.78323
#
# Compressibility (1/GPa) = 0.03619119
#
# Stress axis : x y z
#
# Youngs Moduli (GPa) = 66.26100 16.15624 42.01326
#
# Poissons Ratio (x) = 0.11574 0.47513
# Poissons Ratio (y) = 0.47469 0.58088
# Poissons Ratio (z) = 0.74934 0.22338
#
# Static dielectric constant tensor:
#      x y z
#    x 1.645460 0.000000 0.000000 
#    y 0.000000 1.603760 0.000000 
#    z 0.000000 0.000000 1.579690 
# 
# From -- ./inp_files/33191.got.cif
#   From: 2010.05.17/outbox.cif.g08.bks.cpg/sg51_17_cif.got.tgz:33191.got - 2010.06.03 11:52:47.
