data_PCOD9405140
_publ_section_title
;
Structure prediction by ZEFSAII (Michael W. Deem and Ramdas Pophale) SiO2 
 PCOD9405140
Probable space group: P M M A
;
_chemical_formula_sum "Si O2"
_cell_formula_units_Z 40
_cell_length_a 20.188838
_cell_length_b 18.037687
_cell_length_c 5.251590
_cell_angle_alpha 90.000000
_cell_angle_beta 90.000000
_cell_angle_gamma 90.000000
_cell_volume 1912.418703
_symmetry_space_group_name_H-M "P M M A"
_symmetry_group_IT_number 51
_symmetry_cell_setting 'orthorhombic'
loop_
_space_group_symop_operation_xyz
x,y,z
1/2-x,-y,z
1/2+x,-y,-z
-x,y,-z
-x,-y,-z
1/2+x,y,-z
1/2-x,y,z
x,-y,z
loop_
_atom_site_type_symbol
_atom_site_label
_atom_site_fract_x
_atom_site_fract_y
_atom_site_fract_z
Si Si1 0.828864 0.912230 0.349600
Si Si2 0.129606 0.826891 0.138259
Si Si3 0.326038 0.586999 0.168204
Si Si4 0.571539 0.702235 0.595678
Si Si5 0.680413 0.290754 0.201479
O O1 0.750000 0.900709 0.299866
O O2 0.847536 0.872725 0.615316
O O3 0.839913 0.000000 0.372615
O O4 0.869374 0.879954 0.108054
O O5 0.068005 0.773948 0.218570
O O6 0.178756 0.760824 0.048274
O O7 0.250000 0.597244 0.268006
O O8 0.339419 0.500000 0.165425
O O9 0.384799 0.633716 0.298789
O O10 0.323897 0.624617 0.888976
O O11 0.500000 0.679292 0.500000
O O12 0.617063 0.729093 0.362968
O O13 0.750000 0.277039 0.335881
#
# Coordination Sequence:
#
# PCOD9405140 Si02
#       5
#     8   8   8   8   8
#     4  11  22  37  62  98 134 165 206 268 335 390
#     4  11  22  38  61  93 131 168 212 264 323 385
#     4   9  20  38  61  93 129 166 213 270 330 388
#     4  11  24  40  62  92 128 174 224 267 317 381
#     4  10  20  37  63  91 122 166 215 266 324 382
#
# _framework density 20.915921000000001
#
# number of rings (size 3 to 8) (size 9 to 14) (size 15 to 20)
#    0.000    1.600    2.000    3.000    0.000    9.200 
#    0.000    3.000    0.000    3.600    0.000    0.000 
#    0.000    0.000    0.000    0.000    0.000    0.000 
#
# Total GULP energy -222855.952929 kJ/mol
# GULP energy per Si atom -5571.398823 kJ/mol
# Density = 2.086831 g / cm^3
# Si number density = 20.915921 Si / 1000 Ang^3
#
#
#
# Elastic Constant Matrix: (Units=GPa)
#
#
# Indices 1 2 3 4 5 6 
#
# 1 99.8337 25.6934 29.1390 0.0000 0.0000 0.0000
# 2 25.6934 169.4840 54.3261 0.0000 0.0000 0.0000
# 3 29.1390 54.3261 112.9724 0.0000 0.0000 0.0000
# 4 0.0000 0.0000 0.0000 28.9628 0.0000 0.0000
# 5 0.0000 0.0000 0.0000 0.0000 413.8928 0.0000
# 6 0.0000 0.0000 0.0000 0.0000 0.0000 19.1066
#
#
#
# Elastic Compliance Matrix: (Units=1/GPa)
#
#
# Indices 1 2 3 4 5 6 
#
# 1 0.010945 -0.000892 -0.002394 0.000000 0.000000 0.000000
# 2 -0.000892 0.007048 -0.003159 0.000000 0.000000 0.000000
# 3 -0.002394 -0.003159 0.010988 0.000000 0.000000 0.000000
# 4 0.000000 0.000000 0.000000 0.034527 0.000000 0.000000
# 5 0.000000 0.000000 0.000000 0.000000 0.002416 0.000000
# 6 0.000000 0.000000 0.000000 0.000000 0.000000 0.052338
#
#
# Mechanical properties :
#
#
# Convention : Reuss Voigt Hill
#
# Bulk Modulus (GPa) = 62.14635 66.73411 64.44023
# Shear Modulus (GPa) = 36.62554 110.60123 73.61338
#
# Velocity S-wave (km/s) = 4.18914 7.27968 5.93897
# Velocity P-wave (km/s) = 7.29215 10.13082 8.82635
#
# Compressibility (1/GPa) = 0.01609105
#
# Stress axis : x y z
#
# Youngs Moduli (GPa) = 91.36603 141.88178 91.00442
#
# Poissons Ratio (x) = 0.12653 0.21788
# Poissons Ratio (y) = 0.08148 0.28751
# Poissons Ratio (z) = 0.21875 0.44824
#
# Static dielectric constant tensor:
#      x y z
#    x 1.740130 0.000000 0.000000 
#    y 0.000000 1.765440 0.000000 
#    z 0.000000 0.000000 1.870340 
# 
# From -- ./inp_files/2460.got.cif
#   From: 2010.05.17/outbox.cif.g08.bks.cpg/sg51_2_cif.got.tgz:2460.got - 2010.06.03 11:52:47.
