data_PCOD9405408
_publ_section_title
;
Structure prediction by ZEFSAII (Michael W. Deem and Ramdas Pophale) SiO2 
 PCOD9405408
Probable space group: P M M A
;
_chemical_formula_sum "Si O2"
_cell_formula_units_Z 48
_cell_length_a 9.628255
_cell_length_b 7.602884
_cell_length_c 32.059140
_cell_angle_alpha 90.000000
_cell_angle_beta 90.000000
_cell_angle_gamma 90.000000
_cell_volume 2346.809385
_symmetry_space_group_name_H-M "P M M A"
_symmetry_group_IT_number 51
_symmetry_cell_setting 'orthorhombic'
loop_
_space_group_symop_operation_xyz
x,y,z
1/2-x,-y,z
1/2+x,-y,-z
-x,y,-z
-x,-y,-z
1/2+x,y,-z
1/2-x,y,z
x,-y,z
loop_
_atom_site_type_symbol
_atom_site_label
_atom_site_fract_x
_atom_site_fract_y
_atom_site_fract_z
Si Si1 0.089958 0.284790 0.959995
Si Si2 0.909769 0.715328 0.540102
Si Si3 0.588873 0.714561 0.881234
Si Si4 0.091730 0.292083 0.617142
Si Si5 0.093905 0.208291 0.709159
Si Si6 0.907075 0.288925 0.788316
O O1 0.250000 0.228155 0.962260
O O2 0.090796 0.500000 0.959904
O O3 0.012565 0.226508 0.917856
O O4 0.000000 0.230257 0.000000
O O5 0.750000 0.773414 0.537872
O O6 0.906818 0.500000 0.540402
O O7 0.000000 0.767761 0.500000
O O8 0.988707 0.776816 0.581836
O O9 0.750000 0.765698 0.888327
O O10 0.587062 0.500000 0.881898
O O11 0.547449 0.771878 0.834483
O O12 0.250000 0.219525 0.615063
O O13 0.103149 0.500000 0.609295
O O14 0.038690 0.271192 0.664412
O O15 0.250000 0.282068 0.714045
O O16 0.003606 0.246641 0.749589
O O17 0.103362 0.000000 0.705659
O O18 0.750000 0.223978 0.781301
O O19 0.900947 0.500000 0.790804
#
# Coordination Sequence:
#
# PCOD9405408 Si02
#       6
#     8   8   8   8   8   8
#     4   9  15  21  31  50  78 113 149 182 220 269
#     4   9  16  26  43  69  98 124 151 187 230 274
#     4   8  14  25  39  56  81 112 146 186 230 274
#     4   9  17  30  48  69  94 125 159 194 233 276
#     4  10  21  35  50  70  97 128 161 198 241 288
#     4   9  18  32  50  71  94 122 158 200 244 288
#
# _framework density 20.453302000000001
#
# number of rings (size 3 to 8) (size 9 to 14) (size 15 to 20)
#    0.000    3.000    0.000    2.500    0.000    6.667 
#    0.000    3.333    0.000    0.500    0.000    0.000 
#    0.000    0.667    0.000    2.167    0.000    4.833 
#
# Total GULP energy -267764.600623 kJ/mol
# GULP energy per Si atom -5578.429180 kJ/mol
# Density = 2.040675 g / cm^3
# Si number density = 20.453302 Si / 1000 Ang^3
#
#
#
# Elastic Constant Matrix: (Units=GPa)
#
#
# Indices 1 2 3 4 5 6 
#
# 1 150.1176 4.8620 142.6692 0.0000 0.0000 0.0000
# 2 4.8620 40.7511 1.0026 0.0000 0.0000 0.0000
# 3 142.6692 1.0026 227.1920 0.0000 0.0000 0.0000
# 4 0.0000 0.0000 0.0000 -42.8501 0.0000 0.0000
# 5 0.0000 0.0000 0.0000 0.0000 1.7586 0.0000
# 6 0.0000 0.0000 0.0000 0.0000 0.0000 16.1179
#
#
#
# Elastic Compliance Matrix: (Units=1/GPa)
#
#
# Indices 1 2 3 4 5 6 
#
# 1 0.016643 -0.001729 -0.010443 0.000000 0.000000 0.000000
# 2 -0.001729 0.024721 0.000976 0.000000 0.000000 0.000000
# 3 -0.010443 0.000976 0.010955 0.000000 0.000000 0.000000
# 4 0.000000 0.000000 0.000000 -0.023337 0.000000 0.000000
# 5 0.000000 0.000000 0.000000 0.000000 0.568644 0.000000
# 6 0.000000 0.000000 0.000000 0.000000 0.000000 0.062043
#
#
# Mechanical properties :
#
#
# Convention : Reuss Voigt Hill
#
# Bulk Modulus (GPa) = 33.41332 79.45870 56.43601
# Shear Modulus (GPa) = 7.22505 12.97374 10.09940
#
# Velocity S-wave (km/s) = 1.88152 2.52128 2.22452
# Velocity P-wave (km/s) = 4.59261 6.88542 5.85239
#
# Compressibility (1/GPa) = 0.02992819
#
# Stress axis : x y z
#
# Youngs Moduli (GPa) = 60.08627 40.45073 91.27904
#
# Poissons Ratio (x) = 0.06993 0.95327
# Poissons Ratio (y) = 0.10387 -0.08913
# Poissons Ratio (z) = 0.62751 -0.03950
#
# Static dielectric constant tensor:
#      x y z
#    x 1.728050 0.000000 0.000000 
#    y 0.000000 1.752850 0.000000 
#    z 0.000000 0.000000 1.715120 
# 
# From -- ./inp_files/37048.got.cif
#   From: 2010.05.17/outbox.cif.g08.bks.cpg/sg51_19_cif.got.tgz:37048.got - 2010.06.03 11:52:47.
