data_PCOD9405992
_publ_section_title
;
Structure prediction by ZEFSAII (Michael W. Deem and Ramdas Pophale) SiO2 
 PCOD9405992
Probable space group: P M M A
;
_chemical_formula_sum "Si O2"
_cell_formula_units_Z 64
_cell_length_a 15.343316
_cell_length_b 20.949200
_cell_length_c 10.256252
_cell_angle_alpha 90.000000
_cell_angle_beta 90.000000
_cell_angle_gamma 90.000000
_cell_volume 3296.669086
_symmetry_space_group_name_H-M "P M M A"
_symmetry_group_IT_number 51
_symmetry_cell_setting 'orthorhombic'
loop_
_space_group_symop_operation_xyz
x,y,z
1/2-x,-y,z
1/2+x,-y,-z
-x,y,-z
-x,-y,-z
1/2+x,y,-z
1/2-x,y,z
x,-y,z
loop_
_atom_site_type_symbol
_atom_site_label
_atom_site_fract_x
_atom_site_fract_y
_atom_site_fract_z
Si Si1 0.854448 0.322588 0.287088
Si Si2 0.144921 0.681131 0.011242
Si Si3 0.356459 0.427039 0.508568
Si Si4 0.645786 0.929659 0.748552
Si Si5 0.934890 0.188595 0.884283
Si Si6 0.855275 0.073076 0.445093
Si Si7 0.052577 0.801656 0.633702
Si Si8 0.856440 0.426760 0.787949
O O1 0.750000 0.328629 0.281508
O O2 0.888011 0.378348 0.381877
O O3 0.878037 0.254760 0.349685
O O4 0.886725 0.326134 0.137805
O O5 0.250000 0.678569 0.009102
O O6 0.117434 0.749581 0.067661
O O7 0.113660 0.624445 0.105891
O O8 0.250000 0.426214 0.510269
O O9 0.383344 0.500000 0.534257
O O10 0.382263 0.409798 0.360493
O O11 0.750000 0.932542 0.744807
O O12 0.619723 0.872990 0.842916
O O13 0.619120 0.917981 0.597697
O O14 0.612559 0.000000 0.786885
O O15 0.988453 0.205465 0.755055
O O16 0.000000 0.171231 0.000000
O O17 0.750000 0.078886 0.435871
O O18 0.901912 0.128931 0.366234
O O19 0.878184 0.000000 0.408760
O O20 0.000000 0.794268 0.500000
O O21 0.750000 0.426472 0.789920
O O22 0.883256 0.500000 0.814552
#
# Coordination Sequence:
#
# PCOD9405992 Si02
#       8
#     8   8   8   8   8   8   8   8
#     4  10  21  37  56  81 114 149 189 236 283 333
#     4  10  21  37  57  80 111 153 194 231 277 336
#     4   8  15  29  52  83 113 140 180 237 288 328
#     4   9  19  38  63  88 113 145 188 233 279 337
#     4  12  24  40  56  80 120 155 187 231 281 332
#     4   9  19  38  63  89 115 143 183 235 285 336
#     4  12  24  38  57  85 115 151 191 232 278 335
#     4   8  15  29  52  83 112 140 183 235 282 332
#
# _framework density 19.413536000000001
#
# number of rings (size 3 to 8) (size 9 to 14) (size 15 to 20)
#    0.000    2.250    2.500    2.250    1.750    1.500 
#    0.000    2.500    0.000    3.000    0.000    0.000 
#    0.000    0.000    0.000    0.000    0.000    0.000 
#
# Total GULP energy -357212.635255 kJ/mol
# GULP energy per Si atom -5581.447426 kJ/mol
# Density = 1.936935 g / cm^3
# Si number density = 19.413536 Si / 1000 Ang^3
#
#
#
# Elastic Constant Matrix: (Units=GPa)
#
#
# Indices 1 2 3 4 5 6 
#
# 1 22.1142 19.0649 21.8949 0.0000 0.0000 0.0000
# 2 19.0649 145.4801 78.8302 0.0000 0.0000 0.0000
# 3 21.8949 78.8302 114.4474 0.0000 0.0000 0.0000
# 4 0.0000 0.0000 0.0000 20.1711 0.0000 0.0000
# 5 0.0000 0.0000 0.0000 0.0000 12.3410 0.0000
# 6 0.0000 0.0000 0.0000 0.0000 0.0000 -25.6150
#
#
#
# Elastic Compliance Matrix: (Units=1/GPa)
#
#
# Indices 1 2 3 4 5 6 
#
# 1 0.056333 -0.002461 -0.009082 0.000000 0.000000 0.000000
# 2 -0.002461 0.011075 -0.007157 0.000000 0.000000 0.000000
# 3 -0.009082 -0.007157 0.015405 0.000000 0.000000 0.000000
# 4 0.000000 0.000000 0.000000 0.049576 0.000000 0.000000
# 5 0.000000 0.000000 0.000000 0.000000 0.081031 0.000000
# 6 0.000000 0.000000 0.000000 0.000000 0.000000 -0.039040
#
#
# Mechanical properties :
#
#
# Convention : Reuss Voigt Hill
#
# Bulk Modulus (GPa) = 22.02049 57.95796 39.98923
# Shear Modulus (GPa) = 22.03443 12.19621 17.11532
#
# Velocity S-wave (km/s) = 3.37264 2.50918 2.97243
# Velocity P-wave (km/s) = 5.15109 6.18982 5.69419
#
# Compressibility (1/GPa) = 0.04541224
#
# Stress axis : x y z
#
# Youngs Moduli (GPa) = 17.75147 90.29732 64.91461
#
# Poissons Ratio (x) = 0.22225 0.58954
# Poissons Ratio (y) = 0.04369 0.46460
# Poissons Ratio (z) = 0.16122 0.64627
#
# Static dielectric constant tensor:
#      x y z
#    x 1.698880 0.000000 0.000000 
#    y 0.000000 1.671960 0.000000 
#    z 0.000000 0.000000 1.654970 
# 
# From -- ./inp_files/9994.got.cif
#   From: 2010.05.17/outbox.cif.g08.bks.cpg/sg51_5_cif.got.tgz:9994.got - 2010.06.03 11:52:47.
