data_PCOD9405294
_publ_section_title
;
Structure prediction by ZEFSAII (Michael W. Deem and Ramdas Pophale) SiO2 
 PCOD9405294
Probable space group: P M M A
;
_chemical_formula_sum "Si O2"
_cell_formula_units_Z 44
_cell_length_a 7.387069
_cell_length_b 31.149375
_cell_length_c 8.800285
_cell_angle_alpha 90.000000
_cell_angle_beta 90.000000
_cell_angle_gamma 90.000000
_cell_volume 2024.968305
_symmetry_space_group_name_H-M "P M M A"
_symmetry_group_IT_number 51
_symmetry_cell_setting 'orthorhombic'
loop_
_space_group_symop_operation_xyz
x,y,z
1/2-x,-y,z
1/2+x,-y,-z
-x,y,-z
-x,-y,-z
1/2+x,y,-z
1/2-x,y,z
x,-y,z
loop_
_atom_site_type_symbol
_atom_site_label
_atom_site_fract_x
_atom_site_fract_y
_atom_site_fract_z
Si Si1 0.033902 0.680742 0.177724
Si Si2 0.533556 0.592711 0.680107
Si Si3 0.466319 0.500000 0.317979
Si Si4 0.466625 0.046174 0.317683
Si Si5 0.033565 0.231227 0.319906
Si Si6 0.533533 0.138487 0.682159
O O1 0.250000 0.680753 0.207049
O O2 0.961386 0.636328 0.246932
O O3 0.961409 0.725170 0.246830
O O4 0.000000 0.680720 0.000000
O O5 0.500000 0.594738 0.500000
O O6 0.750000 0.592099 0.704084
O O7 0.463781 0.546266 0.737746
O O8 0.250000 0.500000 0.295235
O O9 0.500000 0.500000 0.500000
O O10 0.500000 0.046209 0.500000
O O11 0.750000 0.046138 0.703939
O O12 0.536374 0.092341 0.259655
O O13 0.536274 0.000000 0.259680
O O14 0.250000 0.230567 0.295955
O O15 0.963930 0.184777 0.262237
O O16 0.000000 0.233311 0.500000
O O17 0.500000 0.138638 0.500000
O O18 0.750000 0.138272 0.704332
#
# Coordination Sequence:
#
# PCOD9405294 Si02
#       6
#     8   8   4   8   8   8
#     4  10  21  34  46  63  88 116 145 177 214 254
#     4   9  17  30  49  71  92 115 144 176 210 249
#     4   8  14  26  45  68  92 114 138 172 209 244
#     4   8  12  17  26  42  66  96 125 151 185 232
#     4   9  17  29  45  64  84 108 140 176 213 252
#     4   8  13  21  33  50  73  99 127 161 198 237
#
# _framework density 21.728732999999998
#
# number of rings (size 3 to 8) (size 9 to 14) (size 15 to 20)
#    0.000    3.273    0.000    0.545    0.000    1.455 
#    0.000    0.455    0.000    0.000    0.000    0.000 
#    0.000    0.727    0.000    0.545    0.000   10.909 
#
# Total GULP energy -244992.873452 kJ/mol
# GULP energy per Si atom -5568.019851 kJ/mol
# Density = 2.167928 g / cm^3
# Si number density = 21.728733 Si / 1000 Ang^3
#
#
#
# Elastic Constant Matrix: (Units=GPa)
#
#
# Indices 1 2 3 4 5 6 
#
# 1 84.7262 18.0341 -8.9101 0.0000 0.0000 0.0000
# 2 18.0341 345.4746 61.2769 0.0000 0.0000 0.0000
# 3 -8.9101 61.2769 24.2171 0.0000 0.0000 0.0000
# 4 0.0000 0.0000 0.0000 -10.3087 0.0000 0.0000
# 5 0.0000 0.0000 0.0000 0.0000 10.9441 0.0000
# 6 0.0000 0.0000 0.0000 0.0000 0.0000 -11.0360
#
#
#
# Elastic Compliance Matrix: (Units=1/GPa)
#
#
# Indices 1 2 3 4 5 6 
#
# 1 0.013736 -0.002927 0.012461 0.000000 0.000000 0.000000
# 2 -0.002927 0.005875 -0.015943 0.000000 0.000000 0.000000
# 3 0.012461 -0.015943 0.086219 0.000000 0.000000 0.000000
# 4 0.000000 0.000000 0.000000 -0.097005 0.000000 0.000000
# 5 0.000000 0.000000 0.000000 0.000000 0.091374 0.000000
# 6 0.000000 0.000000 0.000000 0.000000 0.000000 -0.090613
#
#
# Mechanical properties :
#
#
# Convention : Reuss Voigt Hill
#
# Bulk Modulus (GPa) = 10.75144 66.13552 38.44348
# Shear Modulus (GPa) = 93.61766 23.52101 58.56933
#
# Velocity S-wave (km/s) = 6.57102 3.29368 5.19743
# Velocity P-wave (km/s) = 7.90758 6.70578 7.33134
#
# Compressibility (1/GPa) = 0.09301077
#
# Stress axis : x y z
#
# Youngs Moduli (GPa) = 72.80047 170.20702 11.59840
#
# Poissons Ratio (x) = 0.49823 -0.14452
# Poissons Ratio (y) = 0.21310 0.18491
# Poissons Ratio (z) = -0.90714 2.71363
#
# Static dielectric constant tensor:
#      x y z
#    x 1.780990 0.000000 0.000000 
#    y 0.000000 1.916810 0.000000 
#    z 0.000000 0.000000 1.689070 
# 
# From -- ./inp_files/5740.got.cif
#   From: 2010.05.17/outbox.cif.g08.bks.cpg/sg51_3_cif.got.tgz:5740.got - 2010.06.03 11:52:47.
