data_PCOD9405487
_publ_section_title
;
Structure prediction by ZEFSAII (Michael W. Deem and Ramdas Pophale) SiO2 
 PCOD9405487
Probable space group: P M M A
;
_chemical_formula_sum "Si O2"
_cell_formula_units_Z 40
_cell_length_a 10.985976
_cell_length_b 20.995951
_cell_length_c 8.644183
_cell_angle_alpha 90.000000
_cell_angle_beta 90.000000
_cell_angle_gamma 90.000000
_cell_volume 1993.876014
_symmetry_space_group_name_H-M "P M M A"
_symmetry_group_IT_number 51
_symmetry_cell_setting 'orthorhombic'
loop_
_space_group_symop_operation_xyz
x,y,z
1/2-x,-y,z
1/2+x,-y,-z
-x,y,-z
-x,-y,-z
1/2+x,y,-z
1/2-x,y,z
x,-y,z
loop_
_atom_site_type_symbol
_atom_site_label
_atom_site_fract_x
_atom_site_fract_y
_atom_site_fract_z
Si Si1 0.621076 0.100810 0.049219
Si Si2 0.388574 0.317885 0.381825
Si Si3 0.116144 0.923112 0.599802
Si Si4 0.383373 0.758506 0.088974
Si Si5 0.110476 0.573742 0.120589
O O1 0.750000 0.069556 0.016592
O O2 0.613957 0.110093 0.233335
O O3 0.500000 0.066172 0.000000
O O4 0.620394 0.167509 0.957268
O O5 0.500000 0.318684 0.500000
O O6 0.250000 0.319082 0.447953
O O7 0.397533 0.256418 0.269282
O O8 0.399362 0.377338 0.262971
O O9 0.250000 0.910832 0.528446
O O10 0.000000 0.904370 0.500000
O O11 0.108726 0.000000 0.626256
O O12 0.250000 0.731944 0.043335
O O13 0.500000 0.731181 0.000000
O O14 0.250000 0.580649 0.057256
O O15 0.100008 0.500000 0.172408
O O16 0.000000 0.584140 0.000000
#
# Coordination Sequence:
#
# PCOD9405487 Si02
#       5
#     8   8   8   8   8
#     4   9  18  33  52  74 101 133 170 211 253 299
#     4  10  21  35  52  76 105 137 173 214 260 309
#     4   9  18  33  53  78 107 137 169 206 251 305
#     4   9  18  34  54  74  98 131 172 215 257 302
#     4   9  18  33  53  78 107 138 173 212 255 307
#
# _framework density 20.061427999999999
#
# number of rings (size 3 to 8) (size 9 to 14) (size 15 to 20)
#    0.000    2.800    0.000    0.600    0.000    3.200 
#    0.000    4.000    0.000   21.600    0.000    0.000 
#    0.000    0.000    0.000    0.000    0.000    0.000 
#
# Total GULP energy -222736.583649 kJ/mol
# GULP energy per Si atom -5568.414591 kJ/mol
# Density = 2.001577 g / cm^3
# Si number density = 20.061428 Si / 1000 Ang^3
#
#
#
# Elastic Constant Matrix: (Units=GPa)
#
#
# Indices 1 2 3 4 5 6 
#
# 1 260.3675 25.8597 93.4948 0.0000 0.0000 0.0000
# 2 25.8597 103.2712 37.9321 0.0000 0.0000 0.0000
# 3 93.4948 37.9321 74.3720 0.0000 0.0000 0.0000
# 4 0.0000 0.0000 0.0000 16.7467 0.0000 0.0000
# 5 0.0000 0.0000 0.0000 0.0000 46.0158 0.0000
# 6 0.0000 0.0000 0.0000 0.0000 0.0000 11.8412
#
#
#
# Elastic Compliance Matrix: (Units=1/GPa)
#
#
# Indices 1 2 3 4 5 6 
#
# 1 0.007291 0.001896 -0.010133 0.000000 0.000000 0.000000
# 2 0.001896 0.012409 -0.008712 0.000000 0.000000 0.000000
# 3 -0.010133 -0.008712 0.030627 0.000000 0.000000 0.000000
# 4 0.000000 0.000000 0.000000 0.059713 0.000000 0.000000
# 5 0.000000 0.000000 0.000000 0.000000 0.021732 0.000000
# 6 0.000000 0.000000 0.000000 0.000000 0.000000 0.084451
#
#
# Mechanical properties :
#
#
# Convention : Reuss Voigt Hill
#
# Bulk Modulus (GPa) = 60.86760 83.62041 72.24400
# Shear Modulus (GPa) = 19.56205 33.63569 26.59887
#
# Velocity S-wave (km/s) = 3.12606 4.09912 3.64520
# Velocity P-wave (km/s) = 6.59061 8.01101 7.33527
#
# Compressibility (1/GPa) = 0.01642910
#
# Stress axis : x y z
#
# Youngs Moduli (GPa) = 137.15710 80.58958 32.65043
#
# Poissons Ratio (x) = -0.15280 0.33083
# Poissons Ratio (y) = -0.26006 0.28446
# Poissons Ratio (z) = 1.38976 0.70213
#
# Static dielectric constant tensor:
#      x y z
#    x 1.787140 0.000000 0.000000 
#    y 0.000000 1.738390 0.000000 
#    z 0.000000 0.000000 1.672890 
# 
# From -- ./inp_files/910.got.cif
#   From: 2010.05.17/outbox.cif.g08.bks.cpg/sg51_1_cif.got.tgz:910.got - 2010.06.03 11:52:47.
