data_PCOD9405003
_publ_section_title
;
Structure prediction by ZEFSAII (Michael W. Deem and Ramdas Pophale) SiO2 
 PCOD9405003
Probable space group: P M M A
;
_chemical_formula_sum "Si O2"
_cell_formula_units_Z 40
_cell_length_a 8.690916
_cell_length_b 25.685379
_cell_length_c 9.874829
_cell_angle_alpha 90.000000
_cell_angle_beta 90.000000
_cell_angle_gamma 90.000000
_cell_volume 2204.352857
_symmetry_space_group_name_H-M "P M M A"
_symmetry_group_IT_number 51
_symmetry_cell_setting 'orthorhombic'
loop_
_space_group_symop_operation_xyz
x,y,z
1/2-x,-y,z
1/2+x,-y,-z
-x,y,-z
-x,-y,-z
1/2+x,y,-z
1/2-x,y,z
x,-y,z
loop_
_atom_site_type_symbol
_atom_site_label
_atom_site_fract_x
_atom_site_fract_y
_atom_site_fract_z
Si Si1 0.933546 0.645085 0.151461
Si Si2 0.935283 0.851870 0.648075
Si Si3 0.564985 0.732112 0.650152
Si Si4 0.567161 0.561836 0.646946
Si Si5 0.064275 0.941732 0.150491
O O1 0.750000 0.646768 0.146127
O O2 0.996636 0.693499 0.238971
O O3 0.988669 0.594419 0.234541
O O4 0.000000 0.645388 0.000000
O O5 0.750000 0.853825 0.643129
O O6 0.977147 0.792200 0.682349
O O7 0.989843 0.895211 0.753517
O O8 0.000000 0.863232 0.500000
O O9 0.500000 0.720367 0.500000
O O10 0.750000 0.727411 0.647283
O O11 0.500000 0.577065 0.500000
O O12 0.750000 0.571465 0.647728
O O13 0.540874 0.500000 0.663567
O O14 0.250000 0.939931 0.145118
O O15 0.020393 0.000000 0.198607
O O16 0.000000 0.935279 0.000000
#
# Coordination Sequence:
#
# PCOD9405003 Si02
#       5
#     8   8   8   8   8
#     4  12  25  40  58  82 113 147 184 226 274 324
#     4   9  19  34  53  78 106 137 174 219 267 316
#     4  10  20  37  58  80 108 142 182 224 270 324
#     4  10  21  39  63  89 116 148 186 225 267 318
#     4   9  18  33  51  73 103 138 176 217 263 317
#
# _framework density 18.145914999999999
#
# number of rings (size 3 to 8) (size 9 to 14) (size 15 to 20)
#    0.000    2.000    0.000    3.600    0.000    4.400 
#    0.000    2.000    0.000    0.000    0.000    0.000 
#    0.000    0.000    0.000    0.000    0.000    0.000 
#
# Total GULP energy -223395.570133 kJ/mol
# GULP energy per Si atom -5584.889253 kJ/mol
# Density = 1.810461 g / cm^3
# Si number density = 18.145915 Si / 1000 Ang^3
#
#
#
# Elastic Constant Matrix: (Units=GPa)
#
#
# Indices 1 2 3 4 5 6 
#
# 1 80.2157 63.9459 67.3340 0.0000 0.0000 0.0000
# 2 63.9459 116.9485 105.0665 0.0000 0.0000 0.0000
# 3 67.3340 105.0665 155.3042 0.0000 0.0000 0.0000
# 4 0.0000 0.0000 0.0000 131.0309 0.0000 0.0000
# 5 0.0000 0.0000 0.0000 0.0000 36.8539 0.0000
# 6 0.0000 0.0000 0.0000 0.0000 0.0000 103.6677
#
#
#
# Elastic Compliance Matrix: (Units=1/GPa)
#
#
# Indices 1 2 3 4 5 6 
#
# 1 0.022911 -0.009187 -0.003718 0.000000 0.000000 0.000000
# 2 -0.009187 0.025485 -0.013258 0.000000 0.000000 0.000000
# 3 -0.003718 -0.013258 0.017020 0.000000 0.000000 0.000000
# 4 0.000000 0.000000 0.000000 0.007632 0.000000 0.000000
# 5 0.000000 0.000000 0.000000 0.000000 0.027134 0.000000
# 6 0.000000 0.000000 0.000000 0.000000 0.000000 0.009646
#
#
# Mechanical properties :
#
#
# Convention : Reuss Voigt Hill
#
# Bulk Modulus (GPa) = 76.39378 91.68457 84.03918
# Shear Modulus (GPa) = 30.02657 62.05196 46.03926
#
# Velocity S-wave (km/s) = 4.07225 5.85409 5.04250
# Velocity P-wave (km/s) = 8.01886 9.81477 8.96191
#
# Compressibility (1/GPa) = 0.01309007
#
# Stress axis : x y z
#
# Youngs Moduli (GPa) = 43.64681 39.23834 58.75304
#
# Poissons Ratio (x) = 0.36049 0.21845
# Poissons Ratio (y) = 0.40099 0.77895
# Poissons Ratio (z) = 0.16228 0.52023
#
# Static dielectric constant tensor:
#      x y z
#    x 1.606470 0.000000 0.000000 
#    y 0.000000 1.641440 0.000000 
#    z 0.000000 0.000000 1.571550 
# 
# From -- ./inp_files/5224.got.cif
#   From: 2010.05.17/outbox.cif.g08.bks.cpg/sg51_3_cif.got.tgz:5224.got - 2010.06.03 11:52:47.
