data_PCOD9405556
_publ_section_title
;
Structure prediction by ZEFSAII (Michael W. Deem and Ramdas Pophale) SiO2 
 PCOD9405556
Probable space group: P M M A
;
_chemical_formula_sum "Si O2"
_cell_formula_units_Z 40
_cell_length_a 16.136137
_cell_length_b 14.491927
_cell_length_c 9.323208
_cell_angle_alpha 90.000000
_cell_angle_beta 90.000000
_cell_angle_gamma 90.000000
_cell_volume 2180.173636
_symmetry_space_group_name_H-M "P M M A"
_symmetry_group_IT_number 51
_symmetry_cell_setting 'orthorhombic'
loop_
_space_group_symop_operation_xyz
x,y,z
1/2-x,-y,z
1/2+x,-y,-z
-x,y,-z
-x,-y,-z
1/2+x,y,-z
1/2-x,y,z
x,-y,z
loop_
_atom_site_type_symbol
_atom_site_label
_atom_site_fract_x
_atom_site_fract_y
_atom_site_fract_z
Si Si1 0.850134 0.390851 0.904187
Si Si2 0.576184 0.243619 0.412081
Si Si3 0.848660 0.107013 0.648103
Si Si4 0.848079 0.400147 0.237288
Si Si5 0.959064 0.217884 0.844314
O O1 0.750000 0.372637 0.884719
O O2 0.862919 0.500000 0.869708
O O3 0.910777 0.316908 0.828971
O O4 0.872573 0.378488 0.073239
O O5 0.500000 0.285976 0.500000
O O6 0.618224 0.169404 0.516133
O O7 0.633386 0.323510 0.353153
O O8 0.532602 0.203938 0.270238
O O9 0.750000 0.116259 0.656676
O O10 0.890589 0.144080 0.793978
O O11 0.869870 0.000000 0.624515
O O12 0.750000 0.408286 0.228206
O O13 0.884439 0.500000 0.275562
O O14 0.000000 0.208893 0.000000
#
# Coordination Sequence:
#
# PCOD9405556 Si02
#       5
#     8   8   8   8   8
#     4   9  18  33  55  83 118 159 193 225 274 334
#     4  10  21  35  56  82 113 150 187 228 284 341
#     4  10  23  44  64  80 107 150 193 234 286 349
#     4   9  17  31  52  78 111 151 192 231 271 324
#     4  11  21  35  59  91 119 145 183 238 291 335
#
# _framework density 18.347162000000001
#
# number of rings (size 3 to 8) (size 9 to 14) (size 15 to 20)
#    0.000    2.200    2.000    2.400    0.000    5.600 
#    0.000    3.000    0.000   13.200    0.000    0.000 
#    0.000    0.000    0.000    0.000    0.000    0.000 
#
# Total GULP energy -222744.668440 kJ/mol
# GULP energy per Si atom -5568.616711 kJ/mol
# Density = 1.830540 g / cm^3
# Si number density = 18.347162 Si / 1000 Ang^3
#
#
#
# Elastic Constant Matrix: (Units=GPa)
#
#
# Indices 1 2 3 4 5 6 
#
# 1 54.4130 45.6899 34.6356 0.0000 0.0000 0.0000
# 2 45.6899 103.6918 30.3559 0.0000 0.0000 0.0000
# 3 34.6356 30.3559 68.7996 0.0000 0.0000 0.0000
# 4 0.0000 0.0000 0.0000 26.5508 0.0000 0.0000
# 5 0.0000 0.0000 0.0000 0.0000 31.2013 0.0000
# 6 0.0000 0.0000 0.0000 0.0000 0.0000 51.8789
#
#
#
# Elastic Compliance Matrix: (Units=1/GPa)
#
#
# Indices 1 2 3 4 5 6 
#
# 1 0.037402 -0.012595 -0.013272 0.000000 0.000000 0.000000
# 2 -0.012595 0.015316 -0.000417 0.000000 0.000000 0.000000
# 3 -0.013272 -0.000417 0.021400 0.000000 0.000000 0.000000
# 4 0.000000 0.000000 0.000000 0.037664 0.000000 0.000000
# 5 0.000000 0.000000 0.000000 0.000000 0.032050 0.000000
# 6 0.000000 0.000000 0.000000 0.000000 0.000000 0.019276
#
#
# Mechanical properties :
#
#
# Convention : Reuss Voigt Hill
#
# Bulk Modulus (GPa) = 46.40331 49.80744 48.10537
# Shear Modulus (GPa) = 22.43575 29.67439 26.05507
#
# Velocity S-wave (km/s) = 3.50071 4.02603 3.77253
# Velocity P-wave (km/s) = 6.45653 6.98699 6.72699
#
# Compressibility (1/GPa) = 0.02155019
#
# Stress axis : x y z
#
# Youngs Moduli (GPa) = 26.73663 65.29192 46.72819
#
# Poissons Ratio (x) = 0.82236 0.62017
# Poissons Ratio (y) = 0.33675 0.01948
# Poissons Ratio (z) = 0.35485 0.02722
#
# Static dielectric constant tensor:
#      x y z
#    x 1.659840 0.000000 0.000000 
#    y 0.000000 1.650070 0.000000 
#    z 0.000000 0.000000 1.649280 
# 
# From -- ./inp_files/7935.got.cif
#   From: 2010.05.17/outbox.cif.g08.bks.cpg/sg51_4_cif.got.tgz:7935.got - 2010.06.03 11:52:47.
