data_PCOD9405555
_publ_section_title
;
Structure prediction by ZEFSAII (Michael W. Deem and Ramdas Pophale) SiO2 
 PCOD9405555
Probable space group: P M M A
;
_chemical_formula_sum "Si O2"
_cell_formula_units_Z 56
_cell_length_a 9.435871
_cell_length_b 20.359936
_cell_length_c 15.542344
_cell_angle_alpha 90.000000
_cell_angle_beta 90.000000
_cell_angle_gamma 90.000000
_cell_volume 2985.897674
_symmetry_space_group_name_H-M "P M M A"
_symmetry_group_IT_number 51
_symmetry_cell_setting 'orthorhombic'
loop_
_space_group_symop_operation_xyz
x,y,z
1/2-x,-y,z
1/2+x,-y,-z
-x,y,-z
-x,-y,-z
1/2+x,y,-z
1/2-x,y,z
x,-y,z
loop_
_atom_site_type_symbol
_atom_site_label
_atom_site_fract_x
_atom_site_fract_y
_atom_site_fract_z
Si Si1 0.579844 0.332599 0.719016
Si Si2 0.408693 0.206209 0.682483
Si Si3 0.083567 0.420919 0.587342
Si Si4 0.512178 0.841182 0.138884
Si Si5 0.415806 0.700366 0.083793
Si Si6 0.250000 0.075128 0.951803
Si Si7 0.250000 0.074157 0.158899
Si Si8 0.919850 0.928770 0.409847
O O1 0.750000 0.337316 0.709926
O O2 0.520045 0.265176 0.677275
O O3 0.497119 0.389229 0.668302
O O4 0.547363 0.329161 0.821899
O O5 0.250000 0.224752 0.651852
O O6 0.400322 0.189067 0.783115
O O7 0.455136 0.138561 0.638051
O O8 0.250000 0.401754 0.584043
O O9 0.078029 0.500000 0.592965
O O10 0.000000 0.401509 0.500000
O O11 0.443099 0.778826 0.091891
O O12 0.612702 0.886056 0.081039
O O13 0.389456 0.885377 0.180434
O O14 0.250000 0.689545 0.069957
O O15 0.500000 0.676263 0.000000
O O16 0.250000 0.000000 0.919185
O O17 0.250000 0.072591 0.054504
O O18 0.250000 0.000000 0.191372
O O19 0.750000 0.927441 0.422292
O O20 0.000000 0.928442 0.500000
O O21 0.952259 0.000000 0.366792
#
# Coordination Sequence:
#
# PCOD9405555 Si02
#       8
#     8   8   8   8   8   4   4   8
#     4  10  22  38  58  88 125 156 195 247 292 345
#     4  10  21  37  55  76 105 142 182 232 287 341
#     4  10  21  39  66  99 133 168 201 231 274 336
#     4  11  21  35  50  71  98 133 178 230 288 350
#     4  10  21  35  56  80 108 149 196 245 298 350
#     4  11  22  34  48  66  91 129 176 223 283 353
#     4  11  22  34  46  66  97 129 168 227 289 351
#     4   9  19  36  55  74  96 127 173 226 282 346
#
# _framework density 18.754829000000001
#
# number of rings (size 3 to 8) (size 9 to 14) (size 15 to 20)
#    0.000    1.857    1.429    2.571    2.000    5.429 
#    0.000    1.429    0.000    0.429    0.000    0.000 
#    0.000    0.000    0.000    0.000    0.000    0.000 
#
# Total GULP energy -312366.769914 kJ/mol
# GULP energy per Si atom -5577.978034 kJ/mol
# Density = 1.871214 g / cm^3
# Si number density = 18.754829 Si / 1000 Ang^3
#
#
#
# Elastic Constant Matrix: (Units=GPa)
#
#
# Indices 1 2 3 4 5 6 
#
# 1 112.5277 39.2121 48.8126 0.0000 0.0000 0.0000
# 2 39.2121 50.6954 37.2623 0.0000 0.0000 0.0000
# 3 48.8126 37.2623 79.5462 0.0000 0.0000 0.0000
# 4 0.0000 0.0000 0.0000 25.1626 0.0000 0.0000
# 5 0.0000 0.0000 0.0000 0.0000 56.6900 0.0000
# 6 0.0000 0.0000 0.0000 0.0000 0.0000 -1.1606
#
#
#
# Elastic Compliance Matrix: (Units=1/GPa)
#
#
# Indices 1 2 3 4 5 6 
#
# 1 0.013416 -0.006598 -0.005142 0.000000 0.000000 0.000000
# 2 -0.006598 0.033328 -0.011564 0.000000 0.000000 0.000000
# 3 -0.005142 -0.011564 0.021144 0.000000 0.000000 0.000000
# 4 0.000000 0.000000 0.000000 0.039742 0.000000 0.000000
# 5 0.000000 0.000000 0.000000 0.000000 0.017640 0.000000
# 6 0.000000 0.000000 0.000000 0.000000 0.000000 -0.861628
#
#
# Mechanical properties :
#
#
# Convention : Reuss Voigt Hill
#
# Bulk Modulus (GPa) = 46.98959 54.81593 50.90276
# Shear Modulus (GPa) = -7.32431 23.97054 8.32311
#
# Velocity S-wave (km/s) = -1.97833 3.57893 2.10891
# Velocity P-wave (km/s) = 4.45990 6.80951 5.75587
#
# Compressibility (1/GPa) = 0.02128131
#
# Stress axis : x y z
#
# Youngs Moduli (GPa) = 74.53563 30.00439 47.29566
#
# Poissons Ratio (x) = 0.19796 0.24320
# Poissons Ratio (y) = 0.49177 0.54691
# Poissons Ratio (z) = 0.38328 0.34696
#
# Static dielectric constant tensor:
#      x y z
#    x 1.654250 0.000000 0.000000 
#    y 0.000000 1.649180 0.000000 
#    z 0.000000 0.000000 1.657790 
# 
# From -- ./inp_files/21891.got.cif
#   From: 2010.05.17/outbox.cif.g08.bks.cpg/sg51_11_cif.got.tgz:21891.got - 2010.06.03 11:52:47.
