data_PCOD9405625
_publ_section_title
;
Structure prediction by ZEFSAII (Michael W. Deem and Ramdas Pophale) SiO2 
 PCOD9405625
Probable space group: P M M A
;
_chemical_formula_sum "Si O2"
_cell_formula_units_Z 32
_cell_length_a 8.223080
_cell_length_b 10.228523
_cell_length_c 20.982089
_cell_angle_alpha 90.000000
_cell_angle_beta 90.000000
_cell_angle_gamma 90.000000
_cell_volume 1764.802728
_symmetry_space_group_name_H-M "P M M A"
_symmetry_group_IT_number 51
_symmetry_cell_setting 'orthorhombic'
loop_
_space_group_symop_operation_xyz
x,y,z
1/2-x,-y,z
1/2+x,-y,-z
-x,y,-z
-x,-y,-z
1/2+x,y,-z
1/2-x,y,z
x,-y,z
loop_
_atom_site_type_symbol
_atom_site_label
_atom_site_fract_x
_atom_site_fract_y
_atom_site_fract_z
Si Si1 0.055996 0.351301 0.429458
Si Si2 0.053512 0.649831 0.929171
Si Si3 0.946086 0.148894 0.323028
Si Si4 0.448506 0.149718 0.821660
O O1 0.250000 0.355543 0.429374
O O2 0.993783 0.500000 0.418662
O O3 0.000000 0.310124 0.500000
O O4 0.000915 0.252156 0.375173
O O5 0.250000 0.649498 0.927592
O O6 0.998089 0.500000 0.918711
O O7 0.994633 0.748042 0.874530
O O8 0.000000 0.689834 0.000000
O O9 0.750000 0.147501 0.322610
O O10 0.999398 0.181899 0.250749
O O11 0.000723 0.000000 0.337133
O O12 0.250000 0.151827 0.822168
O O13 0.497233 0.000000 0.835476
#
# Coordination Sequence:
#
# PCOD9405625 Si02
#       4
#     8   8   8   8
#     4  10  21  36  53  74 100 130 164 201 241 286
#     4   9  17  29  45  66  92 122 156 193 233 277
#     4   9  18  33  53  76 100 127 161 201 245 292
#     4   8  15  29  48  69  93 121 155 194 233 278
#
# _framework density 18.132338000000001
#
# number of rings (size 3 to 8) (size 9 to 14) (size 15 to 20)
#    0.000    3.000    0.000    2.250    0.000    4.000 
#    0.000    3.750    0.000    4.500    0.000    0.000 
#    0.000    0.000    0.000    0.000    0.000    0.000 
#
# Total GULP energy -178382.219037 kJ/mol
# GULP energy per Si atom -5574.444345 kJ/mol
# Density = 1.809107 g / cm^3
# Si number density = 18.132338 Si / 1000 Ang^3
#
#
#
# Elastic Constant Matrix: (Units=GPa)
#
#
# Indices 1 2 3 4 5 6 
#
# 1 9.9780 15.3953 17.7689 0.0000 0.0000 0.0000
# 2 15.3953 125.8992 141.3113 0.0000 0.0000 0.0000
# 3 17.7689 141.3113 194.8404 0.0000 0.0000 0.0000
# 4 0.0000 0.0000 0.0000 39.2252 0.0000 0.0000
# 5 0.0000 0.0000 0.0000 0.0000 27.6568 0.0000
# 6 0.0000 0.0000 0.0000 0.0000 0.0000 18.0250
#
#
#
# Elastic Compliance Matrix: (Units=1/GPa)
#
#
# Indices 1 2 3 4 5 6 
#
# 1 0.123627 -0.013245 -0.001668 0.000000 0.000000 0.000000
# 2 -0.013245 0.044134 -0.030801 0.000000 0.000000 0.000000
# 3 -0.001668 -0.030801 0.027624 0.000000 0.000000 0.000000
# 4 0.000000 0.000000 0.000000 0.025494 0.000000 0.000000
# 5 0.000000 0.000000 0.000000 0.000000 0.036157 0.000000
# 6 0.000000 0.000000 0.000000 0.000000 0.000000 0.055478
#
#
# Mechanical properties :
#
#
# Convention : Reuss Voigt Hill
#
# Bulk Modulus (GPa) = 9.61947 75.51873 42.56910
# Shear Modulus (GPa) = 11.40004 27.39756 19.39880
#
# Velocity S-wave (km/s) = 2.51014 3.89135 3.27440
# Velocity P-wave (km/s) = 3.70374 7.86951 6.15008
#
# Compressibility (1/GPa) = 0.10395579
#
# Stress axis : x y z
#
# Youngs Moduli (GPa) = 8.08887 22.65816 36.20090
#
# Poissons Ratio (x) = 0.30010 0.06039
# Poissons Ratio (y) = 0.10714 1.11503
# Poissons Ratio (z) = 0.01349 0.69790
#
# Static dielectric constant tensor:
#      x y z
#    x 1.640030 0.000000 0.000000 
#    y 0.000000 1.624160 0.000000 
#    z 0.000000 0.000000 1.597570 
# 
# From -- ./inp_files/19994.got.cif
#   From: 2010.05.17/outbox.cif.g08.bks.cpg/sg51_10_cif.got.tgz:19994.got - 2010.06.03 11:52:47.
