data_PCOD9405234
_publ_section_title
;
Structure prediction by ZEFSAII (Michael W. Deem and Ramdas Pophale) SiO2 
 PCOD9405234
Probable space group: P M M A
;
_chemical_formula_sum "Si O2"
_cell_formula_units_Z 56
_cell_length_a 22.595308
_cell_length_b 8.022832
_cell_length_c 14.823278
_cell_angle_alpha 90.000000
_cell_angle_beta 90.000000
_cell_angle_gamma 90.000000
_cell_volume 2687.139527
_symmetry_space_group_name_H-M "P M M A"
_symmetry_group_IT_number 51
_symmetry_cell_setting 'orthorhombic'
loop_
_space_group_symop_operation_xyz
x,y,z
1/2-x,-y,z
1/2+x,-y,-z
-x,y,-z
-x,-y,-z
1/2+x,y,-z
1/2-x,y,z
x,-y,z
loop_
_atom_site_type_symbol
_atom_site_label
_atom_site_fract_x
_atom_site_fract_y
_atom_site_fract_z
Si Si1 0.578179 0.202528 0.247624
Si Si2 0.180801 0.813420 0.249598
Si Si3 0.937278 0.301385 0.042099
Si Si4 0.682507 0.201251 0.379103
Si Si5 0.631848 0.308681 0.573332
Si Si6 0.181299 0.302815 0.054500
Si Si7 0.007494 0.191156 0.402536
O O1 0.565937 0.272018 0.149119
O O2 0.639582 0.251913 0.297033
O O3 0.527889 0.260631 0.318438
O O4 0.577118 0.000000 0.240780
O O5 0.250000 0.831870 0.235131
O O6 0.175305 0.716335 0.343182
O O7 0.161233 0.722594 0.158497
O O8 0.154862 0.000000 0.254780
O O9 0.936901 0.500000 0.023880
O O10 0.874506 0.233303 0.002540
O O11 0.000000 0.237262 0.000000
O O12 0.750000 0.261012 0.369743
O O13 0.656466 0.255338 0.476130
O O14 0.683057 0.000000 0.379920
O O15 0.613587 0.500000 0.567617
O O16 0.577081 0.198355 0.606558
O O17 0.250000 0.238668 0.040230
O O18 0.185186 0.500000 0.036439
O O19 0.000000 0.275038 0.500000
O O20 0.985441 0.000000 0.410801
#
# Coordination Sequence:
#
# PCOD9405234 Si02
#       7
#     8   8   8   8   8   8   8
#     4  10  22  40  62  89 116 150 196 246 296 349
#     4  10  21  37  58  85 117 154 195 240 291 346
#     4  10  23  41  60  86 121 155 192 244 304 362
#     4  10  21  40  63  86 118 159 201 244 291 346
#     4  12  24  35  55  87 123 158 196 240 289 347
#     4   9  19  38  61  84 114 155 199 244 299 362
#     4  10  20  39  62  83 115 154 194 237 286 345
#
# _framework density 20.840005000000001
#
# number of rings (size 3 to 8) (size 9 to 14) (size 15 to 20)
#    0.000    1.857    1.429    2.143    2.000    5.714 
#    0.000    0.000    0.000    0.000    0.000    0.000 
#    0.000    0.000    0.000    0.000    0.000    0.000 
#
# Total GULP energy -312017.041329 kJ/mol
# GULP energy per Si atom -5571.732881 kJ/mol
# Density = 2.079257 g / cm^3
# Si number density = 20.840005 Si / 1000 Ang^3
#
#
#
# Elastic Constant Matrix: (Units=GPa)
#
#
# Indices 1 2 3 4 5 6 
#
# 1 138.7407 10.7570 78.6871 0.0000 0.0000 0.0000
# 2 10.7570 20.7619 1.0237 0.0000 0.0000 0.0000
# 3 78.6871 1.0237 148.5677 0.0000 0.0000 0.0000
# 4 0.0000 0.0000 0.0000 29.9608 0.0000 0.0000
# 5 0.0000 0.0000 0.0000 0.0000 35.5553 0.0000
# 6 0.0000 0.0000 0.0000 0.0000 0.0000 8.6103
#
#
#
# Elastic Compliance Matrix: (Units=1/GPa)
#
#
# Indices 1 2 3 4 5 6 
#
# 1 0.010865 -0.005347 -0.005718 0.000000 0.000000 0.000000
# 2 -0.005347 0.050813 0.002482 0.000000 0.000000 0.000000
# 3 -0.005718 0.002482 0.009742 0.000000 0.000000 0.000000
# 4 0.000000 0.000000 0.000000 0.033377 0.000000 0.000000
# 5 0.000000 0.000000 0.000000 0.000000 0.028125 0.000000
# 6 0.000000 0.000000 0.000000 0.000000 0.000000 0.116140
#
#
# Mechanical properties :
#
#
# Convention : Reuss Voigt Hill
#
# Bulk Modulus (GPa) = 18.43163 54.33398 36.38281
# Shear Modulus (GPa) = 17.58618 29.33211 23.45915
#
# Velocity S-wave (km/s) = 2.90809 3.75572 3.35875
# Velocity P-wave (km/s) = 4.48771 6.70342 5.70418
#
# Compressibility (1/GPa) = 0.05425455
#
# Stress axis : x y z
#
# Youngs Moduli (GPa) = 92.03767 19.67982 102.64667
#
# Poissons Ratio (x) = 0.10524 0.58691
# Poissons Ratio (y) = 0.49217 -0.25478
# Poissons Ratio (z) = 0.52625 -0.04885
#
# Static dielectric constant tensor:
#      x y z
#    x 1.746960 0.000000 0.000000 
#    y 0.000000 1.887760 0.000000 
#    z 0.000000 0.000000 1.813810 
# 
# From -- ./inp_files/25706.got.cif
#   From: 2010.05.17/outbox.cif.g08.bks.cpg/sg51_13_cif.got.tgz:25706.got - 2010.06.03 11:52:47.
