data_PCOD9405644
_publ_section_title
;
Structure prediction by ZEFSAII (Michael W. Deem and Ramdas Pophale) SiO2 
 PCOD9405644
Probable space group: P M M A
;
_chemical_formula_sum "Si O2"
_cell_formula_units_Z 56
_cell_length_a 14.722643
_cell_length_b 9.392147
_cell_length_c 22.127935
_cell_angle_alpha 90.000000
_cell_angle_beta 90.000000
_cell_angle_gamma 90.000000
_cell_volume 3059.789497
_symmetry_space_group_name_H-M "P M M A"
_symmetry_group_IT_number 51
_symmetry_cell_setting 'orthorhombic'
loop_
_space_group_symop_operation_xyz
x,y,z
1/2-x,-y,z
1/2+x,-y,-z
-x,y,-z
-x,-y,-z
1/2+x,y,-z
1/2-x,y,z
x,-y,z
loop_
_atom_site_type_symbol
_atom_site_label
_atom_site_fract_x
_atom_site_fract_y
_atom_site_fract_z
Si Si1 0.990277 0.330136 0.350453
Si Si2 0.857506 0.666838 0.460281
Si Si3 0.857287 0.831194 0.583112
Si Si4 0.486891 0.670620 0.786447
Si Si5 0.639459 0.163856 0.985711
Si Si6 0.856529 0.171372 0.850082
Si Si7 0.643202 0.329770 0.104105
O O1 0.007603 0.500000 0.353886
O O2 0.915503 0.296140 0.401342
O O3 0.080576 0.244800 0.367543
O O4 0.959464 0.297448 0.282359
O O5 0.750000 0.682670 0.448319
O O6 0.874358 0.500000 0.474995
O O7 0.880826 0.761543 0.518273
O O8 0.750000 0.805803 0.593413
O O9 0.872782 0.000000 0.582043
O O10 0.499167 0.500000 0.791039
O O11 0.579686 0.749760 0.803150
O O12 0.413147 0.713171 0.836837
O O13 0.750000 0.165318 0.985542
O O14 0.609420 0.255513 0.042738
O O15 0.611130 0.000000 0.993191
O O16 0.614313 0.213844 0.918453
O O17 0.750000 0.205029 0.842231
O O18 0.865546 0.000000 0.846240
O O19 0.750000 0.294836 0.111872
O O20 0.636314 0.500000 0.097177
#
# Coordination Sequence:
#
# PCOD9405644 Si02
#       7
#     8   8   8   8   8   8   8
#     4  10  21  36  53  75 105 139 173 208 247 295
#     4   9  18  34  57  82 105 132 168 208 250 297
#     4  10  21  36  55  80 107 134 166 207 255 301
#     4  10  22  36  50  74 105 137 173 209 249 298
#     4   8  15  30  52  75  97 125 165 212 260 306
#     4   9  19  36  55  74  99 132 170 213 259 306
#     4   9  18  33  52  74 102 134 167 207 255 305
#
# _framework density 18.301912999999999
#
# number of rings (size 3 to 8) (size 9 to 14) (size 15 to 20)
#    0.000    2.714    0.000    1.714    0.000    6.857 
#    0.000   10.000    0.000    0.000    0.000    6.000 
#    0.000    0.000    0.000    0.000    0.000    0.000 
#
# Total GULP energy -312455.503410 kJ/mol
# GULP energy per Si atom -5579.562561 kJ/mol
# Density = 1.826026 g / cm^3
# Si number density = 18.301913 Si / 1000 Ang^3
#
#
#
# Elastic Constant Matrix: (Units=GPa)
#
#
# Indices 1 2 3 4 5 6 
#
# 1 29.2792 7.0019 -0.2993 0.0000 0.0000 0.0000
# 2 7.0019 9.5011 9.9988 0.0000 0.0000 0.0000
# 3 -0.2993 9.9988 50.4726 0.0000 0.0000 0.0000
# 4 0.0000 0.0000 0.0000 79.6307 0.0000 0.0000
# 5 0.0000 0.0000 0.0000 0.0000 16.0449 0.0000
# 6 0.0000 0.0000 0.0000 0.0000 0.0000 19.9858
#
#
#
# Elastic Compliance Matrix: (Units=1/GPa)
#
#
# Indices 1 2 3 4 5 6 
#
# 1 0.044155 -0.041460 0.008475 0.000000 0.000000 0.000000
# 2 -0.041460 0.171903 -0.034300 0.000000 0.000000 0.000000
# 3 0.008475 -0.034300 0.026658 0.000000 0.000000 0.000000
# 4 0.000000 0.000000 0.000000 0.012558 0.000000 0.000000
# 5 0.000000 0.000000 0.000000 0.000000 0.062325 0.000000
# 6 0.000000 0.000000 0.000000 0.000000 0.000000 0.050036
#
#
# Mechanical properties :
#
#
# Convention : Reuss Voigt Hill
#
# Bulk Modulus (GPa) = 9.24678 13.62843 11.43760
# Shear Modulus (GPa) = 9.28931 27.96903 18.62917
#
# Velocity S-wave (km/s) = 2.25535 3.91346 3.19389
# Velocity P-wave (km/s) = 3.44173 5.28042 4.45692
#
# Compressibility (1/GPa) = 0.10814580
#
# Stress axis : x y z
#
# Youngs Moduli (GPa) = 22.64732 5.81725 37.51214
#
# Poissons Ratio (x) = 0.24118 -0.31792
# Poissons Ratio (y) = 0.93895 1.28668
# Poissons Ratio (z) = -0.19194 0.19953
#
# Static dielectric constant tensor:
#      x y z
#    x 1.640180 0.000000 0.000000 
#    y 0.000000 1.607140 0.000000 
#    z 0.000000 0.000000 1.617050 
# 
# From -- ./inp_files/33345.got.cif
#   From: 2010.05.17/outbox.cif.g08.bks.cpg/sg51_17_cif.got.tgz:33345.got - 2010.06.03 11:52:47.
