data_PCOD9405931
_publ_section_title
;
Structure prediction by ZEFSAII (Michael W. Deem and Ramdas Pophale) SiO2 
 PCOD9405931
Probable space group: P M M A
;
_chemical_formula_sum "Si O2"
_cell_formula_units_Z 30
_cell_length_a 14.581994
_cell_length_b 7.774589
_cell_length_c 13.709397
_cell_angle_alpha 90.000000
_cell_angle_beta 90.000000
_cell_angle_gamma 90.000000
_cell_volume 1554.220768
_symmetry_space_group_name_H-M "P M M A"
_symmetry_group_IT_number 51
_symmetry_cell_setting 'orthorhombic'
loop_
_space_group_symop_operation_xyz
x,y,z
1/2-x,-y,z
1/2+x,-y,-z
-x,y,-z
-x,-y,-z
1/2+x,y,-z
1/2-x,y,z
x,-y,z
loop_
_atom_site_type_symbol
_atom_site_label
_atom_site_fract_x
_atom_site_fract_y
_atom_site_fract_z
Si Si1 0.250000 0.198836 0.412258
Si Si2 0.360812 0.500000 0.920404
Si Si3 0.431987 0.799614 0.282904
Si Si4 0.139474 0.197726 0.066216
Si Si5 0.930035 0.500000 0.299914
Si Si6 0.250000 0.500000 0.568307
O O1 0.160422 0.224242 0.345252
O O2 0.250000 0.333131 0.499389
O O3 0.250000 0.000000 0.445635
O O4 0.250000 0.500000 0.911214
O O5 0.402798 0.500000 0.813831
O O6 0.386822 0.667598 0.983244
O O7 0.407278 0.764362 0.169759
O O8 0.508705 0.668480 0.318101
O O9 0.459358 0.000000 0.290671
O O10 0.250000 0.210942 0.080494
O O11 0.119393 0.000000 0.038937
O O12 0.839817 0.500000 0.364877
#
# Coordination Sequence:
#
# PCOD9405931 Si02
#       6
#     4   4   8   8   4   2
#     4  10  22  44  71  95 117 145 190 258 325 366
#     4  10  21  37  55  79 122 172 207 234 277 344
#     4  10  21  39  67  98 122 147 192 253 312 362
#     4   9  17  33  60  92 121 153 194 243 297 352
#     4  12  26  42  57  85 127 169 208 241 284 352
#     4  12  28  46  60  82 122 168 208 246 294 356
#
# _framework density 19.302278999999999
#
# number of rings (size 3 to 8) (size 9 to 14) (size 15 to 20)
#    0.000    1.867    2.000    1.600    0.000    6.400 
#    0.000    5.333    0.000    0.000    0.000    0.000 
#    0.000    0.000    0.000    0.000    0.000    0.000 
#
# Total GULP energy -167780.321387 kJ/mol
# GULP energy per Si atom -5592.677380 kJ/mol
# Density = 1.925835 g / cm^3
# Si number density = 19.302279 Si / 1000 Ang^3
#
#
#
# Elastic Constant Matrix: (Units=GPa)
#
#
# Indices 1 2 3 4 5 6 
#
# 1 115.4944 86.4432 56.9264 0.0000 0.0000 0.0000
# 2 86.4432 129.0911 93.4888 0.0000 0.0000 0.0000
# 3 56.9264 93.4888 106.2795 0.0000 0.0000 0.0000
# 4 0.0000 0.0000 0.0000 87.0223 0.0000 0.0000
# 5 0.0000 0.0000 0.0000 0.0000 -10.9856 0.0000
# 6 0.0000 0.0000 0.0000 0.0000 0.0000 6.3682
#
#
#
# Elastic Compliance Matrix: (Units=1/GPa)
#
#
# Indices 1 2 3 4 5 6 
#
# 1 0.017614 -0.013672 0.002592 0.000000 0.000000 0.000000
# 2 -0.013672 0.031955 -0.020786 0.000000 0.000000 0.000000
# 3 0.002592 -0.020786 0.026306 0.000000 0.000000 0.000000
# 4 0.000000 0.000000 0.000000 0.011491 0.000000 0.000000
# 5 0.000000 0.000000 0.000000 0.000000 -0.091029 0.000000
# 6 0.000000 0.000000 0.000000 0.000000 0.000000 0.157030
#
#
# Mechanical properties :
#
#
# Convention : Reuss Voigt Hill
#
# Bulk Modulus (GPa) = 82.35834 91.62020 86.98927
# Shear Modulus (GPa) = 22.60943 24.08142 23.34542
#
# Velocity S-wave (km/s) = 3.42619 3.53596 3.48151
# Velocity P-wave (km/s) = 7.64277 8.01497 7.83108
#
# Compressibility (1/GPa) = 0.01214206
#
# Stress axis : x y z
#
# Youngs Moduli (GPa) = 56.77407 31.29389 38.01482
#
# Poissons Ratio (x) = 0.42784 -0.09853
# Poissons Ratio (y) = 0.77620 0.79019
# Poissons Ratio (z) = -0.14716 0.65049
#
# Static dielectric constant tensor:
#      x y z
#    x 1.673210 0.000000 0.000000 
#    y 0.000000 1.665560 0.000000 
#    z 0.000000 0.000000 1.625330 
# 
# From -- ./inp_files/15866.got.cif
#   From: 2010.05.17/outbox.cif.g08.bks.cpg/sg51_8_cif.got.tgz:15866.got - 2010.06.03 11:52:47.
