data_PCOD9405689
_publ_section_title
;
Structure prediction by ZEFSAII (Michael W. Deem and Ramdas Pophale) SiO2 
 PCOD9405689
Probable space group: P M M A
;
_chemical_formula_sum "Si O2"
_cell_formula_units_Z 48
_cell_length_a 8.517415
_cell_length_b 10.245727
_cell_length_c 31.313537
_cell_angle_alpha 90.000000
_cell_angle_beta 90.000000
_cell_angle_gamma 90.000000
_cell_volume 2732.641841
_symmetry_space_group_name_H-M "P M M A"
_symmetry_group_IT_number 51
_symmetry_cell_setting 'orthorhombic'
loop_
_space_group_symop_operation_xyz
x,y,z
1/2-x,-y,z
1/2+x,-y,-z
-x,y,-z
-x,-y,-z
1/2+x,y,-z
1/2-x,y,z
x,-y,z
loop_
_atom_site_type_symbol
_atom_site_label
_atom_site_fract_x
_atom_site_fract_y
_atom_site_fract_z
Si Si1 0.060692 0.148996 0.714267
Si Si2 0.941445 0.350511 0.880797
Si Si3 0.939533 0.849975 0.383166
Si Si4 0.562214 0.649712 0.546897
Si Si5 0.439797 0.150203 0.046905
Si Si6 0.439367 0.350429 0.216276
O O1 0.250000 0.150326 0.714705
O O2 0.011121 0.180589 0.665604
O O3 0.000188 0.250361 0.748822
O O4 0.009962 0.000000 0.723609
O O5 0.750000 0.348962 0.881107
O O6 0.989124 0.500000 0.889962
O O7 0.995344 0.248258 0.916280
O O8 0.989827 0.317668 0.832284
O O9 0.750000 0.846147 0.384319
O O10 0.003969 0.748372 0.417151
O O11 0.987004 0.000000 0.392416
O O12 0.500000 0.686679 0.500000
O O13 0.750000 0.650838 0.545923
O O14 0.509457 0.500000 0.555337
O O15 0.250000 0.152852 0.046370
O O16 0.488659 0.000000 0.055010
O O17 0.500000 0.187722 0.000000
O O18 0.250000 0.348231 0.216753
O O19 0.488840 0.500000 0.225111
#
# Coordination Sequence:
#
# PCOD9405689 Si02
#       6
#     8   8   8   8   8   8
#     4   9  19  35  52  72 100 132 165 201 242 289
#     4   8  15  29  47  66  90 120 153 190 231 276
#     4   9  19  36  55  74  99 132 168 204 243 289
#     4  10  21  36  54  77 104 133 166 204 245 290
#     4   9  17  29  45  65  89 117 150 188 230 277
#     4   9  18  32  50  73  99 126 160 202 244 288
#
# _framework density 17.565418999999999
#
# number of rings (size 3 to 8) (size 9 to 14) (size 15 to 20)
#    0.000    3.000    0.000    2.500    0.000    4.667 
#    0.000    7.500    0.000    3.000    0.000    0.000 
#    0.000    0.000    0.000    0.000    0.000    0.000 
#
# Total GULP energy -267561.216548 kJ/mol
# GULP energy per Si atom -5574.192011 kJ/mol
# Density = 1.752544 g / cm^3
# Si number density = 17.565419 Si / 1000 Ang^3
#
#
#
# Elastic Constant Matrix: (Units=GPa)
#
#
# Indices 1 2 3 4 5 6 
#
# 1 9.0378 25.5584 28.6060 0.0000 0.0000 0.0000
# 2 25.5584 137.0078 145.6400 0.0000 0.0000 0.0000
# 3 28.6060 145.6400 187.1627 0.0000 0.0000 0.0000
# 4 0.0000 0.0000 0.0000 43.9116 0.0000 0.0000
# 5 0.0000 0.0000 0.0000 0.0000 31.4161 0.0000
# 6 0.0000 0.0000 0.0000 0.0000 0.0000 24.7786
#
#
#
# Elastic Compliance Matrix: (Units=1/GPa)
#
#
# Indices 1 2 3 4 5 6 
#
# 1 0.237752 -0.033122 -0.010564 0.000000 0.000000 0.000000
# 2 -0.033122 0.046847 -0.031391 0.000000 0.000000 0.000000
# 3 -0.010564 -0.031391 0.031385 0.000000 0.000000 0.000000
# 4 0.000000 0.000000 0.000000 0.022773 0.000000 0.000000
# 5 0.000000 0.000000 0.000000 0.000000 0.031831 0.000000
# 6 0.000000 0.000000 0.000000 0.000000 0.000000 0.040357
#
#
# Mechanical properties :
#
#
# Convention : Reuss Voigt Hill
#
# Bulk Modulus (GPa) = 6.03033 81.42411 43.72722
# Shear Modulus (GPa) = 8.11193 28.91486 18.51340
#
# Velocity S-wave (km/s) = 2.15131 4.06165 3.25001
# Velocity P-wave (km/s) = 3.10022 8.27354 6.24751
#
# Compressibility (1/GPa) = 0.16582843
#
# Stress axis : x y z
#
# Youngs Moduli (GPa) = 4.20606 21.34619 31.86276
#
# Poissons Ratio (x) = 0.70703 0.33660
# Poissons Ratio (y) = 0.13931 1.00021
# Poissons Ratio (z) = 0.04443 0.67008
#
# Static dielectric constant tensor:
#      x y z
#    x 1.606170 0.000000 0.000000 
#    y 0.000000 1.590510 0.000000 
#    z 0.000000 0.000000 1.576070 
# 
# From -- ./inp_files/37046.got.cif
#   From: 2010.05.17/outbox.cif.g08.bks.cpg/sg51_19_cif.got.tgz:37046.got - 2010.06.03 11:52:47.
