data_PCOD9405994
_publ_section_title
;
Structure prediction by ZEFSAII (Michael W. Deem and Ramdas Pophale) SiO2 
 PCOD9405994
Probable space group: P M M A
;
_chemical_formula_sum "Si O2"
_cell_formula_units_Z 56
_cell_length_a 8.661990
_cell_length_b 19.820315
_cell_length_c 16.404585
_cell_angle_alpha 90.000000
_cell_angle_beta 90.000000
_cell_angle_gamma 90.000000
_cell_volume 2816.394442
_symmetry_space_group_name_H-M "P M M A"
_symmetry_group_IT_number 51
_symmetry_cell_setting 'orthorhombic'
loop_
_space_group_symop_operation_xyz
x,y,z
1/2-x,-y,z
1/2+x,-y,-z
-x,y,-z
-x,-y,-z
1/2+x,y,-z
1/2-x,y,z
x,-y,z
loop_
_atom_site_type_symbol
_atom_site_label
_atom_site_fract_x
_atom_site_fract_y
_atom_site_fract_z
Si Si1 0.567228 0.287968 0.657453
Si Si2 0.565517 0.290026 0.167398
Si Si3 0.064846 0.424440 0.091787
Si Si4 0.564799 0.153566 0.086450
Si Si5 0.938274 0.921885 0.251294
Si Si6 0.564950 0.575239 0.408224
Si Si7 0.065385 0.156696 0.585618
O O1 0.750000 0.284876 0.648480
O O2 0.514371 0.270115 0.748401
O O3 0.508277 0.363312 0.640304
O O4 0.489318 0.233602 0.598327
O O5 0.750000 0.289639 0.178853
O O6 0.509240 0.363571 0.141311
O O7 0.525914 0.232347 0.101835
O O8 0.250000 0.417126 0.090486
O O9 0.028052 0.500000 0.123077
O O10 0.000000 0.420557 0.000000
O O11 0.750000 0.148051 0.083692
O O12 0.510937 0.113373 0.167032
O O13 0.500000 0.130161 0.000000
O O14 0.750000 0.918823 0.251198
O O15 0.988332 0.884101 0.333979
O O16 0.983906 0.000000 0.252794
O O17 0.500000 0.578889 0.500000
O O18 0.750000 0.582191 0.409683
O O19 0.527321 0.500000 0.376303
O O20 0.250000 0.154535 0.583090
O O21 0.000000 0.130548 0.500000
#
# Coordination Sequence:
#
# PCOD9405994 Si02
#       7
#     8   8   8   8   8   8   8
#     4  12  24  38  59  86 118 157 202 254 307 362
#     4  11  22  38  59  84 116 156 202 254 310 365
#     4  10  21  37  56  81 114 154 201 253 307 366
#     4  10  21  38  61  91 123 161 204 248 299 360
#     4   9  19  39  65  91 125 166 203 245 302 366
#     4  10  21  38  59  83 114 153 198 249 304 362
#     4  11  22  40  64  92 125 163 208 253 304 365
#
# _framework density 19.883578
#
# number of rings (size 3 to 8) (size 9 to 14) (size 15 to 20)
#    0.000    1.571    1.429    3.857    0.000    5.143 
#    0.000    0.000    0.000    3.000    0.000    0.000 
#    0.000    0.000    0.000    0.000    0.000    0.000 
#
# Total GULP energy -312906.642863 kJ/mol
# GULP energy per Si atom -5587.618623 kJ/mol
# Density = 1.983832 g / cm^3
# Si number density = 19.883578 Si / 1000 Ang^3
#
#
#
# Elastic Constant Matrix: (Units=GPa)
#
#
# Indices 1 2 3 4 5 6 
#
# 1 55.0409 31.0100 29.7919 0.0000 0.0000 0.0000
# 2 31.0100 111.4898 59.0169 0.0000 0.0000 0.0000
# 3 29.7919 59.0169 139.6530 0.0000 0.0000 0.0000
# 4 0.0000 0.0000 0.0000 21.8532 0.0000 0.0000
# 5 0.0000 0.0000 0.0000 0.0000 36.5014 0.0000
# 6 0.0000 0.0000 0.0000 0.0000 0.0000 6.0316
#
#
#
# Elastic Compliance Matrix: (Units=1/GPa)
#
#
# Indices 1 2 3 4 5 6 
#
# 1 0.022339 -0.004754 -0.002756 0.000000 0.000000 0.000000
# 2 -0.004754 0.012566 -0.004296 0.000000 0.000000 0.000000
# 3 -0.002756 -0.004296 0.009564 0.000000 0.000000 0.000000
# 4 0.000000 0.000000 0.000000 0.045760 0.000000 0.000000
# 5 0.000000 0.000000 0.000000 0.000000 0.027396 0.000000
# 6 0.000000 0.000000 0.000000 0.000000 0.000000 0.165792
#
#
# Mechanical properties :
#
#
# Convention : Reuss Voigt Hill
#
# Bulk Modulus (GPa) = 47.94926 60.64682 54.29804
# Shear Modulus (GPa) = 15.92446 25.30158 20.61302
#
# Velocity S-wave (km/s) = 2.83306 3.57106 3.22325
# Velocity P-wave (km/s) = 5.90500 6.89714 6.42026
#
# Compressibility (1/GPa) = 0.02085538
#
# Stress axis : x y z
#
# Youngs Moduli (GPa) = 44.76521 79.58032 104.55736
#
# Poissons Ratio (x) = 0.37835 0.28820
# Poissons Ratio (y) = 0.21283 0.44919
# Poissons Ratio (z) = 0.12339 0.34188
#
# Static dielectric constant tensor:
#      x y z
#    x 1.672100 0.000000 0.000000 
#    y 0.000000 1.699790 0.000000 
#    z 0.000000 0.000000 1.713760 
# 
# From -- ./inp_files/21789.got.cif
#   From: 2010.05.17/outbox.cif.g08.bks.cpg/sg51_11_cif.got.tgz:21789.got - 2010.06.03 11:52:47.
