data_PCOD9405824
_publ_section_title
;
Structure prediction by ZEFSAII (Michael W. Deem and Ramdas Pophale) SiO2 
 PCOD9405824
Probable space group: P M M A
;
_chemical_formula_sum "Si O2"
_cell_formula_units_Z 56
_cell_length_a 8.889660
_cell_length_b 19.981950
_cell_length_c 15.870517
_cell_angle_alpha 90.000000
_cell_angle_beta 90.000000
_cell_angle_gamma 90.000000
_cell_volume 2819.123446
_symmetry_space_group_name_H-M "P M M A"
_symmetry_group_IT_number 51
_symmetry_cell_setting 'orthorhombic'
loop_
_space_group_symop_operation_xyz
x,y,z
1/2-x,-y,z
1/2+x,-y,-z
-x,y,-z
-x,-y,-z
1/2+x,y,-z
1/2-x,y,z
x,-y,z
loop_
_atom_site_type_symbol
_atom_site_label
_atom_site_fract_x
_atom_site_fract_y
_atom_site_fract_z
Si Si1 0.067927 0.217879 0.909896
Si Si2 0.581654 0.420852 0.080710
Si Si3 0.575391 0.077176 0.357992
Si Si4 0.425845 0.203980 0.414093
Si Si5 0.571501 0.575336 0.741332
Si Si6 0.430959 0.073861 0.843200
Si Si7 0.429405 0.287050 0.734284
O O1 0.250000 0.218162 0.914798
O O2 0.015780 0.141573 0.888090
O O3 0.025943 0.264796 0.829760
O O4 0.000000 0.236868 0.000000
O O5 0.750000 0.393225 0.097162
O O6 0.601762 0.500000 0.064016
O O7 0.473940 0.418977 0.160617
O O8 0.500000 0.390808 0.000000
O O9 0.750000 0.098564 0.370953
O O10 0.463583 0.125606 0.405750
O O11 0.545062 0.080584 0.257342
O O12 0.562192 0.000000 0.382906
O O13 0.500000 0.229736 0.500000
O O14 0.250000 0.216689 0.414648
O O15 0.501152 0.236055 0.332087
O O16 0.750000 0.581340 0.730219
O O17 0.525626 0.500000 0.713718
O O18 0.486138 0.639629 0.706328
O O19 0.250000 0.072403 0.854306
O O20 0.489180 0.000000 0.869947
O O21 0.250000 0.284102 0.731012
#
# Coordination Sequence:
#
# PCOD9405824 Si02
#       7
#     8   8   8   8   8   8   8
#     4  10  21  36  56  83 117 158 205 251 300 355
#     4   9  16  27  45  71 104 142 184 231 283 339
#     4   9  17  34  61  89 121 161 203 250 305 361
#     4  12  25  41  64  92 124 160 202 250 302 364
#     4  10  21  37  58  85 115 148 188 236 296 365
#     4   8  14  29  54  80 111 154 200 247 300 350
#     4  11  23  42  64  87 120 159 202 250 301 359
#
# _framework density 19.864329999999999
#
# number of rings (size 3 to 8) (size 9 to 14) (size 15 to 20)
#    0.000    2.143    1.429    3.429    0.000    5.143 
#    0.000    1.429    0.000    0.429    0.000    0.000 
#    0.000    0.000    0.000    0.000    0.000    0.000 
#
# Total GULP energy -312452.628698 kJ/mol
# GULP energy per Si atom -5579.511227 kJ/mol
# Density = 1.981912 g / cm^3
# Si number density = 19.864330 Si / 1000 Ang^3
#
#
#
# Elastic Constant Matrix: (Units=GPa)
#
#
# Indices 1 2 3 4 5 6 
#
# 1 66.3855 33.1841 28.6446 0.0000 0.0000 0.0000
# 2 33.1841 118.2002 26.2324 0.0000 0.0000 0.0000
# 3 28.6446 26.2324 64.5255 0.0000 0.0000 0.0000
# 4 0.0000 0.0000 0.0000 11.6950 0.0000 0.0000
# 5 0.0000 0.0000 0.0000 0.0000 23.6443 0.0000
# 6 0.0000 0.0000 0.0000 0.0000 0.0000 21.5947
#
#
#
# Elastic Compliance Matrix: (Units=1/GPa)
#
#
# Indices 1 2 3 4 5 6 
#
# 1 0.020261 -0.004058 -0.007345 0.000000 0.000000 0.000000
# 2 -0.004058 0.010112 -0.002309 0.000000 0.000000 0.000000
# 3 -0.007345 -0.002309 0.019697 0.000000 0.000000 0.000000
# 4 0.000000 0.000000 0.000000 0.085507 0.000000 0.000000
# 5 0.000000 0.000000 0.000000 0.000000 0.042293 0.000000
# 6 0.000000 0.000000 0.000000 0.000000 0.000000 0.046308
#
#
# Mechanical properties :
#
#
# Convention : Reuss Voigt Hill
#
# Bulk Modulus (GPa) = 44.15830 47.24815 45.70322
# Shear Modulus (GPa) = 19.29374 22.12348 20.70861
#
# Velocity S-wave (km/s) = 3.11991 3.34088 3.23228
# Velocity P-wave (km/s) = 5.93773 6.22246 6.08176
#
# Compressibility (1/GPa) = 0.02264580
#
# Stress axis : x y z
#
# Youngs Moduli (GPa) = 49.35530 98.89151 50.76885
#
# Poissons Ratio (x) = 0.40132 0.37288
# Poissons Ratio (y) = 0.20030 0.11725
# Poissons Ratio (z) = 0.36250 0.22838
#
# Static dielectric constant tensor:
#      x y z
#    x 1.673400 0.000000 0.000000 
#    y 0.000000 1.795320 0.000000 
#    z 0.000000 0.000000 0.823010 
# 
# From -- ./inp_files/21807.got.cif
#   From: 2010.05.17/outbox.cif.g08.bks.cpg/sg51_11_cif.got.tgz:21807.got - 2010.06.03 11:52:47.
