data_PCOD9405030
_publ_section_title
;
Structure prediction by ZEFSAII (Michael W. Deem and Ramdas Pophale) SiO2 
 PCOD9405030
Probable space group: P M M A
;
_chemical_formula_sum "Si O2"
_cell_formula_units_Z 40
_cell_length_a 26.482433
_cell_length_b 8.735140
_cell_length_c 9.597382
_cell_angle_alpha 90.000000
_cell_angle_beta 90.000000
_cell_angle_gamma 90.000000
_cell_volume 2220.140878
_symmetry_space_group_name_H-M "P M M A"
_symmetry_group_IT_number 51
_symmetry_cell_setting 'orthorhombic'
loop_
_space_group_symop_operation_xyz
x,y,z
1/2-x,-y,z
1/2+x,-y,-z
-x,y,-z
-x,-y,-z
1/2+x,y,-z
1/2-x,y,z
x,-y,z
loop_
_atom_site_type_symbol
_atom_site_label
_atom_site_fract_x
_atom_site_fract_y
_atom_site_fract_z
Si Si1 0.344357 0.184150 0.089726
Si Si2 0.657740 0.816442 0.586137
Si Si3 0.750000 0.682536 0.410140
Si Si4 0.250000 0.185750 0.900445
Si Si5 0.047947 0.316266 0.087726
Si Si6 0.549329 0.684044 0.585930
O O1 0.335485 0.230954 0.251117
O O2 0.398582 0.246805 0.043669
O O3 0.345998 0.000000 0.089380
O O4 0.299259 0.232818 0.988820
O O5 0.700824 0.743284 0.491703
O O6 0.601699 0.762800 0.543000
O O7 0.661433 0.000000 0.578882
O O8 0.750000 0.500000 0.408874
O O9 0.750000 0.745894 0.253198
O O10 0.250000 0.000000 0.891040
O O11 0.050930 0.500000 0.073768
O O12 0.041083 0.280715 0.251030
O O13 0.000000 0.261460 0.000000
O O14 0.500000 0.731209 0.500000
O O15 0.555110 0.500000 0.571695
#
# Coordination Sequence:
#
# PCOD9405030 Si02
#       6
#     8   8   4   4   8   8
#     4   9  19  36  58  80 104 138 178 218 262 316
#     4  10  20  37  59  81 107 141 181 222 266 318
#     4  12  25  38  54  80 110 140 177 220 270 322
#     4  10  21  38  56  78 108 138 171 216 270 318
#     4   9  18  32  50  74 105 140 176 215 259 306
#     4   9  18  33  52  76 108 143 179 219 261 308
#
# _framework density 18.016874000000001
#
# number of rings (size 3 to 8) (size 9 to 14) (size 15 to 20)
#    0.000    2.400    0.000    2.100    0.000    5.600 
#    0.000    3.000    0.000    0.000    0.000    0.000 
#    0.000    0.000    0.000    0.000    0.000    0.000 
#
# Total GULP energy -223257.546488 kJ/mol
# GULP energy per Si atom -5581.438662 kJ/mol
# Density = 1.797587 g / cm^3
# Si number density = 18.016874 Si / 1000 Ang^3
#
#
#
# Elastic Constant Matrix: (Units=GPa)
#
#
# Indices 1 2 3 4 5 6 
#
# 1 213.2338 55.1450 117.3539 0.0000 0.0000 0.0000
# 2 55.1450 33.4028 38.7076 0.0000 0.0000 0.0000
# 3 117.3539 38.7076 99.4981 0.0000 0.0000 0.0000
# 4 0.0000 0.0000 0.0000 20.3478 0.0000 0.0000
# 5 0.0000 0.0000 0.0000 0.0000 39.4879 0.0000
# 6 0.0000 0.0000 0.0000 0.0000 0.0000 31.0064
#
#
#
# Elastic Compliance Matrix: (Units=1/GPa)
#
#
# Indices 1 2 3 4 5 6 
#
# 1 0.014304 -0.007401 -0.013992 0.000000 0.000000 0.000000
# 2 -0.007401 0.058342 -0.013968 0.000000 0.000000 0.000000
# 3 -0.013992 -0.013968 0.031988 0.000000 0.000000 0.000000
# 4 0.000000 0.000000 0.000000 0.049145 0.000000 0.000000
# 5 0.000000 0.000000 0.000000 0.000000 0.025324 0.000000
# 6 0.000000 0.000000 0.000000 0.000000 0.000000 0.032251
#
#
# Mechanical properties :
#
#
# Convention : Reuss Voigt Hill
#
# Bulk Modulus (GPa) = 29.48803 85.39419 57.44111
# Shear Modulus (GPa) = 17.04276 27.16362 22.10319
#
# Velocity S-wave (km/s) = 3.07894 3.88709 3.50638
# Velocity P-wave (km/s) = 5.38909 8.22470 6.95298
#
# Compressibility (1/GPa) = 0.03391206
#
# Stress axis : x y z
#
# Youngs Moduli (GPa) = 69.90926 17.14045 31.26215
#
# Poissons Ratio (x) = 0.12685 0.43743
# Poissons Ratio (y) = 0.51737 0.43666
# Poissons Ratio (z) = 0.97819 0.23941
#
# Static dielectric constant tensor:
#      x y z
#    x 1.593430 0.000000 0.000000 
#    y 0.000000 1.605930 0.000000 
#    z 0.000000 0.000000 1.604080 
# 
# From -- ./inp_files/12138.got.cif
#   From: 2010.05.17/outbox.cif.g08.bks.cpg/sg51_7_cif.got.tgz:12138.got - 2010.06.03 11:52:47.
