data_PCOD9405823
_publ_section_title
;
Structure prediction by ZEFSAII (Michael W. Deem and Ramdas Pophale) SiO2 
 PCOD9405823
Probable space group: P M M A
;
_chemical_formula_sum "Si O2"
_cell_formula_units_Z 42
_cell_length_a 20.790548
_cell_length_b 11.776881
_cell_length_c 7.047936
_cell_angle_alpha 90.000000
_cell_angle_beta 90.000000
_cell_angle_gamma 90.000000
_cell_volume 1725.671693
_symmetry_space_group_name_H-M "P M M A"
_symmetry_group_IT_number 51
_symmetry_cell_setting 'orthorhombic'
loop_
_space_group_symop_operation_xyz
x,y,z
1/2-x,-y,z
1/2+x,-y,-z
-x,y,-z
-x,-y,-z
1/2+x,y,-z
1/2-x,y,z
x,-y,z
loop_
_atom_site_type_symbol
_atom_site_label
_atom_site_fract_x
_atom_site_fract_y
_atom_site_fract_z
Si Si1 0.999480 0.373948 0.268367
Si Si2 0.827126 0.370909 0.632617
Si Si3 0.647207 0.190757 0.331678
Si Si4 0.642285 0.623540 0.071912
Si Si5 0.994272 0.876049 0.273105
Si Si6 0.250000 0.000000 0.581108
O O1 0.027620 0.500000 0.218597
O O2 0.929304 0.376506 0.165609
O O3 0.023163 0.246138 0.210946
O O4 0.000000 0.373799 0.500000
O O5 0.750000 0.351687 0.627614
O O6 0.838877 0.500000 0.565219
O O7 0.862817 0.280104 0.502555
O O8 0.851678 0.363799 0.847248
O O9 0.676093 0.270192 0.168442
O O10 0.582455 0.136122 0.247868
O O11 0.694360 0.097532 0.408423
O O12 0.670771 0.500000 0.116843
O O13 0.000000 0.879223 0.500000
O O14 0.018267 0.000000 0.203112
#
# Coordination Sequence:
#
# PCOD9405823 Si02
#       6
#     8   8   8   8   8   2
#     4   8  14  27  51  81 109 139 179 228 285 339
#     4  10  21  36  56  83 114 152 197 242 293 351
#     4  11  21  38  57  81 118 153 189 240 294 352
#     4   9  19  35  58  86 115 147 190 240 287 344
#     4   9  17  31  55  80 105 145 191 233 281 340
#     4  12  24  36  54  84 116 158 198 232 292 350
#
# _framework density 24.338348
#
# number of rings (size 3 to 8) (size 9 to 14) (size 15 to 20)
#    0.000    2.476    1.905    0.571    1.333    0.762 
#    0.000    1.905    0.000   18.286    0.000   78.667 
#    0.000    0.000    0.000    0.000    0.000    0.000 
#
# Total GULP energy -233929.977654 kJ/mol
# GULP energy per Si atom -5569.761373 kJ/mol
# Density = 2.428295 g / cm^3
# Si number density = 24.338348 Si / 1000 Ang^3
#
#
#
# Elastic Constant Matrix: (Units=GPa)
#
#
# Indices 1 2 3 4 5 6 
#
# 1 87.9764 25.0486 -13.6041 0.0000 0.0000 0.0000
# 2 25.0486 247.6399 41.8248 0.0000 0.0000 0.0000
# 3 -13.6041 41.8248 118.2413 0.0000 0.0000 0.0000
# 4 0.0000 0.0000 0.0000 -21.5546 0.0000 0.0000
# 5 0.0000 0.0000 0.0000 0.0000 -29.9133 0.0000
# 6 0.0000 0.0000 0.0000 0.0000 0.0000 28.0604
#
#
#
# Elastic Compliance Matrix: (Units=1/GPa)
#
#
# Indices 1 2 3 4 5 6 
#
# 1 0.012109 -0.001553 0.001943 0.000000 0.000000 0.000000
# 2 -0.001553 0.004494 -0.001768 0.000000 0.000000 0.000000
# 3 0.001943 -0.001768 0.009306 0.000000 0.000000 0.000000
# 4 0.000000 0.000000 0.000000 -0.046394 0.000000 0.000000
# 5 0.000000 0.000000 0.000000 0.000000 -0.033430 0.000000
# 6 0.000000 0.000000 0.000000 0.000000 0.000000 0.035637
#
#
# Mechanical properties :
#
#
# Convention : Reuss Voigt Hill
#
# Bulk Modulus (GPa) = 43.19280 62.26625 52.72952
# Shear Modulus (GPa) = -640.82932 22.02438 -309.40247
#
# Velocity S-wave (km/s) = -16.24413 3.01146 -11.28723
# Velocity P-wave (km/s) = 18.27687 6.14256 12.17195
#
# Compressibility (1/GPa) = 0.02315201
#
# Stress axis : x y z
#
# Youngs Moduli (GPa) = 82.58176 222.52657 107.45461
#
# Poissons Ratio (x) = 0.34557 -0.20873
# Poissons Ratio (y) = 0.12824 0.19001
# Poissons Ratio (z) = -0.16042 0.39348
#
# Static dielectric constant tensor:
#      x y z
#    x 2.037300 0.000000 0.000000 
#    y 0.000000 2.024940 0.000000 
#    z 0.000000 0.000000 1.936020 
# 
# From -- ./inp_files/11597.got.cif
#   From: 2010.05.17/outbox.cif.g08.bks.cpg/sg51_6_cif.got.tgz:11597.got - 2010.06.03 11:52:47.
