data_PCOD9405564
_publ_section_title
;
Structure prediction by ZEFSAII (Michael W. Deem and Ramdas Pophale) SiO2 
 PCOD9405564
Probable space group: P M M A
;
_chemical_formula_sum "Si O2"
_cell_formula_units_Z 38
_cell_length_a 9.525169
_cell_length_b 12.460552
_cell_length_c 17.547177
_cell_angle_alpha 90.000000
_cell_angle_beta 90.000000
_cell_angle_gamma 90.000000
_cell_volume 2082.654498
_symmetry_space_group_name_H-M "P M M A"
_symmetry_group_IT_number 51
_symmetry_cell_setting 'orthorhombic'
loop_
_space_group_symop_operation_xyz
x,y,z
1/2-x,-y,z
1/2+x,-y,-z
-x,y,-z
-x,-y,-z
1/2+x,y,-z
1/2-x,y,z
x,-y,z
loop_
_atom_site_type_symbol
_atom_site_label
_atom_site_fract_x
_atom_site_fract_y
_atom_site_fract_z
Si Si1 0.250000 0.619277 0.044696
Si Si2 0.250000 0.744962 0.892230
Si Si3 0.085662 0.000000 0.166418
Si Si4 0.405289 0.802648 0.285093
Si Si5 0.250000 0.000000 0.885901
Si Si6 0.484355 0.624610 0.173537
Si Si7 0.913644 0.129227 0.424761
O O1 0.250000 0.500000 0.008288
O O2 0.381768 0.627486 0.100694
O O3 0.250000 0.706868 0.979677
O O4 0.250000 0.872096 0.888717
O O5 0.381591 0.692136 0.850674
O O6 0.080694 0.105052 0.220719
O O7 0.936465 0.000000 0.121209
O O8 0.250000 0.000000 0.131954
O O9 0.250000 0.816277 0.319570
O O10 0.417220 0.688497 0.243649
O O11 0.520697 0.819010 0.349560
O O12 0.513582 0.500000 0.190331
O O13 0.750000 0.154895 0.433017
O O14 0.000000 0.159867 0.500000
O O15 0.926547 0.000000 0.415845
#
# Coordination Sequence:
#
# PCOD9405564 Si02
#       7
#     4   4   4   8   2   8   8
#     4  10  22  44  66  86 118 163 215 269 323 375
#     4  12  24  40  62  92 125 159 209 264 323 390
#     4  10  22  38  58  89 126 174 209 256 325 389
#     4  11  21  36  60  88 122 162 210 262 315 377
#     4  12  24  40  64  92 132 166 210 262 328 396
#     4  11  23  40  63  90 120 162 213 266 319 373
#     4  10  21  35  57  88 125 165 206 252 309 375
#
# _framework density 18.245946
#
# number of rings (size 3 to 8) (size 9 to 14) (size 15 to 20)
#    0.000    1.263    4.211    2.211    2.947    2.526 
#    0.000    3.158    0.000    0.632    0.000    0.000 
#    0.000    0.000    0.000    0.000    0.000    0.000 
#
# Total GULP energy -211562.337642 kJ/mol
# GULP energy per Si atom -5567.429938 kJ/mol
# Density = 1.820442 g / cm^3
# Si number density = 18.245946 Si / 1000 Ang^3
#
#
#
# Elastic Constant Matrix: (Units=GPa)
#
#
# Indices 1 2 3 4 5 6 
#
# 1 141.2908 61.4586 48.9004 0.0000 0.0000 0.0000
# 2 61.4586 165.3208 70.4612 0.0000 0.0000 0.0000
# 3 48.9004 70.4612 119.1766 0.0000 0.0000 0.0000
# 4 0.0000 0.0000 0.0000 -11.7189 0.0000 0.0000
# 5 0.0000 0.0000 0.0000 0.0000 13.2627 0.0000
# 6 0.0000 0.0000 0.0000 0.0000 0.0000 21.6669
#
#
#
# Elastic Compliance Matrix: (Units=1/GPa)
#
#
# Indices 1 2 3 4 5 6 
#
# 1 0.008876 -0.002336 -0.002261 0.000000 0.000000 0.000000
# 2 -0.002336 0.008701 -0.004186 0.000000 0.000000 0.000000
# 3 -0.002261 -0.004186 0.011793 0.000000 0.000000 0.000000
# 4 0.000000 0.000000 0.000000 -0.085332 0.000000 0.000000
# 5 0.000000 0.000000 0.000000 0.000000 0.075400 0.000000
# 6 0.000000 0.000000 0.000000 0.000000 0.000000 0.046153
#
#
# Mechanical properties :
#
#
# Convention : Reuss Voigt Hill
#
# Bulk Modulus (GPa) = 84.70920 87.49205 86.10062
# Shear Modulus (GPa) = 57.40989 20.97333 39.19161
#
# Velocity S-wave (km/s) = 5.61540 3.39407 4.63964
# Velocity P-wave (km/s) = 9.41121 7.96337 8.71740
#
# Compressibility (1/GPa) = 0.01180509
#
# Stress axis : x y z
#
# Youngs Moduli (GPa) = 112.65985 114.92344 84.79248
#
# Poissons Ratio (x) = 0.26848 0.19171
# Poissons Ratio (y) = 0.26319 0.35494
# Poissons Ratio (z) = 0.25471 0.48107
#
# Static dielectric constant tensor:
#      x y z
#    x 1.709600 0.000000 0.000000 
#    y 0.000000 1.597360 0.000000 
#    z 0.000000 0.000000 1.606160 
# 
# From -- ./inp_files/27091.got.cif
#   From: 2010.05.17/outbox.cif.g08.bks.cpg/sg51_14_cif.got.tgz:27091.got - 2010.06.03 11:52:47.
