data_PCOD9405012
_publ_section_title
;
Structure prediction by ZEFSAII (Michael W. Deem and Ramdas Pophale) SiO2 
 PCOD9405012
Probable space group: P M M A
;
_chemical_formula_sum "Si O2"
_cell_formula_units_Z 64
_cell_length_a 14.701749
_cell_length_b 24.092956
_cell_length_c 9.548858
_cell_angle_alpha 90.000000
_cell_angle_beta 90.000000
_cell_angle_gamma 90.000000
_cell_volume 3382.287545
_symmetry_space_group_name_H-M "P M M A"
_symmetry_group_IT_number 51
_symmetry_cell_setting 'orthorhombic'
loop_
_space_group_symop_operation_xyz
x,y,z
1/2-x,-y,z
1/2+x,-y,-z
-x,y,-z
-x,-y,-z
1/2+x,y,-z
1/2-x,y,z
x,-y,z
loop_
_atom_site_type_symbol
_atom_site_label
_atom_site_fract_x
_atom_site_fract_y
_atom_site_fract_z
Si Si1 0.640974 0.063935 0.349729
Si Si2 0.644375 0.365565 0.150475
Si Si3 0.014797 0.564142 0.663992
Si Si4 0.144004 0.564070 0.120068
Si Si5 0.646698 0.838261 0.846139
Si Si6 0.522245 0.826649 0.351485
Si Si7 0.593512 0.759088 0.086392
Si Si8 0.640680 0.941345 0.016602
O O1 0.750000 0.073529 0.376639
O O2 0.576562 0.115941 0.390261
O O3 0.620599 0.000000 0.399848
O O4 0.627614 0.062635 0.181661
O O5 0.750000 0.378266 0.173856
O O6 0.585033 0.392423 0.272241
O O7 0.631344 0.300205 0.130965
O O8 0.616929 0.395798 0.005854
O O9 0.044915 0.500000 0.688315
O O10 0.000000 0.571555 0.500000
O O11 0.920698 0.571649 0.747767
O O12 0.250000 0.573585 0.154318
O O13 0.134693 0.500000 0.072699
O O14 0.750000 0.847611 0.796873
O O15 0.576620 0.830800 0.721142
O O16 0.605297 0.890555 0.929586
O O17 0.649554 0.791567 0.967274
O O18 0.500000 0.797756 0.500000
O O19 0.578721 0.795090 0.228377
O O20 0.500000 0.750462 0.000000
O O21 0.750000 0.940436 0.998029
O O22 0.605261 0.000000 0.963299
#
# Coordination Sequence:
#
# PCOD9405012 Si02
#       8
#     8   8   8   8   8   8   8   8
#     4   9  18  34  57  83 112 148 186 226 276 334
#     4  11  22  36  59  87 111 144 190 240 286 331
#     4  10  21  36  56  84 121 160 191 225 273 330
#     4   9  18  34  57  85 116 150 189 234 283 330
#     4  10  20  37  58  82 110 143 187 237 282 334
#     4  11  24  38  56  84 116 148 185 227 283 343
#     4  10  21  38  59  81 108 147 190 236 283 333
#     4   8  14  27  52  82 105 132 175 225 273 321
#
# _framework density 18.922104999999998
#
# number of rings (size 3 to 8) (size 9 to 14) (size 15 to 20)
#    0.000    2.250    1.250    2.625    0.000    4.500 
#    0.000    2.500    0.000    1.500    0.000    0.000 
#    0.000    0.000    0.000    0.000    0.000    0.000 
#
# Total GULP energy -356656.834551 kJ/mol
# GULP energy per Si atom -5572.763040 kJ/mol
# Density = 1.887904 g / cm^3
# Si number density = 18.922105 Si / 1000 Ang^3
#
#
#
# Elastic Constant Matrix: (Units=GPa)
#
#
# Indices 1 2 3 4 5 6 
#
# 1 75.5574 31.2647 27.6380 0.0000 0.0000 0.0000
# 2 31.2647 86.2541 38.4458 0.0000 0.0000 0.0000
# 3 27.6380 38.4458 79.1992 0.0000 0.0000 0.0000
# 4 0.0000 0.0000 0.0000 18.5289 0.0000 0.0000
# 5 0.0000 0.0000 0.0000 0.0000 2.2780 0.0000
# 6 0.0000 0.0000 0.0000 0.0000 0.0000 23.8078
#
#
#
# Elastic Compliance Matrix: (Units=1/GPa)
#
#
# Indices 1 2 3 4 5 6 
#
# 1 0.016340 -0.004315 -0.003608 0.000000 0.000000 0.000000
# 2 -0.004315 0.015934 -0.006229 0.000000 0.000000 0.000000
# 3 -0.003608 -0.006229 0.016909 0.000000 0.000000 0.000000
# 4 0.000000 0.000000 0.000000 0.053970 0.000000 0.000000
# 5 0.000000 0.000000 0.000000 0.000000 0.438989 0.000000
# 6 0.000000 0.000000 0.000000 0.000000 0.000000 0.042003
#
#
# Mechanical properties :
#
#
# Convention : Reuss Voigt Hill
#
# Bulk Modulus (GPa) = 47.89240 48.41194 48.15217
# Shear Modulus (GPa) = 8.07222 18.50043 13.28633
#
# Velocity S-wave (km/s) = 2.06768 3.13024 2.65270
# Velocity P-wave (km/s) = 5.57365 6.22133 5.90637
#
# Compressibility (1/GPa) = 0.02088014
#
# Stress axis : x y z
#
# Youngs Moduli (GPa) = 61.19955 62.75821 59.13949
#
# Poissons Ratio (x) = 0.27079 0.21335
# Poissons Ratio (y) = 0.26406 0.36839
# Poissons Ratio (z) = 0.22078 0.39093
#
# Static dielectric constant tensor:
#      x y z
#    x 1.679270 0.000000 0.000000 
#    y 0.000000 1.687380 0.000000 
#    z 0.000000 0.000000 1.620050 
# 
# From -- ./inp_files/8671.got.cif
#   From: 2010.05.17/outbox.cif.g08.bks.cpg/sg51_5_cif.got.tgz:8671.got - 2010.06.03 11:52:47.
