data_PCOD9405207
_publ_section_title
;
Structure prediction by ZEFSAII (Michael W. Deem and Ramdas Pophale) SiO2 
 PCOD9405207
Probable space group: P M M A
;
_chemical_formula_sum "Si O2"
_cell_formula_units_Z 64
_cell_length_a 18.406595
_cell_length_b 14.125540
_cell_length_c 11.968692
_cell_angle_alpha 90.000000
_cell_angle_beta 90.000000
_cell_angle_gamma 90.000000
_cell_volume 3111.896950
_symmetry_space_group_name_H-M "P M M A"
_symmetry_group_IT_number 51
_symmetry_cell_setting 'orthorhombic'
loop_
_space_group_symop_operation_xyz
x,y,z
1/2-x,-y,z
1/2+x,-y,-z
-x,y,-z
-x,-y,-z
1/2+x,y,-z
1/2-x,y,z
x,-y,z
loop_
_atom_site_type_symbol
_atom_site_label
_atom_site_fract_x
_atom_site_fract_y
_atom_site_fract_z
Si Si1 0.038140 0.612735 0.252742
Si Si2 0.831310 0.384840 0.584481
Si Si3 0.425884 0.113026 0.699686
Si Si4 0.571544 0.756732 0.938394
Si Si5 0.668478 0.115144 0.510974
Si Si6 0.876427 0.387280 0.335325
Si Si7 0.332999 0.753028 0.852376
Si Si8 0.405099 0.886637 0.261074
O O1 0.042277 0.500000 0.232515
O O2 0.105577 0.642483 0.330224
O O3 0.043322 0.670721 0.138473
O O4 0.962263 0.630624 0.316038
O O5 0.750000 0.353652 0.614795
O O6 0.831421 0.500000 0.584465
O O7 0.850492 0.356598 0.457915
O O8 0.389767 0.142786 0.582497
O O9 0.381264 0.164626 0.796366
O O10 0.511129 0.134629 0.705821
O O11 0.418385 0.000000 0.710021
O O12 0.606863 0.832145 0.854104
O O13 0.500000 0.797341 0.000000
O O14 0.628567 0.725937 0.032019
O O15 0.750000 0.146490 0.482127
O O16 0.645153 0.143230 0.635356
O O17 0.668551 0.000000 0.511132
O O18 0.864353 0.500000 0.326639
O O19 0.836964 0.331909 0.236719
O O20 0.250000 0.782333 0.868428
O O21 0.398197 0.000000 0.246961
#
# Coordination Sequence:
#
# PCOD9405207 Si02
#       8
#     8   8   8   8   8   8   8   8
#     4  10  21  38  64  88 115 156 199 240 291 348
#     4   9  18  34  58  91 126 154 188 237 294 355
#     4  10  20  38  63  89 119 155 192 237 292 353
#     4  12  24  43  59  82 115 154 202 250 287 336
#     4   9  18  34  58  91 126 154 188 237 294 355
#     4  10  20  38  63  89 119 155 192 237 292 353
#     4  12  26  41  59  87 117 152 200 248 293 345
#     4  10  21  38  64  88 115 156 199 240 291 348
#
# _framework density 20.566234000000001
#
# number of rings (size 3 to 8) (size 9 to 14) (size 15 to 20)
#    0.000    1.750    2.500    1.500    0.000    8.000 
#    0.000    3.750    0.000    0.000    0.000    0.000 
#    0.000    0.000    0.000    0.000    0.000    0.000 
#
# Total GULP energy -357890.313810 kJ/mol
# GULP energy per Si atom -5592.036153 kJ/mol
# Density = 2.051942 g / cm^3
# Si number density = 20.566234 Si / 1000 Ang^3
#
#
#
# Elastic Constant Matrix: (Units=GPa)
#
#
# Indices 1 2 3 4 5 6 
#
# 1 76.5250 -5.0494 24.0557 0.0000 0.0000 0.0000
# 2 -5.0494 45.0816 -3.5263 0.0000 0.0000 0.0000
# 3 24.0557 -3.5263 98.8107 0.0000 0.0000 0.0000
# 4 0.0000 0.0000 0.0000 34.6948 0.0000 0.0000
# 5 0.0000 0.0000 0.0000 0.0000 14.9459 0.0000
# 6 0.0000 0.0000 0.0000 0.0000 0.0000 6.9886
#
#
#
# Elastic Compliance Matrix: (Units=1/GPa)
#
#
# Indices 1 2 3 4 5 6 
#
# 1 0.014229 0.001327 -0.003417 0.000000 0.000000 0.000000
# 2 0.001327 0.022368 0.000475 0.000000 0.000000 0.000000
# 3 -0.003417 0.000475 0.010969 0.000000 0.000000 0.000000
# 4 0.000000 0.000000 0.000000 0.028823 0.000000 0.000000
# 5 0.000000 0.000000 0.000000 0.000000 0.066908 0.000000
# 6 0.000000 0.000000 0.000000 0.000000 0.000000 0.143090
#
#
# Mechanical properties :
#
#
# Convention : Reuss Voigt Hill
#
# Bulk Modulus (GPa) = 22.55496 27.93081 25.24288
# Shear Modulus (GPa) = 16.42601 24.98836 20.70718
#
# Velocity S-wave (km/s) = 2.82917 3.48949 3.17654
# Velocity P-wave (km/s) = 4.65436 5.46313 5.07488
#
# Compressibility (1/GPa) = 0.04433615
#
# Stress axis : x y z
#
# Youngs Moduli (GPa) = 70.27791 44.70720 91.16481
#
# Poissons Ratio (x) = -0.05930 0.31149
# Poissons Ratio (y) = -0.09322 -0.04333
# Poissons Ratio (z) = 0.24013 -0.02125
#
# Static dielectric constant tensor:
#      x y z
#    x 1.715240 0.000000 0.000000 
#    y 0.000000 1.772320 0.000000 
#    z 0.000000 0.000000 1.692200 
# 
# From -- ./inp_files/17528.got.cif
#   From: 2010.05.17/outbox.cif.g08.bks.cpg/sg51_9_cif.got.tgz:17528.got - 2010.06.03 11:52:47.
