data_PCOD9405709
_publ_section_title
;
Structure prediction by ZEFSAII (Michael W. Deem and Ramdas Pophale) SiO2 
 PCOD9405709
Probable space group: P M M A
;
_chemical_formula_sum "Si O2"
_cell_formula_units_Z 48
_cell_length_a 9.160432
_cell_length_b 9.314648
_cell_length_c 31.669493
_cell_angle_alpha 90.000000
_cell_angle_beta 90.000000
_cell_angle_gamma 90.000000
_cell_volume 2702.237481
_symmetry_space_group_name_H-M "P M M A"
_symmetry_group_IT_number 51
_symmetry_cell_setting 'orthorhombic'
loop_
_space_group_symop_operation_xyz
x,y,z
1/2-x,-y,z
1/2+x,-y,-z
-x,y,-z
-x,-y,-z
1/2+x,y,-z
1/2-x,y,z
x,-y,z
loop_
_atom_site_type_symbol
_atom_site_label
_atom_site_fract_x
_atom_site_fract_y
_atom_site_fract_z
Si Si1 0.925902 0.167949 0.128637
Si Si2 0.574382 0.331849 0.794137
Si Si3 0.421619 0.672260 0.456269
Si Si4 0.421726 0.172158 0.621017
Si Si5 0.075057 0.668437 0.956384
Si Si6 0.423791 0.830184 0.291593
O O1 0.750000 0.180634 0.131900
O O2 0.969847 0.239661 0.084188
O O3 0.998966 0.250527 0.167327
O O4 0.963849 0.000000 0.129526
O O5 0.750000 0.318569 0.798102
O O6 0.537010 0.500000 0.794501
O O7 0.533128 0.259321 0.749610
O O8 0.500000 0.713707 0.500000
O O9 0.250000 0.706308 0.458315
O O10 0.436756 0.500000 0.451612
O O11 0.496008 0.749488 0.416852
O O12 0.250000 0.205311 0.619993
O O13 0.490552 0.212140 0.666235
O O14 0.439359 0.000000 0.616545
O O15 0.250000 0.679868 0.960948
O O16 0.039728 0.500000 0.949197
O O17 0.000000 0.713727 0.000000
O O18 0.250000 0.810878 0.298621
O O19 0.449062 0.000000 0.283794
#
# Coordination Sequence:
#
# PCOD9405709 Si02
#       6
#     8   8   8   8   8   8
#     4  10  21  36  54  77 106 140 177 217 262 312
#     4  10  21  36  55  80 108 138 175 218 263 314
#     4  10  21  37  57  80 107 141 180 222 268 316
#     4  10  21  36  55  81 111 142 177 217 262 314
#     4   9  18  33  52  74 102 136 173 214 260 310
#     4   9  18  34  54  75 104 141 177 215 260 309
#
# _framework density 17.763057
#
# number of rings (size 3 to 8) (size 9 to 14) (size 15 to 20)
#    0.000    2.333    0.000    2.000    0.000    6.667 
#    0.000    5.000    0.000    0.000    0.000    0.000 
#    0.000    0.000    0.000    0.000    0.000    0.000 
#
# Total GULP energy -267987.215564 kJ/mol
# GULP energy per Si atom -5583.066991 kJ/mol
# Density = 1.772263 g / cm^3
# Si number density = 17.763057 Si / 1000 Ang^3
#
#
#
# Elastic Constant Matrix: (Units=GPa)
#
#
# Indices 1 2 3 4 5 6 
#
# 1 66.7491 61.7043 92.6150 0.0000 0.0000 0.0000
# 2 61.7043 90.4003 110.2424 0.0000 0.0000 0.0000
# 3 92.6150 110.2424 223.5892 0.0000 0.0000 0.0000
# 4 0.0000 0.0000 0.0000 41.8521 0.0000 0.0000
# 5 0.0000 0.0000 0.0000 0.0000 41.3578 0.0000
# 6 0.0000 0.0000 0.0000 0.0000 0.0000 25.4706
#
#
#
# Elastic Compliance Matrix: (Units=1/GPa)
#
#
# Indices 1 2 3 4 5 6 
#
# 1 0.047062 -0.020943 -0.009168 0.000000 0.000000 0.000000
# 2 -0.020943 0.037063 -0.009599 0.000000 0.000000 0.000000
# 3 -0.009168 -0.009599 0.013003 0.000000 0.000000 0.000000
# 4 0.000000 0.000000 0.000000 0.023894 0.000000 0.000000
# 5 0.000000 0.000000 0.000000 0.000000 0.024179 0.000000
# 6 0.000000 0.000000 0.000000 0.000000 0.000000 0.039261
#
#
# Mechanical properties :
#
#
# Convention : Reuss Voigt Hill
#
# Bulk Modulus (GPa) = 56.47139 101.09579 78.78359
# Shear Modulus (GPa) = 18.53325 29.48121 24.00723
#
# Velocity S-wave (km/s) = 3.23361 4.07835 3.68030
# Velocity P-wave (km/s) = 6.76773 8.90024 7.90622
#
# Compressibility (1/GPa) = 0.01770808
#
# Stress axis : x y z
#
# Youngs Moduli (GPa) = 21.24844 26.98110 76.90435
#
# Poissons Ratio (x) = 0.56506 0.70507
# Poissons Ratio (y) = 0.44500 0.73823
# Poissons Ratio (z) = 0.19481 0.25900
#
# Static dielectric constant tensor:
#      x y z
#    x 1.594380 0.000000 0.000000 
#    y 0.000000 1.595120 0.000000 
#    z 0.000000 0.000000 1.567320 
# 
# From -- ./inp_files/36876.got.cif
#   From: 2010.05.17/outbox.cif.g08.bks.cpg/sg51_19_cif.got.tgz:36876.got - 2010.06.03 11:52:47.
