data_PCOD9405881
_publ_section_title
;
Structure prediction by ZEFSAII (Michael W. Deem and Ramdas Pophale) SiO2 
 PCOD9405881
Probable space group: P M M A
;
_chemical_formula_sum "Si O2"
_cell_formula_units_Z 52
_cell_length_a 8.893624
_cell_length_b 15.657933
_cell_length_c 23.479915
_cell_angle_alpha 90.000000
_cell_angle_beta 90.000000
_cell_angle_gamma 90.000000
_cell_volume 3269.713613
_symmetry_space_group_name_H-M "P M M A"
_symmetry_group_IT_number 51
_symmetry_cell_setting 'orthorhombic'
loop_
_space_group_symop_operation_xyz
x,y,z
1/2-x,-y,z
1/2+x,-y,-z
-x,y,-z
-x,-y,-z
1/2+x,y,-z
1/2-x,y,z
x,-y,z
loop_
_atom_site_type_symbol
_atom_site_label
_atom_site_fract_x
_atom_site_fract_y
_atom_site_fract_z
Si Si1 0.578183 0.603710 0.057611
Si Si2 0.424113 0.326951 0.400154
Si Si3 0.930607 0.903782 0.677114
Si Si4 0.076892 0.267785 0.269278
Si Si5 0.929288 0.500000 0.437541
Si Si6 0.429834 0.154701 0.558955
Si Si7 0.431988 0.401222 0.816016
O O1 0.750000 0.632953 0.056372
O O2 0.578895 0.500000 0.055807
O O3 0.513639 0.623312 0.120147
O O4 0.500000 0.634106 0.000000
O O5 0.250000 0.331716 0.419512
O O6 0.424262 0.303731 0.333595
O O7 0.508127 0.415501 0.408025
O O8 0.509981 0.251584 0.432947
O O9 0.750000 0.891786 0.668307
O O10 0.979350 0.829417 0.720848
O O11 0.009611 0.891311 0.615934
O O12 0.956386 0.000000 0.697500
O O13 0.250000 0.264928 0.249457
O O14 0.987341 0.331931 0.229045
O O15 0.750000 0.500000 0.439465
O O16 0.000000 0.500000 0.500000
O O17 0.500000 0.120825 0.500000
O O18 0.250000 0.151881 0.556597
O O19 0.250000 0.402039 0.817405
O O20 0.478975 0.500000 0.803554
#
# Coordination Sequence:
#
# PCOD9405881 Si02
#       7
#     8   8   8   8   4   8   8
#     4   8  14  25  40  60  89 125 164 199 231 264
#     4  10  21  37  51  66  91 121 154 195 238 279
#     4   9  19  37  56  72  93 121 152 191 241 291
#     4   9  19  33  50  71  93 120 155 194 233 275
#     4  12  24  36  50  68  88 116 155 196 239 284
#     4  11  21  34  52  73  95 118 147 184 232 289
#     4   9  18  30  44  66  98 134 165 195 230 272
#
# _framework density 15.903532999999999
#
# number of rings (size 3 to 8) (size 9 to 14) (size 15 to 20)
#    0.000    2.462    0.000    4.846    1.077    4.615 
#    0.000    1.538    0.000    0.000    0.000    0.000 
#    0.000    0.615    0.000    1.385    0.000    2.154 
#
# Total GULP energy -289823.996466 kJ/mol
# GULP energy per Si atom -5573.538394 kJ/mol
# Density = 1.586734 g / cm^3
# Si number density = 15.903533 Si / 1000 Ang^3
#
#
#
# Elastic Constant Matrix: (Units=GPa)
#
#
# Indices 1 2 3 4 5 6 
#
# 1 67.1727 31.1269 27.8203 0.0000 0.0000 0.0000
# 2 31.1269 102.1871 39.2579 0.0000 0.0000 0.0000
# 3 27.8203 39.2579 82.8249 0.0000 0.0000 0.0000
# 4 0.0000 0.0000 0.0000 8.5689 0.0000 0.0000
# 5 0.0000 0.0000 0.0000 0.0000 26.7063 0.0000
# 6 0.0000 0.0000 0.0000 0.0000 0.0000 16.8761
#
#
#
# Elastic Compliance Matrix: (Units=1/GPa)
#
#
# Indices 1 2 3 4 5 6 
#
# 1 0.018526 -0.003977 -0.004338 0.000000 0.000000 0.000000
# 2 -0.003977 0.012818 -0.004740 0.000000 0.000000 0.000000
# 3 -0.004338 -0.004740 0.015777 0.000000 0.000000 0.000000
# 4 0.000000 0.000000 0.000000 0.116701 0.000000 0.000000
# 5 0.000000 0.000000 0.000000 0.000000 0.037444 0.000000
# 6 0.000000 0.000000 0.000000 0.000000 0.000000 0.059256
#
#
# Mechanical properties :
#
#
# Convention : Reuss Voigt Hill
#
# Bulk Modulus (GPa) = 47.58996 49.84386 48.71691
# Shear Modulus (GPa) = 17.02784 20.69557 18.86170
#
# Velocity S-wave (km/s) = 3.27570 3.61129 3.44758
# Velocity P-wave (km/s) = 6.65553 6.98556 6.82254
#
# Compressibility (1/GPa) = 0.02101283
#
# Stress axis : x y z
#
# Youngs Moduli (GPa) = 53.97712 78.01366 63.38174
#
# Poissons Ratio (x) = 0.31024 0.27495
# Poissons Ratio (y) = 0.21465 0.30043
# Poissons Ratio (z) = 0.23415 0.36978
#
# Static dielectric constant tensor:
#      x y z
#    x 1.542610 0.000000 0.000000 
#    y 0.000000 1.534570 0.000000 
#    z 0.000000 0.000000 1.514800 
# 
# From -- ./inp_files/31785.got.cif
#   From: 2010.05.17/outbox.cif.g08.bks.cpg/sg51_16_cif.got.tgz:31785.got - 2010.06.03 11:52:47.
