data_PCOD9405136
_publ_section_title
;
Structure prediction by ZEFSAII (Michael W. Deem and Ramdas Pophale) SiO2 
 PCOD9405136
Probable space group: P M M A
;
_chemical_formula_sum "Si O2"
_cell_formula_units_Z 58
_cell_length_a 19.712317
_cell_length_b 7.578165
_cell_length_c 17.828702
_cell_angle_alpha 90.000000
_cell_angle_beta 90.000000
_cell_angle_gamma 90.000000
_cell_volume 2663.308392
_symmetry_space_group_name_H-M "P M M A"
_symmetry_group_IT_number 51
_symmetry_cell_setting 'orthorhombic'
loop_
_space_group_symop_operation_xyz
x,y,z
1/2-x,-y,z
1/2+x,-y,-z
-x,y,-z
-x,-y,-z
1/2+x,y,-z
1/2-x,y,z
x,-y,z
loop_
_atom_site_type_symbol
_atom_site_label
_atom_site_fract_x
_atom_site_fract_y
_atom_site_fract_z
Si Si1 0.174574 0.792388 0.751791
Si Si2 0.058847 0.285556 0.313088
Si Si3 0.917512 0.293503 0.852224
Si Si4 0.173099 0.794246 0.010203
Si Si5 0.573508 0.785513 0.119992
Si Si6 0.367444 0.288790 0.467814
Si Si7 0.250000 0.000000 0.487527
Si Si8 0.418395 0.289581 0.624680
O O1 0.250000 0.717119 0.762978
O O2 0.115768 0.723717 0.806852
O O3 0.149035 0.774172 0.666734
O O4 0.179096 0.000000 0.768702
O O5 0.055007 0.500000 0.307590
O O6 0.084300 0.220939 0.232639
O O7 0.104110 0.248518 0.385384
O O8 0.983779 0.217620 0.332254
O O9 0.901708 0.500000 0.849461
O O10 0.863301 0.215132 0.909474
O O11 0.995500 0.273492 0.879513
O O12 0.250000 0.720225 0.008804
O O13 0.179733 0.000000 0.990047
O O14 0.118894 0.722013 0.950121
O O15 0.570127 0.000000 0.119255
O O16 0.350555 0.500000 0.470084
O O17 0.307834 0.155724 0.484675
O O18 0.419685 0.257150 0.536257
O O19 0.418691 0.500000 0.633717
#
# Coordination Sequence:
#
# PCOD9405136 Si02
#       8
#     8   8   8   8   8   8   2   8
#     4  10  21  34  54  86 125 160 197 252 307 364
#     4   9  19  41  64  86 120 161 208 258 316 375
#     4  11  22  38  62  91 122 157 200 257 316 367
#     4  10  22  41  62  85 119 162 207 252 307 376
#     4  10  20  38  61  87 118 162 204 250 308 371
#     4  10  23  43  66  91 127 172 213 267 323 372
#     4  12  26  44  62  98 128 168 220 270 308 402
#     4  10  20  37  63  88 119 165 209 250 312 376
#
# _framework density 21.777425000000001
#
# number of rings (size 3 to 8) (size 9 to 14) (size 15 to 20)
#    0.000    1.931    1.379    1.862    1.931    6.069 
#    4.966    0.690    0.000    2.483    0.000    0.000 
#    0.000    0.000    0.000    0.000    0.000    0.000 
#
# Total GULP energy -323281.875390 kJ/mol
# GULP energy per Si atom -5573.825438 kJ/mol
# Density = 2.172786 g / cm^3
# Si number density = 21.777425 Si / 1000 Ang^3
#
#
#
# Elastic Constant Matrix: (Units=GPa)
#
#
# Indices 1 2 3 4 5 6 
#
# 1 43.6097 -0.9578 12.7194 0.0000 0.0000 0.0000
# 2 -0.9578 47.8966 0.2810 0.0000 0.0000 0.0000
# 3 12.7194 0.2810 114.8925 0.0000 0.0000 0.0000
# 4 0.0000 0.0000 0.0000 18.5662 0.0000 0.0000
# 5 0.0000 0.0000 0.0000 0.0000 -112.0811 0.0000
# 6 0.0000 0.0000 0.0000 0.0000 0.0000 9.5947
#
#
#
# Elastic Compliance Matrix: (Units=1/GPa)
#
#
# Indices 1 2 3 4 5 6 
#
# 1 0.023707 0.000489 -0.002626 0.000000 0.000000 0.000000
# 2 0.000489 0.020889 -0.000105 0.000000 0.000000 0.000000
# 3 -0.002626 -0.000105 0.008995 0.000000 0.000000 0.000000
# 4 0.000000 0.000000 0.000000 0.053861 0.000000 0.000000
# 5 0.000000 0.000000 0.000000 0.000000 -0.008922 0.000000
# 6 0.000000 0.000000 0.000000 0.000000 0.000000 0.104224
#
#
# Mechanical properties :
#
#
# Convention : Reuss Voigt Hill
#
# Bulk Modulus (GPa) = 20.36346 25.60932 22.98639
# Shear Modulus (GPa) = 22.36072 -3.82695 9.26688
#
# Velocity S-wave (km/s) = 3.20782 -1.32707 2.06507
# Velocity P-wave (km/s) = 4.80533 3.07196 4.03287
#
# Compressibility (1/GPa) = 0.04910758
#
# Stress axis : x y z
#
# Youngs Moduli (GPa) = 42.18119 47.87278 111.17613
#
# Poissons Ratio (x) = -0.02343 0.29192
# Poissons Ratio (y) = -0.02065 0.01170
# Poissons Ratio (z) = 0.11076 0.00504
#
# Static dielectric constant tensor:
#      x y z
#    x 1.763910 0.000000 0.000000 
#    y 0.000000 1.805350 0.000000 
#    z 0.000000 0.000000 1.814400 
# 
# From -- ./inp_files/30204.got.cif
#   From: 2010.05.17/outbox.cif.g08.bks.cpg/sg51_16_cif.got.tgz:30204.got - 2010.06.03 11:52:47.
