data_PCOD9405143
_publ_section_title
;
Structure prediction by ZEFSAII (Michael W. Deem and Ramdas Pophale) SiO2 
 PCOD9405143
Probable space group: P M M A
;
_chemical_formula_sum "Si O2"
_cell_formula_units_Z 48
_cell_length_a 8.680598
_cell_length_b 10.060072
_cell_length_c 29.539467
_cell_angle_alpha 90.000000
_cell_angle_beta 90.000000
_cell_angle_gamma 90.000000
_cell_volume 2579.606058
_symmetry_space_group_name_H-M "P M M A"
_symmetry_group_IT_number 51
_symmetry_cell_setting 'orthorhombic'
loop_
_space_group_symop_operation_xyz
x,y,z
1/2-x,-y,z
1/2+x,-y,-z
-x,y,-z
-x,-y,-z
1/2+x,y,-z
1/2-x,y,z
x,-y,z
loop_
_atom_site_type_symbol
_atom_site_label
_atom_site_fract_x
_atom_site_fract_y
_atom_site_fract_z
Si Si1 0.934118 0.250685 0.104381
Si Si2 0.066971 0.157207 0.196195
Si Si3 0.065009 0.154056 0.704049
Si Si4 0.565239 0.000000 0.949313
Si Si5 0.565037 0.151786 0.449379
Si Si6 0.935081 0.344389 0.626675
Si Si7 0.934147 0.500000 0.949238
O O1 0.750000 0.251308 0.102421
O O2 0.989402 0.239747 0.156172
O O3 0.001964 0.125538 0.077711
O O4 0.003726 0.375096 0.078416
O O5 0.250000 0.180837 0.197268
O O6 0.994648 0.182162 0.245334
O O7 0.042531 0.000000 0.186284
O O8 0.250000 0.160363 0.702618
O O9 0.996255 0.260425 0.669420
O O10 0.020446 0.000000 0.693002
O O11 0.750000 0.000000 0.950048
O O12 0.500000 0.000000 0.000000
O O13 0.500000 0.166957 0.500000
O O14 0.750000 0.161561 0.449867
O O15 0.496996 0.263507 0.416672
O O16 0.525670 0.000000 0.434152
O O17 0.750000 0.341567 0.626540
O O18 0.983449 0.500000 0.627196
O O19 0.750000 0.500000 0.951278
O O20 0.000000 0.500000 0.000000
#
# Coordination Sequence:
#
# PCOD9405143 Si02
#       7
#     8   8   8   4   8   8   4
#     4  12  24  41  64  92 124 159 201 250 303 361
#     4  10  20  37  63  93 124 157 198 247 303 361
#     4  10  21  38  62  90 119 154 199 249 303 361
#     4  12  24  40  62  92 124 160 202 248 303 358
#     4  10  21  38  62  91 121 157 203 252 303 360
#     4  11  24  40  58  85 122 162 205 251 303 360
#     4  12  26  46  66  88 122 162 204 248 299 364
#
# _framework density 18.607492000000001
#
# number of rings (size 3 to 8) (size 9 to 14) (size 15 to 20)
#    0.000    1.167    0.833    6.000    0.000    6.333 
#    1.500    0.000    0.000    0.000    0.000    0.000 
#    0.000    0.000    0.000    0.000    0.000    0.000 
#
# Total GULP energy -268392.829096 kJ/mol
# GULP energy per Si atom -5591.517273 kJ/mol
# Density = 1.856514 g / cm^3
# Si number density = 18.607492 Si / 1000 Ang^3
#
#
#
# Elastic Constant Matrix: (Units=GPa)
#
#
# Indices 1 2 3 4 5 6 
#
# 1 132.5685 76.9016 67.7431 0.0000 0.0000 0.0000
# 2 76.9016 180.5167 109.1710 0.0000 0.0000 0.0000
# 3 67.7431 109.1710 154.5936 0.0000 0.0000 0.0000
# 4 0.0000 0.0000 0.0000 18.5170 0.0000 0.0000
# 5 0.0000 0.0000 0.0000 0.0000 41.6726 0.0000
# 6 0.0000 0.0000 0.0000 0.0000 0.0000 31.3942
#
#
#
# Elastic Compliance Matrix: (Units=1/GPa)
#
#
# Indices 1 2 3 4 5 6 
#
# 1 0.010558 -0.002967 -0.002531 0.000000 0.000000 0.000000
# 2 -0.002967 0.010503 -0.006117 0.000000 0.000000 0.000000
# 3 -0.002531 -0.006117 0.011897 0.000000 0.000000 0.000000
# 4 0.000000 0.000000 0.000000 0.054005 0.000000 0.000000
# 5 0.000000 0.000000 0.000000 0.000000 0.023997 0.000000
# 6 0.000000 0.000000 0.000000 0.000000 0.000000 0.031853
#
#
# Mechanical properties :
#
#
# Convention : Reuss Voigt Hill
#
# Bulk Modulus (GPa) = 102.79548 108.36780 105.58164
# Shear Modulus (GPa) = 29.53603 32.57430 31.05516
#
# Velocity S-wave (km/s) = 3.98844 4.18856 4.08972
# Velocity P-wave (km/s) = 8.75067 9.04197 8.89751
#
# Compressibility (1/GPa) = 0.00972805
#
# Stress axis : x y z
#
# Youngs Moduli (GPa) = 94.71648 95.21253 84.05224
#
# Poissons Ratio (x) = 0.28248 0.21276
# Poissons Ratio (y) = 0.28101 0.51413
# Poissons Ratio (z) = 0.23976 0.58240
#
# Static dielectric constant tensor:
#      x y z
#    x 1.616440 0.000000 0.000000 
#    y 0.000000 1.610460 0.000000 
#    z 0.000000 0.000000 1.620020 
# 
# From -- ./inp_files/37199.got.cif
#   From: 2010.05.17/outbox.cif.g08.bks.cpg/sg51_19_cif.got.tgz:37199.got - 2010.06.03 11:52:47.
