data_PCOD9405519
_publ_section_title
;
Structure prediction by ZEFSAII (Michael W. Deem and Ramdas Pophale) SiO2 
 PCOD9405519
Probable space group: P M M A
;
_chemical_formula_sum "Si O2"
_cell_formula_units_Z 56
_cell_length_a 17.985793
_cell_length_b 19.837280
_cell_length_c 8.206904
_cell_angle_alpha 90.000000
_cell_angle_beta 90.000000
_cell_angle_gamma 90.000000
_cell_volume 2928.134809
_symmetry_space_group_name_H-M "P M M A"
_symmetry_group_IT_number 51
_symmetry_cell_setting 'orthorhombic'
loop_
_space_group_symop_operation_xyz
x,y,z
1/2-x,-y,z
1/2+x,-y,-z
-x,y,-z
-x,-y,-z
1/2+x,y,-z
1/2-x,y,z
x,-y,z
loop_
_atom_site_type_symbol
_atom_site_label
_atom_site_fract_x
_atom_site_fract_y
_atom_site_fract_z
Si Si1 0.893232 0.425101 0.356410
Si Si2 0.059738 0.425906 0.263905
Si Si3 0.468582 0.078023 0.317869
Si Si4 0.832127 0.312876 0.847424
Si Si5 0.331434 0.712535 0.765163
Si Si6 0.064408 0.182467 0.883486
Si Si7 0.162714 0.160592 0.189264
O O1 0.861502 0.500000 0.319660
O O2 0.915937 0.425400 0.546294
O O3 0.845863 0.359144 0.318763
O O4 0.971028 0.418048 0.259335
O O5 0.078707 0.500000 0.196347
O O6 0.104325 0.366081 0.183984
O O7 0.500000 0.081287 0.500000
O O8 0.523531 0.121201 0.204410
O O9 0.388357 0.113392 0.299587
O O10 0.464458 0.000000 0.267682
O O11 0.750000 0.337184 0.794569
O O12 0.846002 0.239954 0.766581
O O13 0.829101 0.300469 0.040642
O O14 0.250000 0.739076 0.715122
O O15 0.398537 0.766099 0.755106
O O16 0.128358 0.156757 0.006569
O O17 0.000000 0.214905 0.000000
O O18 0.250000 0.145041 0.191355
#
# Coordination Sequence:
#
# PCOD9405519 Si02
#       7
#     8   8   8   8   8   8   8
#     4   9  20  35  50  71 102 140 179 224 270 318
#     4   9  19  35  51  71 101 138 184 225 264 321
#     4  10  22  39  58  85 118 149 182 223 272 327
#     4   9  19  34  52  77 107 135 173 224 272 315
#     4  10  21  35  53  79 109 137 173 223 273 320
#     4   9  19  35  59  84 109 143 184 223 268 323
#     4   9  19  37  59  83 114 149 185 230 276 326
#
# _framework density 19.124803
#
# number of rings (size 3 to 8) (size 9 to 14) (size 15 to 20)
#    0.000    2.714    0.000    2.143    6.000    5.714 
#    0.000    7.143    0.000    3.000    0.000    0.000 
#    0.000    0.000    0.000    0.000    0.000    0.000 
#
# Total GULP energy -312196.795035 kJ/mol
# GULP energy per Si atom -5574.942768 kJ/mol
# Density = 1.908127 g / cm^3
# Si number density = 19.124803 Si / 1000 Ang^3
#
#
#
# Elastic Constant Matrix: (Units=GPa)
#
#
# Indices 1 2 3 4 5 6 
#
# 1 100.6739 46.9089 9.8552 0.0000 0.0000 0.0000
# 2 46.9089 74.7527 8.3081 0.0000 0.0000 0.0000
# 3 9.8552 8.3081 5.6595 0.0000 0.0000 0.0000
# 4 0.0000 0.0000 0.0000 24.6387 0.0000 0.0000
# 5 0.0000 0.0000 0.0000 0.0000 15.3514 0.0000
# 6 0.0000 0.0000 0.0000 0.0000 0.0000 10.7521
#
#
#
# Elastic Compliance Matrix: (Units=1/GPa)
#
#
# Indices 1 2 3 4 5 6 
#
# 1 0.014995 -0.007776 -0.014696 0.000000 0.000000 0.000000
# 2 -0.007776 0.020018 -0.015845 0.000000 0.000000 0.000000
# 3 -0.014696 -0.015845 0.225546 0.000000 0.000000 0.000000
# 4 0.000000 0.000000 0.000000 0.040587 0.000000 0.000000
# 5 0.000000 0.000000 0.000000 0.000000 0.065140 0.000000
# 6 0.000000 0.000000 0.000000 0.000000 0.000000 0.093005
#
#
# Mechanical properties :
#
#
# Convention : Reuss Voigt Hill
#
# Bulk Modulus (GPa) = 5.43703 34.58116 20.00910
# Shear Modulus (GPa) = 8.37191 17.88270 13.12731
#
# Velocity S-wave (km/s) = 2.09452 3.06118 2.62277
# Velocity P-wave (km/s) = 2.94931 5.53313 4.43362
#
# Compressibility (1/GPa) = 0.18392379
#
# Stress axis : x y z
#
# Youngs Moduli (GPa) = 66.68839 49.95411 4.43369
#
# Poissons Ratio (x) = 0.38846 0.06516
# Poissons Ratio (y) = 0.51860 0.07025
# Poissons Ratio (z) = 0.98006 0.79153
#
# Static dielectric constant tensor:
#      x y z
#    x 1.693120 0.000000 0.000000 
#    y 0.000000 1.673830 0.000000 
#    z 0.000000 0.000000 1.679980 
# 
# From -- ./inp_files/9979.got.cif
#   From: 2010.05.17/outbox.cif.g08.bks.cpg/sg51_5_cif.got.tgz:9979.got - 2010.06.03 11:52:47.
