data_PCOD9405738
_publ_section_title
;
Structure prediction by ZEFSAII (Michael W. Deem and Ramdas Pophale) SiO2 
 PCOD9405738
Probable space group: P M M A
;
_chemical_formula_sum "Si O2"
_cell_formula_units_Z 28
_cell_length_a 9.026799
_cell_length_b 7.517007
_cell_length_c 20.329591
_cell_angle_alpha 90.000000
_cell_angle_beta 90.000000
_cell_angle_gamma 90.000000
_cell_volume 1379.454462
_symmetry_space_group_name_H-M "P M M A"
_symmetry_group_IT_number 51
_symmetry_cell_setting 'orthorhombic'
loop_
_space_group_symop_operation_xyz
x,y,z
1/2-x,-y,z
1/2+x,-y,-z
-x,y,-z
-x,-y,-z
1/2+x,y,-z
1/2-x,y,z
x,-y,z
loop_
_atom_site_type_symbol
_atom_site_label
_atom_site_fract_x
_atom_site_fract_y
_atom_site_fract_z
Si Si1 0.925631 0.713198 0.835163
Si Si2 0.917896 0.713251 0.299511
Si Si3 0.427651 0.000000 0.928144
Si Si4 0.082923 0.212677 0.435267
O O1 0.750000 0.746907 0.840069
O O2 0.949062 0.500000 0.842976
O O3 0.985178 0.768975 0.763144
O O4 0.013620 0.827985 0.888402
O O5 0.750000 0.782965 0.295763
O O6 0.910470 0.500000 0.295869
O O7 0.992713 0.756472 0.368743
O O8 0.250000 0.000000 0.931638
O O9 0.500000 0.000000 0.000000
O O10 0.250000 0.283197 0.429873
O O11 0.000000 0.282977 0.500000
O O12 0.093338 0.000000 0.443210
#
# Coordination Sequence:
#
# PCOD9405738 Si02
#       4
#     8   8   4   8
#     4  10  22  42  67  95 129 167 209 259 311 367
#     4  10  21  37  58  85 116 153 198 245 298 361
#     4  12  26  44  68  98 131 168 209 254 304 370
#     4  10  21  36  54  78 110 150 196 248 303 361
#
# _framework density 20.297878000000001
#
# number of rings (size 3 to 8) (size 9 to 14) (size 15 to 20)
#    0.000    1.714    0.000    3.857    2.000    6.286 
#    0.000    0.000    0.000    0.000    0.000    0.000 
#    0.000    0.000    0.000    0.000    0.000    0.000 
#
# Total GULP energy -156527.746107 kJ/mol
# GULP energy per Si atom -5590.276647 kJ/mol
# Density = 2.025168 g / cm^3
# Si number density = 20.297878 Si / 1000 Ang^3
#
#
#
# Elastic Constant Matrix: (Units=GPa)
#
#
# Indices 1 2 3 4 5 6 
#
# 1 208.0970 51.8296 106.3565 0.0000 0.0000 0.0000
# 2 51.8296 71.2766 42.8864 0.0000 0.0000 0.0000
# 3 106.3565 42.8864 196.8816 0.0000 0.0000 0.0000
# 4 0.0000 0.0000 0.0000 37.7836 0.0000 0.0000
# 5 0.0000 0.0000 0.0000 0.0000 42.8416 0.0000
# 6 0.0000 0.0000 0.0000 0.0000 0.0000 18.9105
#
#
#
# Elastic Compliance Matrix: (Units=1/GPa)
#
#
# Indices 1 2 3 4 5 6 
#
# 1 0.007279 -0.003369 -0.003198 0.000000 0.000000 0.000000
# 2 -0.003369 0.017705 -0.002037 0.000000 0.000000 0.000000
# 3 -0.003198 -0.002037 0.007251 0.000000 0.000000 0.000000
# 4 0.000000 0.000000 0.000000 0.026467 0.000000 0.000000
# 5 0.000000 0.000000 0.000000 0.000000 0.023342 0.000000
# 6 0.000000 0.000000 0.000000 0.000000 0.000000 0.052881
#
#
# Mechanical properties :
#
#
# Convention : Reuss Voigt Hill
#
# Bulk Modulus (GPa) = 66.54749 97.60003 82.07376
# Shear Modulus (GPa) = 31.81862 38.25264 35.03563
#
# Velocity S-wave (km/s) = 3.96357 4.34587 4.15911
# Velocity P-wave (km/s) = 7.33506 8.56565 7.97413
#
# Compressibility (1/GPa) = 0.01502686
#
# Stress axis : x y z
#
# Youngs Moduli (GPa) = 137.37840 56.48133 137.91749
#
# Poissons Ratio (x) = 0.19027 0.44112
# Poissons Ratio (y) = 0.46278 0.28092
# Poissons Ratio (z) = 0.43940 0.11505
#
# Static dielectric constant tensor:
#      x y z
#    x 1.707900 0.000000 0.000000 
#    y 0.000000 1.748740 0.000000 
#    z 0.000000 0.000000 1.672700 
# 
# From -- ./inp_files/26881.got.cif
#   From: 2010.05.17/outbox.cif.g08.bks.cpg/sg51_14_cif.got.tgz:26881.got - 2010.06.03 11:52:47.
