data_PCOD9405147
_publ_section_title
;
Structure prediction by ZEFSAII (Michael W. Deem and Ramdas Pophale) SiO2 
 PCOD9405147
Probable space group: P M M A
;
_chemical_formula_sum "Si O2"
_cell_formula_units_Z 28
_cell_length_a 8.987876
_cell_length_b 7.746447
_cell_length_c 20.630293
_cell_angle_alpha 90.000000
_cell_angle_beta 90.000000
_cell_angle_gamma 90.000000
_cell_volume 1436.365688
_symmetry_space_group_name_H-M "P M M A"
_symmetry_group_IT_number 51
_symmetry_cell_setting 'orthorhombic'
loop_
_space_group_symop_operation_xyz
x,y,z
1/2-x,-y,z
1/2+x,-y,-z
-x,y,-z
-x,-y,-z
1/2+x,y,-z
1/2-x,y,z
x,-y,z
loop_
_atom_site_type_symbol
_atom_site_label
_atom_site_fract_x
_atom_site_fract_y
_atom_site_fract_z
Si Si1 0.072715 0.500000 0.929227
Si Si2 0.069309 0.298283 0.293989
Si Si3 0.072153 0.805123 0.151684
Si Si4 0.422267 0.288785 0.434339
O O1 0.250000 0.500000 0.934126
O O2 0.015205 0.666210 0.889887
O O3 0.000000 0.500000 0.000000
O O4 0.250000 0.290628 0.297776
O O5 0.028699 0.500000 0.287369
O O6 0.026841 0.207274 0.227444
O O7 0.015316 0.232799 0.364146
O O8 0.250000 0.766856 0.148903
O O9 0.049228 0.000000 0.128502
O O10 0.500000 0.230415 0.500000
O O11 0.250000 0.238949 0.437879
O O12 0.428050 0.500000 0.433024
#
# Coordination Sequence:
#
# PCOD9405147 Si02
#       4
#     4   8   8   8
#     4  12  26  44  66  90 121 156 187 228 279 338
#     4   8  13  25  48  74 105 143 185 232 283 337
#     4  10  20  37  64  93 119 151 193 240 287 339
#     4   8  13  21  36  61  94 136 182 230 278 327
#
# _framework density 19.493642000000001
#
# number of rings (size 3 to 8) (size 9 to 14) (size 15 to 20)
#    0.000    2.857    1.429    3.000    0.000    1.143 
#    0.000    1.429    0.000    0.857    0.000    0.000 
#    0.000    0.000    0.000    0.000    0.000    0.000 
#
# Total GULP energy -156103.056631 kJ/mol
# GULP energy per Si atom -5575.109165 kJ/mol
# Density = 1.944927 g / cm^3
# Si number density = 19.493642 Si / 1000 Ang^3
#
#
#
# Elastic Constant Matrix: (Units=GPa)
#
#
# Indices 1 2 3 4 5 6 
#
# 1 63.6373 47.2994 68.6149 0.0000 0.0000 0.0000
# 2 47.2994 76.0163 64.5953 0.0000 0.0000 0.0000
# 3 68.6149 64.5953 177.5338 0.0000 0.0000 0.0000
# 4 0.0000 0.0000 0.0000 -14.8109 0.0000 0.0000
# 5 0.0000 0.0000 0.0000 0.0000 31.2653 0.0000
# 6 0.0000 0.0000 0.0000 0.0000 0.0000 5.1921
#
#
#
# Elastic Compliance Matrix: (Units=1/GPa)
#
#
# Indices 1 2 3 4 5 6 
#
# 1 0.036206 -0.015398 -0.008391 0.000000 0.000000 0.000000
# 2 -0.015398 0.025592 -0.003360 0.000000 0.000000 0.000000
# 3 -0.008391 -0.003360 0.010098 0.000000 0.000000 0.000000
# 4 0.000000 0.000000 0.000000 -0.067518 0.000000 0.000000
# 5 0.000000 0.000000 0.000000 0.000000 0.031984 0.000000
# 6 0.000000 0.000000 0.000000 0.000000 0.000000 0.192602
#
#
# Mechanical properties :
#
#
# Convention : Reuss Voigt Hill
#
# Bulk Modulus (GPa) = 56.82588 75.35627 66.09107
# Shear Modulus (GPa) = 17.29334 13.44114 15.36724
#
# Velocity S-wave (km/s) = 2.98170 2.62871 2.81075
# Velocity P-wave (km/s) = 6.40846 6.92490 6.67168
#
# Compressibility (1/GPa) = 0.01759762
#
# Stress axis : x y z
#
# Youngs Moduli (GPa) = 27.61972 39.07515 99.02783
#
# Poissons Ratio (x) = 0.60170 0.83090
# Poissons Ratio (y) = 0.42530 0.33275
# Poissons Ratio (z) = 0.23174 0.13130
#
# Static dielectric constant tensor:
#      x y z
#    x 1.656600 0.000000 0.000000 
#    y 0.000000 1.716490 0.000000 
#    z 0.000000 0.000000 1.707760 
# 
# From -- ./inp_files/31059.got.cif
#   From: 2010.05.17/outbox.cif.g08.bks.cpg/sg51_16_cif.got.tgz:31059.got - 2010.06.03 11:52:47.
