data_PCOD9405752
_publ_section_title
;
Structure prediction by ZEFSAII (Michael W. Deem and Ramdas Pophale) SiO2 
 PCOD9405752
Probable space group: P M M A
;
_chemical_formula_sum "Si O2"
_cell_formula_units_Z 56
_cell_length_a 21.832617
_cell_length_b 14.793307
_cell_length_c 9.680770
_cell_angle_alpha 90.000000
_cell_angle_beta 90.000000
_cell_angle_gamma 90.000000
_cell_volume 3126.662237
_symmetry_space_group_name_H-M "P M M A"
_symmetry_group_IT_number 51
_symmetry_cell_setting 'orthorhombic'
loop_
_space_group_symop_operation_xyz
x,y,z
1/2-x,-y,z
1/2+x,-y,-z
-x,y,-z
-x,-y,-z
1/2+x,y,-z
1/2-x,y,z
x,-y,z
loop_
_atom_site_type_symbol
_atom_site_label
_atom_site_fract_x
_atom_site_fract_y
_atom_site_fract_z
Si Si1 0.011255 0.395076 0.334894
Si Si2 0.823145 0.107772 0.866095
Si Si3 0.822064 0.746499 0.397460
Si Si4 0.319483 0.393616 0.077558
Si Si5 0.625453 0.269078 0.701015
Si Si6 0.621290 0.393549 0.201963
Si Si7 0.175764 0.102290 0.814841
O O1 0.031249 0.500000 0.308066
O O2 0.060599 0.320439 0.291386
O O3 0.000000 0.388515 0.500000
O O4 0.947868 0.380053 0.253905
O O5 0.750000 0.126574 0.844922
O O6 0.864339 0.171436 0.770695
O O7 0.831294 0.000000 0.843708
O O8 0.838355 0.127301 0.026847
O O9 0.750000 0.758730 0.423436
O O10 0.856116 0.738598 0.541833
O O11 0.834574 0.658602 0.305700
O O12 0.845494 0.828504 0.301187
O O13 0.250000 0.380898 0.026176
O O14 0.328101 0.500000 0.106838
O O15 0.329863 0.334955 0.212940
O O16 0.365147 0.364931 0.955130
O O17 0.634276 0.500000 0.207492
O O18 0.250000 0.101879 0.809163
O O19 0.154602 0.000000 0.789441
#
# Coordination Sequence:
#
# PCOD9405752 Si02
#       7
#     8   8   8   8   8   8   8
#     4  10  21  40  60  78 108 152 203 247 278 324
#     4   9  18  34  56  82 114 150 184 226 287 353
#     4  11  21  31  51  83 112 142 183 230 287 344
#     4  10  21  36  54  82 118 148 179 230 294 353
#     4  12  22  34  55  83 118 149 185 234 292 336
#     4  10  21  38  58  77 105 149 196 236 275 329
#     4   8  16  33  55  78 108 146 184 221 267 333
#
# _framework density 17.910471999999999
#
# number of rings (size 3 to 8) (size 9 to 14) (size 15 to 20)
#    0.000    2.000    1.429    3.857    0.000    3.714 
#    0.000    3.571    0.000    1.286    0.000    3.000 
#    0.000    0.000    0.000    0.000    0.000    0.000 
#
# Total GULP energy -312418.662404 kJ/mol
# GULP energy per Si atom -5578.904686 kJ/mol
# Density = 1.786971 g / cm^3
# Si number density = 17.910472 Si / 1000 Ang^3
#
#
#
# Elastic Constant Matrix: (Units=GPa)
#
#
# Indices 1 2 3 4 5 6 
#
# 1 22.0255 17.7675 6.9185 0.0000 0.0000 0.0000
# 2 17.7675 70.9108 41.0935 0.0000 0.0000 0.0000
# 3 6.9185 41.0935 84.8093 0.0000 0.0000 0.0000
# 4 0.0000 0.0000 0.0000 25.2299 0.0000 0.0000
# 5 0.0000 0.0000 0.0000 0.0000 24.0001 0.0000
# 6 0.0000 0.0000 0.0000 0.0000 0.0000 24.6169
#
#
#
# Elastic Compliance Matrix: (Units=1/GPa)
#
#
# Indices 1 2 3 4 5 6 
#
# 1 0.057516 -0.016257 0.003185 0.000000 0.000000 0.000000
# 2 -0.016257 0.024203 -0.010401 0.000000 0.000000 0.000000
# 3 0.003185 -0.010401 0.016571 0.000000 0.000000 0.000000
# 4 0.000000 0.000000 0.000000 0.039636 0.000000 0.000000
# 5 0.000000 0.000000 0.000000 0.000000 0.041666 0.000000
# 6 0.000000 0.000000 0.000000 0.000000 0.000000 0.040623
#
#
# Mechanical properties :
#
#
# Convention : Reuss Voigt Hill
#
# Bulk Modulus (GPa) = 19.47650 34.36718 26.92184
# Shear Modulus (GPa) = 17.58858 22.23378 19.91118
#
# Velocity S-wave (km/s) = 3.13713 3.52715 3.33784
# Velocity P-wave (km/s) = 4.90103 5.98479 5.46982
#
# Compressibility (1/GPa) = 0.05134393
#
# Stress axis : x y z
#
# Youngs Moduli (GPa) = 17.38654 41.31683 60.34598
#
# Poissons Ratio (x) = 0.67169 -0.19221
# Poissons Ratio (y) = 0.28265 0.62767
# Poissons Ratio (z) = -0.05538 0.42974
#
# Static dielectric constant tensor:
#      x y z
#    x 1.604550 0.000000 0.000000 
#    y 0.000000 1.635370 0.000000 
#    z 0.000000 0.000000 1.604340 
# 
# From -- ./inp_files/10960.got.cif
#   From: 2010.05.17/outbox.cif.g08.bks.cpg/sg51_6_cif.got.tgz:10960.got - 2010.06.03 11:52:47.
