data_PCOD9405208
_publ_section_title
;
Structure prediction by ZEFSAII (Michael W. Deem and Ramdas Pophale) SiO2 
 PCOD9405208
Probable space group: P M M A
;
_chemical_formula_sum "Si O2"
_cell_formula_units_Z 40
_cell_length_a 29.648305
_cell_length_b 8.806954
_cell_length_c 7.938336
_cell_angle_alpha 90.000000
_cell_angle_beta 90.000000
_cell_angle_gamma 90.000000
_cell_volume 2072.788902
_symmetry_space_group_name_H-M "P M M A"
_symmetry_group_IT_number 51
_symmetry_cell_setting 'orthorhombic'
loop_
_space_group_symop_operation_xyz
x,y,z
1/2-x,-y,z
1/2+x,-y,-z
-x,y,-z
-x,-y,-z
1/2+x,y,-z
1/2-x,y,z
x,-y,z
loop_
_atom_site_type_symbol
_atom_site_label
_atom_site_fract_x
_atom_site_fract_y
_atom_site_fract_z
Si Si1 0.950315 0.683071 0.293865
Si Si2 0.354181 0.683447 0.169736
Si Si3 0.358097 0.819962 0.820504
Si Si4 0.802710 0.682594 0.488748
Si Si5 0.550186 0.683502 0.693409
O O1 0.947153 0.500000 0.273311
O O2 0.909229 0.759451 0.198940
O O3 0.945704 0.716599 0.493980
O O4 0.000871 0.733488 0.244439
O O5 0.354300 0.500000 0.154823
O O6 0.323807 0.723938 0.330446
O O7 0.405345 0.736073 0.211085
O O8 0.338954 0.754306 0.994748
O O9 0.330300 0.758404 0.661472
O O10 0.357563 0.000000 0.822121
O O11 0.750000 0.720779 0.481099
O O12 0.807545 0.500000 0.472045
O O13 0.549708 0.500000 0.704990
#
# Coordination Sequence:
#
# PCOD9405208 Si02
#       5
#     8   8   8   8   8
#     4   9  16  33  59  86 115 153 203 249 286 336
#     4  10  20  38  63  90 118 151 198 251 293 342
#     4  12  25  38  56  88 128 165 192 228 290 360
#     4  10  22  43  70  92 110 142 195 255 303 344
#     4   8  15  30  59  89 113 148 199 253 296 330
#
# _framework density 19.297671999999999
#
# number of rings (size 3 to 8) (size 9 to 14) (size 15 to 20)
#    0.000    2.200    2.000    3.000    0.000    2.800 
#    0.000    9.000    0.000    0.000    0.000    0.000 
#    0.000    0.000    0.000    0.000    0.000    0.000 
#
# Total GULP energy -223351.558794 kJ/mol
# GULP energy per Si atom -5583.788970 kJ/mol
# Density = 1.925375 g / cm^3
# Si number density = 19.297672 Si / 1000 Ang^3
#
#
#
# Elastic Constant Matrix: (Units=GPa)
#
#
# Indices 1 2 3 4 5 6 
#
# 1 69.8352 26.3432 20.9661 0.0000 0.0000 0.0000
# 2 26.3432 21.7293 24.1032 0.0000 0.0000 0.0000
# 3 20.9661 24.1032 81.7823 0.0000 0.0000 0.0000
# 4 0.0000 0.0000 0.0000 -88.2331 0.0000 0.0000
# 5 0.0000 0.0000 0.0000 0.0000 -2.3268 0.0000
# 6 0.0000 0.0000 0.0000 0.0000 0.0000 -8.0083
#
#
#
# Elastic Compliance Matrix: (Units=1/GPa)
#
#
# Indices 1 2 3 4 5 6 
#
# 1 0.027277 -0.037607 0.004091 0.000000 0.000000 0.000000
# 2 -0.037607 0.120222 -0.025791 0.000000 0.000000 0.000000
# 3 0.004091 -0.025791 0.018780 0.000000 0.000000 0.000000
# 4 0.000000 0.000000 0.000000 -0.011334 0.000000 0.000000
# 5 0.000000 0.000000 0.000000 0.000000 -0.429776 0.000000
# 6 0.000000 0.000000 0.000000 0.000000 0.000000 -0.124870
#
#
# Mechanical properties :
#
#
# Convention : Reuss Voigt Hill
#
# Bulk Modulus (GPa) = 20.97988 35.13018 28.05503
# Shear Modulus (GPa) = -18.85395 -12.91803 -15.88599
#
# Velocity S-wave (km/s) = -3.12910 -2.59010 -2.87227
# Velocity P-wave (km/s) = 1.46960 3.04944 1.88936
#
# Compressibility (1/GPa) = 0.04766472
#
# Stress axis : x y z
#
# Youngs Moduli (GPa) = 36.66044 8.31792 53.24760
#
# Poissons Ratio (x) = 0.31281 -0.21782
# Poissons Ratio (y) = 1.37869 1.37333
# Poissons Ratio (z) = -0.14997 0.21453
#
# Static dielectric constant tensor:
#      x y z
#    x 1.681200 0.000000 0.000000 
#    y 0.000000 1.641250 0.000000 
#    z 0.000000 0.000000 1.674170 
# 
# From -- ./inp_files/12109.got.cif
#   From: 2010.05.17/outbox.cif.g08.bks.cpg/sg51_7_cif.got.tgz:12109.got - 2010.06.03 11:52:47.
