data_PCOD9405479
_publ_section_title
;
Structure prediction by ZEFSAII (Michael W. Deem and Ramdas Pophale) SiO2 
 PCOD9405479
Probable space group: P M M A
;
_chemical_formula_sum "Si O2"
_cell_formula_units_Z 44
_cell_length_a 13.304966
_cell_length_b 7.139304
_cell_length_c 18.266588
_cell_angle_alpha 90.000000
_cell_angle_beta 90.000000
_cell_angle_gamma 90.000000
_cell_volume 1735.110259
_symmetry_space_group_name_H-M "P M M A"
_symmetry_group_IT_number 51
_symmetry_cell_setting 'orthorhombic'
loop_
_space_group_symop_operation_xyz
x,y,z
1/2-x,-y,z
1/2+x,-y,-z
-x,y,-z
-x,-y,-z
1/2+x,y,-z
1/2-x,y,z
x,-y,z
loop_
_atom_site_type_symbol
_atom_site_label
_atom_site_fract_x
_atom_site_fract_y
_atom_site_fract_z
Si Si1 0.362628 0.225537 0.309880
Si Si2 0.899766 0.500000 0.393736
Si Si3 0.919695 0.775394 0.262421
Si Si4 0.129524 0.780910 0.475757
Si Si5 0.577847 0.772866 0.103312
Si Si6 0.358066 0.772576 0.056651
O O1 0.250000 0.289487 0.290081
O O2 0.459629 0.269539 0.262278
O O3 0.389110 0.288495 0.392627
O O4 0.357081 0.000000 0.312425
O O5 0.879724 0.662308 0.330894
O O6 0.911002 0.661908 0.457744
O O7 0.880650 0.720136 0.182370
O O8 0.908143 0.000000 0.272217
O O9 0.250000 0.766086 0.482914
O O10 0.103684 0.000000 0.479487
O O11 0.461494 0.713300 0.093983
O O12 0.577891 0.000000 0.103276
O O13 0.633227 0.718310 0.028869
O O14 0.250000 0.712986 0.087038
O O15 0.359076 0.000000 0.059703
#
# Coordination Sequence:
#
# PCOD9405479 Si02
#       6
#     8   4   8   8   8   8
#     4   8  16  33  55  76 101 138 183 229 278 326
#     4  12  23  35  53  79 106 141 180 216 271 339
#     4  10  21  35  51  77 113 145 175 221 276 328
#     4   9  19  37  57  75  99 134 181 235 276 314
#     4   8  15  28  45  71 108 140 173 223 270 315
#     4   8  13  24  47  76 101 134 181 222 263 321
#
# _framework density 25.358616999999999
#
# number of rings (size 3 to 8) (size 9 to 14) (size 15 to 20)
#    0.000    3.091    0.000    3.000    0.000    2.909 
#    0.000    9.545    0.000    6.545    0.000    1.273 
#    0.000    0.000    0.000    0.000    0.000    0.364 
#
# Total GULP energy -244966.418824 kJ/mol
# GULP energy per Si atom -5567.418610 kJ/mol
# Density = 2.530090 g / cm^3
# Si number density = 25.358617 Si / 1000 Ang^3
#
#
#
# Elastic Constant Matrix: (Units=GPa)
#
#
# Indices 1 2 3 4 5 6 
#
# 1 81.7029 -19.9435 -14.7587 0.0000 0.0000 0.0000
# 2 -19.9435 159.6080 27.2596 0.0000 0.0000 0.0000
# 3 -14.7587 27.2596 138.8026 0.0000 0.0000 0.0000
# 4 0.0000 0.0000 0.0000 44.4304 0.0000 0.0000
# 5 0.0000 0.0000 0.0000 0.0000 -0.3260 0.0000
# 6 0.0000 0.0000 0.0000 0.0000 0.0000 64.9296
#
#
#
# Elastic Compliance Matrix: (Units=1/GPa)
#
#
# Indices 1 2 3 4 5 6 
#
# 1 0.012780 0.001412 0.001081 0.000000 0.000000 0.000000
# 2 0.001412 0.006639 -0.001154 0.000000 0.000000 0.000000
# 3 0.001081 -0.001154 0.007546 0.000000 0.000000 0.000000
# 4 0.000000 0.000000 0.000000 0.022507 0.000000 0.000000
# 5 0.000000 0.000000 0.000000 0.000000 -3.067546 0.000000
# 6 0.000000 0.000000 0.000000 0.000000 0.000000 0.015401
#
#
# Mechanical properties :
#
#
# Convention : Reuss Voigt Hill
#
# Bulk Modulus (GPa) = 33.73324 40.58092 37.15708
# Shear Modulus (GPa) = -1.66919 47.64388 22.98735
#
# Velocity S-wave (km/s) = -0.81220 4.33922 3.01406
# Velocity P-wave (km/s) = 3.52871 6.41425 5.17660
#
# Compressibility (1/GPa) = 0.02964435
#
# Stress axis : x y z
#
# Youngs Moduli (GPa) = 78.25017 150.62878 132.51984
#
# Poissons Ratio (x) = -0.21271 -0.14332
# Poissons Ratio (y) = -0.11050 0.15288
# Poissons Ratio (z) = -0.08463 0.17377
#
# Static dielectric constant tensor:
#      x y z
#    x 2.226680 0.000000 0.000000 
#    y 0.000000 2.001660 0.000000 
#    z 0.000000 0.000000 1.920010 
# 
# From -- ./inp_files/29312.got.cif
#   From: 2010.05.17/outbox.cif.g08.bks.cpg/sg51_15_cif.got.tgz:29312.got - 2010.06.03 11:52:47.
