data_PCOD9405560
_publ_section_title
;
Structure prediction by ZEFSAII (Michael W. Deem and Ramdas Pophale) SiO2 
 PCOD9405560
Probable space group: P M M A
;
_chemical_formula_sum "Si O2"
_cell_formula_units_Z 56
_cell_length_a 15.687825
_cell_length_b 8.673524
_cell_length_c 20.776423
_cell_angle_alpha 90.000000
_cell_angle_beta 90.000000
_cell_angle_gamma 90.000000
_cell_volume 2827.021422
_symmetry_space_group_name_H-M "P M M A"
_symmetry_group_IT_number 51
_symmetry_cell_setting 'orthorhombic'
loop_
_space_group_symop_operation_xyz
x,y,z
1/2-x,-y,z
1/2+x,-y,-z
-x,y,-z
-x,-y,-z
1/2+x,y,-z
1/2-x,y,z
x,-y,z
loop_
_atom_site_type_symbol
_atom_site_label
_atom_site_fract_x
_atom_site_fract_y
_atom_site_fract_z
Si Si1 0.151461 0.688308 0.334073
Si Si2 0.585448 0.680094 0.066886
Si Si3 0.502337 0.313478 0.425634
Si Si4 0.851060 0.672877 0.806184
Si Si5 0.849093 0.186667 0.337497
Si Si6 0.101131 0.820487 0.060945
Si Si7 0.851757 0.825201 0.195273
O O1 0.250000 0.737547 0.345438
O O2 0.152749 0.500000 0.332023
O O3 0.083281 0.735778 0.387564
O O4 0.119604 0.737752 0.262738
O O5 0.566192 0.500000 0.063045
O O6 0.498438 0.777285 0.065902
O O7 0.628172 0.721285 0.134221
O O8 0.634677 0.729920 0.001938
O O9 0.500000 0.264960 0.500000
O O10 0.505022 0.500000 0.423776
O O11 0.585598 0.250720 0.389492
O O12 0.750000 0.658184 0.796861
O O13 0.887301 0.500000 0.816377
O O14 0.863851 0.769615 0.870199
O O15 0.750000 0.234588 0.347492
O O16 0.879282 0.234064 0.265450
O O17 0.850028 0.000000 0.337831
O O18 0.114202 0.000000 0.050199
O O19 0.750000 0.836782 0.200580
O O20 0.885302 0.000000 0.184621
#
# Coordination Sequence:
#
# PCOD9405560 Si02
#       7
#     8   8   8   8   8   8   8
#     4   8  16  33  55  79 112 152 190 231 284 340
#     4  11  22  36  54  77 107 142 184 229 275 331
#     4  10  21  35  56  90 122 151 192 236 283 341
#     4   9  18  34  55  77 102 137 184 233 280 333
#     4   9  20  39  60  83 116 156 195 236 287 345
#     4  11  22  36  53  75 107 143 182 228 280 334
#     4   9  19  37  58  80 108 143 183 228 282 338
#
# _framework density 19.808834999999998
#
# number of rings (size 3 to 8) (size 9 to 14) (size 15 to 20)
#    0.000    2.429    0.000    5.143    2.000    2.857 
#    0.000    2.857    0.000    1.286    0.000    0.000 
#    0.000    0.000    0.000    0.000    0.000    0.000 
#
# Total GULP energy -312298.368420 kJ/mol
# GULP energy per Si atom -5576.756579 kJ/mol
# Density = 1.976375 g / cm^3
# Si number density = 19.808835 Si / 1000 Ang^3
#
#
#
# Elastic Constant Matrix: (Units=GPa)
#
#
# Indices 1 2 3 4 5 6 
#
# 1 66.1008 6.1967 63.7359 0.0000 0.0000 0.0000
# 2 6.1967 21.8769 30.6871 0.0000 0.0000 0.0000
# 3 63.7359 30.6871 197.1874 0.0000 0.0000 0.0000
# 4 0.0000 0.0000 0.0000 20.1906 0.0000 0.0000
# 5 0.0000 0.0000 0.0000 0.0000 49.5274 0.0000
# 6 0.0000 0.0000 0.0000 0.0000 0.0000 23.5921
#
#
#
# Elastic Compliance Matrix: (Units=1/GPa)
#
#
# Indices 1 2 3 4 5 6 
#
# 1 0.022377 0.004870 -0.007991 0.000000 0.000000 0.000000
# 2 0.004870 0.059535 -0.010839 0.000000 0.000000 0.000000
# 3 -0.007991 -0.010839 0.009341 0.000000 0.000000 0.000000
# 4 0.000000 0.000000 0.000000 0.049528 0.000000 0.000000
# 5 0.000000 0.000000 0.000000 0.000000 0.020191 0.000000
# 6 0.000000 0.000000 0.000000 0.000000 0.000000 0.042387
#
#
# Mechanical properties :
#
#
# Convention : Reuss Voigt Hill
#
# Bulk Modulus (GPa) = 15.78944 54.04493 34.91718
# Shear Modulus (GPa) = 19.81072 30.96506 25.38789
#
# Velocity S-wave (km/s) = 3.16586 3.95801 3.58389
# Velocity P-wave (km/s) = 4.62080 6.94480 5.89839
#
# Compressibility (1/GPa) = 0.06333348
#
# Stress axis : x y z
#
# Youngs Moduli (GPa) = 44.68960 16.79681 107.05567
#
# Poissons Ratio (x) = -0.08181 0.85544
# Poissons Ratio (y) = -0.21765 1.16041
# Poissons Ratio (z) = 0.35710 0.18207
#
# Static dielectric constant tensor:
#      x y z
#    x 1.721650 0.000000 0.000000 
#    y 0.000000 1.698660 0.000000 
#    z 0.000000 0.000000 1.749010 
# 
# From -- ./inp_files/33328.got.cif
#   From: 2010.05.17/outbox.cif.g08.bks.cpg/sg51_17_cif.got.tgz:33328.got - 2010.06.03 11:52:47.
