data_PCOD9405636
_publ_section_title
;
Structure prediction by ZEFSAII (Michael W. Deem and Ramdas Pophale) SiO2 
 PCOD9405636
Probable space group: P M M A
;
_chemical_formula_sum "Si O2"
_cell_formula_units_Z 48
_cell_length_a 7.992578
_cell_length_b 10.215987
_cell_length_c 31.529746
_cell_angle_alpha 90.000000
_cell_angle_beta 90.000000
_cell_angle_gamma 90.000000
_cell_volume 2574.469120
_symmetry_space_group_name_H-M "P M M A"
_symmetry_group_IT_number 51
_symmetry_cell_setting 'orthorhombic'
loop_
_space_group_symop_operation_xyz
x,y,z
1/2-x,-y,z
1/2+x,-y,-z
-x,y,-z
-x,-y,-z
1/2+x,y,-z
1/2-x,y,z
x,-y,z
loop_
_atom_site_type_symbol
_atom_site_label
_atom_site_fract_x
_atom_site_fract_y
_atom_site_fract_z
Si Si1 0.550592 0.851700 0.952357
Si Si2 0.550836 0.351424 0.119632
Si Si3 0.049328 0.351370 0.214050
Si Si4 0.954481 0.850135 0.715285
Si Si5 0.545687 0.149935 0.618920
Si Si6 0.048117 0.350456 0.452471
O O1 0.750000 0.857586 0.950845
O O2 0.494565 0.748918 0.917220
O O3 0.484380 0.000000 0.944978
O O4 0.500000 0.812555 0.000000
O O5 0.750000 0.358011 0.122026
O O6 0.486440 0.500000 0.111660
O O7 0.487063 0.309041 0.165934
O O8 0.250000 0.356700 0.218753
O O9 0.984118 0.500000 0.219159
O O10 0.985164 0.251284 0.249423
O O11 0.750000 0.849044 0.715895
O O12 0.004808 0.816234 0.667099
O O13 0.005631 0.000000 0.723967
O O14 0.750000 0.151299 0.618379
O O15 0.486605 0.251596 0.583591
O O16 0.494533 0.000000 0.610216
O O17 0.250000 0.352807 0.450189
O O18 0.987994 0.500000 0.446228
O O19 0.000000 0.309207 0.500000
#
# Coordination Sequence:
#
# PCOD9405636 Si02
#       6
#     8   8   8   8   8   8
#     4  10  21  37  57  80 105 133 166 205 248 293
#     4  10  21  36  53  74 102 136 171 205 242 286
#     4   9  17  29  46  69  95 121 152 193 237 279
#     4   8  14  25  42  65  91 116 145 185 231 276
#     4   8  14  25  41  62  87 113 143 182 226 270
#     4   9  17  28  42  61  85 112 143 180 221 266
#
# _framework density 18.64462
#
# number of rings (size 3 to 8) (size 9 to 14) (size 15 to 20)
#    0.000    3.000    0.000    2.000    0.000    4.000 
#    0.000    5.000    0.000    1.000    0.000    7.000 
#    0.000    0.000    0.000    0.000    0.000    0.000 
#
# Total GULP energy -267593.488815 kJ/mol
# GULP energy per Si atom -5574.864350 kJ/mol
# Density = 1.860218 g / cm^3
# Si number density = 18.644620 Si / 1000 Ang^3
#
#
#
# Elastic Constant Matrix: (Units=GPa)
#
#
# Indices 1 2 3 4 5 6 
#
# 1 15.1172 6.5613 3.9180 0.0000 0.0000 0.0000
# 2 6.5613 118.5425 136.3194 0.0000 0.0000 0.0000
# 3 3.9180 136.3194 192.3182 0.0000 0.0000 0.0000
# 4 0.0000 0.0000 0.0000 44.2150 0.0000 0.0000
# 5 0.0000 0.0000 0.0000 0.0000 20.4842 0.0000
# 6 0.0000 0.0000 0.0000 0.0000 0.0000 -5.5139
#
#
#
# Elastic Compliance Matrix: (Units=1/GPa)
#
#
# Indices 1 2 3 4 5 6 
#
# 1 0.069522 -0.012004 0.007092 0.000000 0.000000 0.000000
# 2 -0.012004 0.047701 -0.033567 0.000000 0.000000 0.000000
# 3 0.007092 -0.033567 0.028848 0.000000 0.000000 0.000000
# 4 0.000000 0.000000 0.000000 0.022617 0.000000 0.000000
# 5 0.000000 0.000000 0.000000 0.000000 0.048818 0.000000
# 6 0.000000 0.000000 0.000000 0.000000 0.000000 -0.181360
#
#
# Mechanical properties :
#
#
# Convention : Reuss Voigt Hill
#
# Bulk Modulus (GPa) = 14.46888 68.84170 41.65529
# Shear Modulus (GPa) = 36.72698 23.78234 30.25466
#
# Velocity S-wave (km/s) = 4.44311 3.57537 4.03265
# Velocity P-wave (km/s) = 5.83942 7.35171 6.63877
#
# Compressibility (1/GPa) = 0.06911383
#
# Stress axis : x y z
#
# Youngs Moduli (GPa) = 14.38398 20.96406 34.66437
#
# Poissons Ratio (x) = 0.25165 -0.24585
# Poissons Ratio (y) = 0.17267 1.16357
# Poissons Ratio (z) = -0.10202 0.70370
#
# Static dielectric constant tensor:
#      x y z
#    x 1.676920 0.000000 0.000000 
#    y 0.000000 1.658960 0.000000 
#    z 0.000000 0.000000 1.635330 
# 
# From -- ./inp_files/36119.got.cif
#   From: 2010.05.17/outbox.cif.g08.bks.cpg/sg51_19_cif.got.tgz:36119.got - 2010.06.03 11:52:47.
