data_PCOD9405464
_publ_section_title
;
Structure prediction by ZEFSAII (Michael W. Deem and Ramdas Pophale) SiO2 
 PCOD9405464
Probable space group: P M M A
;
_chemical_formula_sum "Si O2"
_cell_formula_units_Z 40
_cell_length_a 9.366755
_cell_length_b 7.395063
_cell_length_c 30.444195
_cell_angle_alpha 90.000000
_cell_angle_beta 90.000000
_cell_angle_gamma 90.000000
_cell_volume 2108.800685
_symmetry_space_group_name_H-M "P M M A"
_symmetry_group_IT_number 51
_symmetry_cell_setting 'orthorhombic'
loop_
_space_group_symop_operation_xyz
x,y,z
1/2-x,-y,z
1/2+x,-y,-z
-x,y,-z
-x,-y,-z
1/2+x,y,-z
1/2-x,y,z
x,-y,z
loop_
_atom_site_type_symbol
_atom_site_label
_atom_site_fract_x
_atom_site_fract_y
_atom_site_fract_z
Si Si1 0.919931 0.212130 0.544239
Si Si2 0.918464 0.214297 0.217146
Si Si3 0.585780 0.779553 0.870227
Si Si4 0.414609 0.779150 0.956610
Si Si5 0.078592 0.500000 0.383090
Si Si6 0.579644 0.500000 0.290947
O O1 0.750000 0.234569 0.537637
O O2 0.960244 0.328234 0.586636
O O3 0.000000 0.270605 0.500000
O O4 0.949861 0.000000 0.551062
O O5 0.750000 0.243738 0.207699
O O6 0.954912 0.327467 0.260380
O O7 0.010024 0.273178 0.175113
O O8 0.939503 0.000000 0.223928
O O9 0.750000 0.721321 0.872501
O O10 0.495889 0.721026 0.912578
O O11 0.585312 0.000000 0.870785
O O12 0.250000 0.721609 0.957364
O O13 0.414255 0.000000 0.956529
O O14 0.500000 0.722510 0.000000
O O15 0.250000 0.500000 0.376884
O O16 0.002190 0.500000 0.336575
O O17 0.750000 0.500000 0.298862
#
# Coordination Sequence:
#
# PCOD9405464 Si02
#       6
#     8   8   8   8   4   4
#     4   9  18  33  53  78 107 139 175 212 250 295
#     4   9  18  34  53  71  95 127 163 207 255 299
#     4   9  16  26  42  65  91 121 160 203 248 301
#     4   9  15  22  34  56  89 126 161 200 247 298
#     4  10  21  35  51  74 106 139 169 208 257 302
#     4  10  22  37  53  76 102 131 172 214 253 302
#
# _framework density 18.968126000000002
#
# number of rings (size 3 to 8) (size 9 to 14) (size 15 to 20)
#    0.000    2.800    0.000    1.500    0.000    7.200 
#    0.000    0.000    0.000    0.000    0.000    0.700 
#    0.000    0.000    0.000    0.000    0.000    0.000 
#
# Total GULP energy -223344.404831 kJ/mol
# GULP energy per Si atom -5583.610121 kJ/mol
# Density = 1.892495 g / cm^3
# Si number density = 18.968126 Si / 1000 Ang^3
#
#
#
# Elastic Constant Matrix: (Units=GPa)
#
#
# Indices 1 2 3 4 5 6 
#
# 1 114.9048 43.7890 117.1359 0.0000 0.0000 0.0000
# 2 43.7890 76.1147 63.0465 0.0000 0.0000 0.0000
# 3 117.1359 63.0465 228.2170 0.0000 0.0000 0.0000
# 4 0.0000 0.0000 0.0000 -45.5321 0.0000 0.0000
# 5 0.0000 0.0000 0.0000 0.0000 45.9891 0.0000
# 6 0.0000 0.0000 0.0000 0.0000 0.0000 -0.3529
#
#
#
# Elastic Compliance Matrix: (Units=1/GPa)
#
#
# Indices 1 2 3 4 5 6 
#
# 1 0.019027 -0.003705 -0.008742 0.000000 0.000000 0.000000
# 2 -0.003705 0.017758 -0.003004 0.000000 0.000000 0.000000
# 3 -0.008742 -0.003004 0.009699 0.000000 0.000000 0.000000
# 4 0.000000 0.000000 0.000000 -0.021963 0.000000 0.000000
# 5 0.000000 0.000000 0.000000 0.000000 0.021744 0.000000
# 6 0.000000 0.000000 0.000000 0.000000 0.000000 -2.833358
#
#
# Mechanical properties :
#
#
# Convention : Reuss Voigt Hill
#
# Bulk Modulus (GPa) = 64.18127 96.35325 80.26726
# Shear Modulus (GPa) = -1.81752 13.03850 5.61049
#
# Velocity S-wave (km/s) = -0.97994 2.62466 1.72171
# Velocity P-wave (km/s) = 5.71222 7.75196 6.80890
#
# Compressibility (1/GPa) = 0.01558087
#
# Stress axis : x y z
#
# Youngs Moduli (GPa) = 52.55755 56.31314 103.10514
#
# Poissons Ratio (x) = 0.20863 0.90138
# Poissons Ratio (y) = 0.19472 0.30975
# Poissons Ratio (z) = 0.45947 0.16917
#
# Static dielectric constant tensor:
#      x y z
#    x 1.631320 0.000000 0.000000 
#    y 0.000000 1.710620 0.000000 
#    z 0.000000 0.000000 1.599360 
# 
# From -- ./inp_files/36024.got.cif
#   From: 2010.05.17/outbox.cif.g08.bks.cpg/sg51_19_cif.got.tgz:36024.got - 2010.06.03 11:52:47.
