data_PCOD9405974
_publ_section_title
;
Structure prediction by ZEFSAII (Michael W. Deem and Ramdas Pophale) SiO2 
 PCOD9405974
Probable space group: P M M A
;
_chemical_formula_sum "Si O2"
_cell_formula_units_Z 40
_cell_length_a 18.749859
_cell_length_b 8.208582
_cell_length_c 13.315225
_cell_angle_alpha 90.000000
_cell_angle_beta 90.000000
_cell_angle_gamma 90.000000
_cell_volume 2049.343019
_symmetry_space_group_name_H-M "P M M A"
_symmetry_group_IT_number 51
_symmetry_cell_setting 'orthorhombic'
loop_
_space_group_symop_operation_xyz
x,y,z
1/2-x,-y,z
1/2+x,-y,-z
-x,y,-z
-x,-y,-z
1/2+x,y,-z
1/2-x,y,z
x,-y,z
loop_
_atom_site_type_symbol
_atom_site_label
_atom_site_fract_x
_atom_site_fract_y
_atom_site_fract_z
Si Si1 0.832138 0.696460 0.110929
Si Si2 0.831822 0.803034 0.499115
Si Si3 0.580908 0.304889 0.304251
Si Si4 0.082100 0.196814 0.304466
Si Si5 0.667734 0.803436 0.890081
O O1 0.750000 0.753040 0.124058
O O2 0.831349 0.500000 0.113405
O O3 0.881314 0.755315 0.201893
O O4 0.856619 0.749497 0.000427
O O5 0.750000 0.745480 0.497568
O O6 0.873869 0.751214 0.400018
O O7 0.873324 0.746086 0.598698
O O8 0.830598 0.000000 0.502079
O O9 0.581272 0.500000 0.302114
O O10 0.499842 0.246732 0.311328
O O11 0.118877 0.254935 0.201380
O O12 0.085254 0.000000 0.304227
O O13 0.750000 0.748280 0.876913
O O14 0.668186 0.000000 0.887984
#
# Coordination Sequence:
#
# PCOD9405974 Si02
#       5
#     8   8   8   8   8
#     4   9  19  36  55  75 104 142 180 219 264 313
#     4  10  21  38  60  82 105 138 179 221 268 322
#     4  11  23  37  54  79 112 146 180 220 265 314
#     4  10  21  37  56  80 111 142 174 218 271 322
#     4   9  18  34  57  82 106 136 178 225 268 314
#
# _framework density 19.518450999999999
#
# number of rings (size 3 to 8) (size 9 to 14) (size 15 to 20)
#    0.000    2.200    0.000    2.400    0.000   10.000 
#    0.000    6.000    0.000    3.600    0.000    0.000 
#    0.000    0.000    0.000    0.000    0.000    0.000 
#
# Total GULP energy -223404.789496 kJ/mol
# GULP energy per Si atom -5585.119737 kJ/mol
# Density = 1.947403 g / cm^3
# Si number density = 19.518451 Si / 1000 Ang^3
#
#
#
# Elastic Constant Matrix: (Units=GPa)
#
#
# Indices 1 2 3 4 5 6 
#
# 1 168.5090 12.9314 138.8379 0.0000 0.0000 0.0000
# 2 12.9314 8.5998 17.4163 0.0000 0.0000 0.0000
# 3 138.8379 17.4163 224.7679 0.0000 0.0000 0.0000
# 4 0.0000 0.0000 0.0000 43.1874 0.0000 0.0000
# 5 0.0000 0.0000 0.0000 0.0000 -12.2323 0.0000
# 6 0.0000 0.0000 0.0000 0.0000 0.0000 15.8045
#
#
#
# Elastic Compliance Matrix: (Units=1/GPa)
#
#
# Indices 1 2 3 4 5 6 
#
# 1 0.012181 -0.003651 -0.007241 0.000000 0.000000 0.000000
# 2 -0.003651 0.139020 -0.008517 0.000000 0.000000 0.000000
# 3 -0.007241 -0.008517 0.009582 0.000000 0.000000 0.000000
# 4 0.000000 0.000000 0.000000 0.023155 0.000000 0.000000
# 5 0.000000 0.000000 0.000000 0.000000 -0.081751 0.000000
# 6 0.000000 0.000000 0.000000 0.000000 0.000000 0.063273
#
#
# Mechanical properties :
#
#
# Convention : Reuss Voigt Hill
#
# Bulk Modulus (GPa) = 8.19913 82.24978 45.22446
# Shear Modulus (GPa) = 20.41386 24.86467 22.63926
#
# Velocity S-wave (km/s) = 3.23751 3.57305 3.40941
# Velocity P-wave (km/s) = 4.26440 7.69761 6.22247
#
# Compressibility (1/GPa) = 0.12196412
#
# Stress axis : x y z
#
# Youngs Moduli (GPa) = 82.09809 7.19322 104.36643
#
# Poissons Ratio (x) = 0.02627 0.75571
# Poissons Ratio (y) = 0.29978 0.88885
# Poissons Ratio (z) = 0.59447 0.06126
#
# Static dielectric constant tensor:
#      x y z
#    x 1.655780 0.000000 0.000000 
#    y 0.000000 1.687150 0.000000 
#    z 0.000000 0.000000 1.665380 
# 
# From -- ./inp_files/17056.got.cif
#   From: 2010.05.17/outbox.cif.g08.bks.cpg/sg51_9_cif.got.tgz:17056.got - 2010.06.03 11:52:47.
