data_PCOD9405441
_publ_section_title
;
Structure prediction by ZEFSAII (Michael W. Deem and Ramdas Pophale) SiO2 
 PCOD9405441
Probable space group: P M M A
;
_chemical_formula_sum "Si O2"
_cell_formula_units_Z 56
_cell_length_a 14.196727
_cell_length_b 13.729916
_cell_length_c 13.587247
_cell_angle_alpha 90.000000
_cell_angle_beta 90.000000
_cell_angle_gamma 90.000000
_cell_volume 2648.424408
_symmetry_space_group_name_H-M "P M M A"
_symmetry_group_IT_number 51
_symmetry_cell_setting 'orthorhombic'
loop_
_space_group_symop_operation_xyz
x,y,z
1/2-x,-y,z
1/2+x,-y,-z
-x,y,-z
-x,-y,-z
1/2+x,y,-z
1/2-x,y,z
x,-y,z
loop_
_atom_site_type_symbol
_atom_site_label
_atom_site_fract_x
_atom_site_fract_y
_atom_site_fract_z
Si Si1 0.856876 0.819650 0.034575
Si Si2 0.135685 0.112620 0.175917
Si Si3 0.138665 0.698008 0.664627
Si Si4 0.137298 0.388167 0.450558
Si Si5 0.605062 0.608689 0.957993
Si Si6 0.447640 0.691318 0.250733
Si Si7 0.363528 0.892551 0.754868
O O1 0.750000 0.855360 0.037357
O O2 0.896825 0.849436 0.140050
O O3 0.896886 0.869634 0.937146
O O4 0.855146 0.703845 0.013624
O O5 0.250000 0.131511 0.181296
O O6 0.080789 0.195301 0.236335
O O7 0.121132 0.000000 0.203157
O O8 0.250000 0.678156 0.688418
O O9 0.117264 0.658286 0.556732
O O10 0.121961 0.813905 0.670013
O O11 0.058972 0.663633 0.741891
O O12 0.250000 0.384557 0.439366
O O13 0.107137 0.500000 0.453201
O O14 0.093068 0.339138 0.355666
O O15 0.645721 0.500000 0.970679
O O16 0.598979 0.636381 0.842261
O O17 0.500000 0.604498 0.000000
O O18 0.250000 0.899061 0.761265
O O19 0.401589 0.000000 0.738512
#
# Coordination Sequence:
#
# PCOD9405441 Si02
#       7
#     8   8   8   8   8   8   8
#     4   9  17  31  53  80 109 145 190 235 280 337
#     4   9  18  33  54  84 120 152 186 234 288 339
#     4  10  22  38  56  82 114 145 186 241 291 337
#     4  10  22  41  64  88 112 142 187 241 292 341
#     4  10  21  35  50  75 114 153 187 229 280 333
#     4  11  21  36  60  85 113 152 194 233 280 341
#     4   9  17  32  55  80 109 149 193 234 280 337
#
# _framework density 21.144648
#
# number of rings (size 3 to 8) (size 9 to 14) (size 15 to 20)
#    0.000    2.286    0.000    2.571    0.000    4.857 
#    0.000    1.429    0.000   12.429    0.000    0.000 
#    0.000    0.000    0.000    0.000    0.000    0.000 
#
# Total GULP energy -312335.851653 kJ/mol
# GULP energy per Si atom -5577.425922 kJ/mol
# Density = 2.109652 g / cm^3
# Si number density = 21.144648 Si / 1000 Ang^3
#
#
#
# Elastic Constant Matrix: (Units=GPa)
#
#
# Indices 1 2 3 4 5 6 
#
# 1 69.1248 11.1562 15.2124 0.0000 0.0000 0.0000
# 2 11.1562 133.2670 57.4706 0.0000 0.0000 0.0000
# 3 15.2124 57.4706 72.9650 0.0000 0.0000 0.0000
# 4 0.0000 0.0000 0.0000 19.9891 0.0000 0.0000
# 5 0.0000 0.0000 0.0000 0.0000 21.9695 0.0000
# 6 0.0000 0.0000 0.0000 0.0000 0.0000 36.9759
#
#
#
# Elastic Compliance Matrix: (Units=1/GPa)
#
#
# Indices 1 2 3 4 5 6 
#
# 1 0.015164 0.000142 -0.003274 0.000000 0.000000 0.000000
# 2 0.000142 0.011365 -0.008981 0.000000 0.000000 0.000000
# 3 -0.003274 -0.008981 0.021462 0.000000 0.000000 0.000000
# 4 0.000000 0.000000 0.000000 0.050027 0.000000 0.000000
# 5 0.000000 0.000000 0.000000 0.000000 0.045518 0.000000
# 6 0.000000 0.000000 0.000000 0.000000 0.000000 0.027045
#
#
# Mechanical properties :
#
#
# Convention : Reuss Voigt Hill
#
# Bulk Modulus (GPa) = 42.07755 49.22615 45.65185
# Shear Modulus (GPa) = 24.66369 28.55475 26.60922
#
# Velocity S-wave (km/s) = 3.41901 3.67883 3.55129
# Velocity P-wave (km/s) = 5.96064 6.43244 6.20103
#
# Compressibility (1/GPa) = 0.02376565
#
# Stress axis : x y z
#
# Youngs Moduli (GPa) = 65.94543 87.99014 46.59456
#
# Poissons Ratio (x) = -0.01252 0.15253
# Poissons Ratio (y) = -0.00938 0.41848
# Poissons Ratio (z) = 0.21588 0.79026
#
# Static dielectric constant tensor:
#      x y z
#    x 1.859850 0.000000 0.000000 
#    y 0.000000 1.778990 0.000000 
#    z 0.000000 0.000000 1.712360 
# 
# From -- ./inp_files/16667.got.cif
#   From: 2010.05.17/outbox.cif.g08.bks.cpg/sg51_9_cif.got.tgz:16667.got - 2010.06.03 11:52:47.
