data_PCOD9405980
_publ_section_title
;
Structure prediction by ZEFSAII (Michael W. Deem and Ramdas Pophale) SiO2 
 PCOD9405980
Probable space group: P M M A
;
_chemical_formula_sum "Si O2"
_cell_formula_units_Z 56
_cell_length_a 8.469598
_cell_length_b 20.034666
_cell_length_c 16.381566
_cell_angle_alpha 90.000000
_cell_angle_beta 90.000000
_cell_angle_gamma 90.000000
_cell_volume 2779.715316
_symmetry_space_group_name_H-M "P M M A"
_symmetry_group_IT_number 51
_symmetry_cell_setting 'orthorhombic'
loop_
_space_group_symop_operation_xyz
x,y,z
1/2-x,-y,z
1/2+x,-y,-z
-x,y,-z
-x,-y,-z
1/2+x,y,-z
1/2-x,y,z
x,-y,z
loop_
_atom_site_type_symbol
_atom_site_label
_atom_site_fract_x
_atom_site_fract_y
_atom_site_fract_z
Si Si1 0.059366 0.572994 0.592760
Si Si2 0.057515 0.922995 0.251281
Si Si3 0.562568 0.289595 0.840967
Si Si4 0.438654 0.426725 0.907467
Si Si5 0.560497 0.286608 0.336029
Si Si6 0.439535 0.842932 0.413405
Si Si7 0.559253 0.846595 0.912954
O O1 0.250000 0.573956 0.592317
O O2 0.009272 0.500000 0.625455
O O3 0.006896 0.638738 0.640302
O O4 0.000000 0.577579 0.500000
O O5 0.250000 0.921269 0.251093
O O6 0.007792 0.885086 0.333935
O O7 0.006488 0.887487 0.167148
O O8 0.008070 0.000000 0.252700
O O9 0.750000 0.293734 0.848523
O O10 0.493685 0.362156 0.858987
O O11 0.516481 0.268381 0.750014
O O12 0.505653 0.230284 0.900040
O O13 0.250000 0.426577 0.908413
O O14 0.491415 0.500000 0.876219
O O15 0.500000 0.420630 0.000000
O O16 0.750000 0.286149 0.329224
O O17 0.506285 0.231602 0.400637
O O18 0.500000 0.869865 0.500000
O O19 0.250000 0.840847 0.414097
O O20 0.750000 0.847427 0.913371
O O21 0.500000 0.872156 0.000000
#
# Coordination Sequence:
#
# PCOD9405980 Si02
#       7
#     8   8   8   8   8   8   8
#     4   9  19  35  53  75 105 142 186 235 287 344
#     4   9  19  39  64  88 121 162 198 238 296 361
#     4  11  22  37  57  83 116 154 199 250 303 360
#     4  10  21  37  56  80 112 152 199 251 305 363
#     4  11  22  36  57  84 115 154 197 247 302 356
#     4  11  22  39  62  90 122 159 202 248 299 359
#     4  10  21  38  60  89 120 157 199 243 294 354
#
# _framework density 20.145947
#
# number of rings (size 3 to 8) (size 9 to 14) (size 15 to 20)
#    0.000    1.857    1.429    2.571    0.000    6.571 
#    0.000    1.429    0.000    3.000    0.000    0.000 
#    0.000    0.000    0.000    0.000    0.000    0.000 
#
# Total GULP energy -312701.523444 kJ/mol
# GULP energy per Si atom -5583.955776 kJ/mol
# Density = 2.010009 g / cm^3
# Si number density = 20.145947 Si / 1000 Ang^3
#
#
#
# Elastic Constant Matrix: (Units=GPa)
#
#
# Indices 1 2 3 4 5 6 
#
# 1 11.6503 13.9192 -6.4392 0.0000 0.0000 0.0000
# 2 13.9192 121.2450 50.7108 0.0000 0.0000 0.0000
# 3 -6.4392 50.7108 107.8078 0.0000 0.0000 0.0000
# 4 0.0000 0.0000 0.0000 22.4575 0.0000 0.0000
# 5 0.0000 0.0000 0.0000 0.0000 33.4143 0.0000
# 6 0.0000 0.0000 0.0000 0.0000 0.0000 -0.1690
#
#
#
# Elastic Compliance Matrix: (Units=1/GPa)
#
#
# Indices 1 2 3 4 5 6 
#
# 1 0.120245 -0.020925 0.017025 0.000000 0.000000 0.000000
# 2 -0.020925 0.013909 -0.007792 0.000000 0.000000 0.000000
# 3 0.017025 -0.007792 0.013958 0.000000 0.000000 0.000000
# 4 0.000000 0.000000 0.000000 0.044529 0.000000 0.000000
# 5 0.000000 0.000000 0.000000 0.000000 0.029927 0.000000
# 6 0.000000 0.000000 0.000000 0.000000 0.000000 -5.918604
#
#
# Mechanical properties :
#
#
# Convention : Reuss Voigt Hill
#
# Bulk Modulus (GPa) = 8.01753 39.67609 23.84681
# Shear Modulus (GPa) = -0.88793 23.30804 11.21006
#
# Velocity S-wave (km/s) = -0.66461 3.40510 2.36146
# Velocity P-wave (km/s) = 1.84375 5.93268 4.39296
#
# Compressibility (1/GPa) = 0.12472663
#
# Stress axis : x y z
#
# Youngs Moduli (GPa) = 8.31637 71.89489 71.64327
#
# Poissons Ratio (x) = 1.50440 -1.21971
# Poissons Ratio (y) = 0.17402 0.55828
# Poissons Ratio (z) = -0.14158 0.56024
#
# Static dielectric constant tensor:
#      x y z
#    x 1.686560 0.000000 0.000000 
#    y 0.000000 1.728860 0.000000 
#    z 0.000000 0.000000 1.711770 
# 
# From -- ./inp_files/21720.got.cif
#   From: 2010.05.17/outbox.cif.g08.bks.cpg/sg51_11_cif.got.tgz:21720.got - 2010.06.03 11:52:47.
