data_PCOD9405760
_publ_section_title
;
Structure prediction by ZEFSAII (Michael W. Deem and Ramdas Pophale) SiO2 
 PCOD9405760
Probable space group: P M M A
;
_chemical_formula_sum "Si O2"
_cell_formula_units_Z 64
_cell_length_a 18.723972
_cell_length_b 9.260332
_cell_length_c 20.803648
_cell_angle_alpha 90.000000
_cell_angle_beta 90.000000
_cell_angle_gamma 90.000000
_cell_volume 3607.148627
_symmetry_space_group_name_H-M "P M M A"
_symmetry_group_IT_number 51
_symmetry_cell_setting 'orthorhombic'
loop_
_space_group_symop_operation_xyz
x,y,z
1/2-x,-y,z
1/2+x,-y,-z
-x,y,-z
-x,-y,-z
1/2+x,y,-z
1/2-x,y,z
x,-y,z
loop_
_atom_site_type_symbol
_atom_site_label
_atom_site_fract_x
_atom_site_fract_y
_atom_site_fract_z
Si Si1 0.836098 0.668153 0.723235
Si Si2 0.411762 0.171385 0.791870
Si Si3 0.922137 0.329589 0.967678
Si Si4 0.924671 0.171789 0.831041
Si Si5 0.162942 0.834434 0.405793
Si Si6 0.836981 0.666572 0.467880
Si Si7 0.666399 0.674212 0.323827
Si Si8 0.165026 0.169673 0.924602
O O1 0.750000 0.675671 0.726643
O O2 0.856822 0.500000 0.725519
O O3 0.870127 0.755659 0.781637
O O4 0.858553 0.740146 0.655709
O O5 0.495430 0.195493 0.803951
O O6 0.380749 0.255827 0.731360
O O7 0.370598 0.214037 0.857194
O O8 0.400028 0.000000 0.782519
O O9 0.910291 0.500000 0.957579
O O10 0.919296 0.245527 0.900558
O O11 0.865969 0.263297 0.017590
O O12 0.000000 0.310506 0.000000
O O13 0.912823 0.000000 0.836220
O O14 0.250000 0.833874 0.406826
O O15 0.138948 0.764189 0.472879
O O16 0.139747 0.000000 0.399180
O O17 0.750000 0.666203 0.468007
O O18 0.859217 0.500000 0.477359
O O19 0.857206 0.715822 0.396182
O O20 0.750000 0.715246 0.315396
O O21 0.663124 0.500000 0.320860
O O22 0.250000 0.182260 0.920177
O O23 0.146843 0.000000 0.935179
#
# Coordination Sequence:
#
# PCOD9405760 Si02
#       8
#     8   8   8   8   8   8   8   8
#     4  10  21  37  57  82 112 143 177 223 276 328
#     4  10  21  36  55  79 109 145 183 224 269 320
#     4  11  23  39  60  84 110 142 181 225 272 323
#     4  11  23  39  61  83 108 144 183 223 269 324
#     4   9  16  27  47  76 107 139 178 223 271 324
#     4   8  14  26  44  69 103 142 182 222 268 320
#     4   9  18  31  49  76 110 147 186 228 272 320
#     4  10  21  38  60  85 113 146 183 224 272 324
#
# _framework density 17.742546000000001
#
# number of rings (size 3 to 8) (size 9 to 14) (size 15 to 20)
#    0.000    2.250    1.250    2.625    0.000    6.250 
#    0.000    1.250    0.000    0.750    0.000    5.250 
#    0.000    0.000    0.000    0.000    0.000    0.000 
#
# Total GULP energy -357176.768684 kJ/mol
# GULP energy per Si atom -5580.887011 kJ/mol
# Density = 1.770216 g / cm^3
# Si number density = 17.742546 Si / 1000 Ang^3
#
#
#
# Elastic Constant Matrix: (Units=GPa)
#
#
# Indices 1 2 3 4 5 6 
#
# 1 28.0371 38.2653 37.9743 0.0000 0.0000 0.0000
# 2 38.2653 104.3680 91.0600 0.0000 0.0000 0.0000
# 3 37.9743 91.0600 171.0842 0.0000 0.0000 0.0000
# 4 0.0000 0.0000 0.0000 59.2124 0.0000 0.0000
# 5 0.0000 0.0000 0.0000 0.0000 -23.6770 0.0000
# 6 0.0000 0.0000 0.0000 0.0000 0.0000 21.1106
#
#
#
# Elastic Compliance Matrix: (Units=1/GPa)
#
#
# Indices 1 2 3 4 5 6 
#
# 1 0.072580 -0.023440 -0.003634 0.000000 0.000000 0.000000
# 2 -0.023440 0.025459 -0.008348 0.000000 0.000000 0.000000
# 3 -0.003634 -0.008348 0.011095 0.000000 0.000000 0.000000
# 4 0.000000 0.000000 0.000000 0.016888 0.000000 0.000000
# 5 0.000000 0.000000 0.000000 0.000000 -0.042235 0.000000
# 6 0.000000 0.000000 0.000000 0.000000 0.000000 0.047370
#
#
# Mechanical properties :
#
#
# Convention : Reuss Voigt Hill
#
# Bulk Modulus (GPa) = 26.11637 70.89872 48.50754
# Shear Modulus (GPa) = 23.28148 20.40853 21.84500
#
# Velocity S-wave (km/s) = 3.62634 3.39523 3.51268
# Velocity P-wave (km/s) = 5.68202 7.44423 6.62200
#
# Compressibility (1/GPa) = 0.03829017
#
# Stress axis : x y z
#
# Youngs Moduli (GPa) = 13.77790 39.27930 90.13243
#
# Poissons Ratio (x) = 0.92070 0.32755
# Poissons Ratio (y) = 0.32295 0.75240
# Poissons Ratio (z) = 0.05007 0.32789
#
# Static dielectric constant tensor:
#      x y z
#    x 1.594600 0.000000 0.000000 
#    y 0.000000 1.595780 0.000000 
#    z 0.000000 0.000000 1.583080 
# 
# From -- ./inp_files/33799.got.cif
#   From: 2010.05.17/outbox.cif.g08.bks.cpg/sg51_17_cif.got.tgz:33799.got - 2010.06.03 11:52:47.
