data_PCOD9405747
_publ_section_title
;
Structure prediction by ZEFSAII (Michael W. Deem and Ramdas Pophale) SiO2 
 PCOD9405747
Probable space group: P M M A
;
_chemical_formula_sum "Si O2"
_cell_formula_units_Z 48
_cell_length_a 8.456858
_cell_length_b 31.877423
_cell_length_c 9.171094
_cell_angle_alpha 90.000000
_cell_angle_beta 90.000000
_cell_angle_gamma 90.000000
_cell_volume 2472.369564
_symmetry_space_group_name_H-M "P M M A"
_symmetry_group_IT_number 51
_symmetry_cell_setting 'orthorhombic'
loop_
_space_group_symop_operation_xyz
x,y,z
1/2-x,-y,z
1/2+x,-y,-z
-x,y,-z
-x,-y,-z
1/2+x,y,-z
1/2-x,y,z
x,-y,z
loop_
_atom_site_type_symbol
_atom_site_label
_atom_site_fract_x
_atom_site_fract_y
_atom_site_fract_z
Si Si1 0.439825 0.083747 0.165237
Si Si2 0.060188 0.165388 0.665225
Si Si3 0.941163 0.583613 0.165199
Si Si4 0.558810 0.332756 0.334779
Si Si5 0.441090 0.249165 0.834767
Si Si6 0.441027 0.000000 0.334721
Si Si7 0.441169 0.500000 0.665195
O O1 0.250000 0.084200 0.164221
O O2 0.499904 0.124661 0.249522
O O3 0.493565 0.041769 0.249603
O O4 0.500000 0.083574 0.000000
O O5 0.250000 0.164865 0.664254
O O6 0.006716 0.207560 0.748530
O O7 0.000000 0.165260 0.500000
O O8 0.750000 0.583610 0.163674
O O9 0.994048 0.625350 0.250446
O O10 0.994115 0.541784 0.249865
O O11 0.000000 0.583708 0.000000
O O12 0.500000 0.332558 0.500000
O O13 0.750000 0.332721 0.336301
O O14 0.505683 0.291105 0.249107
O O15 0.250000 0.249287 0.836448
O O16 0.500000 0.248711 0.000000
O O17 0.500000 0.000000 0.500000
O O18 0.250000 0.000000 0.336511
O O19 0.250000 0.500000 0.663690
O O20 0.500000 0.500000 0.500000
#
# Coordination Sequence:
#
# PCOD9405747 Si02
#       7
#     8   8   8   8   8   4   4
#     4  11  23  40  61  87 117 151 190 233 280 332
#     4  11  23  39  59  85 115 149 188 232 280 333
#     4  10  21  36  55  80 110 142 182 226 272 326
#     4  10  21  37  56  81 110 143 183 227 273 327
#     4  10  22  38  57  82 112 145 185 229 276 329
#     4  10  23  40  60  86 116 150 189 232 279 330
#     4  10  21  36  54  80 110 142 181 226 272 326
#
# _framework density 19.414573000000001
#
# number of rings (size 3 to 8) (size 9 to 14) (size 15 to 20)
#    0.000    1.667    0.000    4.000    0.000    7.333 
#    0.000    0.000    0.000    0.000    0.000    0.000 
#    0.000    0.000    0.000    0.000    0.000    0.000 
#
# Total GULP energy -268395.865285 kJ/mol
# GULP energy per Si atom -5591.580527 kJ/mol
# Density = 1.937038 g / cm^3
# Si number density = 19.414573 Si / 1000 Ang^3
#
#
#
# Elastic Constant Matrix: (Units=GPa)
#
#
# Indices 1 2 3 4 5 6 
#
# 1 18.9390 37.1896 28.8919 0.0000 0.0000 0.0000
# 2 37.1896 248.7064 151.4319 0.0000 0.0000 0.0000
# 3 28.8919 151.4319 241.6887 0.0000 0.0000 0.0000
# 4 0.0000 0.0000 0.0000 47.8591 0.0000 0.0000
# 5 0.0000 0.0000 0.0000 0.0000 43.6178 0.0000
# 6 0.0000 0.0000 0.0000 0.0000 0.0000 -13.5974
#
#
#
# Elastic Compliance Matrix: (Units=1/GPa)
#
#
# Indices 1 2 3 4 5 6 
#
# 1 0.076238 -0.009460 -0.003187 0.000000 0.000000 0.000000
# 2 -0.009460 0.007675 -0.003678 0.000000 0.000000 0.000000
# 3 -0.003187 -0.003678 0.006823 0.000000 0.000000 0.000000
# 4 0.000000 0.000000 0.000000 0.020895 0.000000 0.000000
# 5 0.000000 0.000000 0.000000 0.000000 0.022926 0.000000
# 6 0.000000 0.000000 0.000000 0.000000 0.000000 -0.073544
#
#
# Mechanical properties :
#
#
# Convention : Reuss Voigt Hill
#
# Bulk Modulus (GPa) = 17.21553 104.92900 61.07227
# Shear Modulus (GPa) = 44.23868 35.03061 39.63464
#
# Velocity S-wave (km/s) = 4.77868 4.25237 4.52319
# Velocity P-wave (km/s) = 6.27171 8.84726 7.66839
#
# Compressibility (1/GPa) = 0.05808709
#
# Stress axis : x y z
#
# Youngs Moduli (GPa) = 13.11686 130.29884 146.56712
#
# Poissons Ratio (x) = 1.23260 0.46704
# Poissons Ratio (y) = 0.12408 0.53904
# Poissons Ratio (z) = 0.04180 0.47921
#
# Static dielectric constant tensor:
#      x y z
#    x 1.670940 0.000000 0.000000 
#    y 0.000000 1.673570 0.000000 
#    z 0.000000 0.000000 1.612590 
# 
# From -- ./inp_files/6096.got.cif
#   From: 2010.05.17/outbox.cif.g08.bks.cpg/sg51_4_cif.got.tgz:6096.got - 2010.06.03 11:52:47.
