data_PCOD9405923
_publ_section_title
;
Structure prediction by ZEFSAII (Michael W. Deem and Ramdas Pophale) SiO2 
 PCOD9405923
Probable space group: P M M A
;
_chemical_formula_sum "Si O2"
_cell_formula_units_Z 52
_cell_length_a 8.838215
_cell_length_b 13.376733
_cell_length_c 22.937171
_cell_angle_alpha 90.000000
_cell_angle_beta 90.000000
_cell_angle_gamma 90.000000
_cell_volume 2711.780123
_symmetry_space_group_name_H-M "P M M A"
_symmetry_group_IT_number 51
_symmetry_cell_setting 'orthorhombic'
loop_
_space_group_symop_operation_xyz
x,y,z
1/2-x,-y,z
1/2+x,-y,-z
-x,y,-z
-x,-y,-z
1/2+x,y,-z
1/2-x,y,z
x,-y,z
loop_
_atom_site_type_symbol
_atom_site_label
_atom_site_fract_x
_atom_site_fract_y
_atom_site_fract_z
Si Si1 0.432690 0.114424 0.435587
Si Si2 0.071116 0.112796 0.187126
Si Si3 0.932719 0.610436 0.882431
Si Si4 0.071721 0.692673 0.765164
Si Si5 0.567312 0.692914 0.638930
Si Si6 0.069845 0.814548 0.060121
Si Si7 0.568291 0.500000 0.563640
O O1 0.500000 0.133233 0.500000
O O2 0.250000 0.118149 0.439656
O O3 0.479274 0.201491 0.390598
O O4 0.474569 0.000000 0.418587
O O5 0.250000 0.139182 0.194236
O O6 0.037385 0.122109 0.118151
O O7 0.970269 0.192724 0.219902
O O8 0.049578 0.000000 0.207137
O O9 0.750000 0.614957 0.879702
O O10 0.978023 0.500000 0.902513
O O11 0.983281 0.701892 0.923416
O O12 0.995219 0.630776 0.817660
O O13 0.250000 0.675938 0.765814
O O14 0.003119 0.673423 0.701936
O O15 0.750000 0.694723 0.644589
O O16 0.523939 0.600617 0.597592
O O17 0.250000 0.812776 0.053120
O O18 0.000000 0.850111 0.000000
O O19 0.750000 0.500000 0.559939
O O20 0.500000 0.500000 0.500000
#
# Coordination Sequence:
#
# PCOD9405923 Si02
#       7
#     8   8   8   8   8   8   4
#     4   9  18  33  54  78 104 135 173 218 266 318
#     4   9  19  38  60  78 104 147 190 224 267 328
#     4   9  19  37  58  75 100 143 186 223 268 327
#     4  11  23  36  53  82 113 138 174 229 282 323
#     4  10  21  37  55  78 108 146 188 221 266 334
#     4   9  18  32  51  79 110 140 178 222 270 325
#     4  10  22  38  58  82 110 146 185 230 277 328
#
# _framework density 19.175595999999999
#
# number of rings (size 3 to 8) (size 9 to 14) (size 15 to 20)
#    0.000    2.462    0.000    2.769    1.077    5.538 
#    0.000    1.538    0.000    0.000    0.000    0.000 
#    0.000    0.000    0.000    0.000    0.000    0.000 
#
# Total GULP energy -290183.482111 kJ/mol
# GULP energy per Si atom -5580.451579 kJ/mol
# Density = 1.913195 g / cm^3
# Si number density = 19.175596 Si / 1000 Ang^3
#
#
#
# Elastic Constant Matrix: (Units=GPa)
#
#
# Indices 1 2 3 4 5 6 
#
# 1 6.3205 4.0211 9.5332 0.0000 0.0000 0.0000
# 2 4.0211 52.3648 -8.6453 0.0000 0.0000 0.0000
# 3 9.5332 -8.6453 72.1548 0.0000 0.0000 0.0000
# 4 0.0000 0.0000 0.0000 -2.3068 0.0000 0.0000
# 5 0.0000 0.0000 0.0000 0.0000 31.3914 0.0000
# 6 0.0000 0.0000 0.0000 0.0000 0.0000 13.8372
#
#
#
# Elastic Compliance Matrix: (Units=1/GPa)
#
#
# Indices 1 2 3 4 5 6 
#
# 1 0.220189 -0.022149 -0.031745 0.000000 0.000000 0.000000
# 2 -0.022149 0.021710 0.005528 0.000000 0.000000 0.000000
# 3 -0.031745 0.005528 0.018716 0.000000 0.000000 0.000000
# 4 0.000000 0.000000 0.000000 -0.433498 0.000000 0.000000
# 5 0.000000 0.000000 0.000000 0.000000 0.031856 0.000000
# 6 0.000000 0.000000 0.000000 0.000000 0.000000 0.072269
#
#
# Mechanical properties :
#
#
# Convention : Reuss Voigt Hill
#
# Bulk Modulus (GPa) = 6.10199 15.62865 10.86532
# Shear Modulus (GPa) = 60.53064 16.97978 38.75521
#
# Velocity S-wave (km/s) = 5.62450 2.97894 4.50051
# Velocity P-wave (km/s) = 6.73566 4.47215 5.71705
#
# Compressibility (1/GPa) = 0.16388087
#
# Stress axis : x y z
#
# Youngs Moduli (GPa) = 4.54155 46.06121 53.43125
#
# Poissons Ratio (x) = 1.02023 1.69620
# Poissons Ratio (y) = 0.10059 -0.29535
# Poissons Ratio (z) = 0.14417 -0.25461
#
# Static dielectric constant tensor:
#      x y z
#    x 1.642210 0.000000 0.000000 
#    y 0.000000 1.694080 0.000000 
#    z 0.000000 0.000000 1.634910 
# 
# From -- ./inp_files/31716.got.cif
#   From: 2010.05.17/outbox.cif.g08.bks.cpg/sg51_16_cif.got.tgz:31716.got - 2010.06.03 11:52:47.
