data_PCOD9405237
_publ_section_title
;
Structure prediction by ZEFSAII (Michael W. Deem and Ramdas Pophale) SiO2 
 PCOD9405237
Probable space group: P M M A
;
_chemical_formula_sum "Si O2"
_cell_formula_units_Z 48
_cell_length_a 28.922068
_cell_length_b 8.639729
_cell_length_c 10.430850
_cell_angle_alpha 90.000000
_cell_angle_beta 90.000000
_cell_angle_gamma 90.000000
_cell_volume 2606.448590
_symmetry_space_group_name_H-M "P M M A"
_symmetry_group_IT_number 51
_symmetry_cell_setting 'orthorhombic'
loop_
_space_group_symop_operation_xyz
x,y,z
1/2-x,-y,z
1/2+x,-y,-z
-x,y,-z
-x,-y,-z
1/2+x,y,-z
1/2-x,y,z
x,-y,z
loop_
_atom_site_type_symbol
_atom_site_label
_atom_site_fract_x
_atom_site_fract_y
_atom_site_fract_z
Si Si1 0.344958 0.685373 0.493624
Si Si2 0.750000 0.185849 0.613767
Si Si3 0.604134 0.814486 0.260963
Si Si4 0.407686 0.313684 0.249047
Si Si5 0.750000 0.811774 0.913540
Si Si6 0.351650 0.187048 0.007513
Si Si7 0.993756 0.312828 0.350614
O O1 0.344064 0.500000 0.503753
O O2 0.295301 0.749023 0.454065
O O3 0.363270 0.756160 0.624906
O O4 0.380039 0.726946 0.378542
O O5 0.750000 0.233040 0.763648
O O6 0.750000 0.000000 0.609007
O O7 0.552988 0.752355 0.290763
O O8 0.603053 0.000000 0.260949
O O9 0.624669 0.761356 0.124621
O O10 0.406620 0.500000 0.236548
O O11 0.381789 0.241918 0.128128
O O12 0.460775 0.266005 0.270943
O O13 0.798305 0.759612 0.976386
O O14 0.750000 0.000000 0.917978
O O15 0.350870 0.000000 0.008136
O O16 0.991106 0.500000 0.350378
O O17 0.000000 0.265840 0.500000
#
# Coordination Sequence:
#
# PCOD9405237 Si02
#       7
#     8   4   8   8   4   8   8
#     4  11  22  39  61  88 122 156 196 247 296 352
#     4  11  21  36  63  94 118 152 201 249 300 353
#     4  11  24  39  59  90 123 159 200 249 304 359
#     4  10  21  37  61  88 114 154 202 245 295 356
#     4   9  18  36  61  84 112 156 195 233 288 351
#     4  10  22  40  60  86 122 158 197 245 301 358
#     4  10  20  39  62  85 117 159 202 248 303 360
#
# _framework density 18.415863000000002
#
# number of rings (size 3 to 8) (size 9 to 14) (size 15 to 20)
#    0.000    1.667    3.333    1.250    0.000    4.333 
#    0.000    5.417    0.000    0.000    0.000    0.000 
#    0.000    0.000    0.000    0.000    0.000    0.000 
#
# Total GULP energy -268130.007252 kJ/mol
# GULP energy per Si atom -5586.041818 kJ/mol
# Density = 1.837395 g / cm^3
# Si number density = 18.415863 Si / 1000 Ang^3
#
#
#
# Elastic Constant Matrix: (Units=GPa)
#
#
# Indices 1 2 3 4 5 6 
#
# 1 178.8866 29.6732 84.2441 0.0000 0.0000 0.0000
# 2 29.6732 16.6582 27.7999 0.0000 0.0000 0.0000
# 3 84.2441 27.7999 148.0110 0.0000 0.0000 0.0000
# 4 0.0000 0.0000 0.0000 26.1007 0.0000 0.0000
# 5 0.0000 0.0000 0.0000 0.0000 34.0642 0.0000
# 6 0.0000 0.0000 0.0000 0.0000 0.0000 42.7414
#
#
#
# Elastic Compliance Matrix: (Units=1/GPa)
#
#
# Indices 1 2 3 4 5 6 
#
# 1 0.008759 -0.010608 -0.002993 0.000000 0.000000 0.000000
# 2 -0.010608 0.100284 -0.012798 0.000000 0.000000 0.000000
# 3 -0.002993 -0.012798 0.010864 0.000000 0.000000 0.000000
# 4 0.000000 0.000000 0.000000 0.038313 0.000000 0.000000
# 5 0.000000 0.000000 0.000000 0.000000 0.029356 0.000000
# 6 0.000000 0.000000 0.000000 0.000000 0.000000 0.023397
#
#
# Mechanical properties :
#
#
# Convention : Reuss Voigt Hill
#
# Bulk Modulus (GPa) = 14.90108 69.66557 42.28332
# Shear Modulus (GPa) = 17.47390 34.03716 25.75553
#
# Velocity S-wave (km/s) = 3.08368 4.30379 3.74378
# Velocity P-wave (km/s) = 4.55937 7.91253 6.45740
#
# Compressibility (1/GPa) = 0.06710922
#
# Stress axis : x y z
#
# Youngs Moduli (GPa) = 114.16397 9.97166 92.05010
#
# Poissons Ratio (x) = 0.10578 0.27552
# Poissons Ratio (y) = 1.21103 1.17805
# Poissons Ratio (z) = 0.34171 0.12762
#
# Static dielectric constant tensor:
#      x y z
#    x 1.620790 0.000000 0.000000 
#    y 0.000000 1.628370 0.000000 
#    z 0.000000 0.000000 1.604190 
# 
# From -- ./inp_files/12972.got.cif
#   From: 2010.05.17/outbox.cif.g08.bks.cpg/sg51_7_cif.got.tgz:12972.got - 2010.06.03 11:52:47.
