data_PCOD9405761
_publ_section_title
;
Structure prediction by ZEFSAII (Michael W. Deem and Ramdas Pophale) SiO2 
 PCOD9405761
Probable space group: P M M A
;
_chemical_formula_sum "Si O2"
_cell_formula_units_Z 56
_cell_length_a 17.876095
_cell_length_b 14.668862
_cell_length_c 12.625300
_cell_angle_alpha 90.000000
_cell_angle_beta 90.000000
_cell_angle_gamma 90.000000
_cell_volume 3310.631046
_symmetry_space_group_name_H-M "P M M A"
_symmetry_group_IT_number 51
_symmetry_cell_setting 'orthorhombic'
loop_
_space_group_symop_operation_xyz
x,y,z
1/2-x,-y,z
1/2+x,-y,-z
-x,y,-z
-x,-y,-z
1/2+x,y,-z
1/2-x,y,z
x,-y,z
loop_
_atom_site_type_symbol
_atom_site_label
_atom_site_fract_x
_atom_site_fract_y
_atom_site_fract_z
Si Si1 0.582901 0.216788 0.951005
Si Si2 0.161637 0.793132 0.459499
Si Si3 0.588479 0.108300 0.729102
Si Si4 0.338719 0.894019 0.866428
Si Si5 0.339475 0.395561 0.127646
Si Si6 0.079134 0.107735 0.649424
Si Si7 0.840478 0.400194 0.622359
O O1 0.585222 0.160801 0.840699
O O2 0.614316 0.317860 0.930695
O O3 0.500000 0.218135 0.000000
O O4 0.634573 0.165615 0.035808
O O5 0.250000 0.794604 0.485668
O O6 0.148681 0.847534 0.349810
O O7 0.113495 0.838633 0.551639
O O8 0.135468 0.689212 0.440023
O O9 0.508748 0.120319 0.669989
O O10 0.600391 0.000000 0.744939
O O11 0.250000 0.888707 0.852738
O O12 0.379201 0.865946 0.758061
O O13 0.359426 0.000000 0.886019
O O14 0.250000 0.379718 0.116567
O O15 0.354497 0.500000 0.093782
O O16 0.357622 0.389809 0.253040
O O17 0.092332 0.000000 0.631279
O O18 0.750000 0.401352 0.616051
O O19 0.867650 0.500000 0.586475
#
# Coordination Sequence:
#
# PCOD9405761 Si02
#       7
#     8   8   8   8   8   8   8
#     4  12  22  35  57  82 111 147 186 231 279 328
#     4  11  21  34  57  85 109 136 181 236 281 326
#     4  11  23  37  54  78 112 149 184 227 280 334
#     4  10  21  36  55  79 109 149 195 232 266 323
#     4   9  18  35  58  82 110 142 178 225 280 334
#     4  10  21  38  55  74 108 154 191 219 267 337
#     4   8  15  30  53  79 105 133 167 212 272 334
#
# _framework density 16.915203000000002
#
# number of rings (size 3 to 8) (size 9 to 14) (size 15 to 20)
#    0.000    1.857    2.857    3.000    0.000    4.286 
#    0.000    0.000    0.000    3.429    0.000    2.000 
#    0.000    0.000    0.000    0.000    0.000    0.000 
#
# Total GULP energy -312498.641863 kJ/mol
# GULP energy per Si atom -5580.332890 kJ/mol
# Density = 1.687670 g / cm^3
# Si number density = 16.915203 Si / 1000 Ang^3
#
#
#
# Elastic Constant Matrix: (Units=GPa)
#
#
# Indices 1 2 3 4 5 6 
#
# 1 23.8156 17.9444 10.5366 0.0000 0.0000 0.0000
# 2 17.9444 97.7172 46.8029 0.0000 0.0000 0.0000
# 3 10.5366 46.8029 75.1221 0.0000 0.0000 0.0000
# 4 0.0000 0.0000 0.0000 3.7588 0.0000 0.0000
# 5 0.0000 0.0000 0.0000 0.0000 -651.3519 0.0000
# 6 0.0000 0.0000 0.0000 0.0000 0.0000 12.3237
#
#
#
# Elastic Compliance Matrix: (Units=1/GPa)
#
#
# Indices 1 2 3 4 5 6 
#
# 1 0.048903 -0.008117 -0.001802 0.000000 0.000000 0.000000
# 2 -0.008117 0.015934 -0.008788 0.000000 0.000000 0.000000
# 3 -0.001802 -0.008788 0.019040 0.000000 0.000000 0.000000
# 4 0.000000 0.000000 0.000000 0.266042 0.000000 0.000000
# 5 0.000000 0.000000 0.000000 0.000000 -0.001535 0.000000
# 6 0.000000 0.000000 0.000000 0.000000 0.000000 0.081145
#
#
# Mechanical properties :
#
#
# Convention : Reuss Voigt Hill
#
# Bulk Modulus (GPa) = 21.52350 38.58030 30.05190
# Shear Modulus (GPa) = 10.36421 -118.96248 -54.29914
#
# Velocity S-wave (km/s) = 2.47800 -8.39532 -5.67190
# Velocity P-wave (km/s) = 4.57594 8.43313 5.00891
#
# Compressibility (1/GPa) = 0.04646085
#
# Stress axis : x y z
#
# Youngs Moduli (GPa) = 20.44883 62.76050 52.52143
#
# Poissons Ratio (x) = 0.50944 0.09464
# Poissons Ratio (y) = 0.16599 0.46158
# Poissons Ratio (z) = 0.03685 0.55157
#
# Static dielectric constant tensor:
#      x y z
#    x 1.566170 0.000000 0.000000 
#    y 0.000000 1.578790 0.000000 
#    z 0.000000 0.000000 1.547720 
# 
# From -- ./inp_files/16666.got.cif
#   From: 2010.05.17/outbox.cif.g08.bks.cpg/sg51_9_cif.got.tgz:16666.got - 2010.06.03 11:52:47.
