data_PCOD9405629
_publ_section_title
;
Structure prediction by ZEFSAII (Michael W. Deem and Ramdas Pophale) SiO2 
 PCOD9405629
Probable space group: P M M A
;
_chemical_formula_sum "Si O2"
_cell_formula_units_Z 56
_cell_length_a 14.613989
_cell_length_b 8.985146
_cell_length_c 24.323118
_cell_angle_alpha 90.000000
_cell_angle_beta 90.000000
_cell_angle_gamma 90.000000
_cell_volume 3193.840040
_symmetry_space_group_name_H-M "P M M A"
_symmetry_group_IT_number 51
_symmetry_cell_setting 'orthorhombic'
loop_
_space_group_symop_operation_xyz
x,y,z
1/2-x,-y,z
1/2+x,-y,-z
-x,y,-z
-x,-y,-z
1/2+x,y,-z
1/2-x,y,z
x,-y,z
loop_
_atom_site_type_symbol
_atom_site_label
_atom_site_fract_x
_atom_site_fract_y
_atom_site_fract_z
Si Si1 0.993145 0.320893 0.063174
Si Si2 0.642587 0.676764 0.447398
Si Si3 0.356270 0.320847 0.152680
Si Si4 0.855443 0.179132 0.146749
Si Si5 0.640350 0.173215 0.562342
Si Si6 0.504222 0.677626 0.643984
Si Si7 0.505726 0.821778 0.763339
O O1 0.983437 0.500000 0.064068
O O2 0.907888 0.249818 0.095122
O O3 0.083985 0.283406 0.098509
O O4 0.000000 0.272669 0.000000
O O5 0.750000 0.704557 0.437292
O O6 0.630736 0.500000 0.457752
O O7 0.614871 0.763665 0.502355
O O8 0.581957 0.716835 0.394943
O O9 0.250000 0.278285 0.148161
O O10 0.360641 0.500000 0.159639
O O11 0.407874 0.243801 0.203407
O O12 0.750000 0.226664 0.151004
O O13 0.916269 0.218076 0.200205
O O14 0.857470 0.000000 0.141633
O O15 0.750000 0.186140 0.566964
O O16 0.591207 0.266064 0.609584
O O17 0.615125 0.000000 0.566762
O O18 0.506780 0.500000 0.650613
O O19 0.499750 0.754382 0.702913
O O20 0.512465 0.000000 0.760803
#
# Coordination Sequence:
#
# PCOD9405629 Si02
#       7
#     8   8   8   8   8   8   8
#     4   9  18  32  52  81 112 138 170 212 254 300
#     4   9  19  36  55  76 104 135 166 203 250 305
#     4   9  18  34  54  74 101 138 174 209 253 303
#     4   9  19  36  55  75 103 140 177 212 255 305
#     4  10  21  36  54  77 104 134 169 209 253 302
#     4  11  22  35  54  78 103 134 170 208 255 308
#     4  10  21  36  53  74 101 132 170 217 260 300
#
# _framework density 17.533752
#
# number of rings (size 3 to 8) (size 9 to 14) (size 15 to 20)
#    0.000    2.429    0.000    1.714    0.000    6.857 
#    0.000    1.429    0.000    0.000    0.000    0.000 
#    0.000    0.000    0.000    0.000    0.000    0.000 
#
# Total GULP energy -312521.258617 kJ/mol
# GULP energy per Si atom -5580.736761 kJ/mol
# Density = 1.749384 g / cm^3
# Si number density = 17.533752 Si / 1000 Ang^3
#
#
#
# Elastic Constant Matrix: (Units=GPa)
#
#
# Indices 1 2 3 4 5 6 
#
# 1 126.9873 42.7857 73.8691 0.0000 0.0000 0.0000
# 2 42.7857 33.6795 53.0614 0.0000 0.0000 0.0000
# 3 73.8691 53.0614 170.2654 0.0000 0.0000 0.0000
# 4 0.0000 0.0000 0.0000 24.3746 0.0000 0.0000
# 5 0.0000 0.0000 0.0000 0.0000 16.0911 0.0000
# 6 0.0000 0.0000 0.0000 0.0000 0.0000 24.3851
#
#
#
# Elastic Compliance Matrix: (Units=1/GPa)
#
#
# Indices 1 2 3 4 5 6 
#
# 1 0.013860 -0.015979 -0.001033 0.000000 0.000000 0.000000
# 2 -0.015979 0.076754 -0.016987 0.000000 0.000000 0.000000
# 3 -0.001033 -0.016987 0.011615 0.000000 0.000000 0.000000
# 4 0.000000 0.000000 0.000000 0.041026 0.000000 0.000000
# 5 0.000000 0.000000 0.000000 0.000000 0.062146 0.000000
# 6 0.000000 0.000000 0.000000 0.000000 0.000000 0.041009
#
#
# Mechanical properties :
#
#
# Convention : Reuss Voigt Hill
#
# Bulk Modulus (GPa) = 29.21408 74.48497 51.84953
# Shear Modulus (GPa) = 15.34591 23.71789 19.53190
#
# Velocity S-wave (km/s) = 2.96162 3.68190 3.34122
# Velocity P-wave (km/s) = 5.32848 7.78770 6.67237
#
# Compressibility (1/GPa) = 0.03423007
#
# Stress axis : x y z
#
# Youngs Moduli (GPa) = 72.15152 13.02860 86.09339
#
# Poissons Ratio (x) = 0.20819 0.08895
# Poissons Ratio (y) = 1.15293 1.46248
# Poissons Ratio (z) = 0.07455 0.22132
#
# Static dielectric constant tensor:
#      x y z
#    x 1.594310 0.000000 0.000000 
#    y 0.000000 1.589550 0.000000 
#    z 0.000000 0.000000 1.562330 
# 
# From -- ./inp_files/33319.got.cif
#   From: 2010.05.17/outbox.cif.g08.bks.cpg/sg51_17_cif.got.tgz:33319.got - 2010.06.03 11:52:47.
