data_PCOD9405082
_publ_section_title
;
Structure prediction by ZEFSAII (Michael W. Deem and Ramdas Pophale) SiO2 
 PCOD9405082
Probable space group: P M M A
;
_chemical_formula_sum "Si O2"
_cell_formula_units_Z 40
_cell_length_a 10.311830
_cell_length_b 7.672719
_cell_length_c 24.620523
_cell_angle_alpha 90.000000
_cell_angle_beta 90.000000
_cell_angle_gamma 90.000000
_cell_volume 1947.970215
_symmetry_space_group_name_H-M "P M M A"
_symmetry_group_IT_number 51
_symmetry_cell_setting 'orthorhombic'
loop_
_space_group_symop_operation_xyz
x,y,z
1/2-x,-y,z
1/2+x,-y,-z
-x,y,-z
-x,-y,-z
1/2+x,y,-z
1/2-x,y,z
x,-y,z
loop_
_atom_site_type_symbol
_atom_site_label
_atom_site_fract_x
_atom_site_fract_y
_atom_site_fract_z
Si Si1 0.397629 0.213658 0.743415
Si Si2 0.750000 0.787569 0.459389
Si Si3 0.750000 0.701273 0.585451
Si Si4 0.897106 0.290550 0.956227
Si Si5 0.532563 0.204119 0.376707
Si Si6 0.102784 0.209609 0.167574
O O1 0.250000 0.264105 0.755839
O O2 0.434686 0.275217 0.682849
O O3 0.500656 0.274116 0.788107
O O4 0.401664 0.000000 0.743319
O O5 0.750000 0.721070 0.520495
O O6 0.875437 0.728234 0.424900
O O7 0.750000 0.000000 0.463853
O O8 0.750000 0.500000 0.600310
O O9 0.617705 0.779551 0.608786
O O10 0.750000 0.223926 0.964403
O O11 0.892224 0.500000 0.961746
O O12 0.935253 0.251555 0.894219
O O13 0.000000 0.223363 0.000000
O O14 0.565731 0.000000 0.373703
O O15 0.250000 0.275182 0.176301
O O16 0.107146 0.000000 0.172251
#
# Coordination Sequence:
#
# PCOD9405082 Si02
#       6
#     8   4   4   8   8   8
#     4   9  17  32  55  82 107 132 169 219 270 315
#     4  10  20  38  62  86 106 134 181 230 269 316
#     4  12  26  38  52  80 114 148 179 214 269 330
#     4   9  18  33  51  71  99 137 177 215 253 297
#     4  10  20  37  61  84 106 137 181 228 268 316
#     4   9  18  31  50  78 108 137 168 207 259 314
#
# _framework density 20.534193999999999
#
# number of rings (size 3 to 8) (size 9 to 14) (size 15 to 20)
#    0.000    2.400    1.000    1.500    1.400    4.400 
#    0.000    1.000    0.000    1.200    0.000    0.000 
#    0.000    0.000    0.000    0.000    0.000    0.000 
#
# Total GULP energy -223327.856971 kJ/mol
# GULP energy per Si atom -5583.196424 kJ/mol
# Density = 2.048746 g / cm^3
# Si number density = 20.534194 Si / 1000 Ang^3
#
#
#
# Elastic Constant Matrix: (Units=GPa)
#
#
# Indices 1 2 3 4 5 6 
#
# 1 132.4092 -10.1557 89.1254 0.0000 0.0000 0.0000
# 2 -10.1557 32.3732 -6.4602 0.0000 0.0000 0.0000
# 3 89.1254 -6.4602 140.8346 0.0000 0.0000 0.0000
# 4 0.0000 0.0000 0.0000 54.2743 0.0000 0.0000
# 5 0.0000 0.0000 0.0000 0.0000 153.5920 0.0000
# 6 0.0000 0.0000 0.0000 0.0000 0.0000 -23.4528
#
#
#
# Elastic Compliance Matrix: (Units=1/GPa)
#
#
# Indices 1 2 3 4 5 6 
#
# 1 0.013358 0.002527 -0.008338 0.000000 0.000000 0.000000
# 2 0.002527 0.031653 -0.000147 0.000000 0.000000 0.000000
# 3 -0.008338 -0.000147 0.012370 0.000000 0.000000 0.000000
# 4 0.000000 0.000000 0.000000 0.018425 0.000000 0.000000
# 5 0.000000 0.000000 0.000000 0.000000 0.006511 0.000000
# 6 0.000000 0.000000 0.000000 0.000000 0.000000 -0.042639
#
#
# Mechanical properties :
#
#
# Convention : Reuss Voigt Hill
#
# Bulk Modulus (GPa) = 21.99469 50.07065 36.03267
# Shear Modulus (GPa) = 74.90666 52.42321 63.66493
#
# Velocity S-wave (km/s) = 6.04634 5.05818 5.57420
# Velocity P-wave (km/s) = 7.71225 7.65183 7.68210
#
# Compressibility (1/GPa) = 0.04546552
#
# Stress axis : x y z
#
# Youngs Moduli (GPa) = 74.85966 31.59249 80.83935
#
# Poissons Ratio (x) = -0.07983 0.67402
# Poissons Ratio (y) = -0.18915 0.01189
# Poissons Ratio (z) = 0.62416 0.00465
#
# Static dielectric constant tensor:
#      x y z
#    x 1.596400 0.000000 0.000000 
#    y 0.000000 1.759890 0.000000 
#    z 0.000000 0.000000 1.692960 
# 
# From -- ./inp_files/36032.got.cif
#   From: 2010.05.17/outbox.cif.g08.bks.cpg/sg51_19_cif.got.tgz:36032.got - 2010.06.03 11:52:47.
