data_PCOD9405779
_publ_section_title
;
Structure prediction by ZEFSAII (Michael W. Deem and Ramdas Pophale) SiO2 
 PCOD9405779
Probable space group: P M M A
;
_chemical_formula_sum "Si O2"
_cell_formula_units_Z 56
_cell_length_a 14.457292
_cell_length_b 9.321964
_cell_length_c 22.695378
_cell_angle_alpha 90.000000
_cell_angle_beta 90.000000
_cell_angle_gamma 90.000000
_cell_volume 3058.664163
_symmetry_space_group_name_H-M "P M M A"
_symmetry_group_IT_number 51
_symmetry_cell_setting 'orthorhombic'
loop_
_space_group_symop_operation_xyz
x,y,z
1/2-x,-y,z
1/2+x,-y,-z
-x,y,-z
-x,-y,-z
1/2+x,y,-z
1/2-x,y,z
x,-y,z
loop_
_atom_site_type_symbol
_atom_site_label
_atom_site_fract_x
_atom_site_fract_y
_atom_site_fract_z
Si Si1 0.858702 0.665701 0.025416
Si Si2 0.026320 0.670516 0.855800
Si Si3 0.858788 0.829015 0.244523
Si Si4 0.033526 0.829965 0.634874
Si Si5 0.858485 0.170046 0.904739
Si Si6 0.859670 0.333400 0.466090
Si Si7 0.143787 0.328718 0.394953
O O1 0.750000 0.677417 0.041157
O O2 0.875654 0.500000 0.006732
O O3 0.920083 0.695626 0.082361
O O4 0.876341 0.768909 0.970470
O O5 0.017179 0.500000 0.847904
O O6 0.927380 0.746703 0.861791
O O7 0.086549 0.740178 0.804306
O O8 0.750000 0.794127 0.244238
O O9 0.903176 0.800282 0.308325
O O10 0.868173 0.000000 0.232922
O O11 0.083204 0.765286 0.577461
O O12 0.933846 0.755593 0.640290
O O13 0.022966 0.000000 0.628905
O O14 0.750000 0.196744 0.892095
O O15 0.874990 0.000000 0.902744
O O16 0.750000 0.321035 0.453905
O O17 0.886753 0.500000 0.457114
O O18 0.871991 0.300237 0.535213
O O19 0.250000 0.289436 0.381245
O O20 0.134613 0.500000 0.386858
#
# Coordination Sequence:
#
# PCOD9405779 Si02
#       7
#     8   8   8   8   8   8   8
#     4   9  18  33  53  80 114 145 174 217 272 323
#     4  11  22  36  57  83 109 141 183 228 273 319
#     4  10  23  42  59  77 107 145 181 219 265 319
#     4  11  22  35  54  81 111 143 180 223 272 322
#     4  10  21  36  55  81 112 146 183 220 263 321
#     4   9  18  33  54  80 110 145 182 220 266 321
#     4   9  19  36  56  79 109 144 182 223 267 319
#
# _framework density 18.308647000000001
#
# number of rings (size 3 to 8) (size 9 to 14) (size 15 to 20)
#    0.000    2.143    0.000    3.857    0.000    9.143 
#    0.000    3.571    0.000    0.857    0.000    0.000 
#    0.000    0.000    0.000    0.000    0.000    0.000 
#
# Total GULP energy -312820.419313 kJ/mol
# GULP energy per Si atom -5586.078916 kJ/mol
# Density = 1.826698 g / cm^3
# Si number density = 18.308647 Si / 1000 Ang^3
#
#
#
# Elastic Constant Matrix: (Units=GPa)
#
#
# Indices 1 2 3 4 5 6 
#
# 1 114.7080 75.6390 53.9682 0.0000 0.0000 0.0000
# 2 75.6390 70.0429 45.2820 0.0000 0.0000 0.0000
# 3 53.9682 45.2820 34.3843 0.0000 0.0000 0.0000
# 4 0.0000 0.0000 0.0000 31.9866 0.0000 0.0000
# 5 0.0000 0.0000 0.0000 0.0000 32.7562 0.0000
# 6 0.0000 0.0000 0.0000 0.0000 0.0000 31.4493
#
#
#
# Elastic Compliance Matrix: (Units=1/GPa)
#
#
# Indices 1 2 3 4 5 6 
#
# 1 0.035716 -0.015668 -0.035425 0.000000 0.000000 0.000000
# 2 -0.015668 0.102940 -0.110974 0.000000 0.000000 0.000000
# 3 -0.035425 -0.110974 0.230831 0.000000 0.000000 0.000000
# 4 0.000000 0.000000 0.000000 0.031263 0.000000 0.000000
# 5 0.000000 0.000000 0.000000 0.000000 0.030529 0.000000
# 6 0.000000 0.000000 0.000000 0.000000 0.000000 0.031797
#
#
# Mechanical properties :
#
#
# Convention : Reuss Voigt Hill
#
# Bulk Modulus (GPa) = 22.04930 63.21264 42.63097
# Shear Modulus (GPa) = 6.23188 22.18816 14.21002
#
# Velocity S-wave (km/s) = 1.84694 3.48501 2.78895
# Velocity P-wave (km/s) = 4.07646 7.12704 5.80570
#
# Compressibility (1/GPa) = 0.04535292
#
# Stress axis : x y z
#
# Youngs Moduli (GPa) = 27.99858 9.71443 4.33218
#
# Poissons Ratio (x) = 0.15220 0.15347
# Poissons Ratio (y) = 0.43867 0.48076
# Poissons Ratio (z) = 0.99186 1.07805
#
# Static dielectric constant tensor:
#      x y z
#    x 1.644390 0.000000 0.000000 
#    y 0.000000 1.607700 0.000000 
#    z 0.000000 0.000000 1.599520 
# 
# From -- ./inp_files/33428.got.cif
#   From: 2010.05.17/outbox.cif.g08.bks.cpg/sg51_17_cif.got.tgz:33428.got - 2010.06.03 11:52:47.
