data_PCOD9405394
_publ_section_title
;
Structure prediction by ZEFSAII (Michael W. Deem and Ramdas Pophale) SiO2 
 PCOD9405394
Probable space group: P M M A
;
_chemical_formula_sum "Si O2"
_cell_formula_units_Z 64
_cell_length_a 30.613140
_cell_length_b 8.915937
_cell_length_c 15.058150
_cell_angle_alpha 90.000000
_cell_angle_beta 90.000000
_cell_angle_gamma 90.000000
_cell_volume 4110.044156
_symmetry_space_group_name_H-M "P M M A"
_symmetry_group_IT_number 51
_symmetry_cell_setting 'orthorhombic'
loop_
_space_group_symop_operation_xyz
x,y,z
1/2-x,-y,z
1/2+x,-y,-z
-x,y,-z
-x,-y,-z
1/2+x,y,-z
1/2-x,y,z
x,-y,z
loop_
_atom_site_type_symbol
_atom_site_label
_atom_site_fract_x
_atom_site_fract_y
_atom_site_fract_z
Si Si1 0.943114 0.179083 0.863887
Si Si2 0.298674 0.819146 0.004741
Si Si3 0.034947 0.678413 0.827392
Si Si4 0.613285 0.678949 0.706285
Si Si5 0.798522 0.679601 0.800190
Si Si6 0.066450 0.821701 0.449848
Si Si7 0.893243 0.819860 0.048404
Si Si8 0.029413 0.178975 0.635022
O O1 0.919120 0.245716 0.777728
O O2 0.991204 0.249461 0.869655
O O3 0.947064 0.000000 0.854283
O O4 0.914263 0.210828 0.951282
O O5 0.250000 0.772615 0.972818
O O6 0.303587 0.758283 0.104733
O O7 0.299281 0.000000 0.007773
O O8 0.342306 0.773023 0.952333
O O9 0.032032 0.500000 0.832156
O O10 0.076980 0.738149 0.879837
O O11 0.036462 0.732914 0.725441
O O12 0.608345 0.500000 0.711969
O O13 0.662119 0.721456 0.735849
O O14 0.601291 0.734738 0.608603
O O15 0.750000 0.715709 0.765952
O O16 0.800764 0.500000 0.814225
O O17 0.060797 0.778858 0.552836
O O18 0.019561 0.796528 0.402157
O O19 0.074584 0.000000 0.446353
O O20 0.895627 0.000000 0.062009
O O21 0.033788 0.000000 0.651253
#
# Coordination Sequence:
#
# PCOD9405394 Si02
#       8
#     8   8   8   8   8   8   8   8
#     4  11  21  34  49  67  96 135 171 200 235 284
#     4   9  17  31  51  73  94 120 162 208 243 280
#     4  12  24  34  48  71  98 130 166 207 244 281
#     4  11  20  29  47  74 101 129 163 200 239 283
#     4   9  18  31  46  67  99 134 161 191 238 291
#     4   9  18  32  52  72  93 125 160 193 238 289
#     4  10  21  35  50  69  95 133 168 199 243 289
#     4   9  18  34  52  70  93 125 161 197 238 288
#
# _framework density 15.57161
#
# number of rings (size 3 to 8) (size 9 to 14) (size 15 to 20)
#    0.000    2.000    2.500    3.000    0.000    4.000 
#    0.000    1.250    0.000    0.000    0.000    0.875 
#    0.000    1.000    0.000    0.000    0.000    0.000 
#
# Total GULP energy -357016.889997 kJ/mol
# GULP energy per Si atom -5578.388906 kJ/mol
# Density = 1.553617 g / cm^3
# Si number density = 15.571610 Si / 1000 Ang^3
#
#
#
# Elastic Constant Matrix: (Units=GPa)
#
#
# Indices 1 2 3 4 5 6 
#
# 1 128.7378 39.6062 39.9754 0.0000 0.0000 0.0000
# 2 39.6062 35.5823 31.8324 0.0000 0.0000 0.0000
# 3 39.9754 31.8324 55.3410 0.0000 0.0000 0.0000
# 4 0.0000 0.0000 0.0000 -69.1411 0.0000 0.0000
# 5 0.0000 0.0000 0.0000 0.0000 20.9935 0.0000
# 6 0.0000 0.0000 0.0000 0.0000 0.0000 18.5397
#
#
#
# Elastic Compliance Matrix: (Units=1/GPa)
#
#
# Indices 1 2 3 4 5 6 
#
# 1 0.011921 -0.011466 -0.002016 0.000000 0.000000 0.000000
# 2 -0.011466 0.068924 -0.031363 0.000000 0.000000 0.000000
# 3 -0.002016 -0.031363 0.037567 0.000000 0.000000 0.000000
# 4 0.000000 0.000000 0.000000 -0.014463 0.000000 0.000000
# 5 0.000000 0.000000 0.000000 0.000000 0.047634 0.000000
# 6 0.000000 0.000000 0.000000 0.000000 0.000000 0.053938
#
#
# Mechanical properties :
#
#
# Convention : Reuss Voigt Hill
#
# Bulk Modulus (GPa) = 34.81699 49.16547 41.99123
# Shear Modulus (GPa) = 16.40499 1.29489 8.84994
#
# Velocity S-wave (km/s) = 3.24932 0.91290 2.38657
# Velocity P-wave (km/s) = 6.04030 5.72307 5.88382
#
# Compressibility (1/GPa) = 0.02872161
#
# Stress axis : x y z
#
# Youngs Moduli (GPa) = 83.88427 14.50866 26.61945
#
# Poissons Ratio (x) = 0.16635 0.05367
# Poissons Ratio (y) = 0.96179 0.83488
# Poissons Ratio (z) = 0.16912 0.45504
#
# Static dielectric constant tensor:
#      x y z
#    x 1.536550 0.000000 0.000000 
#    y 0.000000 1.516880 0.000000 
#    z 0.000000 0.000000 1.496870 
# 
# From -- ./inp_files/26640.got.cif
#   From: 2010.05.17/outbox.cif.g08.bks.cpg/sg51_14_cif.got.tgz:26640.got - 2010.06.03 11:52:47.
