data_PCOD9405847
_publ_section_title
;
Structure prediction by ZEFSAII (Michael W. Deem and Ramdas Pophale) SiO2 
 PCOD9405847
Probable space group: P M M A
;
_chemical_formula_sum "Si O2"
_cell_formula_units_Z 58
_cell_length_a 7.640858
_cell_length_b 18.041272
_cell_length_c 19.574728
_cell_angle_alpha 90.000000
_cell_angle_beta 90.000000
_cell_angle_gamma 90.000000
_cell_volume 2698.391865
_symmetry_space_group_name_H-M "P M M A"
_symmetry_group_IT_number 51
_symmetry_cell_setting 'orthorhombic'
loop_
_space_group_symop_operation_xyz
x,y,z
1/2-x,-y,z
1/2+x,-y,-z
-x,y,-z
-x,-y,-z
1/2+x,y,-z
1/2-x,y,z
x,-y,z
loop_
_atom_site_type_symbol
_atom_site_label
_atom_site_fract_x
_atom_site_fract_y
_atom_site_fract_z
Si Si1 0.959838 0.084521 0.075918
Si Si2 0.547392 0.618362 0.640880
Si Si3 0.038263 0.830440 0.792315
Si Si4 0.041690 0.584910 0.076181
Si Si5 0.458652 0.225298 0.421020
Si Si6 0.044494 0.337266 0.783137
Si Si7 0.541183 0.083017 0.656026
Si Si8 0.250000 0.500000 0.604786
O O1 0.750000 0.080923 0.082500
O O2 0.025589 0.136640 0.136011
O O3 0.027432 0.000000 0.082153
O O4 0.000000 0.111732 0.000000
O O5 0.750000 0.606309 0.618350
O O6 0.490129 0.702080 0.621306
O O7 0.541455 0.614120 0.723473
O O8 0.405925 0.563760 0.609152
O O9 0.250000 0.826606 0.794244
O O10 0.974471 0.746857 0.780418
O O11 0.987621 0.885993 0.732072
O O12 0.250000 0.582477 0.082235
O O13 0.973188 0.500000 0.079630
O O14 0.975153 0.630996 0.140667
O O15 0.000000 0.613947 0.000000
O O16 0.500000 0.235698 0.500000
O O17 0.250000 0.221114 0.413176
O O18 0.531963 0.147773 0.392652
O O19 0.250000 0.336577 0.766702
O O20 0.750000 0.078401 0.644766
O O21 0.469466 0.000000 0.647277
#
# Coordination Sequence:
#
# PCOD9405847 Si02
#       8
#     8   8   8   8   8   8   8   2
#     4   9  18  33  51  74 107 150 203 261 321 381
#     4  11  24  44  68 102 136 173 225 272 332 397
#     4  10  21  36  57  84 119 162 209 265 323 384
#     4  10  22  39  58  83 116 159 208 270 336 400
#     4  10  23  42  69  96 132 177 214 261 326 392
#     4  11  22  37  60  90 123 166 214 268 330 401
#     4  10  21  38  61  94 131 168 217 268 318 384
#     4  12  26  44  74 102 134 176 216 284 330 390
#
# _framework density 21.494282999999999
#
# number of rings (size 3 to 8) (size 9 to 14) (size 15 to 20)
#    0.000    1.793    2.069    1.448    1.931    4.138 
#    0.000    3.103    0.000    0.000    0.000    0.000 
#    0.000    0.000    0.000    0.000    0.000    0.000 
#
# Total GULP energy -323495.353995 kJ/mol
# GULP energy per Si atom -5577.506103 kJ/mol
# Density = 2.144536 g / cm^3
# Si number density = 21.494283 Si / 1000 Ang^3
#
#
#
# Elastic Constant Matrix: (Units=GPa)
#
#
# Indices 1 2 3 4 5 6 
#
# 1 78.3636 25.3039 -9.4517 0.0000 0.0000 0.0000
# 2 25.3039 111.8821 24.7956 0.0000 0.0000 0.0000
# 3 -9.4517 24.7956 80.6999 0.0000 0.0000 0.0000
# 4 0.0000 0.0000 0.0000 -1.1149 0.0000 0.0000
# 5 0.0000 0.0000 0.0000 0.0000 23.8764 0.0000
# 6 0.0000 0.0000 0.0000 0.0000 0.0000 23.7899
#
#
#
# Elastic Compliance Matrix: (Units=1/GPa)
#
#
# Indices 1 2 3 4 5 6 
#
# 1 0.014363 -0.003886 0.002876 0.000000 0.000000 0.000000
# 2 -0.003886 0.010642 -0.003725 0.000000 0.000000 0.000000
# 3 0.002876 -0.003725 0.013873 0.000000 0.000000 0.000000
# 4 0.000000 0.000000 0.000000 -0.896977 0.000000 0.000000
# 5 0.000000 0.000000 0.000000 0.000000 0.041882 0.000000
# 6 0.000000 0.000000 0.000000 0.000000 0.000000 0.042035
#
#
# Mechanical properties :
#
#
# Convention : Reuss Voigt Hill
#
# Bulk Modulus (GPa) = 34.00363 39.13790 36.57076
# Shear Modulus (GPa) = -6.62331 24.66348 9.02009
#
# Velocity S-wave (km/s) = -1.75730 3.39107 2.05076
# Velocity P-wave (km/s) = 3.42589 5.79487 4.76011
#
# Compressibility (1/GPa) = 0.02940863
#
# Stress axis : x y z
#
# Youngs Moduli (GPa) = 69.62505 93.96413 72.08248
#
# Poissons Ratio (x) = 0.36512 -0.20732
# Poissons Ratio (y) = 0.27055 0.26851
# Poissons Ratio (z) = -0.20025 0.35002
#
# Static dielectric constant tensor:
#      x y z
#    x 1.791910 0.000000 0.000000 
#    y 0.000000 1.789510 0.000000 
#    z 0.000000 0.000000 1.269810 
# 
# From -- ./inp_files/28067.got.cif
#   From: 2010.05.17/outbox.cif.g08.bks.cpg/sg51_15_cif.got.tgz:28067.got - 2010.06.03 11:52:47.
