data_PCOD9405953
_publ_section_title
;
Structure prediction by ZEFSAII (Michael W. Deem and Ramdas Pophale) SiO2 
 PCOD9405953
Probable space group: P M M A
;
_chemical_formula_sum "Si O2"
_cell_formula_units_Z 56
_cell_length_a 19.340024
_cell_length_b 9.032491
_cell_length_c 18.244175
_cell_angle_alpha 90.000000
_cell_angle_beta 90.000000
_cell_angle_gamma 90.000000
_cell_volume 3187.049256
_symmetry_space_group_name_H-M "P M M A"
_symmetry_group_IT_number 51
_symmetry_cell_setting 'orthorhombic'
loop_
_space_group_symop_operation_xyz
x,y,z
1/2-x,-y,z
1/2+x,-y,-z
-x,y,-z
-x,-y,-z
1/2+x,y,-z
1/2-x,y,z
x,-y,z
loop_
_atom_site_type_symbol
_atom_site_label
_atom_site_fract_x
_atom_site_fract_y
_atom_site_fract_z
Si Si1 0.329782 0.178403 0.583612
Si Si2 0.169306 0.677302 0.004799
Si Si3 0.914216 0.324872 0.711588
Si Si4 0.065601 0.322055 0.872793
Si Si5 0.583303 0.176756 0.867317
Si Si6 0.833098 0.174034 0.581349
Si Si7 0.422961 0.324926 0.706066
O O1 0.250000 0.225616 0.594145
O O2 0.352272 0.222793 0.501285
O O3 0.377789 0.240235 0.647010
O O4 0.330682 0.000000 0.584597
O O5 0.250000 0.712140 0.993531
O O6 0.163635 0.500000 0.017386
O O7 0.137254 0.762393 0.073531
O O8 0.122461 0.711949 0.933879
O O9 0.904515 0.500000 0.723489
O O10 0.898642 0.238859 0.786761
O O11 0.869213 0.266762 0.644444
O O12 0.995324 0.299743 0.694644
O O13 0.052674 0.500000 0.873124
O O14 0.090646 0.282591 0.790812
O O15 0.992790 0.241524 0.886397
O O16 0.581449 0.000000 0.866905
O O17 0.750000 0.185244 0.586469
O O18 0.851038 0.000000 0.589624
O O19 0.409622 0.500000 0.698941
#
# Coordination Sequence:
#
# PCOD9405953 Si02
#       7
#     8   8   8   8   8   8   8
#     4   9  19  35  53  75 106 143 178 212 257 314
#     4  10  21  37  57  80 107 141 179 217 260 311
#     4  10  21  37  56  79 106 136 175 220 264 312
#     4   9  19  37  58  79 106 140 177 217 261 310
#     4  11  22  36  56  80 107 140 176 215 263 316
#     4   9  19  36  55  76 105 140 177 216 260 312
#     4   9  19  34  53  79 107 135 172 219 263 304
#
# _framework density 17.571110999999998
#
# number of rings (size 3 to 8) (size 9 to 14) (size 15 to 20)
#    0.000    2.429    0.000    3.857    0.000    8.286 
#    0.000    5.714    0.000    0.000    0.000    0.000 
#    0.000    0.000    0.000    0.000    0.000    0.000 
#
# Total GULP energy -312530.265735 kJ/mol
# GULP energy per Si atom -5580.897602 kJ/mol
# Density = 1.753112 g / cm^3
# Si number density = 17.571111 Si / 1000 Ang^3
#
#
#
# Elastic Constant Matrix: (Units=GPa)
#
#
# Indices 1 2 3 4 5 6 
#
# 1 50.6089 36.9528 57.5774 0.0000 0.0000 0.0000
# 2 36.9528 44.5819 46.7873 0.0000 0.0000 0.0000
# 3 57.5774 46.7873 104.8432 0.0000 0.0000 0.0000
# 4 0.0000 0.0000 0.0000 -1.5229 0.0000 0.0000
# 5 0.0000 0.0000 0.0000 0.0000 65.7729 0.0000
# 6 0.0000 0.0000 0.0000 0.0000 0.0000 27.2279
#
#
#
# Elastic Compliance Matrix: (Units=1/GPa)
#
#
# Indices 1 2 3 4 5 6 
#
# 1 0.073307 -0.034819 -0.024720 0.000000 0.000000 0.000000
# 2 -0.034819 0.058728 -0.007086 0.000000 0.000000 0.000000
# 3 -0.024720 -0.007086 0.026276 0.000000 0.000000 0.000000
# 4 0.000000 0.000000 0.000000 -0.656633 0.000000 0.000000
# 5 0.000000 0.000000 0.000000 0.000000 0.015204 0.000000
# 6 0.000000 0.000000 0.000000 0.000000 0.000000 0.036727
#
#
# Mechanical properties :
#
#
# Convention : Reuss Voigt Hill
#
# Bulk Modulus (GPa) = 39.90398 53.62989 46.76694
# Shear Modulus (GPa) = -16.40484 22.21002 2.90259
#
# Velocity S-wave (km/s) = -3.05884 3.55915 1.28666
# Velocity P-wave (km/s) = 3.20686 6.89042 5.37410
#
# Compressibility (1/GPa) = 0.02506016
#
# Stress axis : x y z
#
# Youngs Moduli (GPa) = 13.64130 17.02763 38.05789
#
# Poissons Ratio (x) = 0.59289 0.94078
# Poissons Ratio (y) = 0.47498 0.26968
# Poissons Ratio (z) = 0.33721 0.12066
#
# Static dielectric constant tensor:
#      x y z
#    x 1.575550 0.000000 0.000000 
#    y 0.000000 1.587780 0.000000 
#    z 0.000000 0.000000 1.586220 
# 
# From -- ./inp_files/25769.got.cif
#   From: 2010.05.17/outbox.cif.g08.bks.cpg/sg51_13_cif.got.tgz:25769.got - 2010.06.03 11:52:47.
