data_PCOD9405896
_publ_section_title
;
Structure prediction by ZEFSAII (Michael W. Deem and Ramdas Pophale) SiO2 
 PCOD9405896
Probable space group: P M M A
;
_chemical_formula_sum "Si O2"
_cell_formula_units_Z 64
_cell_length_a 19.639757
_cell_length_b 7.829006
_cell_length_c 22.361304
_cell_angle_alpha 90.000000
_cell_angle_beta 90.000000
_cell_angle_gamma 90.000000
_cell_volume 3438.269081
_symmetry_space_group_name_H-M "P M M A"
_symmetry_group_IT_number 51
_symmetry_cell_setting 'orthorhombic'
loop_
_space_group_symop_operation_xyz
x,y,z
1/2-x,-y,z
1/2+x,-y,-z
-x,y,-z
-x,-y,-z
1/2+x,y,-z
1/2-x,y,z
x,-y,z
loop_
_atom_site_type_symbol
_atom_site_label
_atom_site_fract_x
_atom_site_fract_y
_atom_site_fract_z
Si Si1 0.636149 0.805313 0.267147
Si Si2 0.009777 0.702302 0.309689
Si Si3 0.076587 0.297258 0.987743
Si Si4 0.323033 0.299876 0.605238
Si Si5 0.326529 0.796346 0.095802
Si Si6 0.918258 0.793630 0.147581
Si Si7 0.529901 0.291599 0.437357
Si Si8 0.432585 0.206371 0.192360
O O1 0.556237 0.801218 0.285199
O O2 0.670903 0.713386 0.322723
O O3 0.633349 0.733373 0.199781
O O4 0.661067 0.000000 0.266151
O O5 0.993735 0.500000 0.307740
O O6 0.067986 0.738367 0.261522
O O7 0.016016 0.750142 0.379204
O O8 0.073782 0.500000 0.995284
O O9 0.097076 0.257230 0.919827
O O10 0.130052 0.230371 0.035867
O O11 0.000000 0.227830 0.000000
O O12 0.250000 0.223956 0.587078
O O13 0.322065 0.500000 0.589867
O O14 0.393179 0.230051 0.577325
O O15 0.250000 0.726483 0.092168
O O16 0.371320 0.729272 0.151258
O O17 0.321428 0.000000 0.104347
O O18 0.995201 0.734488 0.163770
O O19 0.918135 0.000000 0.151289
O O20 0.500000 0.230079 0.500000
O O21 0.532447 0.500000 0.440133
O O22 0.433072 0.000000 0.190696
#
# Coordination Sequence:
#
# PCOD9405896 Si02
#       8
#     8   8   8   8   8   8   8   8
#     4   9  17  29  45  68  94 121 154 193 237 282
#     4   9  16  26  45  71  96 123 155 194 238 282
#     4  11  22  33  49  75 101 127 162 204 251 301
#     4   9  17  29  46  69  95 125 162 202 244 289
#     4  10  21  37  55  72  93 127 168 207 251 302
#     4   9  17  30  49  70  92 122 158 199 238 282
#     4   8  14  26  45  69  97 128 162 198 233 276
#     4   9  17  30  49  72  95 120 155 201 246 289
#
# _framework density 18.614017
#
# number of rings (size 3 to 8) (size 9 to 14) (size 15 to 20)
#    0.000    2.750    1.250    2.625    0.000    4.000 
#    0.000    0.625    0.000   10.875    0.000    1.750 
#    0.000    0.000    0.000    0.000    0.000    0.000 
#
# Total GULP energy -356481.740401 kJ/mol
# GULP energy per Si atom -5570.027194 kJ/mol
# Density = 1.857165 g / cm^3
# Si number density = 18.614017 Si / 1000 Ang^3
#
#
#
# Elastic Constant Matrix: (Units=GPa)
#
#
# Indices 1 2 3 4 5 6 
#
# 1 102.0749 4.5494 69.6086 0.0000 0.0000 0.0000
# 2 4.5494 25.4450 -2.5516 0.0000 0.0000 0.0000
# 3 69.6086 -2.5516 161.3924 0.0000 0.0000 0.0000
# 4 0.0000 0.0000 0.0000 20.9836 0.0000 0.0000
# 5 0.0000 0.0000 0.0000 0.0000 12.0010 0.0000
# 6 0.0000 0.0000 0.0000 0.0000 0.0000 10.5321
#
#
#
# Elastic Compliance Matrix: (Units=1/GPa)
#
#
# Indices 1 2 3 4 5 6 
#
# 1 0.014125 -0.003141 -0.006142 0.000000 0.000000 0.000000
# 2 -0.003141 0.040062 0.001988 0.000000 0.000000 0.000000
# 3 -0.006142 0.001988 0.008876 0.000000 0.000000 0.000000
# 4 0.000000 0.000000 0.000000 0.047656 0.000000 0.000000
# 5 0.000000 0.000000 0.000000 0.000000 0.083326 0.000000
# 6 0.000000 0.000000 0.000000 0.000000 0.000000 0.094948
#
#
# Mechanical properties :
#
#
# Convention : Reuss Voigt Hill
#
# Bulk Modulus (GPa) = 20.62998 48.01392 34.32195
# Shear Modulus (GPa) = 15.63766 23.19040 19.41403
#
# Velocity S-wave (km/s) = 2.90159 3.53350 3.23302
# Velocity P-wave (km/s) = 4.72576 6.51905 5.69345
#
# Compressibility (1/GPa) = 0.04847314
#
# Stress axis : x y z
#
# Youngs Moduli (GPa) = 70.79617 24.96162 112.65739
#
# Poissons Ratio (x) = 0.07841 0.69192
# Poissons Ratio (y) = 0.22240 -0.22399
# Poissons Ratio (z) = 0.43482 -0.04963
#
# Static dielectric constant tensor:
#      x y z
#    x 1.666040 0.000000 0.000000 
#    y 0.000000 1.686220 0.000000 
#    z 0.000000 0.000000 1.661670 
# 
# From -- ./inp_files/34120.got.cif
#   From: 2010.05.17/outbox.cif.g08.bks.cpg/sg51_18_cif.got.tgz:34120.got - 2010.06.03 11:52:47.
