data_PCOD9405047
_publ_section_title
;
Structure prediction by ZEFSAII (Michael W. Deem and Ramdas Pophale) SiO2 
 PCOD9405047
Probable space group: P M M A
;
_chemical_formula_sum "Si O2"
_cell_formula_units_Z 48
_cell_length_a 8.521197
_cell_length_b 32.042974
_cell_length_c 9.423365
_cell_angle_alpha 90.000000
_cell_angle_beta 90.000000
_cell_angle_gamma 90.000000
_cell_volume 2572.997927
_symmetry_space_group_name_H-M "P M M A"
_symmetry_group_IT_number 51
_symmetry_cell_setting 'orthorhombic'
loop_
_space_group_symop_operation_xyz
x,y,z
1/2-x,-y,z
1/2+x,-y,-z
-x,y,-z
-x,-y,-z
1/2+x,y,-z
1/2-x,y,z
x,-y,z
loop_
_atom_site_type_symbol
_atom_site_label
_atom_site_fract_x
_atom_site_fract_y
_atom_site_fract_z
Si Si1 0.559979 0.908814 0.161541
Si Si2 0.560356 0.171230 0.340075
Si Si3 0.062805 0.670556 0.339970
Si Si4 0.561506 0.252262 0.159877
Si Si5 0.061272 0.420177 0.659262
Si Si6 0.060836 0.000000 0.838584
Si Si7 0.939318 0.500000 0.158960
O O1 0.750000 0.907953 0.156633
O O2 0.506635 0.870696 0.259354
O O3 0.510397 0.954721 0.219073
O O4 0.500000 0.904155 0.000000
O O5 0.500000 0.173145 0.500000
O O6 0.750000 0.170844 0.343027
O O7 0.510796 0.211761 0.250321
O O8 0.250000 0.670722 0.343693
O O9 0.000000 0.677652 0.500000
O O10 0.001065 0.706514 0.237418
O O11 0.003154 0.624824 0.294217
O O12 0.750000 0.253360 0.158110
O O13 0.500000 0.249469 0.000000
O O14 0.250000 0.418383 0.656451
O O15 0.009873 0.458337 0.758115
O O16 0.000000 0.427430 0.500000
O O17 0.250000 0.000000 0.838217
O O18 0.000000 0.000000 0.000000
O O19 0.750000 0.500000 0.158345
O O20 0.000000 0.500000 0.000000
#
# Coordination Sequence:
#
# PCOD9405047 Si02
#       7
#     8   8   8   8   8   4   4
#     4   9  17  31  51  77 104 135 173 216 262 314
#     4  10  22  37  54  76 105 139 178 219 266 318
#     4  11  22  38  60  86 114 147 183 225 272 323
#     4  11  23  39  58  82 109 141 179 223 272 326
#     4  10  20  37  59  85 113 146 187 228 269 322
#     4   8  14  26  47  72 102 134 168 210 259 310
#     4  10  23  38  56  82 114 148 185 228 274 322
#
# _framework density 18.655280999999999
#
# number of rings (size 3 to 8) (size 9 to 14) (size 15 to 20)
#    0.000    2.000    0.000    4.750    0.000    5.333 
#    0.000    2.083    0.000    0.000    0.000    0.000 
#    0.000    0.000    0.000    0.000    0.000    0.000 
#
# Total GULP energy -267997.101206 kJ/mol
# GULP energy per Si atom -5583.272942 kJ/mol
# Density = 1.861282 g / cm^3
# Si number density = 18.655281 Si / 1000 Ang^3
#
#
#
# Elastic Constant Matrix: (Units=GPa)
#
#
# Indices 1 2 3 4 5 6 
#
# 1 52.8007 46.8423 31.1585 0.0000 0.0000 0.0000
# 2 46.8423 225.4141 130.2857 0.0000 0.0000 0.0000
# 3 31.1585 130.2857 129.5414 0.0000 0.0000 0.0000
# 4 0.0000 0.0000 0.0000 31.8265 0.0000 0.0000
# 5 0.0000 0.0000 0.0000 0.0000 33.3200 0.0000
# 6 0.0000 0.0000 0.0000 0.0000 0.0000 -68.4909
#
#
#
# Elastic Compliance Matrix: (Units=1/GPa)
#
#
# Indices 1 2 3 4 5 6 
#
# 1 0.023387 -0.003842 -0.001761 0.000000 0.000000 0.000000
# 2 -0.003842 0.011227 -0.010367 0.000000 0.000000 0.000000
# 3 -0.001761 -0.010367 0.018570 0.000000 0.000000 0.000000
# 4 0.000000 0.000000 0.000000 0.031420 0.000000 0.000000
# 5 0.000000 0.000000 0.000000 0.000000 0.030012 0.000000
# 6 0.000000 0.000000 0.000000 0.000000 0.000000 -0.014600
#
#
# Mechanical properties :
#
#
# Convention : Reuss Voigt Hill
#
# Bulk Modulus (GPa) = 47.07455 91.59214 69.33335
# Shear Modulus (GPa) = 35.96175 12.62909 24.29542
#
# Velocity S-wave (km/s) = 4.39532 2.60469 3.61270
# Velocity P-wave (km/s) = 7.14473 7.63214 7.39245
#
# Compressibility (1/GPa) = 0.02124290
#
# Stress axis : x y z
#
# Youngs Moduli (GPa) = 42.75903 89.07363 53.85094
#
# Poissons Ratio (x) = 0.34222 0.09484
# Poissons Ratio (y) = 0.16428 0.55828
# Poissons Ratio (z) = 0.07530 0.92343
#
# Static dielectric constant tensor:
#      x y z
#    x 1.631440 0.000000 0.000000 
#    y 0.000000 1.668120 0.000000 
#    z 0.000000 0.000000 1.632820 
# 
# From -- ./inp_files/6260.got.cif
#   From: 2010.05.17/outbox.cif.g08.bks.cpg/sg51_4_cif.got.tgz:6260.got - 2010.06.03 11:52:47.
