data_PCOD9405842
_publ_section_title
;
Structure prediction by ZEFSAII (Michael W. Deem and Ramdas Pophale) SiO2 
 PCOD9405842
Probable space group: P M M A
;
_chemical_formula_sum "Si O2"
_cell_formula_units_Z 48
_cell_length_a 32.032105
_cell_length_b 7.663511
_cell_length_c 9.093400
_cell_angle_alpha 90.000000
_cell_angle_beta 90.000000
_cell_angle_gamma 90.000000
_cell_volume 2232.233183
_symmetry_space_group_name_H-M "P M M A"
_symmetry_group_IT_number 51
_symmetry_cell_setting 'orthorhombic'
loop_
_space_group_symop_operation_xyz
x,y,z
1/2-x,-y,z
1/2+x,-y,-z
-x,y,-z
-x,-y,-z
1/2+x,y,-z
1/2-x,y,z
x,-y,z
loop_
_atom_site_type_symbol
_atom_site_label
_atom_site_fract_x
_atom_site_fract_y
_atom_site_fract_z
Si Si1 0.919804 0.295514 0.192377
Si Si2 0.334799 0.292925 0.663983
Si Si3 0.250000 0.788873 0.153388
Si Si4 0.416345 0.787771 0.149330
Si Si5 0.750000 0.707859 0.190434
Si Si6 0.666855 0.788996 0.679237
Si Si7 0.994366 0.797062 0.662282
O O1 0.923094 0.500000 0.229511
O O2 0.877785 0.222220 0.267442
O O3 0.961965 0.211246 0.253004
O O4 0.916692 0.275170 0.017673
O O5 0.335361 0.500000 0.695923
O O6 0.292541 0.220562 0.737462
O O7 0.333754 0.267651 0.489620
O O8 0.291536 0.728014 0.237319
O O9 0.250000 0.000000 0.157184
O O10 0.250000 0.735468 0.983744
O O11 0.374565 0.732553 0.234409
O O12 0.456938 0.724216 0.238703
O O13 0.416932 0.000000 0.143344
O O14 0.750000 0.500000 0.219486
O O15 0.667146 0.000000 0.680194
O O16 0.000000 0.718091 0.500000
O O17 0.982712 0.000000 0.639556
#
# Coordination Sequence:
#
# PCOD9405842 Si02
#       7
#     8   8   4   8   4   8   8
#     4  11  23  37  55  82 113 143 179 226 276 321
#     4  10  22  38  56  81 111 144 184 225 267 322
#     4  10  21  36  56  86 116 140 177 228 276 320
#     4  10  21  37  57  81 109 144 185 223 265 325
#     4  10  21  38  58  80 110 150 189 220 262 326
#     4  10  21  37  58  84 112 143 181 226 275 324
#     4  10  21  38  59  81 107 143 185 225 268 323
#
# _framework density 21.503129000000001
#
# number of rings (size 3 to 8) (size 9 to 14) (size 15 to 20)
#    0.000    1.833    0.000    3.500    0.000    7.667 
#    0.000    0.000    0.000    0.000    0.000    0.000 
#    0.000    0.000    0.000    0.000    0.000    0.000 
#
# Total GULP energy -268370.893220 kJ/mol
# GULP energy per Si atom -5591.060275 kJ/mol
# Density = 2.145419 g / cm^3
# Si number density = 21.503129 Si / 1000 Ang^3
#
#
#
# Elastic Constant Matrix: (Units=GPa)
#
#
# Indices 1 2 3 4 5 6 
#
# 1 196.4063 -13.0513 79.3423 0.0000 0.0000 0.0000
# 2 -13.0513 34.3884 -32.4519 0.0000 0.0000 0.0000
# 3 79.3423 -32.4519 135.4142 0.0000 0.0000 0.0000
# 4 0.0000 0.0000 0.0000 29.7204 0.0000 0.0000
# 5 0.0000 0.0000 0.0000 0.0000 61.2946 0.0000
# 6 0.0000 0.0000 0.0000 0.0000 0.0000 -3.3501
#
#
#
# Elastic Compliance Matrix: (Units=1/GPa)
#
#
# Indices 1 2 3 4 5 6 
#
# 1 0.006730 -0.001508 -0.004305 0.000000 0.000000 0.000000
# 2 -0.001508 0.037916 0.009970 0.000000 0.000000 0.000000
# 3 -0.004305 0.009970 0.012296 0.000000 0.000000 0.000000
# 4 0.000000 0.000000 0.000000 0.033647 0.000000 0.000000
# 5 0.000000 0.000000 0.000000 0.000000 0.016315 0.000000
# 6 0.000000 0.000000 0.000000 0.000000 0.000000 -0.298499
#
#
# Mechanical properties :
#
#
# Convention : Reuss Voigt Hill
#
# Bulk Modulus (GPa) = 15.32403 48.20968 31.76685
# Shear Modulus (GPa) = -28.06510 39.69096 5.81293
#
# Velocity S-wave (km/s) = -3.61662 4.30096 1.64595
# Velocity P-wave (km/s) = 3.20906 6.86534 4.29155
#
# Compressibility (1/GPa) = 0.06525699
#
# Stress axis : x y z
#
# Youngs Moduli (GPa) = 148.58159 26.37415 81.32457
#
# Poissons Ratio (x) = 0.03978 0.35009
# Poissons Ratio (y) = 0.22408 -0.81082
# Poissons Ratio (z) = 0.63962 -0.26295
#
# Static dielectric constant tensor:
#      x y z
#    x 1.767110 0.000000 0.000000 
#    y 0.000000 1.881760 0.000000 
#    z 0.000000 0.000000 1.706210 
# 
# From -- ./inp_files/12912.got.cif
#   From: 2010.05.17/outbox.cif.g08.bks.cpg/sg51_7_cif.got.tgz:12912.got - 2010.06.03 11:52:47.
