data_PCOD9405528
_publ_section_title
;
Structure prediction by ZEFSAII (Michael W. Deem and Ramdas Pophale) SiO2 
 PCOD9405528
Probable space group: P M M A
;
_chemical_formula_sum "Si O2"
_cell_formula_units_Z 44
_cell_length_a 15.977630
_cell_length_b 10.174813
_cell_length_c 13.804438
_cell_angle_alpha 90.000000
_cell_angle_beta 90.000000
_cell_angle_gamma 90.000000
_cell_volume 2244.179168
_symmetry_space_group_name_H-M "P M M A"
_symmetry_group_IT_number 51
_symmetry_cell_setting 'orthorhombic'
loop_
_space_group_symop_operation_xyz
x,y,z
1/2-x,-y,z
1/2+x,-y,-z
-x,y,-z
-x,-y,-z
1/2+x,y,-z
1/2-x,y,z
x,-y,z
loop_
_atom_site_type_symbol
_atom_site_label
_atom_site_fract_x
_atom_site_fract_y
_atom_site_fract_z
Si Si1 0.850017 0.645503 0.677297
Si Si2 0.070658 0.857514 0.193695
Si Si3 0.351464 0.651099 0.542300
Si Si4 0.610277 0.151331 0.287494
Si Si5 0.000000 0.257491 0.000000
Si Si6 0.656860 0.351841 0.120068
O O1 0.750000 0.639101 0.671752
O O2 0.883226 0.500000 0.699710
O O3 0.874310 0.744565 0.760546
O O4 0.878679 0.680463 0.568285
O O5 0.986493 0.857534 0.257573
O O6 0.041108 0.827599 0.085209
O O7 0.111570 0.000000 0.199241
O O8 0.250000 0.651083 0.545306
O O9 0.377888 0.500000 0.565535
O O10 0.380425 0.762574 0.615994
O O11 0.650761 0.239513 0.201945
O O12 0.641765 0.000000 0.294438
O O13 0.077592 0.334884 0.951073
O O14 0.750000 0.341037 0.074141
O O15 0.651729 0.500000 0.162561
#
# Coordination Sequence:
#
# PCOD9405528 Si02
#       6
#     8   8   8   8   4   8
#     4   9  20  38  58  82 112 145 183 227 274 327
#     4  10  22  39  57  78 108 145 183 227 279 334
#     4   9  18  34  55  79 110 147 184 223 269 324
#     4  10  21  35  53  81 115 147 182 227 277 330
#     4  10  22  40  60  82 112 148 186 238 290 336
#     4  10  21  37  58  84 112 145 188 235 285 343
#
# _framework density 19.606278
#
# number of rings (size 3 to 8) (size 9 to 14) (size 15 to 20)
#    0.000    2.364    0.000    2.727    0.000   10.545 
#    0.000    7.273    0.000    0.000    0.000    0.000 
#    0.000    0.000    0.000    0.000    0.000    0.000 
#
# Total GULP energy -245306.101543 kJ/mol
# GULP energy per Si atom -5575.138671 kJ/mol
# Density = 1.956165 g / cm^3
# Si number density = 19.606278 Si / 1000 Ang^3
#
#
#
# Elastic Constant Matrix: (Units=GPa)
#
#
# Indices 1 2 3 4 5 6 
#
# 1 37.4235 24.4797 21.9036 0.0000 0.0000 0.0000
# 2 24.4797 154.4809 87.5558 0.0000 0.0000 0.0000
# 3 21.9036 87.5558 117.5161 0.0000 0.0000 0.0000
# 4 0.0000 0.0000 0.0000 4.7091 0.0000 0.0000
# 5 0.0000 0.0000 0.0000 0.0000 3.7754 0.0000
# 6 0.0000 0.0000 0.0000 0.0000 0.0000 18.4895
#
#
#
# Elastic Compliance Matrix: (Units=1/GPa)
#
#
# Indices 1 2 3 4 5 6 
#
# 1 0.030680 -0.002805 -0.003628 0.000000 0.000000 0.000000
# 2 -0.002805 0.011461 -0.008016 0.000000 0.000000 0.000000
# 3 -0.003628 -0.008016 0.015158 0.000000 0.000000 0.000000
# 4 0.000000 0.000000 0.000000 0.212353 0.000000 0.000000
# 5 0.000000 0.000000 0.000000 0.000000 0.264869 0.000000
# 6 0.000000 0.000000 0.000000 0.000000 0.000000 0.054085
#
#
# Mechanical properties :
#
#
# Convention : Reuss Voigt Hill
#
# Bulk Modulus (GPa) = 35.21183 64.14432 49.67807
# Shear Modulus (GPa) = 7.97483 17.09357 12.53420
#
# Velocity S-wave (km/s) = 2.01899 2.95590 2.53117
# Velocity P-wave (km/s) = 4.84082 6.66611 5.82540
#
# Compressibility (1/GPa) = 0.02839955
#
# Stress axis : x y z
#
# Youngs Moduli (GPa) = 32.59482 87.24979 65.96986
#
# Poissons Ratio (x) = 0.24476 0.23936
# Poissons Ratio (y) = 0.09144 0.52884
# Poissons Ratio (z) = 0.11826 0.69943
#
# Static dielectric constant tensor:
#      x y z
#    x 1.702110 0.000000 0.000000 
#    y 0.000000 1.700770 0.000000 
#    z 0.000000 0.000000 1.672400 
# 
# From -- ./inp_files/24570.got.cif
#   From: 2010.05.17/outbox.cif.g08.bks.cpg/sg51_13_cif.got.tgz:24570.got - 2010.06.03 11:52:47.
