data_PCOD9405343
_publ_section_title
;
Structure prediction by ZEFSAII (Michael W. Deem and Ramdas Pophale) SiO2 
 PCOD9405343
Probable space group: P M M A
;
_chemical_formula_sum "Si O2"
_cell_formula_units_Z 48
_cell_length_a 15.338255
_cell_length_b 8.972827
_cell_length_c 19.555423
_cell_angle_alpha 90.000000
_cell_angle_beta 90.000000
_cell_angle_gamma 90.000000
_cell_volume 2691.364147
_symmetry_space_group_name_H-M "P M M A"
_symmetry_group_IT_number 51
_symmetry_cell_setting 'orthorhombic'
loop_
_space_group_symop_operation_xyz
x,y,z
1/2-x,-y,z
1/2+x,-y,-z
-x,y,-z
-x,-y,-z
1/2+x,y,-z
1/2-x,y,z
x,-y,z
loop_
_atom_site_type_symbol
_atom_site_label
_atom_site_fract_x
_atom_site_fract_y
_atom_site_fract_z
Si Si1 0.351164 0.320854 0.327365
Si Si2 0.003076 0.179738 0.421408
Si Si3 0.001841 0.821661 0.920094
Si Si4 0.147584 0.322336 0.827103
Si Si5 0.850940 0.821298 0.318810
Si Si6 0.647869 0.678995 0.830277
O O1 0.250000 0.281344 0.339615
O O2 0.358323 0.500000 0.331992
O O3 0.415523 0.245171 0.380348
O O4 0.372389 0.279805 0.248627
O O5 0.916162 0.221238 0.379348
O O6 0.000000 0.229884 0.500000
O O7 0.009078 0.000000 0.421221
O O8 0.916762 0.760008 0.881505
O O9 0.085423 0.752195 0.882520
O O10 0.004813 0.000000 0.914382
O O11 0.000000 0.781139 0.000000
O O12 0.250000 0.289324 0.839306
O O13 0.135837 0.500000 0.827680
O O14 0.125479 0.259207 0.751954
O O15 0.750000 0.786147 0.334730
O O16 0.857213 0.000000 0.308545
O O17 0.750000 0.712549 0.842597
O O18 0.637295 0.500000 0.836140
#
# Coordination Sequence:
#
# PCOD9405343 Si02
#       6
#     8   8   8   8   8   8
#     4   9  19  36  56  78 104 135 173 217 264 311
#     4  10  21  34  50  77 110 142 176 214 258 309
#     4  11  24  38  53  78 112 146 177 213 260 314
#     4  10  21  37  58  82 105 134 177 225 268 313
#     4   9  18  34  55  77 104 139 176 216 264 315
#     4   9  19  37  60  83 107 137 175 221 268 312
#
# _framework density 17.834823
#
# number of rings (size 3 to 8) (size 9 to 14) (size 15 to 20)
#    0.000    2.333    0.000    3.000    0.000    8.667 
#    0.000    6.667    0.000    2.000    0.000    0.000 
#    0.000    0.000    0.000    0.000    0.000    0.000 
#
# Total GULP energy -268000.053503 kJ/mol
# GULP energy per Si atom -5583.334448 kJ/mol
# Density = 1.779423 g / cm^3
# Si number density = 17.834823 Si / 1000 Ang^3
#
#
#
# Elastic Constant Matrix: (Units=GPa)
#
#
# Indices 1 2 3 4 5 6 
#
# 1 120.5958 52.1267 126.7153 0.0000 0.0000 0.0000
# 2 52.1267 32.1976 65.4265 0.0000 0.0000 0.0000
# 3 126.7153 65.4265 195.1315 0.0000 0.0000 0.0000
# 4 0.0000 0.0000 0.0000 -7.5708 0.0000 0.0000
# 5 0.0000 0.0000 0.0000 0.0000 -18.3883 0.0000
# 6 0.0000 0.0000 0.0000 0.0000 0.0000 30.3642
#
#
#
# Elastic Compliance Matrix: (Units=1/GPa)
#
#
# Indices 1 2 3 4 5 6 
#
# 1 0.034185 -0.032117 -0.011431 0.000000 0.000000 0.000000
# 2 -0.032117 0.127636 -0.021939 0.000000 0.000000 0.000000
# 3 -0.011431 -0.021939 0.019904 0.000000 0.000000 0.000000
# 4 0.000000 0.000000 0.000000 -0.132086 0.000000 0.000000
# 5 0.000000 0.000000 0.000000 0.000000 -0.054382 0.000000
# 6 0.000000 0.000000 0.000000 0.000000 0.000000 0.032934
#
#
# Mechanical properties :
#
#
# Convention : Reuss Voigt Hill
#
# Bulk Modulus (GPa) = 19.70420 92.94021 56.32221
# Shear Modulus (GPa) = 28.39612 7.79144 18.09378
#
# Velocity S-wave (km/s) = 3.99453 2.09240 3.18861
# Velocity P-wave (km/s) = 5.68746 7.61986 6.72345
#
# Compressibility (1/GPa) = 0.05075059
#
# Stress axis : x y z
#
# Youngs Moduli (GPa) = 29.25225 7.83480 50.24209
#
# Poissons Ratio (x) = 0.25163 0.57430
# Poissons Ratio (y) = 0.93951 1.10226
# Poissons Ratio (z) = 0.33437 0.17189
#
# Static dielectric constant tensor:
#      x y z
#    x 1.601780 0.000000 0.000000 
#    y 0.000000 1.593090 0.000000 
#    z 0.000000 0.000000 1.580480 
# 
# From -- ./inp_files/29386.got.cif
#   From: 2010.05.17/outbox.cif.g08.bks.cpg/sg51_15_cif.got.tgz:29386.got - 2010.06.03 11:52:47.
