data_PCOD9405843
_publ_section_title
;
Structure prediction by ZEFSAII (Michael W. Deem and Ramdas Pophale) SiO2 
 PCOD9405843
Probable space group: P M M A
;
_chemical_formula_sum "Si O2"
_cell_formula_units_Z 30
_cell_length_a 21.540444
_cell_length_b 13.718862
_cell_length_c 4.978911
_cell_angle_alpha 90.000000
_cell_angle_beta 90.000000
_cell_angle_gamma 90.000000
_cell_volume 1471.319875
_symmetry_space_group_name_H-M "P M M A"
_symmetry_group_IT_number 51
_symmetry_cell_setting 'orthorhombic'
loop_
_space_group_symop_operation_xyz
x,y,z
1/2-x,-y,z
1/2+x,-y,-z
-x,y,-z
-x,-y,-z
1/2+x,y,-z
1/2-x,y,z
x,-y,z
loop_
_atom_site_type_symbol
_atom_site_label
_atom_site_fract_x
_atom_site_fract_y
_atom_site_fract_z
Si Si1 0.373071 0.217988 0.906676
Si Si2 0.045315 0.396176 0.748359
Si Si3 0.072204 0.114335 0.425972
Si Si4 0.250000 0.657605 0.990075
Si Si5 0.250000 0.500000 0.491519
O O1 0.410063 0.307297 0.775172
O O2 0.382054 0.136377 0.676622
O O3 0.308311 0.267864 0.981371
O O4 0.406572 0.178203 0.173065
O O5 0.080179 0.500000 0.731026
O O6 0.000000 0.388278 0.500000
O O7 0.000000 0.398063 0.000000
O O8 0.000000 0.136320 0.500000
O O9 0.074700 0.000000 0.356402
O O10 0.250000 0.586567 0.729344
O O11 0.250000 0.586908 0.251497
#
# Coordination Sequence:
#
# PCOD9405843 Si02
#       5
#     8   8   8   4   2
#     4  12  23  42  66  95 134 172 223 272 327 396
#     4  10  21  36  56  89 123 161 205 258 325 384
#     4  11  24  43  70  99 129 170 221 277 340 398
#     4  11  26  44  67  98 130 182 231 264 327 386
#     4  10  24  46  64  90 132 182 232 266 300 376
#
# _framework density 20.389854
#
# number of rings (size 3 to 8) (size 9 to 14) (size 15 to 20)
#    0.000    1.067    0.000    7.200    3.733    2.133 
#    4.800    4.000    0.000    0.000    0.000    0.000 
#    0.000    0.000    0.000    0.000    0.000    0.000 
#
# Total GULP energy -167058.066190 kJ/mol
# GULP energy per Si atom -5568.602206 kJ/mol
# Density = 2.034345 g / cm^3
# Si number density = 20.389854 Si / 1000 Ang^3
#
#
#
# Elastic Constant Matrix: (Units=GPa)
#
#
# Indices 1 2 3 4 5 6 
#
# 1 67.6496 58.7576 26.3688 0.0000 0.0000 0.0000
# 2 58.7576 125.7948 35.5440 0.0000 0.0000 0.0000
# 3 26.3688 35.5440 173.0338 0.0000 0.0000 0.0000
# 4 0.0000 0.0000 0.0000 22.5562 0.0000 0.0000
# 5 0.0000 0.0000 0.0000 0.0000 7.9220 0.0000
# 6 0.0000 0.0000 0.0000 0.0000 0.0000 -0.9124
#
#
#
# Elastic Compliance Matrix: (Units=1/GPa)
#
#
# Indices 1 2 3 4 5 6 
#
# 1 0.025240 -0.011362 -0.001512 0.000000 0.000000 0.000000
# 2 -0.011362 0.013554 -0.001053 0.000000 0.000000 0.000000
# 3 -0.001512 -0.001053 0.006226 0.000000 0.000000 0.000000
# 4 0.000000 0.000000 0.000000 0.044334 0.000000 0.000000
# 5 0.000000 0.000000 0.000000 0.000000 0.126231 0.000000
# 6 0.000000 0.000000 0.000000 0.000000 0.000000 -1.096050
#
#
# Mechanical properties :
#
#
# Convention : Reuss Voigt Hill
#
# Bulk Modulus (GPa) = 58.25584 67.53544 62.89564
# Shear Modulus (GPa) = -5.90397 22.30035 8.19819
#
# Velocity S-wave (km/s) = -1.70348 3.31070 2.00735
# Velocity P-wave (km/s) = 4.97634 6.91435 6.02379
#
# Compressibility (1/GPa) = 0.01716566
#
# Stress axis : x y z
#
# Youngs Moduli (GPa) = 39.61924 73.77862 160.61815
#
# Poissons Ratio (x) = 0.83828 0.24292
# Poissons Ratio (y) = 0.45016 0.16909
# Poissons Ratio (z) = 0.05992 0.07767
#
# Static dielectric constant tensor:
#      x y z
#    x 1.662560 0.000000 0.000000 
#    y 0.000000 1.763380 0.000000 
#    z 0.000000 0.000000 1.717440 
# 
# From -- ./inp_files/1806.got.cif
#   From: 2010.05.17/outbox.cif.g08.bks.cpg/sg51_1_cif.got.tgz:1806.got - 2010.06.03 11:52:47.
