data_PCOD9405990
_publ_section_title
;
Structure prediction by ZEFSAII (Michael W. Deem and Ramdas Pophale) SiO2 
 PCOD9405990
Probable space group: P M M A
;
_chemical_formula_sum "Si O2"
_cell_formula_units_Z 36
_cell_length_a 8.506065
_cell_length_b 16.147357
_cell_length_c 13.557093
_cell_angle_alpha 90.000000
_cell_angle_beta 90.000000
_cell_angle_gamma 90.000000
_cell_volume 1862.073071
_symmetry_space_group_name_H-M "P M M A"
_symmetry_group_IT_number 51
_symmetry_cell_setting 'orthorhombic'
loop_
_space_group_symop_operation_xyz
x,y,z
1/2-x,-y,z
1/2+x,-y,-z
-x,y,-z
-x,-y,-z
1/2+x,y,-z
1/2-x,y,z
x,-y,z
loop_
_atom_site_type_symbol
_atom_site_label
_atom_site_fract_x
_atom_site_fract_y
_atom_site_fract_z
Si Si1 0.437125 0.093935 0.188711
Si Si2 0.563718 0.672659 0.691397
Si Si3 0.561950 0.500000 0.388584
Si Si4 0.563250 0.841147 0.392667
Si Si5 0.564411 0.739879 0.106778
O O1 0.250000 0.106874 0.177484
O O2 0.482534 0.109565 0.303007
O O3 0.527490 0.163297 0.126810
O O4 0.475968 0.000000 0.160969
O O5 0.750000 0.678879 0.675207
O O6 0.502093 0.582869 0.662311
O O7 0.479732 0.744944 0.628380
O O8 0.522547 0.692548 0.804767
O O9 0.750000 0.500000 0.387202
O O10 0.500000 0.500000 0.500000
O O11 0.500000 0.864991 0.500000
O O12 0.750000 0.851998 0.387435
O O13 0.750000 0.725772 0.113926
O O14 0.500000 0.716511 0.000000
#
# Coordination Sequence:
#
# PCOD9405990 Si02
#       5
#     8   8   4   8   8
#     4  10  21  37  56  81 112 145 186 237 287 337
#     4  11  22  39  60  86 117 149 188 234 282 333
#     4  12  24  40  61  90 123 156 192 230 276 328
#     4  11  21  35  55  79 110 150 191 232 281 338
#     4  11  22  39  62  86 113 149 189 232 283 337
#
# _framework density 19.333290999999999
#
# number of rings (size 3 to 8) (size 9 to 14) (size 15 to 20)
#    0.000    1.111    0.000   11.000    0.000    2.667 
#    0.000    0.556    0.000    0.000    0.000    0.000 
#    0.000    0.000    0.000    0.000    0.000    0.000 
#
# Total GULP energy -201412.991686 kJ/mol
# GULP energy per Si atom -5594.805325 kJ/mol
# Density = 1.928929 g / cm^3
# Si number density = 19.333291 Si / 1000 Ang^3
#
#
#
# Elastic Constant Matrix: (Units=GPa)
#
#
# Indices 1 2 3 4 5 6 
#
# 1 73.4007 -3.4723 -14.2860 0.0000 0.0000 0.0000
# 2 -3.4723 71.8500 -6.2744 0.0000 0.0000 0.0000
# 3 -14.2860 -6.2744 69.5789 0.0000 0.0000 0.0000
# 4 0.0000 0.0000 0.0000 -0.5323 0.0000 0.0000
# 5 0.0000 0.0000 0.0000 0.0000 34.7028 0.0000
# 6 0.0000 0.0000 0.0000 0.0000 0.0000 31.3381
#
#
#
# Elastic Compliance Matrix: (Units=1/GPa)
#
#
# Indices 1 2 3 4 5 6 
#
# 1 0.014255 0.000952 0.003013 0.000000 0.000000 0.000000
# 2 0.000952 0.014092 0.001466 0.000000 0.000000 0.000000
# 3 0.003013 0.001466 0.015123 0.000000 0.000000 0.000000
# 4 0.000000 0.000000 0.000000 -1.878726 0.000000 0.000000
# 5 0.000000 0.000000 0.000000 0.000000 0.028816 0.000000
# 6 0.000000 0.000000 0.000000 0.000000 0.000000 0.031910
#
#
# Mechanical properties :
#
#
# Convention : Reuss Voigt Hill
#
# Bulk Modulus (GPa) = 18.40532 18.52936 18.46734
# Shear Modulus (GPa) = -2.82920 29.02588 13.09834
#
# Velocity S-wave (km/s) = -1.21102 3.87892 2.60571
# Velocity P-wave (km/s) = 2.75414 5.44668 4.31576
#
# Compressibility (1/GPa) = 0.05433212
#
# Stress axis : x y z
#
# Youngs Moduli (GPa) = 70.14956 70.96262 66.12460
#
# Poissons Ratio (x) = -0.06756 -0.19922
# Poissons Ratio (y) = -0.06678 -0.09695
# Poissons Ratio (z) = -0.21134 -0.10405
#
# Static dielectric constant tensor:
#      x y z
#    x 1.640520 0.000000 0.000000 
#    y 0.000000 1.663280 0.000000 
#    z 0.000000 0.000000 1.658690 
# 
# From -- ./inp_files/20371.got.cif
#   From: 2010.05.17/outbox.cif.g08.bks.cpg/sg51_11_cif.got.tgz:20371.got - 2010.06.03 11:52:47.
