data_PCOD9405502
_publ_section_title
;
Structure prediction by ZEFSAII (Michael W. Deem and Ramdas Pophale) SiO2 
 PCOD9405502
Probable space group: P M M A
;
_chemical_formula_sum "Si O2"
_cell_formula_units_Z 64
_cell_length_a 18.624664
_cell_length_b 8.920833
_cell_length_c 21.002183
_cell_angle_alpha 90.000000
_cell_angle_beta 90.000000
_cell_angle_gamma 90.000000
_cell_volume 3489.460562
_symmetry_space_group_name_H-M "P M M A"
_symmetry_group_IT_number 51
_symmetry_cell_setting 'orthorhombic'
loop_
_space_group_symop_operation_xyz
x,y,z
1/2-x,-y,z
1/2+x,-y,-z
-x,y,-z
-x,-y,-z
1/2+x,y,-z
1/2-x,y,z
x,-y,z
loop_
_atom_site_type_symbol
_atom_site_label
_atom_site_fract_x
_atom_site_fract_y
_atom_site_fract_z
Si Si1 0.834214 0.679822 0.001161
Si Si2 0.665109 0.679963 0.768266
Si Si3 0.579586 0.820744 0.883810
Si Si4 0.664785 0.678446 0.243945
Si Si5 0.333271 0.319653 0.377396
Si Si6 0.410878 0.179543 0.876942
Si Si7 0.416955 0.180569 0.494264
Si Si8 0.164773 0.177972 0.621855
O O1 0.750000 0.718546 0.994593
O O2 0.840049 0.500000 0.002109
O O3 0.866113 0.746631 0.066017
O O4 0.879337 0.745032 0.942543
O O5 0.750000 0.711228 0.778596
O O6 0.656135 0.500000 0.774819
O O7 0.616743 0.763475 0.819320
O O8 0.647412 0.721877 0.695270
O O9 0.495107 0.782686 0.884156
O O10 0.586093 0.000000 0.888829
O O11 0.750000 0.711975 0.235665
O O12 0.655607 0.500000 0.239214
O O13 0.619955 0.759957 0.189460
O O14 0.643801 0.735672 0.314094
O O15 0.250000 0.276381 0.387661
O O16 0.337082 0.500000 0.381106
O O17 0.381664 0.248193 0.431438
O O18 0.403710 0.000000 0.879763
O O19 0.500000 0.222258 0.500000
O O20 0.375837 0.228340 0.558411
O O21 0.411717 0.000000 0.490631
O O22 0.250000 0.198614 0.612402
O O23 0.151672 0.000000 0.631030
#
# Coordination Sequence:
#
# PCOD9405502 Si02
#       8
#     8   8   8   8   8   8   8   8
#     4  11  24  41  62  87 113 144 185 230 273 321
#     4   9  19  37  59  83 112 146 184 226 274 327
#     4  11  24  39  57  85 117 148 185 226 269 322
#     4  10  21  37  58  84 110 139 182 231 275 325
#     4   9  19  36  57  80 107 141 183 230 276 324
#     4  11  24  40  58  83 116 150 183 223 272 325
#     4  10  21  35  52  78 112 146 181 225 276 330
#     4   9  18  34  55  77 105 144 185 224 271 326
#
# _framework density 18.340942999999999
#
# number of rings (size 3 to 8) (size 9 to 14) (size 15 to 20)
#    0.000    2.000    0.000    3.750    0.000   11.500 
#    0.000    6.250    0.000    0.000    0.000    0.000 
#    0.000    0.000    0.000    0.000    0.000    0.000 
#
# Total GULP energy -357569.153652 kJ/mol
# GULP energy per Si atom -5587.018026 kJ/mol
# Density = 1.829920 g / cm^3
# Si number density = 18.340943 Si / 1000 Ang^3
#
#
#
# Elastic Constant Matrix: (Units=GPa)
#
#
# Indices 1 2 3 4 5 6 
#
# 1 68.4857 42.8611 47.0412 0.0000 0.0000 0.0000
# 2 42.8611 38.6462 35.0856 0.0000 0.0000 0.0000
# 3 47.0412 35.0856 102.3807 0.0000 0.0000 0.0000
# 4 0.0000 0.0000 0.0000 40.4841 0.0000 0.0000
# 5 0.0000 0.0000 0.0000 0.0000 -64.7122 0.0000
# 6 0.0000 0.0000 0.0000 0.0000 0.0000 33.3991
#
#
#
# Elastic Compliance Matrix: (Units=1/GPa)
#
#
# Indices 1 2 3 4 5 6 
#
# 1 0.049968 -0.050188 -0.005759 0.000000 0.000000 0.000000
# 2 -0.050188 0.087973 -0.007088 0.000000 0.000000 0.000000
# 3 -0.005759 -0.007088 0.014843 0.000000 0.000000 0.000000
# 4 0.000000 0.000000 0.000000 0.024701 0.000000 0.000000
# 5 0.000000 0.000000 0.000000 0.000000 -0.015453 0.000000
# 6 0.000000 0.000000 0.000000 0.000000 0.000000 0.029941
#
#
# Mechanical properties :
#
#
# Convention : Reuss Voigt Hill
#
# Bulk Modulus (GPa) = 37.43660 51.05428 44.24544
# Shear Modulus (GPa) = 15.29302 7.46917 11.38110
#
# Velocity S-wave (km/s) = 2.89072 2.02021 2.49375
# Velocity P-wave (km/s) = 5.62117 5.77393 5.69806
#
# Compressibility (1/GPa) = 0.02671183
#
# Stress axis : x y z
#
# Youngs Moduli (GPa) = 20.01301 11.36718 67.37347
#
# Poissons Ratio (x) = 0.57050 0.38802
# Poissons Ratio (y) = 1.00442 0.47752
# Poissons Ratio (z) = 0.11526 0.08057
#
# Static dielectric constant tensor:
#      x y z
#    x 1.611060 0.000000 0.000000 
#    y 0.000000 1.613980 0.000000 
#    z 0.000000 0.000000 1.602240 
# 
# From -- ./inp_files/33804.got.cif
#   From: 2010.05.17/outbox.cif.g08.bks.cpg/sg51_17_cif.got.tgz:33804.got - 2010.06.03 11:52:47.
