data_PCOD9405726
_publ_section_title
;
Structure prediction by ZEFSAII (Michael W. Deem and Ramdas Pophale) SiO2 
 PCOD9405726
Probable space group: P M M A
;
_chemical_formula_sum "Si O2"
_cell_formula_units_Z 56
_cell_length_a 14.770580
_cell_length_b 19.713103
_cell_length_c 9.735277
_cell_angle_alpha 90.000000
_cell_angle_beta 90.000000
_cell_angle_gamma 90.000000
_cell_volume 2834.659204
_symmetry_space_group_name_H-M "P M M A"
_symmetry_group_IT_number 51
_symmetry_cell_setting 'orthorhombic'
loop_
_space_group_symop_operation_xyz
x,y,z
1/2-x,-y,z
1/2+x,-y,-z
-x,y,-z
-x,-y,-z
1/2+x,y,-z
1/2-x,y,z
x,-y,z
loop_
_atom_site_type_symbol
_atom_site_label
_atom_site_fract_x
_atom_site_fract_y
_atom_site_fract_z
Si Si1 0.352680 0.081125 0.363057
Si Si2 0.858614 0.841672 0.358458
Si Si3 0.046444 0.575459 0.693425
Si Si4 0.353750 0.578694 0.975053
Si Si5 0.985387 0.080820 0.160622
Si Si6 0.143536 0.304640 0.535028
Si Si7 0.853210 0.623582 0.729586
O O1 0.250000 0.104050 0.331793
O O2 0.379922 0.112823 0.508222
O O3 0.423530 0.097528 0.244710
O O4 0.351648 0.000000 0.377540
O O5 0.750000 0.841951 0.340317
O O6 0.907558 0.873882 0.228287
O O7 0.887704 0.765760 0.399599
O O8 0.078906 0.500000 0.657410
O O9 0.078393 0.589429 0.849981
O O10 0.089815 0.633214 0.600571
O O11 0.938121 0.578081 0.686789
O O12 0.250000 0.584183 0.923652
O O13 0.365652 0.500000 0.023129
O O14 0.362588 0.627738 0.105784
O O15 0.966007 0.000000 0.179468
O O16 0.000000 0.092779 0.000000
O O17 0.250000 0.312153 0.567509
O O18 0.136784 0.310907 0.369164
O O19 0.750000 0.597727 0.706030
#
# Coordination Sequence:
#
# PCOD9405726 Si02
#       7
#     8   8   8   8   8   8   8
#     4   9  18  34  58  87 117 153 197 240 281 330
#     4  10  21  39  62  85 115 157 201 243 289 346
#     4  11  22  36  56  81 109 145 189 238 295 358
#     4   9  18  34  56  80 106 138 177 225 284 349
#     4  10  21  36  58  92 129 161 194 235 285 340
#     4  10  23  41  58  80 110 145 188 240 294 345
#     4  10  21  36  54  78 108 140 179 231 290 348
#
# _framework density 19.755462000000001
#
# number of rings (size 3 to 8) (size 9 to 14) (size 15 to 20)
#    0.000    2.143    0.000    2.571    0.000    9.429 
#    0.000    7.143    0.000    3.429    0.000    0.000 
#    0.000    0.000    0.000    0.000    0.000    0.000 
#
# Total GULP energy -312482.104259 kJ/mol
# GULP energy per Si atom -5580.037576 kJ/mol
# Density = 1.971050 g / cm^3
# Si number density = 19.755462 Si / 1000 Ang^3
#
#
#
# Elastic Constant Matrix: (Units=GPa)
#
#
# Indices 1 2 3 4 5 6 
#
# 1 84.3834 45.4992 51.9948 0.0000 0.0000 0.0000
# 2 45.4992 49.7092 63.0256 0.0000 0.0000 0.0000
# 3 51.9948 63.0256 133.2005 0.0000 0.0000 0.0000
# 4 0.0000 0.0000 0.0000 2.6105 0.0000 0.0000
# 5 0.0000 0.0000 0.0000 0.0000 23.5783 0.0000
# 6 0.0000 0.0000 0.0000 0.0000 0.0000 20.9508
#
#
#
# Elastic Compliance Matrix: (Units=1/GPa)
#
#
# Indices 1 2 3 4 5 6 
#
# 1 0.023736 -0.024941 0.002536 0.000000 0.000000 0.000000
# 2 -0.024941 0.076489 -0.026456 0.000000 0.000000 0.000000
# 3 0.002536 -0.026456 0.019036 0.000000 0.000000 0.000000
# 4 0.000000 0.000000 0.000000 0.383074 0.000000 0.000000
# 5 0.000000 0.000000 0.000000 0.000000 0.042412 0.000000
# 6 0.000000 0.000000 0.000000 0.000000 0.000000 0.047731
#
#
# Mechanical properties :
#
#
# Convention : Reuss Voigt Hill
#
# Bulk Modulus (GPa) = 46.42898 65.37026 55.89962
# Shear Modulus (GPa) = 7.16968 16.54615 11.85792
#
# Velocity S-wave (km/s) = 1.90712 2.89718 2.45263
# Velocity P-wave (km/s) = 5.32938 6.65981 6.03139
#
# Compressibility (1/GPa) = 0.02153827
#
# Stress axis : x y z
#
# Youngs Moduli (GPa) = 42.12947 13.07372 52.53268
#
# Poissons Ratio (x) = 0.32607 -0.13321
# Poissons Ratio (y) = 1.05076 1.38982
# Poissons Ratio (z) = -0.10683 0.34588
#
# Static dielectric constant tensor:
#      x y z
#    x 1.725340 0.000000 0.000000 
#    y 0.000000 1.676930 0.000000 
#    z 0.000000 0.000000 1.691900 
# 
# From -- ./inp_files/8493.got.cif
#   From: 2010.05.17/outbox.cif.g08.bks.cpg/sg51_5_cif.got.tgz:8493.got - 2010.06.03 11:52:47.
