data_PCOD9405630
_publ_section_title
;
Structure prediction by ZEFSAII (Michael W. Deem and Ramdas Pophale) SiO2 
 PCOD9405630
Probable space group: P M M A
;
_chemical_formula_sum "Si O2"
_cell_formula_units_Z 40
_cell_length_a 9.384046
_cell_length_b 7.600667
_cell_length_c 27.199474
_cell_angle_alpha 90.000000
_cell_angle_beta 90.000000
_cell_angle_gamma 90.000000
_cell_volume 1940.002721
_symmetry_space_group_name_H-M "P M M A"
_symmetry_group_IT_number 51
_symmetry_cell_setting 'orthorhombic'
loop_
_space_group_symop_operation_xyz
x,y,z
1/2-x,-y,z
1/2+x,-y,-z
-x,y,-z
-x,-y,-z
1/2+x,y,-z
1/2-x,y,z
x,-y,z
loop_
_atom_site_type_symbol
_atom_site_label
_atom_site_fract_x
_atom_site_fract_y
_atom_site_fract_z
Si Si1 0.416546 0.214720 0.952233
Si Si2 0.087177 0.709389 0.738189
Si Si3 0.911611 0.711669 0.645065
Si Si4 0.587883 0.211353 0.452976
Si Si5 0.915377 0.211463 0.154543
O O1 0.250000 0.262482 0.955271
O O2 0.473925 0.270976 0.898428
O O3 0.422174 0.000000 0.952846
O O4 0.500000 0.278157 0.000000
O O5 0.250000 0.780760 0.736710
O O6 0.098037 0.500000 0.731435
O O7 0.023520 0.737053 0.792689
O O8 0.991440 0.779220 0.693862
O O9 0.750000 0.778556 0.640547
O O10 0.903588 0.500000 0.649237
O O11 0.003988 0.750694 0.596982
O O12 0.500000 0.278594 0.500000
O O13 0.750000 0.278808 0.451618
O O14 0.595819 0.000000 0.457698
O O15 0.750000 0.271855 0.155616
O O16 0.914713 0.000000 0.153481
#
# Coordination Sequence:
#
# PCOD9405630 Si02
#       5
#     8   8   8   8   8
#     4   8  13  22  37  57  81 109 141 179 223 270
#     4   9  17  30  48  68  90 119 156 196 236 279
#     4  10  21  36  53  74 101 133 167 202 241 286
#     4  10  21  37  57  80 105 133 164 199 241 287
#     4   8  14  25  42  64  88 114 147 187 230 277
#
# _framework density 20.618527
#
# number of rings (size 3 to 8) (size 9 to 14) (size 15 to 20)
#    0.000    3.000    0.000    2.400    0.000    3.600 
#    0.000    3.000    0.000    1.800    0.000    0.000 
#    0.000    0.000    0.000    0.000    0.000    0.000 
#
# Total GULP energy -222993.149027 kJ/mol
# GULP energy per Si atom -5574.828726 kJ/mol
# Density = 2.057160 g / cm^3
# Si number density = 20.618527 Si / 1000 Ang^3
#
#
#
# Elastic Constant Matrix: (Units=GPa)
#
#
# Indices 1 2 3 4 5 6 
#
# 1 123.3544 6.5191 110.9658 0.0000 0.0000 0.0000
# 2 6.5191 41.1856 1.0473 0.0000 0.0000 0.0000
# 3 110.9658 1.0473 253.2245 0.0000 0.0000 0.0000
# 4 0.0000 0.0000 0.0000 27.6516 0.0000 0.0000
# 5 0.0000 0.0000 0.0000 0.0000 35.5525 0.0000
# 6 0.0000 0.0000 0.0000 0.0000 0.0000 -13.8982
#
#
#
# Elastic Compliance Matrix: (Units=1/GPa)
#
#
# Indices 1 2 3 4 5 6 
#
# 1 0.013544 -0.001993 -0.005927 0.000000 0.000000 0.000000
# 2 -0.001993 0.024576 0.000772 0.000000 0.000000 0.000000
# 3 -0.005927 0.000772 0.006543 0.000000 0.000000 0.000000
# 4 0.000000 0.000000 0.000000 0.036164 0.000000 0.000000
# 5 0.000000 0.000000 0.000000 0.000000 0.028127 0.000000
# 6 0.000000 0.000000 0.000000 0.000000 0.000000 -0.071952
#
#
# Mechanical properties :
#
#
# Convention : Reuss Voigt Hill
#
# Bulk Modulus (GPa) = 32.93078 72.75877 52.84478
# Shear Modulus (GPa) = 81.40523 29.80998 55.60761
#
# Velocity S-wave (km/s) = 6.29025 3.80647 5.19887
# Velocity P-wave (km/s) = 8.29232 7.39484 7.85640
#
# Compressibility (1/GPa) = 0.03036672
#
# Stress axis : x y z
#
# Youngs Moduli (GPa) = 73.83614 40.68980 152.83489
#
# Poissons Ratio (x) = 0.08110 0.90580
# Poissons Ratio (y) = 0.14716 -0.11795
# Poissons Ratio (z) = 0.43760 -0.03140
#
# Static dielectric constant tensor:
#      x y z
#    x 1.721110 0.000000 0.000000 
#    y 0.000000 1.779960 0.000000 
#    z 0.000000 0.000000 1.749850 
# 
# From -- ./inp_files/31348.got.cif
#   From: 2010.05.17/outbox.cif.g08.bks.cpg/sg51_16_cif.got.tgz:31348.got - 2010.06.03 11:52:47.
