data_PCOD9405562
_publ_section_title
;
Structure prediction by ZEFSAII (Michael W. Deem and Ramdas Pophale) SiO2 
 PCOD9405562
Probable space group: P M M A
;
_chemical_formula_sum "Si O2"
_cell_formula_units_Z 56
_cell_length_a 15.687618
_cell_length_b 23.181821
_cell_length_c 8.364505
_cell_angle_alpha 90.000000
_cell_angle_beta 90.000000
_cell_angle_gamma 90.000000
_cell_volume 3041.899060
_symmetry_space_group_name_H-M "P M M A"
_symmetry_group_IT_number 51
_symmetry_cell_setting 'orthorhombic'
loop_
_space_group_symop_operation_xyz
x,y,z
1/2-x,-y,z
1/2+x,-y,-z
-x,y,-z
-x,-y,-z
1/2+x,y,-z
1/2-x,y,z
x,-y,z
loop_
_atom_site_type_symbol
_atom_site_label
_atom_site_fract_x
_atom_site_fract_y
_atom_site_fract_z
Si Si1 0.348558 0.935596 0.475605
Si Si2 0.392804 0.119161 0.142147
Si Si3 0.343379 0.338502 0.874018
Si Si4 0.909751 0.435051 0.907513
Si Si5 0.582077 0.069884 0.182976
Si Si6 0.978872 0.339497 0.683762
Si Si7 0.348343 0.747967 0.169657
O O1 0.250000 0.940545 0.517770
O O2 0.353075 0.902599 0.308462
O O3 0.389933 0.912272 0.638352
O O4 0.384815 0.000000 0.446713
O O5 0.489911 0.098302 0.161532
O O6 0.378833 0.187305 0.137490
O O7 0.364503 0.091504 0.971924
O O8 0.250000 0.336069 0.793086
O O9 0.429607 0.333933 0.771943
O O10 0.350242 0.397759 0.975783
O O11 0.347694 0.287639 0.004387
O O12 0.880394 0.500000 0.873464
O O13 0.930064 0.395435 0.754463
O O14 0.000000 0.438683 0.000000
O O15 0.578773 0.000000 0.177298
O O16 0.916336 0.285753 0.720421
O O17 0.000000 0.345427 0.500000
O O18 0.250000 0.747985 0.230336
#
# Coordination Sequence:
#
# PCOD9405562 Si02
#       7
#     8   8   8   8   8   8   8
#     4  10  21  37  56  80 113 146 179 226 284 350
#     4  11  21  36  60  80 108 143 188 237 290 352
#     4   9  19  36  58  81 111 153 195 238 284 338
#     4   8  15  31  55  82 113 151 194 235 273 326
#     4  10  22  37  58  86 111 143 185 234 293 362
#     4  10  21  35  57  84 119 155 190 238 298 349
#     4  10  22  39  57  79 109 146 195 244 288 342
#
# _framework density 18.409552000000001
#
# number of rings (size 3 to 8) (size 9 to 14) (size 15 to 20)
#    0.000    2.286    0.000    3.857    4.000    4.571 
#    0.000    1.429    0.000    0.000    0.000    4.000 
#    0.000    0.000    0.000    0.000    0.000    0.000 
#
# Total GULP energy -311903.314909 kJ/mol
# GULP energy per Si atom -5569.702052 kJ/mol
# Density = 1.836765 g / cm^3
# Si number density = 18.409552 Si / 1000 Ang^3
#
#
#
# Elastic Constant Matrix: (Units=GPa)
#
#
# Indices 1 2 3 4 5 6 
#
# 1 80.2454 18.6835 23.5702 0.0000 0.0000 0.0000
# 2 18.6835 115.0709 29.2780 0.0000 0.0000 0.0000
# 3 23.5702 29.2780 87.8956 0.0000 0.0000 0.0000
# 4 0.0000 0.0000 0.0000 5.3506 0.0000 0.0000
# 5 0.0000 0.0000 0.0000 0.0000 -47.1589 0.0000
# 6 0.0000 0.0000 0.0000 0.0000 0.0000 18.2421
#
#
#
# Elastic Compliance Matrix: (Units=1/GPa)
#
#
# Indices 1 2 3 4 5 6 
#
# 1 0.013734 -0.001413 -0.003212 0.000000 0.000000 0.000000
# 2 -0.001413 0.009640 -0.002832 0.000000 0.000000 0.000000
# 3 -0.003212 -0.002832 0.013182 0.000000 0.000000 0.000000
# 4 0.000000 0.000000 0.000000 0.186894 0.000000 0.000000
# 5 0.000000 0.000000 0.000000 0.000000 -0.021205 0.000000
# 6 0.000000 0.000000 0.000000 0.000000 0.000000 0.054818
#
#
# Mechanical properties :
#
#
# Convention : Reuss Voigt Hill
#
# Bulk Modulus (GPa) = 46.20701 47.36393 46.78547
# Shear Modulus (GPa) = 17.90878 9.39878 13.65378
#
# Velocity S-wave (km/s) = 3.12236 2.26196 2.72631
# Velocity P-wave (km/s) = 6.17679 5.71014 5.94805
#
# Compressibility (1/GPa) = 0.02164174
#
# Stress axis : x y z
#
# Youngs Moduli (GPa) = 72.81061 103.73119 75.86075
#
# Poissons Ratio (x) = 0.14653 0.24370
# Poissons Ratio (y) = 0.10285 0.21487
# Poissons Ratio (z) = 0.23390 0.29381
#
# Static dielectric constant tensor:
#      x y z
#    x 1.606770 0.000000 0.000000 
#    y 0.000000 1.632990 0.000000 
#    z 0.000000 0.000000 1.650020 
# 
# From -- ./inp_files/8566.got.cif
#   From: 2010.05.17/outbox.cif.g08.bks.cpg/sg51_5_cif.got.tgz:8566.got - 2010.06.03 11:52:47.
