data_PCOD9405378
_publ_section_title
;
Structure prediction by ZEFSAII (Michael W. Deem and Ramdas Pophale) SiO2 
 PCOD9405378
Probable space group: P M M A
;
_chemical_formula_sum "Si O2"
_cell_formula_units_Z 48
_cell_length_a 9.749558
_cell_length_b 7.518657
_cell_length_c 32.413856
_cell_angle_alpha 90.000000
_cell_angle_beta 90.000000
_cell_angle_gamma 90.000000
_cell_volume 2376.051768
_symmetry_space_group_name_H-M "P M M A"
_symmetry_group_IT_number 51
_symmetry_cell_setting 'orthorhombic'
loop_
_space_group_symop_operation_xyz
x,y,z
1/2-x,-y,z
1/2+x,-y,-z
-x,y,-z
-x,-y,-z
1/2+x,y,-z
1/2-x,y,z
x,-y,z
loop_
_atom_site_type_symbol
_atom_site_label
_atom_site_fract_x
_atom_site_fract_y
_atom_site_fract_z
Si Si1 0.406798 0.285449 0.718123
Si Si2 0.094066 0.713655 0.962965
Si Si3 0.094877 0.212403 0.203655
Si Si4 0.408759 0.282062 0.538417
Si Si5 0.416894 0.706005 0.628202
Si Si6 0.406498 0.787255 0.870257
O O1 0.250000 0.224167 0.726502
O O2 0.400421 0.500000 0.714987
O O3 0.509258 0.241627 0.754721
O O4 0.453390 0.217168 0.672928
O O5 0.250000 0.781786 0.965994
O O6 0.099547 0.500000 0.966620
O O7 0.043673 0.753078 0.916772
O O8 0.000000 0.781409 0.000000
O O9 0.250000 0.282733 0.205785
O O10 0.006871 0.283114 0.165019
O O11 0.104821 0.000000 0.198083
O O12 0.500000 0.224743 0.500000
O O13 0.250000 0.230570 0.532978
O O14 0.411225 0.500000 0.539569
O O15 0.458158 0.218961 0.583688
O O16 0.250000 0.706237 0.627720
O O17 0.462349 0.500000 0.628324
O O18 0.250000 0.717625 0.866525
O O19 0.398508 0.000000 0.865217
#
# Coordination Sequence:
#
# PCOD9405378 Si02
#       6
#     8   8   8   8   8   8
#     4   9  17  30  49  70  90 117 155 194 231 274
#     4   9  18  32  49  70  96 123 150 182 221 264
#     4  10  21  35  49  68  96 126 154 189 235 282
#     4   8  12  18  29  46  71 104 139 172 208 254
#     4   7  11  21  36  54  78 108 141 178 219 262
#     4   9  18  33  51  69  90 119 155 191 225 264
#
# _framework density 20.20158
#
# number of rings (size 3 to 8) (size 9 to 14) (size 15 to 20)
#    0.000    3.333    0.000    2.500    0.000    3.000 
#    0.000    2.500    0.000    3.000    0.000    0.000 
#    0.000    0.667    0.000    1.500    0.000    4.333 
#
# Total GULP energy -267491.960868 kJ/mol
# GULP energy per Si atom -5572.749185 kJ/mol
# Density = 2.015560 g / cm^3
# Si number density = 20.201580 Si / 1000 Ang^3
#
#
#
# Elastic Constant Matrix: (Units=GPa)
#
#
# Indices 1 2 3 4 5 6 
#
# 1 99.4384 4.9978 118.6843 0.0000 0.0000 0.0000
# 2 4.9978 52.5824 1.1354 0.0000 0.0000 0.0000
# 3 118.6843 1.1354 245.7911 0.0000 0.0000 0.0000
# 4 0.0000 0.0000 0.0000 21.8604 0.0000 0.0000
# 5 0.0000 0.0000 0.0000 0.0000 31.5300 0.0000
# 6 0.0000 0.0000 0.0000 0.0000 0.0000 6.8430
#
#
#
# Elastic Compliance Matrix: (Units=1/GPa)
#
#
# Indices 1 2 3 4 5 6 
#
# 1 0.023950 -0.002027 -0.011555 0.000000 0.000000 0.000000
# 2 -0.002027 0.019191 0.000890 0.000000 0.000000 0.000000
# 3 -0.011555 0.000890 0.009644 0.000000 0.000000 0.000000
# 4 0.000000 0.000000 0.000000 0.045745 0.000000 0.000000
# 5 0.000000 0.000000 0.000000 0.000000 0.031716 0.000000
# 6 0.000000 0.000000 0.000000 0.000000 0.000000 0.146134
#
#
# Mechanical properties :
#
#
# Convention : Reuss Voigt Hill
#
# Bulk Modulus (GPa) = 36.49487 71.93852 54.21669
# Shear Modulus (GPa) = 16.08243 30.24631 23.16437
#
# Velocity S-wave (km/s) = 2.82458 3.87360 3.38991
# Velocity P-wave (km/s) = 5.36118 7.46284 6.49755
#
# Compressibility (1/GPa) = 0.02740111
#
# Stress axis : x y z
#
# Youngs Moduli (GPa) = 41.75314 52.10724 103.69016
#
# Poissons Ratio (x) = 0.10561 1.19818
# Poissons Ratio (y) = 0.08463 -0.09229
# Poissons Ratio (z) = 0.48248 -0.04638
#
# Static dielectric constant tensor:
#      x y z
#    x 1.693570 0.000000 0.000000 
#    y 0.000000 1.784340 0.000000 
#    z 0.000000 0.000000 1.731540 
# 
# From -- ./inp_files/36148.got.cif
#   From: 2010.05.17/outbox.cif.g08.bks.cpg/sg51_19_cif.got.tgz:36148.got - 2010.06.03 11:52:47.
