data_PCOD9405238
_publ_section_title
;
Structure prediction by ZEFSAII (Michael W. Deem and Ramdas Pophale) SiO2 
 PCOD9405238
Probable space group: P M M A
;
_chemical_formula_sum "Si O2"
_cell_formula_units_Z 48
_cell_length_a 35.060474
_cell_length_b 7.893831
_cell_length_c 9.100213
_cell_angle_alpha 90.000000
_cell_angle_beta 90.000000
_cell_angle_gamma 90.000000
_cell_volume 2518.588205
_symmetry_space_group_name_H-M "P M M A"
_symmetry_group_IT_number 51
_symmetry_cell_setting 'orthorhombic'
loop_
_space_group_symop_operation_xyz
x,y,z
1/2-x,-y,z
1/2+x,-y,-z
-x,y,-z
-x,-y,-z
1/2+x,y,-z
1/2-x,y,z
x,-y,z
loop_
_atom_site_type_symbol
_atom_site_label
_atom_site_fract_x
_atom_site_fract_y
_atom_site_fract_z
Si Si1 0.541221 0.500000 0.572841
Si Si2 0.750000 0.296738 0.924976
Si Si3 0.825352 0.800209 0.102172
Si Si4 0.750000 0.292819 0.586636
Si Si5 0.827545 0.696348 0.432930
Si Si6 0.095525 0.810588 0.423884
Si Si7 0.541094 0.500000 0.926402
Si Si8 0.597892 0.198027 0.926381
O O1 0.500000 0.500000 0.500000
O O2 0.565848 0.334438 0.531527
O O3 0.537025 0.500000 0.749583
O O4 0.750000 0.500000 0.924922
O O5 0.712256 0.236897 0.008367
O O6 0.750000 0.238955 0.755929
O O7 0.824272 0.707779 0.257891
O O8 0.826963 0.000000 0.133432
O O9 0.863097 0.756455 0.009579
O O10 0.750000 0.500000 0.581501
O O11 0.711470 0.237163 0.505378
O O12 0.832031 0.500000 0.477747
O O13 0.864998 0.790334 0.489739
O O14 0.103701 0.788725 0.249646
O O15 0.080112 0.000000 0.446058
O O16 0.565263 0.332163 0.967154
O O17 0.500000 0.500000 0.000000
O O18 0.588596 0.000000 0.958166
#
# Coordination Sequence:
#
# PCOD9405238 Si02
#       8
#     4   4   8   4   8   8   4   8
#     4  10  22  40  60  89 120 151 194 238 287 354
#     4  11  22  37  58  82 110 155 200 245 291 341
#     4  11  23  38  55  84 119 154 193 244 296 345
#     4   9  21  37  56  82 114 152 201 244 289 343
#     4  11  21  36  58  87 119 154 195 245 293 346
#     4  10  20  39  62  87 117 156 196 241 292 347
#     4  10  22  38  62  89 116 153 192 234 293 352
#     4   9  21  39  61  86 118 154 197 241 287 348
#
# _framework density 19.058295999999999
#
# number of rings (size 3 to 8) (size 9 to 14) (size 15 to 20)
#    0.000    1.833    0.833    2.750    2.333    2.667 
#    0.000    3.750    0.000    0.000    0.000    0.000 
#    0.000    0.000    0.000    0.000    0.000    0.000 
#
# Total GULP energy -268190.159177 kJ/mol
# GULP energy per Si atom -5587.294983 kJ/mol
# Density = 1.901492 g / cm^3
# Si number density = 19.058296 Si / 1000 Ang^3
#
#
#
# Elastic Constant Matrix: (Units=GPa)
#
#
# Indices 1 2 3 4 5 6 
#
# 1 177.5334 66.9309 66.8214 0.0000 0.0000 0.0000
# 2 66.9309 86.6836 37.6768 0.0000 0.0000 0.0000
# 3 66.8214 37.6768 67.6444 0.0000 0.0000 0.0000
# 4 0.0000 0.0000 0.0000 20.1416 0.0000 0.0000
# 5 0.0000 0.0000 0.0000 0.0000 -27.3787 0.0000
# 6 0.0000 0.0000 0.0000 0.0000 0.0000 13.7949
#
#
#
# Elastic Compliance Matrix: (Units=1/GPa)
#
#
# Indices 1 2 3 4 5 6 
#
# 1 0.010195 -0.004611 -0.007503 0.000000 0.000000 0.000000
# 2 -0.004611 0.017306 -0.005085 0.000000 0.000000 0.000000
# 3 -0.007503 -0.005085 0.025027 0.000000 0.000000 0.000000
# 4 0.000000 0.000000 0.000000 0.049648 0.000000 0.000000
# 5 0.000000 0.000000 0.000000 0.000000 -0.036525 0.000000
# 6 0.000000 0.000000 0.000000 0.000000 0.000000 0.072491
#
#
# Mechanical properties :
#
#
# Convention : Reuss Voigt Hill
#
# Bulk Modulus (GPa) = 55.15234 74.96886 65.06060
# Shear Modulus (GPa) = 27.99818 12.00704 20.00261
#
# Velocity S-wave (km/s) = 3.83702 2.51274 3.24319
# Velocity P-wave (km/s) = 6.97365 6.91668 6.94522
#
# Compressibility (1/GPa) = 0.01813160
#
# Stress axis : x y z
#
# Youngs Moduli (GPa) = 98.08731 57.78219 39.95710
#
# Poissons Ratio (x) = 0.26642 0.29979
# Poissons Ratio (y) = 0.45226 0.20317
# Poissons Ratio (z) = 0.73593 0.29381
#
# Static dielectric constant tensor:
#      x y z
#    x 1.620540 0.000000 0.000000 
#    y 0.000000 1.688950 0.000000 
#    z 0.000000 0.000000 1.640970 
# 
# From -- ./inp_files/13009.got.cif
#   From: 2010.05.17/outbox.cif.g08.bks.cpg/sg51_7_cif.got.tgz:13009.got - 2010.06.03 11:52:47.
