data_PCOD9405353
_publ_section_title
;
Structure prediction by ZEFSAII (Michael W. Deem and Ramdas Pophale) SiO2 
 PCOD9405353
Probable space group: P M M A
;
_chemical_formula_sum "Si O2"
_cell_formula_units_Z 64
_cell_length_a 19.333264
_cell_length_b 7.566945
_cell_length_c 21.758150
_cell_angle_alpha 90.000000
_cell_angle_beta 90.000000
_cell_angle_gamma 90.000000
_cell_volume 3183.081256
_symmetry_space_group_name_H-M "P M M A"
_symmetry_group_IT_number 51
_symmetry_cell_setting 'orthorhombic'
loop_
_space_group_symop_operation_xyz
x,y,z
1/2-x,-y,z
1/2+x,-y,-z
-x,y,-z
-x,-y,-z
1/2+x,y,-z
1/2-x,y,z
x,-y,z
loop_
_atom_site_type_symbol
_atom_site_label
_atom_site_fract_x
_atom_site_fract_y
_atom_site_fract_z
Si Si1 0.826321 0.710996 0.880085
Si Si2 0.670428 0.783214 0.621093
Si Si3 0.827547 0.211010 0.255935
Si Si4 0.575715 0.205442 0.510009
Si Si5 0.828320 0.288691 0.398331
Si Si6 0.968022 0.288044 0.936708
Si Si7 0.892702 0.212866 0.750546
Si Si8 0.464764 0.212603 0.807842
O O1 0.750000 0.782174 0.894226
O O2 0.824354 0.500000 0.889659
O O3 0.891630 0.781276 0.918824
O O4 0.844946 0.740665 0.808641
O O5 0.750000 0.726868 0.614746
O O6 0.622975 0.720630 0.564729
O O7 0.638188 0.725711 0.686092
O O8 0.671208 0.000000 0.620685
O O9 0.750000 0.282136 0.243936
O O10 0.843484 0.241465 0.327794
O O11 0.890941 0.280749 0.215441
O O12 0.824282 0.000000 0.246388
O O13 0.500000 0.285900 0.500000
O O14 0.618171 0.214086 0.446974
O O15 0.564688 0.000000 0.526998
O O16 0.750000 0.226288 0.411839
O O17 0.829356 0.500000 0.403712
O O18 0.961820 0.500000 0.942586
O O19 0.016759 0.253418 0.878164
O O20 0.000000 0.219108 0.000000
O O21 0.970023 0.277254 0.767170
O O22 0.895636 0.000000 0.747605
O O23 0.463625 0.000000 0.801652
#
# Coordination Sequence:
#
# PCOD9405353 Si02
#       8
#     8   8   8   8   8   8   8   8
#     4   9  17  30  48  70  97 127 161 199 237 281
#     4   9  17  29  46  69  95 122 155 198 245 292
#     4   9  18  33  54  77 100 129 166 207 253 304
#     4  10  21  34  52  73  95 129 171 213 253 302
#     4  10  21  36  53  73  99 132 169 211 258 306
#     4   9  18  33  51  71  99 135 170 201 237 286
#     4   9  17  29  48  72  96 123 156 196 242 291
#     4   9  18  31  51  76 101 127 159 203 246 288
#
# _framework density 20.106303
#
# number of rings (size 3 to 8) (size 9 to 14) (size 15 to 20)
#    0.000    2.750    0.000    1.125    1.750    3.000 
#    0.000    1.250    0.000    3.000    0.000    0.000 
#    0.000    0.000    0.000    0.000    0.000    0.000 
#
# Total GULP energy -357115.880373 kJ/mol
# GULP energy per Si atom -5579.935631 kJ/mol
# Density = 2.006054 g / cm^3
# Si number density = 20.106303 Si / 1000 Ang^3
#
#
#
# Elastic Constant Matrix: (Units=GPa)
#
#
# Indices 1 2 3 4 5 6 
#
# 1 198.1316 4.7847 137.5964 0.0000 0.0000 0.0000
# 2 4.7847 47.2017 -3.3196 0.0000 0.0000 0.0000
# 3 137.5964 -3.3196 134.9843 0.0000 0.0000 0.0000
# 4 0.0000 0.0000 0.0000 19.3886 0.0000 0.0000
# 5 0.0000 0.0000 0.0000 0.0000 22.2709 0.0000
# 6 0.0000 0.0000 0.0000 0.0000 0.0000 12.5826
#
#
#
# Elastic Compliance Matrix: (Units=1/GPa)
#
#
# Indices 1 2 3 4 5 6 
#
# 1 0.017713 -0.003071 -0.018131 0.000000 0.000000 0.000000
# 2 -0.003071 0.021755 0.003665 0.000000 0.000000 0.000000
# 3 -0.018131 0.003665 0.025980 0.000000 0.000000 0.000000
# 4 0.000000 0.000000 0.000000 0.051577 0.000000 0.000000
# 5 0.000000 0.000000 0.000000 0.000000 0.044902 0.000000
# 6 0.000000 0.000000 0.000000 0.000000 0.000000 0.079475
#
#
# Mechanical properties :
#
#
# Convention : Reuss Voigt Hill
#
# Bulk Modulus (GPa) = 32.92232 73.16007 53.04120
# Shear Modulus (GPa) = 17.44597 26.93216 22.18906
#
# Velocity S-wave (km/s) = 2.94885 3.66387 3.32563
# Velocity P-wave (km/s) = 5.29188 7.37321 6.41748
#
# Compressibility (1/GPa) = 0.03037453
#
# Stress axis : x y z
#
# Youngs Moduli (GPa) = 56.45638 45.96711 38.49063
#
# Poissons Ratio (x) = 0.14115 0.69788
# Poissons Ratio (y) = 0.17336 -0.14107
# Poissons Ratio (z) = 1.02361 -0.16847
#
# Static dielectric constant tensor:
#      x y z
#    x 1.721160 0.000000 0.000000 
#    y 0.000000 1.753550 0.000000 
#    z 0.000000 0.000000 1.660390 
# 
# From -- ./inp_files/33847.got.cif
#   From: 2010.05.17/outbox.cif.g08.bks.cpg/sg51_17_cif.got.tgz:33847.got - 2010.06.03 11:52:47.
