data_PCOD9405769
_publ_section_title
;
Structure prediction by ZEFSAII (Michael W. Deem and Ramdas Pophale) SiO2 
 PCOD9405769
Probable space group: P M M A
;
_chemical_formula_sum "Si O2"
_cell_formula_units_Z 48
_cell_length_a 16.536715
_cell_length_b 14.519868
_cell_length_c 9.216812
_cell_angle_alpha 90.000000
_cell_angle_beta 90.000000
_cell_angle_gamma 90.000000
_cell_volume 2213.057199
_symmetry_space_group_name_H-M "P M M A"
_symmetry_group_IT_number 51
_symmetry_cell_setting 'orthorhombic'
loop_
_space_group_symop_operation_xyz
x,y,z
1/2-x,-y,z
1/2+x,-y,-z
-x,y,-z
-x,-y,-z
1/2+x,y,-z
1/2-x,y,z
x,-y,z
loop_
_atom_site_type_symbol
_atom_site_label
_atom_site_fract_x
_atom_site_fract_y
_atom_site_fract_z
Si Si1 0.061502 0.100859 0.740786
Si Si2 0.843589 0.745484 0.102243
Si Si3 0.845230 0.402298 0.351227
Si Si4 0.384840 0.103290 0.407296
Si Si5 0.422790 0.296073 0.402225
Si Si6 0.076407 0.393377 0.106206
O O1 0.093828 0.173419 0.857825
O O2 0.106126 0.105034 0.583244
O O3 0.968426 0.104868 0.686824
O O4 0.075914 0.000000 0.803251
O O5 0.750000 0.777790 0.098580
O O6 0.856042 0.678239 0.238198
O O7 0.861553 0.679119 0.966528
O O8 0.750000 0.409360 0.371204
O O9 0.877424 0.500000 0.294970
O O10 0.883306 0.374986 0.501866
O O11 0.361143 0.210039 0.378779
O O12 0.349465 0.000000 0.375890
O O13 0.500000 0.264526 0.500000
O O14 0.449052 0.344547 0.255231
O O15 0.104743 0.500000 0.124166
O O16 0.000000 0.395616 0.000000
#
# Coordination Sequence:
#
# PCOD9405769 Si02
#       6
#     8   8   8   8   8   8
#     4   9  16  31  57  89 120 154 195 240 293 356
#     4  11  22  39  60  84 119 162 202 249 311 372
#     4  10  21  36  55  80 110 146 195 248 299 359
#     4   9  16  30  58  91 122 152 190 244 301 354
#     4  12  21  36  62  87 114 150 196 255 301 348
#     4  11  25  40  56  83 119 157 201 249 308 373
#
# _framework density 21.689451999999999
#
# number of rings (size 3 to 8) (size 9 to 14) (size 15 to 20)
#    0.000    1.667    3.333    4.000    0.000    4.667 
#    0.000    0.833    0.000    3.500    0.000    0.000 
#    0.000    0.000    0.000    0.000    0.000    0.000 
#
# Total GULP energy -267321.939845 kJ/mol
# GULP energy per Si atom -5569.207080 kJ/mol
# Density = 2.164009 g / cm^3
# Si number density = 21.689452 Si / 1000 Ang^3
#
#
#
# Elastic Constant Matrix: (Units=GPa)
#
#
# Indices 1 2 3 4 5 6 
#
# 1 26.3076 19.7104 16.6036 0.0000 0.0000 0.0000
# 2 19.7104 122.5899 18.0156 0.0000 0.0000 0.0000
# 3 16.6036 18.0156 76.6822 0.0000 0.0000 0.0000
# 4 0.0000 0.0000 0.0000 16.0498 0.0000 0.0000
# 5 0.0000 0.0000 0.0000 0.0000 13.9327 0.0000
# 6 0.0000 0.0000 0.0000 0.0000 0.0000 8.3283
#
#
#
# Elastic Compliance Matrix: (Units=1/GPa)
#
#
# Indices 1 2 3 4 5 6 
#
# 1 0.048542 -0.006484 -0.008987 0.000000 0.000000 0.000000
# 2 -0.006484 0.009315 -0.000785 0.000000 0.000000 0.000000
# 3 -0.008987 -0.000785 0.015171 0.000000 0.000000 0.000000
# 4 0.000000 0.000000 0.000000 0.062306 0.000000 0.000000
# 5 0.000000 0.000000 0.000000 0.000000 0.071774 0.000000
# 6 0.000000 0.000000 0.000000 0.000000 0.000000 0.120073
#
#
# Mechanical properties :
#
#
# Convention : Reuss Voigt Hill
#
# Bulk Modulus (GPa) = 24.68117 37.13765 30.90941
# Shear Modulus (GPa) = 13.39772 19.07882 16.23827
#
# Velocity S-wave (km/s) = 2.48807 2.96908 2.73915
# Velocity P-wave (km/s) = 4.43374 5.37713 4.92806
#
# Compressibility (1/GPa) = 0.04051671
#
# Stress axis : x y z
#
# Youngs Moduli (GPa) = 20.60071 107.35272 65.91470
#
# Poissons Ratio (x) = 0.69607 0.59239
# Poissons Ratio (y) = 0.13357 0.05171
# Poissons Ratio (z) = 0.18514 0.08422
#
# Static dielectric constant tensor:
#      x y z
#    x 1.782220 0.000000 0.000000 
#    y 0.000000 1.832870 0.000000 
#    z 0.000000 0.000000 1.778770 
# 
# From -- ./inp_files/9636.got.cif
#   From: 2010.05.17/outbox.cif.g08.bks.cpg/sg51_5_cif.got.tgz:9636.got - 2010.06.03 11:52:47.
