data_PCOD9405122
_publ_section_title
;
Structure prediction by ZEFSAII (Michael W. Deem and Ramdas Pophale) SiO2 
 PCOD9405122
Probable space group: P M M A
;
_chemical_formula_sum "Si O2"
_cell_formula_units_Z 48
_cell_length_a 20.331275
_cell_length_b 13.754127
_cell_length_c 9.485437
_cell_angle_alpha 90.000000
_cell_angle_beta 90.000000
_cell_angle_gamma 90.000000
_cell_volume 2652.497533
_symmetry_space_group_name_H-M "P M M A"
_symmetry_group_IT_number 51
_symmetry_cell_setting 'orthorhombic'
loop_
_space_group_symop_operation_xyz
x,y,z
1/2-x,-y,z
1/2+x,-y,-z
-x,y,-z
-x,-y,-z
1/2+x,y,-z
1/2-x,y,z
x,-y,z
loop_
_atom_site_type_symbol
_atom_site_label
_atom_site_fract_x
_atom_site_fract_y
_atom_site_fract_z
Si Si1 0.327287 0.385887 0.886938
Si Si2 0.636139 0.213358 0.294122
Si Si3 0.250000 0.117544 0.199774
Si Si4 0.012422 0.762907 0.339362
Si Si5 0.866073 0.115699 0.592318
Si Si6 0.750000 0.884282 0.117825
Si Si7 0.061470 0.386217 0.107787
O O1 0.250000 0.372557 0.916155
O O2 0.339565 0.500000 0.862387
O O3 0.346408 0.323263 0.750055
O O4 0.374040 0.356884 0.017680
O O5 0.557651 0.204500 0.276300
O O6 0.649659 0.176939 0.452037
O O7 0.684273 0.151972 0.194795
O O8 0.185741 0.143801 0.287928
O O9 0.250000 0.000000 0.192106
O O10 0.250000 0.153985 0.041428
O O11 0.061660 0.853210 0.357823
O O12 0.045577 0.682568 0.239603
O O13 0.000000 0.726011 0.500000
O O14 0.861574 0.000000 0.564153
O O15 0.750000 0.000000 0.118631
O O16 0.068087 0.500000 0.148945
O O17 0.000000 0.379446 0.000000
#
# Coordination Sequence:
#
# PCOD9405122 Si02
#       7
#     8   8   4   8   8   4   8
#     4  10  21  37  60  91 122 151 192 242 297 351
#     4  11  21  36  60  88 112 154 199 243 290 351
#     4   9  21  39  57  81 112 150 193 240 297 349
#     4  10  23  37  57  89 117 157 202 244 293 351
#     4  10  22  40  59  82 119 162 198 241 299 355
#     4  11  23  37  58  89 116 148 200 252 292 345
#     4  10  20  37  62  88 120 157 193 239 297 357
#
# _framework density 18.096153000000001
#
# number of rings (size 3 to 8) (size 9 to 14) (size 15 to 20)
#    0.000    1.833    2.500    1.000    2.333    4.667 
#    0.000    2.500    0.000    3.500    0.000    0.000 
#    0.000    0.000    0.000    0.000    0.000    0.000 
#
# Total GULP energy -267750.799352 kJ/mol
# GULP energy per Si atom -5578.141653 kJ/mol
# Density = 1.805497 g / cm^3
# Si number density = 18.096153 Si / 1000 Ang^3
#
#
#
# Elastic Constant Matrix: (Units=GPa)
#
#
# Indices 1 2 3 4 5 6 
#
# 1 143.0175 40.0136 78.0884 0.0000 0.0000 0.0000
# 2 40.0136 74.8689 56.4213 0.0000 0.0000 0.0000
# 3 78.0884 56.4213 115.6031 0.0000 0.0000 0.0000
# 4 0.0000 0.0000 0.0000 30.2038 0.0000 0.0000
# 5 0.0000 0.0000 0.0000 0.0000 28.7911 0.0000
# 6 0.0000 0.0000 0.0000 0.0000 0.0000 28.9095
#
#
#
# Elastic Compliance Matrix: (Units=1/GPa)
#
#
# Indices 1 2 3 4 5 6 
#
# 1 0.011087 -0.000445 -0.007272 0.000000 0.000000 0.000000
# 2 -0.000445 0.021145 -0.010019 0.000000 0.000000 0.000000
# 3 -0.007272 -0.010019 0.018452 0.000000 0.000000 0.000000
# 4 0.000000 0.000000 0.000000 0.033108 0.000000 0.000000
# 5 0.000000 0.000000 0.000000 0.000000 0.034733 0.000000
# 6 0.000000 0.000000 0.000000 0.000000 0.000000 0.034591
#
#
# Mechanical properties :
#
#
# Convention : Reuss Voigt Hill
#
# Bulk Modulus (GPa) = 65.73905 75.83736 70.78820
# Shear Modulus (GPa) = 25.81832 28.17862 26.99847
#
# Velocity S-wave (km/s) = 3.78131 3.95037 3.86676
# Velocity P-wave (km/s) = 7.44788 7.92504 7.69016
#
# Compressibility (1/GPa) = 0.01521166
#
# Stress axis : x y z
#
# Youngs Moduli (GPa) = 90.19338 47.29184 54.19358
#
# Poissons Ratio (x) = 0.02107 0.39409
# Poissons Ratio (y) = 0.04018 0.54298
# Poissons Ratio (z) = 0.65588 0.47383
#
# Static dielectric constant tensor:
#      x y z
#    x 1.636240 0.000000 0.000000 
#    y 0.000000 1.637810 0.000000 
#    z 0.000000 0.000000 1.604490 
# 
# From -- ./inp_files/9689.got.cif
#   From: 2010.05.17/outbox.cif.g08.bks.cpg/sg51_5_cif.got.tgz:9689.got - 2010.06.03 11:52:47.
