data_PCOD9405310
_publ_section_title
;
Structure prediction by ZEFSAII (Michael W. Deem and Ramdas Pophale) SiO2 
 PCOD9405310
Probable space group: P M M A
;
_chemical_formula_sum "Si O2"
_cell_formula_units_Z 56
_cell_length_a 16.572949
_cell_length_b 20.156835
_cell_length_c 9.166596
_cell_angle_alpha 90.000000
_cell_angle_beta 90.000000
_cell_angle_gamma 90.000000
_cell_volume 3062.176546
_symmetry_space_group_name_H-M "P M M A"
_symmetry_group_IT_number 51
_symmetry_cell_setting 'orthorhombic'
loop_
_space_group_symop_operation_xyz
x,y,z
1/2-x,-y,z
1/2+x,-y,-z
-x,y,-z
-x,-y,-z
1/2+x,y,-z
1/2-x,y,z
x,-y,z
loop_
_atom_site_type_symbol
_atom_site_label
_atom_site_fract_x
_atom_site_fract_y
_atom_site_fract_z
Si Si1 0.990205 0.578961 0.828471
Si Si2 0.079408 0.333696 0.600301
Si Si3 0.655059 0.812535 0.707471
Si Si4 0.580240 0.924486 0.901033
Si Si5 0.345792 0.802231 0.638354
Si Si6 0.343633 0.928682 0.802291
Si Si7 0.842711 0.657472 0.698428
O O1 0.992327 0.500000 0.807549
O O2 0.056682 0.613501 0.723817
O O3 0.905311 0.609352 0.776099
O O4 0.000000 0.593317 0.000000
O O5 0.106617 0.264788 0.670572
O O6 0.145611 0.350765 0.476830
O O7 0.000000 0.323639 0.500000
O O8 0.750000 0.824131 0.742966
O O9 0.646622 0.818042 0.532944
O O10 0.637676 0.734579 0.737469
O O11 0.599747 0.865989 0.789036
O O12 0.649472 0.922924 0.024480
O O13 0.577820 0.000000 0.839799
O O14 0.500000 0.915046 0.000000
O O15 0.250000 0.792301 0.668935
O O16 0.379355 0.864258 0.727624
O O17 0.250000 0.929898 0.758510
O O18 0.380403 0.000000 0.761000
O O19 0.750000 0.645333 0.736844
#
# Coordination Sequence:
#
# PCOD9405310 Si02
#       7
#     8   8   8   8   8   8   8
#     4  10  22  39  57  81 113 145 177 215 262 320
#     4   9  18  33  56  80 105 138 174 212 260 317
#     4   9  18  33  53  76 100 128 168 216 261 307
#     4  10  21  34  47  68 100 136 175 218 260 308
#     4   9  18  33  53  77 103 130 168 218 263 306
#     4   9  18  32  48  68  97 132 168 207 253 304
#     4   9  19  36  57  82 110 140 179 227 272 319
#
# _framework density 18.287645000000001
#
# number of rings (size 3 to 8) (size 9 to 14) (size 15 to 20)
#    0.000    2.714    0.000    1.714    0.000    9.429 
#    0.000    4.286    0.000    6.000    0.000    0.000 
#    0.000    0.000    0.000    0.000    0.000    0.000 
#
# Total GULP energy -312015.602110 kJ/mol
# GULP energy per Si atom -5571.707181 kJ/mol
# Density = 1.824602 g / cm^3
# Si number density = 18.287645 Si / 1000 Ang^3
#
#
#
# Elastic Constant Matrix: (Units=GPa)
#
#
# Indices 1 2 3 4 5 6 
#
# 1 48.4479 47.4869 26.8493 0.0000 0.0000 0.0000
# 2 47.4869 139.3085 78.4542 0.0000 0.0000 0.0000
# 3 26.8493 78.4542 59.4644 0.0000 0.0000 0.0000
# 4 0.0000 0.0000 0.0000 37.1460 0.0000 0.0000
# 5 0.0000 0.0000 0.0000 0.0000 22.3231 0.0000
# 6 0.0000 0.0000 0.0000 0.0000 0.0000 24.1344
#
#
#
# Elastic Compliance Matrix: (Units=1/GPa)
#
#
# Indices 1 2 3 4 5 6 
#
# 1 0.030998 -0.010445 -0.000215 0.000000 0.000000 0.000000
# 2 -0.010445 0.031453 -0.036781 0.000000 0.000000 0.000000
# 3 -0.000215 -0.036781 0.065441 0.000000 0.000000 0.000000
# 4 0.000000 0.000000 0.000000 0.026921 0.000000 0.000000
# 5 0.000000 0.000000 0.000000 0.000000 0.044797 0.000000
# 6 0.000000 0.000000 0.000000 0.000000 0.000000 0.041435
#
#
# Mechanical properties :
#
#
# Convention : Reuss Voigt Hill
#
# Bulk Modulus (GPa) = 30.29502 61.42240 45.85871
# Shear Modulus (GPa) = 14.41217 23.01605 18.71411
#
# Velocity S-wave (km/s) = 2.81033 3.55146 3.20241
# Velocity P-wave (km/s) = 5.20887 7.10471 6.22934
#
# Compressibility (1/GPa) = 0.03300873
#
# Stress axis : x y z
#
# Youngs Moduli (GPa) = 32.26004 31.79387 15.28102
#
# Poissons Ratio (x) = 0.33209 0.00329
# Poissons Ratio (y) = 0.33696 0.56205
# Poissons Ratio (z) = 0.00695 1.16940
#
# Static dielectric constant tensor:
#      x y z
#    x 1.685380 0.000000 0.000000 
#    y 0.000000 1.633000 0.000000 
#    z 0.000000 0.000000 1.614280 
# 
# From -- ./inp_files/8550.got.cif
#   From: 2010.05.17/outbox.cif.g08.bks.cpg/sg51_5_cif.got.tgz:8550.got - 2010.06.03 11:52:47.
