data_PCOD9405401
_publ_section_title
;
Structure prediction by ZEFSAII (Michael W. Deem and Ramdas Pophale) SiO2 
 PCOD9405401
Probable space group: P M M A
;
_chemical_formula_sum "Si O2"
_cell_formula_units_Z 36
_cell_length_a 7.518517
_cell_length_b 24.615457
_cell_length_c 9.247080
_cell_angle_alpha 90.000000
_cell_angle_beta 90.000000
_cell_angle_gamma 90.000000
_cell_volume 1711.373111
_symmetry_space_group_name_H-M "P M M A"
_symmetry_group_IT_number 51
_symmetry_cell_setting 'orthorhombic'
loop_
_space_group_symop_operation_xyz
x,y,z
1/2-x,-y,z
1/2+x,-y,-z
-x,y,-z
-x,-y,-z
1/2+x,y,-z
1/2-x,y,z
x,-y,z
loop_
_atom_site_type_symbol
_atom_site_label
_atom_site_fract_x
_atom_site_fract_y
_atom_site_fract_z
Si Si1 0.036326 0.618026 0.671221
Si Si2 0.037141 0.500000 0.672010
Si Si3 0.536619 0.274563 0.169661
Si Si4 0.036643 0.166919 0.669392
Si Si5 0.036683 0.939664 0.830375
O O1 0.250000 0.616802 0.687381
O O2 0.968555 0.558740 0.723158
O O3 0.967384 0.670103 0.757309
O O4 0.000000 0.623858 0.500000
O O5 0.250000 0.500000 0.693338
O O6 0.000000 0.500000 0.500000
O O7 0.750000 0.274958 0.189323
O O8 0.468089 0.220312 0.248154
O O9 0.500000 0.273039 0.000000
O O10 0.250000 0.166284 0.689093
O O11 0.967261 0.110752 0.737699
O O12 0.000000 0.170315 0.500000
O O13 0.250000 0.941287 0.812596
O O14 0.967980 0.000000 0.792138
O O15 0.000000 0.930508 0.000000
#
# Coordination Sequence:
#
# PCOD9405401 Si02
#       5
#     8   4   8   8   8
#     4   9  17  30  49  72  96 123 157 195 235 280
#     4   8  14  26  45  68  94 122 152 190 233 276
#     4  10  21  35  50  70  96 126 160 197 238 284
#     4  10  21  35  51  73  99 126 159 199 240 282
#     4   9  18  33  52  74 100 129 161 196 234 279
#
# _framework density 21.035741000000002
#
# number of rings (size 3 to 8) (size 9 to 14) (size 15 to 20)
#    0.000    2.667    0.000    1.333    0.000    3.111 
#    0.000    0.556    0.000    0.000    0.000    0.000 
#    0.000    0.000    0.000    0.000    0.000    0.000 
#
# Total GULP energy -200883.754220 kJ/mol
# GULP energy per Si atom -5580.104284 kJ/mol
# Density = 2.098786 g / cm^3
# Si number density = 21.035741 Si / 1000 Ang^3
#
#
#
# Elastic Constant Matrix: (Units=GPa)
#
#
# Indices 1 2 3 4 5 6 
#
# 1 57.7761 13.9810 -9.4358 0.0000 0.0000 0.0000
# 2 13.9810 279.9932 135.0486 0.0000 0.0000 0.0000
# 3 -9.4358 135.0486 121.1759 0.0000 0.0000 0.0000
# 4 0.0000 0.0000 0.0000 -21.7428 0.0000 0.0000
# 5 0.0000 0.0000 0.0000 0.0000 24.7145 0.0000
# 6 0.0000 0.0000 0.0000 0.0000 0.0000 45.0070
#
#
#
# Elastic Compliance Matrix: (Units=1/GPa)
#
#
# Indices 1 2 3 4 5 6 
#
# 1 0.019082 -0.003610 0.005509 0.000000 0.000000 0.000000
# 2 -0.003610 0.008406 -0.009649 0.000000 0.000000 0.000000
# 3 0.005509 -0.009649 0.019436 0.000000 0.000000 0.000000
# 4 0.000000 0.000000 0.000000 -0.045992 0.000000 0.000000
# 5 0.000000 0.000000 0.000000 0.000000 0.040462 0.000000
# 6 0.000000 0.000000 0.000000 0.000000 0.000000 0.022219
#
#
# Mechanical properties :
#
#
# Convention : Reuss Voigt Hill
#
# Bulk Modulus (GPa) = 31.82431 82.01474 56.91952
# Shear Modulus (GPa) = 55.81201 30.88583 43.34892
#
# Velocity S-wave (km/s) = 5.15651 3.83594 4.54445
# Velocity P-wave (km/s) = 7.11437 7.66108 7.39278
#
# Compressibility (1/GPa) = 0.03142252
#
# Stress axis : x y z
#
# Youngs Moduli (GPa) = 52.40675 118.96307 51.45197
#
# Poissons Ratio (x) = 0.42946 -0.28346
# Poissons Ratio (y) = 0.18919 0.49648
# Poissons Ratio (z) = -0.28872 1.14793
#
# Static dielectric constant tensor:
#      x y z
#    x 1.765370 0.000000 0.000000 
#    y 0.000000 1.810860 0.000000 
#    z 0.000000 0.000000 1.674560 
# 
# From -- ./inp_files/5253.got.cif
#   From: 2010.05.17/outbox.cif.g08.bks.cpg/sg51_3_cif.got.tgz:5253.got - 2010.06.03 11:52:47.
