data_PCOD9405897
_publ_section_title
;
Structure prediction by ZEFSAII (Michael W. Deem and Ramdas Pophale) SiO2 
 PCOD9405897
Probable space group: P M M A
;
_chemical_formula_sum "Si O2"
_cell_formula_units_Z 56
_cell_length_a 20.376771
_cell_length_b 9.218273
_cell_length_c 18.457047
_cell_angle_alpha 90.000000
_cell_angle_beta 90.000000
_cell_angle_gamma 90.000000
_cell_volume 3466.946569
_symmetry_space_group_name_H-M "P M M A"
_symmetry_group_IT_number 51
_symmetry_cell_setting 'orthorhombic'
loop_
_space_group_symop_operation_xyz
x,y,z
1/2-x,-y,z
1/2+x,-y,-z
-x,y,-z
-x,-y,-z
1/2+x,y,-z
1/2-x,y,z
x,-y,z
loop_
_atom_site_type_symbol
_atom_site_label
_atom_site_fract_x
_atom_site_fract_y
_atom_site_fract_z
Si Si1 0.569577 0.673092 0.962292
Si Si2 0.078666 0.668724 0.483330
Si Si3 0.409831 0.325903 0.641960
Si Si4 0.887329 0.172203 0.217143
Si Si5 0.458121 0.828767 0.184841
Si Si6 0.173906 0.826769 0.935651
Si Si7 0.448356 0.172817 0.345495
O O1 0.575562 0.500000 0.961062
O O2 0.568383 0.736300 0.881388
O O3 0.500000 0.710804 0.000000
O O4 0.626692 0.743105 0.010005
O O5 0.091577 0.500000 0.467011
O O6 0.112635 0.707988 0.559729
O O7 0.092370 0.765603 0.413137
O O8 0.000000 0.679851 0.500000
O O9 0.415530 0.500000 0.647088
O O10 0.371346 0.261007 0.710242
O O11 0.481362 0.252253 0.649201
O O12 0.844360 0.210356 0.147345
O O13 0.963612 0.198615 0.194927
O O14 0.881385 0.000000 0.231941
O O15 0.425478 0.798653 0.263219
O O16 0.450761 0.000000 0.169086
O O17 0.250000 0.796715 0.949668
O O18 0.162599 0.000000 0.943066
O O19 0.457513 0.000000 0.352570
#
# Coordination Sequence:
#
# PCOD9405897 Si02
#       7
#     8   8   8   8   8   8   8
#     4  11  22  33  49  74  98 124 161 201 244 293
#     4   8  14  23  33  50  79 116 151 182 222 273
#     4   9  16  24  36  55  82 117 153 185 223 273
#     4   9  17  29  45  66  89 116 155 196 233 277
#     4   9  17  29  45  65  90 122 157 197 238 282
#     4  10  21  37  55  72  94 127 162 199 247 296
#     4   9  16  24  36  57  83 114 151 190 231 272
#
# _framework density 16.152542
#
# number of rings (size 3 to 8) (size 9 to 14) (size 15 to 20)
#    0.000    2.714    1.429    3.000    0.000    7.429 
#    0.000    0.000    0.000    0.000    0.000    0.000 
#    0.000    1.143    0.000    6.286    0.000    6.143 
#
# Total GULP energy -311800.807037 kJ/mol
# GULP energy per Si atom -5567.871554 kJ/mol
# Density = 1.611578 g / cm^3
# Si number density = 16.152542 Si / 1000 Ang^3
#
#
#
# Elastic Constant Matrix: (Units=GPa)
#
#
# Indices 1 2 3 4 5 6 
#
# 1 38.0159 31.6203 43.5348 0.0000 0.0000 0.0000
# 2 31.6203 60.6188 80.6026 0.0000 0.0000 0.0000
# 3 43.5348 80.6026 164.3415 0.0000 0.0000 0.0000
# 4 0.0000 0.0000 0.0000 41.5101 0.0000 0.0000
# 5 0.0000 0.0000 0.0000 0.0000 9.8118 0.0000
# 6 0.0000 0.0000 0.0000 0.0000 0.0000 10.4029
#
#
#
# Elastic Compliance Matrix: (Units=1/GPa)
#
#
# Indices 1 2 3 4 5 6 
#
# 1 0.046548 -0.022667 -0.001214 0.000000 0.000000 0.000000
# 2 -0.022667 0.058461 -0.022668 0.000000 0.000000 0.000000
# 3 -0.001214 -0.022668 0.017524 0.000000 0.000000 0.000000
# 4 0.000000 0.000000 0.000000 0.024091 0.000000 0.000000
# 5 0.000000 0.000000 0.000000 0.000000 0.101918 0.000000
# 6 0.000000 0.000000 0.000000 0.000000 0.000000 0.096127
#
#
# Mechanical properties :
#
#
# Convention : Reuss Voigt Hill
#
# Bulk Modulus (GPa) = 33.97201 63.83238 48.90219
# Shear Modulus (GPa) = 11.17123 19.49287 15.33205
#
# Velocity S-wave (km/s) = 2.63270 3.47767 3.08426
# Velocity P-wave (km/s) = 5.50628 7.46524 6.55930
#
# Compressibility (1/GPa) = 0.02943600
#
# Stress axis : x y z
#
# Youngs Moduli (GPa) = 21.48317 17.10537 57.06401
#
# Poissons Ratio (x) = 0.38773 0.06925
# Poissons Ratio (y) = 0.48696 1.29354
# Poissons Ratio (z) = 0.02607 0.38775
#
# Static dielectric constant tensor:
#      x y z
#    x 1.524410 0.000000 0.000000 
#    y 0.000000 1.535690 0.000000 
#    z 0.000000 0.000000 1.591120 
# 
# From -- ./inp_files/30415.got.cif
#   From: 2010.05.17/outbox.cif.g08.bks.cpg/sg51_16_cif.got.tgz:30415.got - 2010.06.03 11:52:47.
