data_PCOD9405925
_publ_section_title
;
Structure prediction by ZEFSAII (Michael W. Deem and Ramdas Pophale) SiO2 
 PCOD9405925
Probable space group: P M M A
;
_chemical_formula_sum "Si O2"
_cell_formula_units_Z 40
_cell_length_a 8.657460
_cell_length_b 7.679310
_cell_length_c 31.016923
_cell_angle_alpha 90.000000
_cell_angle_beta 90.000000
_cell_angle_gamma 90.000000
_cell_volume 2062.107991
_symmetry_space_group_name_H-M "P M M A"
_symmetry_group_IT_number 51
_symmetry_cell_setting 'orthorhombic'
loop_
_space_group_symop_operation_xyz
x,y,z
1/2-x,-y,z
1/2+x,-y,-z
-x,y,-z
-x,-y,-z
1/2+x,y,-z
1/2-x,y,z
x,-y,z
loop_
_atom_site_type_symbol
_atom_site_label
_atom_site_fract_x
_atom_site_fract_y
_atom_site_fract_z
Si Si1 0.073332 0.791296 0.863693
Si Si2 0.075016 0.290895 0.955948
Si Si3 0.433828 0.500000 0.291564
Si Si4 0.936154 0.200083 0.453318
Si Si5 0.062875 0.500000 0.612281
Si Si6 0.062378 0.796529 0.769388
O O1 0.250000 0.721075 0.865574
O O2 0.998346 0.748068 0.909658
O O3 0.007536 0.737616 0.817352
O O4 0.082281 0.000000 0.861211
O O5 0.250000 0.222050 0.954230
O O6 0.080877 0.500000 0.959056
O O7 0.000000 0.225130 0.000000
O O8 0.250000 0.500000 0.290208
O O9 0.492088 0.500000 0.340532
O O10 0.497999 0.331018 0.266530
O O11 0.750000 0.203732 0.455490
O O12 0.983623 0.331361 0.415742
O O13 0.000000 0.253849 0.500000
O O14 0.984903 0.000000 0.445427
O O15 0.250000 0.500000 0.615989
O O16 0.250000 0.787935 0.769819
O O17 0.020924 0.000000 0.762718
#
# Coordination Sequence:
#
# PCOD9405925 Si02
#       6
#     8   8   4   8   4   8
#     4   8  15  29  51  76  95 119 165 218 262 309
#     4   9  17  28  43  66  96 129 160 197 247 305
#     4  12  26  39  55  84 118 153 186 228 294 352
#     4   9  18  33  55  83 113 146 185 229 277 324
#     4  10  21  37  55  78 110 149 195 238 269 318
#     4   9  19  38  63  85 105 137 186 239 283 333
#
# _framework density 19.397625999999999
#
# number of rings (size 3 to 8) (size 9 to 14) (size 15 to 20)
#    0.000    2.800    0.000    2.400    1.400    2.400 
#    0.000    3.000    0.000    1.200    0.000    0.000 
#    0.000    0.000    0.000    0.000    0.000    0.000 
#
# Total GULP energy -222964.956635 kJ/mol
# GULP energy per Si atom -5574.123916 kJ/mol
# Density = 1.935348 g / cm^3
# Si number density = 19.397626 Si / 1000 Ang^3
#
#
#
# Elastic Constant Matrix: (Units=GPa)
#
#
# Indices 1 2 3 4 5 6 
#
# 1 19.5548 24.9449 42.6797 0.0000 0.0000 0.0000
# 2 24.9449 86.4990 87.7028 0.0000 0.0000 0.0000
# 3 42.6797 87.7028 231.2835 0.0000 0.0000 0.0000
# 4 0.0000 0.0000 0.0000 14.9924 0.0000 0.0000
# 5 0.0000 0.0000 0.0000 0.0000 26.3983 0.0000
# 6 0.0000 0.0000 0.0000 0.0000 0.0000 10.9715
#
#
#
# Elastic Compliance Matrix: (Units=1/GPa)
#
#
# Indices 1 2 3 4 5 6 
#
# 1 0.097681 -0.016073 -0.011931 0.000000 0.000000 0.000000
# 2 -0.016073 0.021427 -0.005159 0.000000 0.000000 0.000000
# 3 -0.011931 -0.005159 0.008482 0.000000 0.000000 0.000000
# 4 0.000000 0.000000 0.000000 0.066700 0.000000 0.000000
# 5 0.000000 0.000000 0.000000 0.000000 0.037881 0.000000
# 6 0.000000 0.000000 0.000000 0.000000 0.000000 0.091145
#
#
# Mechanical properties :
#
#
# Convention : Reuss Voigt Hill
#
# Bulk Modulus (GPa) = 16.32270 71.99911 44.16090
# Shear Modulus (GPa) = 12.19322 22.60644 17.39983
#
# Velocity S-wave (km/s) = 2.50990 3.41753 2.99826
# Velocity P-wave (km/s) = 4.10274 7.26435 5.89929
#
# Compressibility (1/GPa) = 0.06126437
#
# Stress axis : x y z
#
# Youngs Moduli (GPa) = 10.23736 46.67027 117.90210
#
# Poissons Ratio (x) = 0.75014 1.40664
# Poissons Ratio (y) = 0.16455 0.60826
# Poissons Ratio (z) = 0.12214 0.24077
#
# Static dielectric constant tensor:
#      x y z
#    x 1.678140 0.000000 0.000000 
#    y 0.000000 1.686600 0.000000 
#    z 0.000000 0.000000 1.690530 
# 
# From -- ./inp_files/36051.got.cif
#   From: 2010.05.17/outbox.cif.g08.bks.cpg/sg51_19_cif.got.tgz:36051.got - 2010.06.03 11:52:47.
