data_PCOD9405413
_publ_section_title
;
Structure prediction by ZEFSAII (Michael W. Deem and Ramdas Pophale) SiO2 
 PCOD9405413
Probable space group: P M M A
;
_chemical_formula_sum "Si O2"
_cell_formula_units_Z 64
_cell_length_a 8.961943
_cell_length_b 14.675929
_cell_length_c 28.818612
_cell_angle_alpha 90.000000
_cell_angle_beta 90.000000
_cell_angle_gamma 90.000000
_cell_volume 3790.363308
_symmetry_space_group_name_H-M "P M M A"
_symmetry_group_IT_number 51
_symmetry_cell_setting 'orthorhombic'
loop_
_space_group_symop_operation_xyz
x,y,z
1/2-x,-y,z
1/2+x,-y,-z
-x,y,-z
-x,-y,-z
1/2+x,y,-z
1/2-x,y,z
x,-y,z
loop_
_atom_site_type_symbol
_atom_site_label
_atom_site_fract_x
_atom_site_fract_y
_atom_site_fract_z
Si Si1 0.427882 0.394542 0.321906
Si Si2 0.073809 0.607506 0.776287
Si Si3 0.928380 0.606179 0.949701
Si Si4 0.570314 0.894588 0.450530
Si Si5 0.928373 0.776142 0.362201
Si Si6 0.929399 0.893982 0.826439
Si Si7 0.926749 0.891778 0.719101
Si Si8 0.928683 0.278179 0.132257
O O1 0.250000 0.387730 0.324112
O O2 0.471381 0.500000 0.329999
O O3 0.482348 0.370194 0.269915
O O4 0.502196 0.323635 0.356713
O O5 0.250000 0.622267 0.766858
O O6 0.052897 0.500000 0.786215
O O7 0.031053 0.665657 0.821040
O O8 0.750000 0.616741 0.951991
O O9 0.960898 0.500000 0.937807
O O10 0.997424 0.671785 0.911211
O O11 0.000000 0.623726 0.000000
O O12 0.500000 0.870147 0.500000
O O13 0.750000 0.891107 0.454068
O O14 0.523554 0.829017 0.408717
O O15 0.528764 0.000000 0.440181
O O16 0.750000 0.770587 0.361867
O O17 0.982879 0.834366 0.318031
O O18 0.750000 0.884198 0.830166
O O19 0.969616 0.873551 0.772603
O O20 0.011007 0.823330 0.859585
O O21 0.965438 0.000000 0.835291
O O22 0.750000 0.871973 0.714312
O O23 0.947136 0.000000 0.711265
O O24 0.750000 0.279327 0.127676
#
# Coordination Sequence:
#
# PCOD9405413 Si02
#       8
#     8   8   8   8   8   8   8   8
#     4  10  21  35  50  70  98 133 173 214 251 291
#     4   9  18  32  49  72 104 138 169 204 249 299
#     4  10  21  37  57  80 106 135 166 203 249 300
#     4   9  19  35  53  75 102 129 158 195 242 296
#     4  11  21  32  50  75 102 132 166 205 250 301
#     4   9  19  35  51  69  99 138 177 215 251 290
#     4   9  18  32  50  74 104 137 172 208 247 294
#     4  11  21  32  51  78 105 134 170 210 252 301
#
# _framework density 16.884924999999999
#
# number of rings (size 3 to 8) (size 9 to 14) (size 15 to 20)
#    0.000    2.250    0.000    3.750    0.000    7.500 
#    0.000    3.750    0.000    0.750    0.000    0.000 
#    0.000    0.000    0.000    0.000    0.000    0.000 
#
# Total GULP energy -357325.427276 kJ/mol
# GULP energy per Si atom -5583.209801 kJ/mol
# Density = 1.684649 g / cm^3
# Si number density = 16.884925 Si / 1000 Ang^3
#
#
#
# Elastic Constant Matrix: (Units=GPa)
#
#
# Indices 1 2 3 4 5 6 
#
# 1 45.6456 53.7923 53.2739 0.0000 0.0000 0.0000
# 2 53.7923 108.7911 96.5818 0.0000 0.0000 0.0000
# 3 53.2739 96.5818 114.4908 0.0000 0.0000 0.0000
# 4 0.0000 0.0000 0.0000 32.9041 0.0000 0.0000
# 5 0.0000 0.0000 0.0000 0.0000 29.0168 0.0000
# 6 0.0000 0.0000 0.0000 0.0000 0.0000 28.0346
#
#
#
# Elastic Compliance Matrix: (Units=1/GPa)
#
#
# Indices 1 2 3 4 5 6 
#
# 1 0.055591 -0.018013 -0.010672 0.000000 0.000000 0.000000
# 2 -0.018013 0.042444 -0.027423 0.000000 0.000000 0.000000
# 3 -0.010672 -0.027423 0.036833 0.000000 0.000000 0.000000
# 4 0.000000 0.000000 0.000000 0.030391 0.000000 0.000000
# 5 0.000000 0.000000 0.000000 0.000000 0.034463 0.000000
# 6 0.000000 0.000000 0.000000 0.000000 0.000000 0.035670
#
#
# Mechanical properties :
#
#
# Convention : Reuss Voigt Hill
#
# Bulk Modulus (GPa) = 44.14480 75.13594 59.64037
# Shear Modulus (GPa) = 14.07816 22.34307 18.21061
#
# Velocity S-wave (km/s) = 2.89064 3.64160 3.28764
# Velocity P-wave (km/s) = 6.11084 7.89159 7.05760
#
# Compressibility (1/GPa) = 0.02265273
#
# Stress axis : x y z
#
# Youngs Moduli (GPa) = 17.98845 23.56036 27.14930
#
# Poissons Ratio (x) = 0.42440 0.28972
# Poissons Ratio (y) = 0.32403 0.74452
# Poissons Ratio (z) = 0.19196 0.64610
#
# Static dielectric constant tensor:
#      x y z
#    x 1.560020 0.000000 0.000000 
#    y 0.000000 1.577980 0.000000 
#    z 0.000000 0.000000 1.539090 
# 
# From -- ./inp_files/34883.got.cif
#   From: 2010.05.17/outbox.cif.g08.bks.cpg/sg51_18_cif.got.tgz:34883.got - 2010.06.03 11:52:47.
