data_PCOD9405968
_publ_section_title
;
Structure prediction by ZEFSAII (Michael W. Deem and Ramdas Pophale) SiO2 
 PCOD9405968
Probable space group: P M M A
;
_chemical_formula_sum "Si O2"
_cell_formula_units_Z 44
_cell_length_a 8.621294
_cell_length_b 17.677013
_cell_length_c 15.809846
_cell_angle_alpha 90.000000
_cell_angle_beta 90.000000
_cell_angle_gamma 90.000000
_cell_volume 2409.400390
_symmetry_space_group_name_H-M "P M M A"
_symmetry_group_IT_number 51
_symmetry_cell_setting 'orthorhombic'
loop_
_space_group_symop_operation_xyz
x,y,z
1/2-x,-y,z
1/2+x,-y,-z
-x,y,-z
-x,-y,-z
1/2+x,y,-z
1/2-x,y,z
x,-y,z
loop_
_atom_site_type_symbol
_atom_site_label
_atom_site_fract_x
_atom_site_fract_y
_atom_site_fract_z
Si Si1 0.063515 0.709542 0.771429
Si Si2 0.434372 0.116481 0.412078
Si Si3 0.934529 0.000000 0.095095
Si Si4 0.063795 0.879273 0.224516
Si Si5 0.934622 0.713245 0.416172
Si Si6 0.562629 0.585895 0.093391
O O1 0.250000 0.720023 0.778892
O O2 0.034593 0.679426 0.676158
O O3 0.010568 0.648902 0.840180
O O4 0.986357 0.791641 0.781843
O O5 0.500000 0.084393 0.500000
O O6 0.250000 0.108779 0.415317
O O7 0.486395 0.091015 0.318316
O O8 0.482936 0.204830 0.412836
O O9 0.992324 0.928140 0.149415
O O10 0.250000 0.000000 0.908976
O O11 0.000000 0.000000 0.000000
O O12 0.250000 0.884840 0.221073
O O13 0.750000 0.724190 0.425228
O O14 0.000000 0.673644 0.500000
O O15 0.750000 0.587298 0.091570
O O16 0.514840 0.500000 0.116033
O O17 0.500000 0.602123 0.000000
#
# Coordination Sequence:
#
# PCOD9405968 Si02
#       6
#     8   8   4   8   8   8
#     4   9  18  32  51  76 104 136 173 210 252 304
#     4   9  16  27  47  74 104 135 166 204 249 298
#     4  12  26  44  63  78  99 134 173 216 264 310
#     4  10  21  37  56  80 108 137 173 215 257 304
#     4   9  15  24  41  66  97 131 167 206 247 294
#     4   9  18  33  52  74 101 132 166 207 256 307
#
# _framework density 18.261806
#
# number of rings (size 3 to 8) (size 9 to 14) (size 15 to 20)
#    0.000    2.545    0.000    3.545    0.000    4.364 
#    0.000    2.273    0.000    0.545    0.000    0.000 
#    0.000    0.000    0.000    0.000    0.000    4.909 
#
# Total GULP energy -245226.880993 kJ/mol
# GULP energy per Si atom -5573.338204 kJ/mol
# Density = 1.822024 g / cm^3
# Si number density = 18.261806 Si / 1000 Ang^3
#
#
#
# Elastic Constant Matrix: (Units=GPa)
#
#
# Indices 1 2 3 4 5 6 
#
# 1 47.4069 25.8786 54.6948 0.0000 0.0000 0.0000
# 2 25.8786 81.9534 86.6874 0.0000 0.0000 0.0000
# 3 54.6948 86.6874 200.5457 0.0000 0.0000 0.0000
# 4 0.0000 0.0000 0.0000 -275.3488 0.0000 0.0000
# 5 0.0000 0.0000 0.0000 0.0000 32.3151 0.0000
# 6 0.0000 0.0000 0.0000 0.0000 0.0000 67.5791
#
#
#
# Elastic Compliance Matrix: (Units=1/GPa)
#
#
# Indices 1 2 3 4 5 6 
#
# 1 0.030886 -0.001553 -0.007752 0.000000 0.000000 0.000000
# 2 -0.001553 0.022559 -0.009328 0.000000 0.000000 0.000000
# 3 -0.007752 -0.009328 0.011133 0.000000 0.000000 0.000000
# 4 0.000000 0.000000 0.000000 -0.003632 0.000000 0.000000
# 5 0.000000 0.000000 0.000000 0.000000 0.030945 0.000000
# 6 0.000000 0.000000 0.000000 0.000000 0.000000 0.014797
#
#
# Mechanical properties :
#
#
# Convention : Reuss Voigt Hill
#
# Bulk Modulus (GPa) = 36.61441 73.82528 55.21984
# Shear Modulus (GPa) = 32.66742 -24.24790 4.20976
#
# Velocity S-wave (km/s) = 4.23405 -3.64784 1.51994
# Velocity P-wave (km/s) = 6.63296 4.77195 5.77787
#
# Compressibility (1/GPa) = 0.02731166
#
# Stress axis : x y z
#
# Youngs Moduli (GPa) = 32.37756 44.32822 89.82573
#
# Poissons Ratio (x) = 0.06883 0.69635
# Poissons Ratio (y) = 0.05027 0.83788
# Poissons Ratio (z) = 0.25100 0.41348
#
# Static dielectric constant tensor:
#      x y z
#    x 1.618180 0.000000 0.000000 
#    y 0.000000 1.615880 0.000000 
#    z 0.000000 0.000000 1.673490 
# 
# From -- ./inp_files/20918.got.cif
#   From: 2010.05.17/outbox.cif.g08.bks.cpg/sg51_11_cif.got.tgz:20918.got - 2010.06.03 11:52:47.
