data_PCOD9405880
_publ_section_title
;
Structure prediction by ZEFSAII (Michael W. Deem and Ramdas Pophale) SiO2 
 PCOD9405880
Probable space group: P M M A
;
_chemical_formula_sum "Si O2"
_cell_formula_units_Z 34
_cell_length_a 22.662806
_cell_length_b 9.660539
_cell_length_c 7.855708
_cell_angle_alpha 90.000000
_cell_angle_beta 90.000000
_cell_angle_gamma 90.000000
_cell_volume 1719.888812
_symmetry_space_group_name_H-M "P M M A"
_symmetry_group_IT_number 51
_symmetry_cell_setting 'orthorhombic'
loop_
_space_group_symop_operation_xyz
x,y,z
1/2-x,-y,z
1/2+x,-y,-z
-x,y,-z
-x,-y,-z
1/2+x,y,-z
1/2-x,y,z
x,-y,z
loop_
_atom_site_type_symbol
_atom_site_label
_atom_site_fract_x
_atom_site_fract_y
_atom_site_fract_z
Si Si1 0.586785 0.500000 0.124393
Si Si2 0.814270 0.000000 0.109059
Si Si3 0.439820 0.793454 0.406841
Si Si4 0.344648 0.264764 0.674023
Si Si5 0.937114 0.000000 0.899969
Si Si6 0.452323 0.500000 0.250091
Si Si7 0.750000 0.500000 0.422353
O O1 0.616678 0.361696 0.199185
O O2 0.519482 0.500000 0.185888
O O3 0.587454 0.500000 0.919747
O O4 0.815796 0.859452 0.219886
O O5 0.750000 0.000000 0.015324
O O6 0.876880 0.000000 0.008809
O O7 0.500000 0.835918 0.500000
O O8 0.385695 0.809666 0.534570
O O9 0.435367 0.870573 0.228064
O O10 0.442124 0.632474 0.364176
O O11 0.300846 0.376309 0.589802
O O12 0.000000 0.000000 0.000000
#
# Coordination Sequence:
#
# PCOD9405880 Si02
#       7
#     4   4   8   8   4   4   2
#     4  10  21  36  64  95 135 172 209 273 328 395
#     4  12  25  47  69  97 128 183 219 273 329 406
#     4  12  23  41  66 102 133 172 216 280 334 392
#     4  11  22  43  68  95 129 170 229 263 328 394
#     4  12  28  45  68  97 138 175 230 277 336 390
#     4  11  21  35  62 102 136 169 208 265 343 389
#     4  10  22  40  68  96 120 170 216 268 312 402
#
# _framework density 19.768720999999999
#
# number of rings (size 3 to 8) (size 9 to 14) (size 15 to 20)
#    0.000    0.706    3.529    5.647    3.294    0.000 
#    2.118    0.000    0.000    0.000    0.000    0.000 
#    0.000    0.000    0.000    0.000    0.000    0.000 
#
# Total GULP energy -189383.602217 kJ/mol
# GULP energy per Si atom -5570.105948 kJ/mol
# Density = 1.972373 g / cm^3
# Si number density = 19.768721 Si / 1000 Ang^3
#
#
#
# Elastic Constant Matrix: (Units=GPa)
#
#
# Indices 1 2 3 4 5 6 
#
# 1 154.5555 24.5334 54.5458 0.0000 0.0000 0.0000
# 2 24.5334 120.6560 17.6561 0.0000 0.0000 0.0000
# 3 54.5458 17.6561 71.8174 0.0000 0.0000 0.0000
# 4 0.0000 0.0000 0.0000 58.8562 0.0000 0.0000
# 5 0.0000 0.0000 0.0000 0.0000 10.1791 0.0000
# 6 0.0000 0.0000 0.0000 0.0000 0.0000 17.6683
#
#
#
# Elastic Compliance Matrix: (Units=1/GPa)
#
#
# Indices 1 2 3 4 5 6 
#
# 1 0.008923 -0.000853 -0.006568 0.000000 0.000000 0.000000
# 2 -0.000853 0.008679 -0.001486 0.000000 0.000000 0.000000
# 3 -0.006568 -0.001486 0.019278 0.000000 0.000000 0.000000
# 4 0.000000 0.000000 0.000000 0.016991 0.000000 0.000000
# 5 0.000000 0.000000 0.000000 0.000000 0.098241 0.000000
# 6 0.000000 0.000000 0.000000 0.000000 0.000000 0.056598
#
#
# Mechanical properties :
#
#
# Convention : Reuss Voigt Hill
#
# Bulk Modulus (GPa) = 52.44697 60.05547 56.25122
# Shear Modulus (GPa) = 21.47042 34.02697 27.74870
#
# Velocity S-wave (km/s) = 3.29915 4.15330 3.75062
# Velocity P-wave (km/s) = 6.41096 7.31060 6.87551
#
# Compressibility (1/GPa) = 0.01906688
#
# Stress axis : x y z
#
# Youngs Moduli (GPa) = 112.06386 115.22158 51.87372
#
# Poissons Ratio (x) = 0.09833 0.34069
# Poissons Ratio (y) = 0.09563 0.07706
# Poissons Ratio (z) = 0.73600 0.17117
#
# Static dielectric constant tensor:
#      x y z
#    x 1.707550 0.000000 0.000000 
#    y 0.000000 1.714170 0.000000 
#    z 0.000000 0.000000 1.686200 
# 
# From -- ./inp_files/10496.got.cif
#   From: 2010.05.17/outbox.cif.g08.bks.cpg/sg51_6_cif.got.tgz:10496.got - 2010.06.03 11:52:47.
