data_PCOD9405316
_publ_section_title
;
Structure prediction by ZEFSAII (Michael W. Deem and Ramdas Pophale) SiO2 
 PCOD9405316
Probable space group: P M M A
;
_chemical_formula_sum "Si O2"
_cell_formula_units_Z 48
_cell_length_a 13.668653
_cell_length_b 9.238799
_cell_length_c 18.879589
_cell_angle_alpha 90.000000
_cell_angle_beta 90.000000
_cell_angle_gamma 90.000000
_cell_volume 2384.151081
_symmetry_space_group_name_H-M "P M M A"
_symmetry_group_IT_number 51
_symmetry_cell_setting 'orthorhombic'
loop_
_space_group_symop_operation_xyz
x,y,z
1/2-x,-y,z
1/2+x,-y,-z
-x,y,-z
-x,-y,-z
1/2+x,y,-z
1/2-x,y,z
x,-y,z
loop_
_atom_site_type_symbol
_atom_site_label
_atom_site_fract_x
_atom_site_fract_y
_atom_site_fract_z
Si Si1 0.143337 0.675667 0.953117
Si Si2 0.434807 0.674193 0.106193
Si Si3 0.630787 0.335305 0.460607
Si Si4 0.556806 0.826729 0.753012
Si Si5 0.632398 0.834917 0.599056
Si Si6 0.860998 0.826400 0.316040
O O1 0.250000 0.727714 0.928994
O O2 0.143248 0.500000 0.949923
O O3 0.046894 0.721385 0.910706
O O4 0.125872 0.712597 0.035776
O O5 0.432501 0.500000 0.112951
O O6 0.402045 0.747384 0.178592
O O7 0.750000 0.337256 0.463231
O O8 0.597567 0.500000 0.452472
O O9 0.598406 0.264881 0.534565
O O10 0.608184 0.241774 0.391106
O O11 0.604865 0.786060 0.677922
O O12 0.442104 0.789279 0.741972
O O13 0.566901 0.000000 0.760918
O O14 0.750000 0.840098 0.595233
O O15 0.595484 0.000000 0.589799
O O16 0.750000 0.779529 0.299385
O O17 0.861091 0.000000 0.323761
#
# Coordination Sequence:
#
# PCOD9405316 Si02
#       6
#     8   8   8   8   8   8
#     4   8  15  31  54  76  98 126 158 190 228 278
#     4   9  18  32  51  75  99 124 158 195 230 276
#     4   9  17  30  49  72  95 119 156 209 253 280
#     4  10  21  34  48  70 100 130 159 194 236 282
#     4   9  18  33  50  66  90 128 166 196 235 289
#     4   9  18  33  50  66  90 128 166 196 235 289
#
# _framework density 20.132952
#
# number of rings (size 3 to 8) (size 9 to 14) (size 15 to 20)
#    0.000    3.000    0.000    1.500    0.000    5.333 
#    0.000    5.000    0.000    1.000    0.000    0.000 
#    0.000    0.000    0.000    0.000    0.000    0.000 
#
# Total GULP energy -267784.131812 kJ/mol
# GULP energy per Si atom -5578.836079 kJ/mol
# Density = 2.008713 g / cm^3
# Si number density = 20.132952 Si / 1000 Ang^3
#
#
#
# Elastic Constant Matrix: (Units=GPa)
#
#
# Indices 1 2 3 4 5 6 
#
# 1 38.5440 -5.8173 -20.0905 0.0000 0.0000 0.0000
# 2 -5.8173 17.6783 20.1343 0.0000 0.0000 0.0000
# 3 -20.0905 20.1343 75.6700 0.0000 0.0000 0.0000
# 4 0.0000 0.0000 0.0000 31.2781 0.0000 0.0000
# 5 0.0000 0.0000 0.0000 0.0000 11.4630 0.0000
# 6 0.0000 0.0000 0.0000 0.0000 0.0000 11.9379
#
#
#
# Elastic Compliance Matrix: (Units=1/GPa)
#
#
# Indices 1 2 3 4 5 6 
#
# 1 0.030128 0.001153 0.007692 0.000000 0.000000 0.000000
# 2 0.001153 0.081207 -0.021301 0.000000 0.000000 0.000000
# 3 0.007692 -0.021301 0.020925 0.000000 0.000000 0.000000
# 4 0.000000 0.000000 0.000000 0.031971 0.000000 0.000000
# 5 0.000000 0.000000 0.000000 0.000000 0.087237 0.000000
# 6 0.000000 0.000000 0.000000 0.000000 0.000000 0.083767
#
#
# Mechanical properties :
#
#
# Convention : Reuss Voigt Hill
#
# Bulk Modulus (GPa) = 9.31549 13.37169 11.34359
# Shear Modulus (GPa) = 12.62852 20.11352 16.37102
#
# Velocity S-wave (km/s) = 2.50723 3.16418 2.85466
# Velocity P-wave (km/s) = 3.60813 4.47275 4.06350
#
# Compressibility (1/GPa) = 0.10734814
#
# Stress axis : x y z
#
# Youngs Moduli (GPa) = 33.19193 12.31428 47.78890
#
# Poissons Ratio (x) = -0.01420 -0.36760
# Poissons Ratio (y) = -0.03828 1.01796
# Poissons Ratio (z) = -0.25532 0.26231
#
# Static dielectric constant tensor:
#      x y z
#    x 1.793940 0.000000 0.000000 
#    y 0.000000 1.679600 0.000000 
#    z 0.000000 0.000000 1.665220 
# 
# From -- ./inp_files/29437.got.cif
#   From: 2010.05.17/outbox.cif.g08.bks.cpg/sg51_15_cif.got.tgz:29437.got - 2010.06.03 11:52:47.
