data_PCOD9405086
_publ_section_title
;
Structure prediction by ZEFSAII (Michael W. Deem and Ramdas Pophale) SiO2 
 PCOD9405086
Probable space group: P M M A
;
_chemical_formula_sum "Si O2"
_cell_formula_units_Z 48
_cell_length_a 15.835629
_cell_length_b 8.674976
_cell_length_c 18.294573
_cell_angle_alpha 90.000000
_cell_angle_beta 90.000000
_cell_angle_gamma 90.000000
_cell_volume 2513.193211
_symmetry_space_group_name_H-M "P M M A"
_symmetry_group_IT_number 51
_symmetry_cell_setting 'orthorhombic'
loop_
_space_group_symop_operation_xyz
x,y,z
1/2-x,-y,z
1/2+x,-y,-z
-x,y,-z
-x,-y,-z
1/2+x,y,-z
1/2-x,y,z
x,-y,z
loop_
_atom_site_type_symbol
_atom_site_label
_atom_site_fract_x
_atom_site_fract_y
_atom_site_fract_z
Si Si1 0.750000 0.687582 0.206311
Si Si2 0.911301 0.685852 0.461925
Si Si3 0.250000 0.316213 0.290662
Si Si4 0.918981 0.313580 0.291065
Si Si5 0.250000 0.183143 0.453861
Si Si6 0.250000 0.315077 0.962533
Si Si7 0.085047 0.186135 0.041985
Si Si8 0.584333 0.184923 0.787688
O O1 0.750000 0.500000 0.206879
O O2 0.665537 0.736437 0.248567
O O3 0.750000 0.737581 0.122066
O O4 0.901463 0.500000 0.466894
O O5 0.913551 0.727860 0.376462
O O6 0.832895 0.762602 0.502573
O O7 0.000000 0.726605 0.500000
O O8 0.250000 0.500000 0.289331
O O9 0.250000 0.258876 0.373960
O O10 0.332925 0.253686 0.250159
O O11 0.924621 0.500000 0.286970
O O12 0.001235 0.243291 0.253582
O O13 0.250000 0.000000 0.446106
O O14 0.250000 0.500000 0.963272
O O15 0.166992 0.254727 0.003232
O O16 0.081212 0.230921 0.127049
O O17 0.090382 0.000000 0.038611
O O18 0.000000 0.234165 0.000000
O O19 0.588277 0.000000 0.784095
#
# Coordination Sequence:
#
# PCOD9405086 Si02
#       8
#     4   8   4   8   4   4   8   8
#     4   9  19  35  55  83 117 153 196 243 290 340
#     4  10  21  38  61  88 118 156 199 238 283 346
#     4  12  25  42  63  85 115 156 199 240 290 354
#     4  10  20  37  61  86 117 158 197 235 285 346
#     4  12  25  40  62  91 122 154 191 242 296 342
#     4  11  22  35  56  85 114 147 194 251 296 336
#     4  10  22  40  60  83 116 158 196 233 288 355
#     4  11  23  39  60  88 120 151 191 244 294 343
#
# _framework density 19.099208000000001
#
# number of rings (size 3 to 8) (size 9 to 14) (size 15 to 20)
#    0.000    1.500    0.000    5.250    0.000    7.333 
#    0.000    1.250    0.000    0.000    0.000    0.000 
#    0.000    0.000    0.000    0.000    0.000    0.000 
#
# Total GULP energy -268472.061862 kJ/mol
# GULP energy per Si atom -5593.167955 kJ/mol
# Density = 1.905574 g / cm^3
# Si number density = 19.099208 Si / 1000 Ang^3
#
#
#
# Elastic Constant Matrix: (Units=GPa)
#
#
# Indices 1 2 3 4 5 6 
#
# 1 222.4560 59.7610 131.8778 0.0000 0.0000 0.0000
# 2 59.7610 43.7953 63.5554 0.0000 0.0000 0.0000
# 3 131.8778 63.5554 220.1714 0.0000 0.0000 0.0000
# 4 0.0000 0.0000 0.0000 20.9788 0.0000 0.0000
# 5 0.0000 0.0000 0.0000 0.0000 45.3923 0.0000
# 6 0.0000 0.0000 0.0000 0.0000 0.0000 -64.0293
#
#
#
# Elastic Compliance Matrix: (Units=1/GPa)
#
#
# Indices 1 2 3 4 5 6 
#
# 1 0.008002 -0.006821 -0.002824 0.000000 0.000000 0.000000
# 2 -0.006821 0.045108 -0.008936 0.000000 0.000000 0.000000
# 3 -0.002824 -0.008936 0.008813 0.000000 0.000000 0.000000
# 4 0.000000 0.000000 0.000000 0.047667 0.000000 0.000000
# 5 0.000000 0.000000 0.000000 0.000000 0.022030 0.000000
# 6 0.000000 0.000000 0.000000 0.000000 0.000000 -0.015618
#
#
# Mechanical properties :
#
#
# Convention : Reuss Voigt Hill
#
# Bulk Modulus (GPa) = 40.38445 110.75678 75.57062
# Shear Modulus (GPa) = 30.97585 15.88362 23.42973
#
# Velocity S-wave (km/s) = 4.03158 2.88694 3.50628
# Velocity P-wave (km/s) = 6.54690 8.32038 7.48634
#
# Compressibility (1/GPa) = 0.02476200
#
# Stress axis : x y z
#
# Youngs Moduli (GPa) = 124.97341 22.16909 113.47134
#
# Poissons Ratio (x) = 0.15121 0.32044
# Poissons Ratio (y) = 0.85239 1.01393
# Poissons Ratio (z) = 0.35292 0.19809
#
# Static dielectric constant tensor:
#      x y z
#    x 1.615590 0.000000 0.000000 
#    y 0.000000 1.648020 0.000000 
#    z 0.000000 0.000000 1.639510 
# 
# From -- ./inp_files/29689.got.cif
#   From: 2010.05.17/outbox.cif.g08.bks.cpg/sg51_15_cif.got.tgz:29689.got - 2010.06.03 11:52:47.
