data_PCOD9405904
_publ_section_title
;
Structure prediction by ZEFSAII (Michael W. Deem and Ramdas Pophale) SiO2 
 PCOD9405904
Probable space group: P M M A
;
_chemical_formula_sum "Si O2"
_cell_formula_units_Z 52
_cell_length_a 9.103421
_cell_length_b 12.600493
_cell_length_c 31.021202
_cell_angle_alpha 90.000000
_cell_angle_beta 90.000000
_cell_angle_gamma 90.000000
_cell_volume 3558.367401
_symmetry_space_group_name_H-M "P M M A"
_symmetry_group_IT_number 51
_symmetry_cell_setting 'orthorhombic'
loop_
_space_group_symop_operation_xyz
x,y,z
1/2-x,-y,z
1/2+x,-y,-z
-x,y,-z
-x,-y,-z
1/2+x,y,-z
1/2-x,y,z
x,-y,z
loop_
_atom_site_type_symbol
_atom_site_label
_atom_site_fract_x
_atom_site_fract_y
_atom_site_fract_z
Si Si1 0.419235 0.129357 0.956348
Si Si2 0.423390 0.626103 0.545891
Si Si3 0.080759 0.870633 0.130951
Si Si4 0.571613 0.000000 0.452445
Si Si5 0.926885 0.804303 0.598917
Si Si6 0.419586 0.129242 0.781924
Si Si7 0.924171 0.125263 0.694759
O O1 0.250000 0.161831 0.956657
O O2 0.498152 0.163842 0.912406
O O3 0.422423 0.000000 0.956344
O O4 0.500000 0.163840 0.000000
O O5 0.500000 0.648991 0.500000
O O6 0.250000 0.653383 0.544401
O O7 0.435660 0.500000 0.553649
O O8 0.509047 0.694912 0.580919
O O9 0.250000 0.838497 0.129851
O O10 0.004383 0.835487 0.175203
O O11 0.076927 0.000000 0.131043
O O12 0.500000 0.000000 0.500000
O O13 0.509490 0.897612 0.427070
O O14 0.750000 0.000000 0.454347
O O15 0.750000 0.812852 0.592567
O O16 0.957089 0.818261 0.649717
O O17 0.250000 0.159602 0.784382
O O18 0.491009 0.164282 0.736949
O O19 0.426977 0.000000 0.781633
O O20 0.750000 0.133208 0.703003
O O21 0.957880 0.000000 0.688584
#
# Coordination Sequence:
#
# PCOD9405904 Si02
#       7
#     8   8   8   4   8   8   8
#     4   9  15  21  28  38  53  73 100 138 184 233
#     4  10  21  37  55  74  94 117 146 178 212 251
#     4   9  15  22  31  42  57  80 110 144 185 231
#     4  12  24  36  50  68  94 122 148 174 209 252
#     4  11  21  35  52  71  94 118 146 177 213 254
#     4   9  16  24  35  51  69  91 121 155 189 230
#     4   9  17  30  44  59  82 109 134 162 199 244
#
# _framework density 14.613443
#
# number of rings (size 3 to 8) (size 9 to 14) (size 15 to 20)
#    0.000    2.308    0.769    3.462    0.000    7.692 
#    0.000    0.000    0.000    0.000    0.000    0.000 
#    0.000    0.000    0.000    0.000    0.000    0.000 
#
# Total GULP energy -289858.491285 kJ/mol
# GULP energy per Si atom -5574.201755 kJ/mol
# Density = 1.458018 g / cm^3
# Si number density = 14.613443 Si / 1000 Ang^3
#
#
#
# Elastic Constant Matrix: (Units=GPa)
#
#
# Indices 1 2 3 4 5 6 
#
# 1 132.9026 25.0508 103.0685 0.0000 0.0000 0.0000
# 2 25.0508 16.9285 28.5897 0.0000 0.0000 0.0000
# 3 103.0685 28.5897 165.3744 0.0000 0.0000 0.0000
# 4 0.0000 0.0000 0.0000 5.8362 0.0000 0.0000
# 5 0.0000 0.0000 0.0000 0.0000 31.8953 0.0000
# 6 0.0000 0.0000 0.0000 0.0000 0.0000 13.8023
#
#
#
# Elastic Compliance Matrix: (Units=1/GPa)
#
#
# Indices 1 2 3 4 5 6 
#
# 1 0.015552 -0.009384 -0.008070 0.000000 0.000000 0.000000
# 2 -0.009384 0.089093 -0.009554 0.000000 0.000000 0.000000
# 3 -0.008070 -0.009554 0.012728 0.000000 0.000000 0.000000
# 4 0.000000 0.000000 0.000000 0.171344 0.000000 0.000000
# 5 0.000000 0.000000 0.000000 0.000000 0.031353 0.000000
# 6 0.000000 0.000000 0.000000 0.000000 0.000000 0.072452
#
#
# Mechanical properties :
#
#
# Convention : Reuss Voigt Hill
#
# Bulk Modulus (GPa) = 15.78355 69.84704 42.81529
# Shear Modulus (GPa) = 10.69162 20.87321 15.78242
#
# Velocity S-wave (km/s) = 2.70780 3.78346 3.28989
# Velocity P-wave (km/s) = 4.53877 8.18452 6.61765
#
# Compressibility (1/GPa) = 0.06335711
#
# Stress axis : x y z
#
# Youngs Moduli (GPa) = 64.30176 11.22421 78.56564
#
# Poissons Ratio (x) = 0.10533 0.63404
# Poissons Ratio (y) = 0.60341 0.75060
# Poissons Ratio (z) = 0.51893 0.10723
#
# Static dielectric constant tensor:
#      x y z
#    x 1.490420 0.000000 0.000000 
#    y 0.000000 1.453430 0.000000 
#    z 0.000000 0.000000 1.483450 
# 
# From -- ./inp_files/36206.got.cif
#   From: 2010.05.17/outbox.cif.g08.bks.cpg/sg51_19_cif.got.tgz:36206.got - 2010.06.03 11:52:47.
