data_PCOD9405165
_publ_section_title
;
Structure prediction by ZEFSAII (Michael W. Deem and Ramdas Pophale) SiO2 
 PCOD9405165
Probable space group: P M M A
;
_chemical_formula_sum "Si O2"
_cell_formula_units_Z 32
_cell_length_a 10.463193
_cell_length_b 7.728650
_cell_length_c 19.772468
_cell_angle_alpha 90.000000
_cell_angle_beta 90.000000
_cell_angle_gamma 90.000000
_cell_volume 1598.927448
_symmetry_space_group_name_H-M "P M M A"
_symmetry_group_IT_number 51
_symmetry_cell_setting 'orthorhombic'
loop_
_space_group_symop_operation_xyz
x,y,z
1/2-x,-y,z
1/2+x,-y,-z
-x,y,-z
-x,-y,-z
1/2+x,y,-z
1/2-x,y,z
x,-y,z
loop_
_atom_site_type_symbol
_atom_site_label
_atom_site_fract_x
_atom_site_fract_y
_atom_site_fract_z
Si Si1 0.395591 0.207285 0.552895
Si Si2 0.750000 0.202148 0.085096
Si Si3 0.103252 0.290920 0.706026
Si Si4 0.509684 0.702638 0.842262
Si Si5 0.750000 0.711371 0.927792
O O1 0.500000 0.275288 0.500000
O O2 0.250000 0.274819 0.543920
O O3 0.435108 0.241941 0.630288
O O4 0.389209 0.000000 0.544239
O O5 0.877120 0.282026 0.117377
O O6 0.750000 0.000000 0.101442
O O7 0.750000 0.226902 0.004707
O O8 0.250000 0.230890 0.716260
O O9 0.105320 0.500000 0.709790
O O10 0.016050 0.224661 0.767306
O O11 0.539676 0.500000 0.833258
O O12 0.625058 0.773153 0.887115
O O13 0.750000 0.500000 0.931124
#
# Coordination Sequence:
#
# PCOD9405165 Si02
#       5
#     8   4   8   8   4
#     4   9  18  33  52  74 103 138 174 208 249 308
#     4  12  24  36  56  82 109 142 181 224 271 322
#     4   9  17  32  55  79 103 133 173 219 260 304
#     4  10  20  38  59  80 107 142 183 224 269 324
#     4  10  22  38  58  80 107 144 181 220 273 326
#
# _framework density 20.013417
#
# number of rings (size 3 to 8) (size 9 to 14) (size 15 to 20)
#    0.000    2.250    1.250    1.875    0.000    5.500 
#    2.250    0.000    0.000    0.000    0.000    0.000 
#    0.000    0.000    0.000    0.000    0.000    0.000 
#
# Total GULP energy -178596.805903 kJ/mol
# GULP energy per Si atom -5581.150184 kJ/mol
# Density = 1.996787 g / cm^3
# Si number density = 20.013417 Si / 1000 Ang^3
#
#
#
# Elastic Constant Matrix: (Units=GPa)
#
#
# Indices 1 2 3 4 5 6 
#
# 1 101.2914 -18.4125 75.7955 0.0000 0.0000 0.0000
# 2 -18.4125 28.1120 -16.8634 0.0000 0.0000 0.0000
# 3 75.7955 -16.8634 170.1443 0.0000 0.0000 0.0000
# 4 0.0000 0.0000 0.0000 35.0887 0.0000 0.0000
# 5 0.0000 0.0000 0.0000 0.0000 2.2367 0.0000
# 6 0.0000 0.0000 0.0000 0.0000 0.0000 -381.0883
#
#
#
# Elastic Compliance Matrix: (Units=1/GPa)
#
#
# Indices 1 2 3 4 5 6 
#
# 1 0.015865 0.006540 -0.006419 0.000000 0.000000 0.000000
# 2 0.006540 0.040517 0.001102 0.000000 0.000000 0.000000
# 3 -0.006419 0.001102 0.008846 0.000000 0.000000 0.000000
# 4 0.000000 0.000000 0.000000 0.028499 0.000000 0.000000
# 5 0.000000 0.000000 0.000000 0.000000 0.447096 0.000000
# 6 0.000000 0.000000 0.000000 0.000000 0.000000 -0.002624
#
#
# Mechanical properties :
#
#
# Convention : Reuss Voigt Hill
#
# Bulk Modulus (GPa) = 14.77659 42.28742 28.53201
# Shear Modulus (GPa) = 8.95558 -51.48405 -21.26424
#
# Velocity S-wave (km/s) = 2.11766 -5.07746 -3.26314
# Velocity P-wave (km/s) = 3.65769 3.63301 0.29997
#
# Compressibility (1/GPa) = 0.06767460
#
# Stress axis : x y z
#
# Youngs Moduli (GPa) = 63.03245 24.68103 113.04270
#
# Poissons Ratio (x) = -0.16142 0.72564
# Poissons Ratio (y) = -0.41225 -0.12459
# Poissons Ratio (z) = 0.40462 -0.02720
#
# Static dielectric constant tensor:
#      x y z
#    x 1.704940 0.000000 0.000000 
#    y 0.000000 1.747220 0.000000 
#    z 0.000000 0.000000 1.693720 
# 
# From -- ./inp_files/28750.got.cif
#   From: 2010.05.17/outbox.cif.g08.bks.cpg/sg51_15_cif.got.tgz:28750.got - 2010.06.03 11:52:47.
