data_PCOD9405307
_publ_section_title
;
Structure prediction by ZEFSAII (Michael W. Deem and Ramdas Pophale) SiO2 
 PCOD9405307
Probable space group: P M M A
;
_chemical_formula_sum "Si O2"
_cell_formula_units_Z 36
_cell_length_a 7.444865
_cell_length_b 25.129599
_cell_length_c 9.165064
_cell_angle_alpha 90.000000
_cell_angle_beta 90.000000
_cell_angle_gamma 90.000000
_cell_volume 1714.659490
_symmetry_space_group_name_H-M "P M M A"
_symmetry_group_IT_number 51
_symmetry_cell_setting 'orthorhombic'
loop_
_space_group_symop_operation_xyz
x,y,z
1/2-x,-y,z
1/2+x,-y,-z
-x,y,-z
-x,-y,-z
1/2+x,y,-z
1/2-x,y,z
x,-y,z
loop_
_atom_site_type_symbol
_atom_site_label
_atom_site_fract_x
_atom_site_fract_y
_atom_site_fract_z
Si Si1 0.034694 0.270104 0.827140
Si Si2 0.965032 0.058644 0.172053
Si Si3 0.034924 0.835789 0.670948
Si Si4 0.965296 0.500000 0.174744
Si Si5 0.535012 0.614430 0.174381
O O1 0.250000 0.271317 0.807981
O O2 0.964289 0.218049 0.745745
O O3 0.965966 0.328029 0.774020
O O4 0.000000 0.265336 0.000000
O O5 0.750000 0.057351 0.192436
O O6 0.035823 0.109738 0.257765
O O7 0.034426 0.000000 0.215684
O O8 0.000000 0.065253 0.000000
O O9 0.250000 0.835851 0.694602
O O10 0.000000 0.835078 0.500000
O O11 0.750000 0.500000 0.194425
O O12 0.034235 0.442756 0.230781
O O13 0.000000 0.500000 0.000000
O O14 0.750000 0.614130 0.195366
O O15 0.500000 0.614551 0.000000
#
# Coordination Sequence:
#
# PCOD9405307 Si02
#       5
#     8   8   8   4   8
#     4   9  17  29  45  65  88 114 146 183 220 260
#     4   9  18  33  52  73  95 118 146 180 217 259
#     4  10  21  34  47  66  92 120 150 184 220 258
#     4   8  12  18  30  50  77 106 132 162 206 256
#     4   8  13  21  34  54  80 107 135 169 210 255
#
# _framework density 20.995421
#
# number of rings (size 3 to 8) (size 9 to 14) (size 15 to 20)
#    0.000    3.111    0.000    0.667    0.000    2.222 
#    0.000    0.000    0.000    0.000    0.000    0.778 
#    0.000    0.000    0.000    0.000    0.000    0.000 
#
# Total GULP energy -200561.989689 kJ/mol
# GULP energy per Si atom -5571.166380 kJ/mol
# Density = 2.094763 g / cm^3
# Si number density = 20.995421 Si / 1000 Ang^3
#
#
#
# Elastic Constant Matrix: (Units=GPa)
#
#
# Indices 1 2 3 4 5 6 
#
# 1 70.8684 15.6949 -7.0507 0.0000 0.0000 0.0000
# 2 15.6949 316.4086 91.4375 0.0000 0.0000 0.0000
# 3 -7.0507 91.4375 48.4901 0.0000 0.0000 0.0000
# 4 0.0000 0.0000 0.0000 -9.1609 0.0000 0.0000
# 5 0.0000 0.0000 0.0000 0.0000 16.0715 0.0000
# 6 0.0000 0.0000 0.0000 0.0000 0.0000 -5.2369
#
#
#
# Elastic Compliance Matrix: (Units=1/GPa)
#
#
# Indices 1 2 3 4 5 6 
#
# 1 0.015623 -0.003146 0.008204 0.000000 0.000000 0.000000
# 2 -0.003146 0.007578 -0.014748 0.000000 0.000000 0.000000
# 3 0.008204 -0.014748 0.049626 0.000000 0.000000 0.000000
# 4 0.000000 0.000000 0.000000 -0.109159 0.000000 0.000000
# 5 0.000000 0.000000 0.000000 0.000000 0.062222 0.000000
# 6 0.000000 0.000000 0.000000 0.000000 0.000000 -0.190952
#
#
# Mechanical properties :
#
#
# Convention : Reuss Voigt Hill
#
# Bulk Modulus (GPa) = 18.70996 70.65893 44.68444
# Shear Modulus (GPa) = -39.10401 22.71375 -8.19513
#
# Velocity S-wave (km/s) = -4.32035 3.29271 -1.97782
# Velocity P-wave (km/s) = 3.99456 6.94143 4.01416
#
# Compressibility (1/GPa) = 0.05344748
#
# Stress axis : x y z
#
# Youngs Moduli (GPa) = 64.00625 131.95224 20.15068
#
# Poissons Ratio (x) = 0.41508 -0.16531
# Poissons Ratio (y) = 0.20134 0.29719
# Poissons Ratio (z) = -0.52508 1.94605
#
# Static dielectric constant tensor:
#      x y z
#    x 1.741030 0.000000 0.000000 
#    y 0.000000 1.854110 0.000000 
#    z 0.000000 0.000000 1.620800 
# 
# From -- ./inp_files/809.got.cif
#   From: 2010.05.17/outbox.cif.g08.bks.cpg/sg51_1_cif.got.tgz:809.got - 2010.06.03 11:52:47.
