data_PCOD9405862
_publ_section_title
;
Structure prediction by ZEFSAII (Michael W. Deem and Ramdas Pophale) SiO2 
 PCOD9405862
Probable space group: P M M A
;
_chemical_formula_sum "Si O2"
_cell_formula_units_Z 64
_cell_length_a 18.828927
_cell_length_b 14.066905
_cell_length_c 13.102784
_cell_angle_alpha 90.000000
_cell_angle_beta 90.000000
_cell_angle_gamma 90.000000
_cell_volume 3470.465312
_symmetry_space_group_name_H-M "P M M A"
_symmetry_group_IT_number 51
_symmetry_cell_setting 'orthorhombic'
loop_
_space_group_symop_operation_xyz
x,y,z
1/2-x,-y,z
1/2+x,-y,-z
-x,y,-z
-x,-y,-z
1/2+x,y,-z
1/2-x,y,z
x,-y,z
loop_
_atom_site_type_symbol
_atom_site_label
_atom_site_fract_x
_atom_site_fract_y
_atom_site_fract_z
Si Si1 0.908446 0.612745 0.792159
Si Si2 0.583003 0.113509 0.510051
Si Si3 0.664475 0.889524 0.077504
Si Si4 0.423393 0.613356 0.785317
Si Si5 0.334193 0.729939 0.384513
Si Si6 0.584596 0.283675 0.003083
Si Si7 0.666365 0.611812 0.409181
Si Si8 0.169783 0.115066 0.691619
O O1 0.894468 0.500000 0.786155
O O2 0.862210 0.671156 0.711706
O O3 0.896292 0.651821 0.906206
O O4 0.992376 0.628410 0.769611
O O5 0.500000 0.135709 0.500000
O O6 0.621825 0.173708 0.597202
O O7 0.620770 0.139406 0.403114
O O8 0.590531 0.000000 0.526156
O O9 0.750000 0.882882 0.071424
O O10 0.644610 0.861921 0.194392
O O11 0.645312 0.000000 0.060193
O O12 0.626567 0.815220 0.004363
O O13 0.412341 0.500000 0.795607
O O14 0.379137 0.646369 0.687164
O O15 0.400912 0.661974 0.890860
O O16 0.250000 0.748278 0.377233
O O17 0.347206 0.667171 0.486297
O O18 0.500000 0.266024 0.000000
O O19 0.750000 0.619360 0.385451
O O20 0.649999 0.500000 0.424955
O O21 0.250000 0.151983 0.675717
O O22 0.174300 0.000000 0.692005
#
# Coordination Sequence:
#
# PCOD9405862 Si02
#       8
#     8   8   8   8   8   8   8   8
#     4  10  22  40  60  82 113 157 201 238 284 350
#     4  10  22  37  56  84 118 152 191 240 287 341
#     4   9  19  35  56  84 114 144 186 237 288 345
#     4   9  19  36  59  86 115 145 184 240 299 351
#     4  11  24  38  57  83 115 157 199 238 284 344
#     4  10  21  36  58  85 115 149 192 241 295 348
#     4   9  19  35  55  84 118 146 178 231 295 347
#     4   8  15  31  55  80 108 142 177 222 283 342
#
# _framework density 18.441331000000002
#
# number of rings (size 3 to 8) (size 9 to 14) (size 15 to 20)
#    0.000    2.500    0.000    1.875    3.500    5.250 
#    0.000    2.500    0.000    2.250    0.000    0.000 
#    0.000    0.000    0.000    0.000    0.000    0.000 
#
# Total GULP energy -357263.205142 kJ/mol
# GULP energy per Si atom -5582.237580 kJ/mol
# Density = 1.839936 g / cm^3
# Si number density = 18.441331 Si / 1000 Ang^3
#
#
#
# Elastic Constant Matrix: (Units=GPa)
#
#
# Indices 1 2 3 4 5 6 
#
# 1 60.5158 50.2265 57.1770 0.0000 0.0000 0.0000
# 2 50.2265 92.8420 44.8004 0.0000 0.0000 0.0000
# 3 57.1770 44.8004 87.0567 0.0000 0.0000 0.0000
# 4 0.0000 0.0000 0.0000 32.2659 0.0000 0.0000
# 5 0.0000 0.0000 0.0000 0.0000 26.5586 0.0000
# 6 0.0000 0.0000 0.0000 0.0000 0.0000 13.3102
#
#
#
# Elastic Compliance Matrix: (Units=1/GPa)
#
#
# Indices 1 2 3 4 5 6 
#
# 1 0.059658 -0.017783 -0.030031 0.000000 0.000000 0.000000
# 2 -0.017783 0.019630 0.001578 0.000000 0.000000 0.000000
# 3 -0.030031 0.001578 0.030398 0.000000 0.000000 0.000000
# 4 0.000000 0.000000 0.000000 0.030992 0.000000 0.000000
# 5 0.000000 0.000000 0.000000 0.000000 0.037653 0.000000
# 6 0.000000 0.000000 0.000000 0.000000 0.000000 0.075131
#
#
# Mechanical properties :
#
#
# Convention : Reuss Voigt Hill
#
# Bulk Modulus (GPa) = 58.09149 60.53582 59.31366
# Shear Modulus (GPa) = 14.21777 20.30763 17.26270
#
# Velocity S-wave (km/s) = 2.77965 3.32204 3.06287
# Velocity P-wave (km/s) = 6.47078 6.90014 6.68891
#
# Compressibility (1/GPa) = 0.01721422
#
# Stress axis : x y z
#
# Youngs Moduli (GPa) = 16.76222 50.94190 32.89650
#
# Poissons Ratio (x) = 0.90591 0.98790
# Poissons Ratio (y) = 0.29809 -0.05190
# Poissons Ratio (z) = 0.50338 -0.08037
#
# Static dielectric constant tensor:
#      x y z
#    x 1.619300 0.000000 0.000000 
#    y 0.000000 1.649130 0.000000 
#    z 0.000000 0.000000 1.613090 
# 
# From -- ./inp_files/17585.got.cif
#   From: 2010.05.17/outbox.cif.g08.bks.cpg/sg51_9_cif.got.tgz:17585.got - 2010.06.03 11:52:47.
