data_PCOD9405867
_publ_section_title
;
Structure prediction by ZEFSAII (Michael W. Deem and Ramdas Pophale) SiO2 
 PCOD9405867
Probable space group: P M M A
;
_chemical_formula_sum "Si O2"
_cell_formula_units_Z 48
_cell_length_a 27.056629
_cell_length_b 15.226510
_cell_length_c 5.892023
_cell_angle_alpha 90.000000
_cell_angle_beta 90.000000
_cell_angle_gamma 90.000000
_cell_volume 2427.384040
_symmetry_space_group_name_H-M "P M M A"
_symmetry_group_IT_number 51
_symmetry_cell_setting 'orthorhombic'
loop_
_space_group_symop_operation_xyz
x,y,z
1/2-x,-y,z
1/2+x,-y,-z
-x,y,-z
-x,-y,-z
1/2+x,y,-z
1/2-x,y,z
x,-y,z
loop_
_atom_site_type_symbol
_atom_site_label
_atom_site_fract_x
_atom_site_fract_y
_atom_site_fract_z
Si Si1 0.693015 0.275264 0.443379
Si Si2 0.373243 0.207198 0.176205
Si Si3 0.100141 0.331706 0.794425
Si Si4 0.193324 0.900109 0.840746
Si Si5 0.942920 0.833222 0.451526
Si Si6 0.471285 0.000000 0.756431
Si Si7 0.529711 0.500000 0.247437
O O1 0.750000 0.302994 0.448459
O O2 0.667019 0.263768 0.684351
O O3 0.657753 0.335182 0.283750
O O4 0.691090 0.174569 0.351425
O O5 0.401965 0.282109 0.035219
O O6 0.343361 0.138433 0.025673
O O7 0.411238 0.150316 0.324941
O O8 0.078682 0.257566 0.630847
O O9 0.066302 0.416181 0.766542
O O10 0.250000 0.899571 0.926898
O O11 0.182208 0.000000 0.769400
O O12 0.940054 0.911195 0.269317
O O13 0.000000 0.819709 0.500000
O O14 0.500000 0.000000 0.500000
O O15 0.500000 0.000000 0.000000
O O16 0.500000 0.500000 0.500000
O O17 0.500000 0.500000 0.000000
#
# Coordination Sequence:
#
# PCOD9405867 Si02
#       7
#     8   8   8   8   8   4   4
#     4   9  19  39  62  88 129 175 223 276 340 403
#     4  10  21  36  58  91 125 175 219 280 336 409
#     4  10  24  43  67  98 132 168 224 276 344 417
#     4   9  18  33  55  85 124 170 225 285 337 393
#     4  10  23  39  61  86 129 174 221 270 336 397
#     4  10  24  40  60  90 123 176 231 280 326 398
#     4  12  30  48  81 110 141 176 218 286 352 418
#
# _framework density 19.774376
#
# number of rings (size 3 to 8) (size 9 to 14) (size 15 to 20)
#    0.000    2.167    0.000    1.000   12.833    1.333 
#   12.000    2.083    0.000    0.000    0.000    0.000 
#    0.000    0.000    0.000    0.000    0.000    0.000 
#
# Total GULP energy -267270.806023 kJ/mol
# GULP energy per Si atom -5568.141792 kJ/mol
# Density = 1.972937 g / cm^3
# Si number density = 19.774376 Si / 1000 Ang^3
#
#
#
# Elastic Constant Matrix: (Units=GPa)
#
#
# Indices 1 2 3 4 5 6 
#
# 1 116.9821 41.5866 37.5893 0.0000 0.0000 0.0000
# 2 41.5866 96.0798 17.9460 0.0000 0.0000 0.0000
# 3 37.5893 17.9460 73.6508 0.0000 0.0000 0.0000
# 4 0.0000 0.0000 0.0000 82.0524 0.0000 0.0000
# 5 0.0000 0.0000 0.0000 0.0000 21.2373 0.0000
# 6 0.0000 0.0000 0.0000 0.0000 0.0000 18.9839
#
#
#
# Elastic Compliance Matrix: (Units=1/GPa)
#
#
# Indices 1 2 3 4 5 6 
#
# 1 0.011583 -0.004096 -0.004914 0.000000 0.000000 0.000000
# 2 -0.004096 0.012353 -0.000919 0.000000 0.000000 0.000000
# 3 -0.004914 -0.000919 0.016309 0.000000 0.000000 0.000000
# 4 0.000000 0.000000 0.000000 0.012187 0.000000 0.000000
# 5 0.000000 0.000000 0.000000 0.000000 0.047087 0.000000
# 6 0.000000 0.000000 0.000000 0.000000 0.000000 0.052676
#
#
# Mechanical properties :
#
#
# Convention : Reuss Voigt Hill
#
# Bulk Modulus (GPa) = 49.05045 53.43961 51.24503
# Shear Modulus (GPa) = 27.95644 37.09411 32.52527
#
# Velocity S-wave (km/s) = 3.76409 4.33583 4.06004
# Velocity P-wave (km/s) = 6.61439 7.22144 6.92457
#
# Compressibility (1/GPa) = 0.02038717
#
# Stress axis : x y z
#
# Youngs Moduli (GPa) = 86.33124 80.95480 61.31403
#
# Poissons Ratio (x) = 0.33158 0.30128
# Poissons Ratio (y) = 0.35360 0.05638
# Poissons Ratio (z) = 0.42421 0.07444
#
# Static dielectric constant tensor:
#      x y z
#    x 1.704540 0.000000 0.000000 
#    y 0.000000 1.685750 0.000000 
#    z 0.000000 0.000000 1.815950 
# 
# From -- ./inp_files/3547.got.cif
#   From: 2010.05.17/outbox.cif.g08.bks.cpg/sg51_2_cif.got.tgz:3547.got - 2010.06.03 11:52:47.
