data_PCOD9405727
_publ_section_title
;
Structure prediction by ZEFSAII (Michael W. Deem and Ramdas Pophale) SiO2 
 PCOD9405727
Probable space group: P M M A
;
_chemical_formula_sum "Si O2"
_cell_formula_units_Z 64
_cell_length_a 18.825143
_cell_length_b 8.513090
_cell_length_c 21.255089
_cell_angle_alpha 90.000000
_cell_angle_beta 90.000000
_cell_angle_gamma 90.000000
_cell_volume 3406.343467
_symmetry_space_group_name_H-M "P M M A"
_symmetry_group_IT_number 51
_symmetry_cell_setting 'orthorhombic'
loop_
_space_group_symop_operation_xyz
x,y,z
1/2-x,-y,z
1/2+x,-y,-z
-x,y,-z
-x,-y,-z
1/2+x,y,-z
1/2-x,y,z
x,-y,z
loop_
_atom_site_type_symbol
_atom_site_label
_atom_site_fract_x
_atom_site_fract_y
_atom_site_fract_z
Si Si1 0.832175 0.309902 0.001252
Si Si2 0.667613 0.689636 0.755984
Si Si3 0.579954 0.690140 0.877867
Si Si4 0.667793 0.810620 0.242369
Si Si5 0.167816 0.812142 0.380475
Si Si6 0.419697 0.188524 0.879467
Si Si7 0.581557 0.310015 0.500674
Si Si8 0.167821 0.310518 0.621650
O O1 0.750000 0.258444 0.001248
O O2 0.832689 0.500000 0.002795
O O3 0.873038 0.260666 0.937846
O O4 0.874200 0.248022 0.061542
O O5 0.750000 0.738032 0.766107
O O6 0.666501 0.500000 0.754342
O O7 0.618335 0.741936 0.813506
O O8 0.644265 0.752321 0.688081
O O9 0.578121 0.500000 0.877703
O O10 0.500077 0.751293 0.882825
O O11 0.750000 0.759003 0.233125
O O12 0.618666 0.757431 0.184935
O O13 0.643524 0.750849 0.310515
O O14 0.667661 0.000000 0.243148
O O15 0.250000 0.760063 0.388740
O O16 0.121324 0.747781 0.437283
O O17 0.166191 0.000000 0.380903
O O18 0.419917 0.000000 0.879919
O O19 0.500000 0.258317 0.500000
O O20 0.582968 0.500000 0.500918
O O21 0.621706 0.256320 0.437482
O O22 0.250000 0.261070 0.613227
O O23 0.166162 0.500000 0.623062
#
# Coordination Sequence:
#
# PCOD9405727 Si02
#       8
#     8   8   8   8   8   8   8   8
#     4  10  21  38  60  83 107 139 182 230 273 314
#     4   9  18  35  59  82 105 139 182 226 272 321
#     4  10  21  37  57  82 111 142 179 223 271 323
#     4   9  19  36  55  74 100 136 176 216 258 309
#     4  10  21  36  55  80 109 142 181 223 267 320
#     4  11  23  37  54  80 114 148 180 216 265 325
#     4  10  21  36  54  78 108 141 178 221 270 323
#     4   9  18  33  54  78 102 131 172 221 266 310
#
# _framework density 18.788475999999999
#
# number of rings (size 3 to 8) (size 9 to 14) (size 15 to 20)
#    0.000    2.250    0.000    2.250    0.000    8.750 
#    0.000    6.250    0.000    2.250    0.000    0.000 
#    0.000    0.000    0.000    0.000    0.000    0.000 
#
# Total GULP energy -357386.951051 kJ/mol
# GULP energy per Si atom -5584.171110 kJ/mol
# Density = 1.874571 g / cm^3
# Si number density = 18.788476 Si / 1000 Ang^3
#
#
#
# Elastic Constant Matrix: (Units=GPa)
#
#
# Indices 1 2 3 4 5 6 
#
# 1 149.0478 25.5654 133.5232 0.0000 0.0000 0.0000
# 2 25.5654 7.1532 29.8587 0.0000 0.0000 0.0000
# 3 133.5232 29.8587 222.5673 0.0000 0.0000 0.0000
# 4 0.0000 0.0000 0.0000 140.7764 0.0000 0.0000
# 5 0.0000 0.0000 0.0000 0.0000 -13.3288 0.0000
# 6 0.0000 0.0000 0.0000 0.0000 0.0000 17.3853
#
#
#
# Elastic Compliance Matrix: (Units=1/GPa)
#
#
# Indices 1 2 3 4 5 6 
#
# 1 0.019865 -0.048298 -0.005438 0.000000 0.000000 0.000000
# 2 -0.048298 0.435139 -0.029401 0.000000 0.000000 0.000000
# 3 -0.005438 -0.029401 0.011700 0.000000 0.000000 0.000000
# 4 0.000000 0.000000 0.000000 0.007103 0.000000 0.000000
# 5 0.000000 0.000000 0.000000 0.000000 -0.075025 0.000000
# 6 0.000000 0.000000 0.000000 0.000000 0.000000 0.057520
#
#
# Mechanical properties :
#
#
# Convention : Reuss Voigt Hill
#
# Bulk Modulus (GPa) = 3.32858 84.07366 43.70112
# Shear Modulus (GPa) = 6.91831 41.62130 24.26980
#
# Velocity S-wave (km/s) = 1.92099 4.71176 3.59798
# Velocity P-wave (km/s) = 2.58761 8.62818 6.36951
#
# Compressibility (1/GPa) = 0.30042879
#
# Stress axis : x y z
#
# Youngs Moduli (GPa) = 50.33910 2.29812 85.47083
#
# Poissons Ratio (x) = 0.11099 0.46481
# Poissons Ratio (y) = 2.43127 2.51297
# Poissons Ratio (z) = 0.27375 0.06757
#
# Static dielectric constant tensor:
#      x y z
#    x 1.631470 0.000000 0.000000 
#    y 0.000000 1.642960 0.000000 
#    z 0.000000 0.000000 1.624330 
# 
# From -- ./inp_files/33811.got.cif
#   From: 2010.05.17/outbox.cif.g08.bks.cpg/sg51_17_cif.got.tgz:33811.got - 2010.06.03 11:52:47.
