data_PCOD9405837
_publ_section_title
;
Structure prediction by ZEFSAII (Michael W. Deem and Ramdas Pophale) SiO2 
 PCOD9405837
Probable space group: P M M A
;
_chemical_formula_sum "Si O2"
_cell_formula_units_Z 58
_cell_length_a 30.991941
_cell_length_b 8.091854
_cell_length_c 12.343346
_cell_angle_alpha 90.000000
_cell_angle_beta 90.000000
_cell_angle_gamma 90.000000
_cell_volume 3095.492227
_symmetry_space_group_name_H-M "P M M A"
_symmetry_group_IT_number 51
_symmetry_cell_setting 'orthorhombic'
loop_
_space_group_symop_operation_xyz
x,y,z
1/2-x,-y,z
1/2+x,-y,-z
-x,y,-z
-x,-y,-z
1/2+x,y,-z
1/2-x,y,z
x,-y,z
loop_
_atom_site_type_symbol
_atom_site_label
_atom_site_fract_x
_atom_site_fract_y
_atom_site_fract_z
Si Si1 0.190301 0.808520 0.311979
Si Si2 0.545372 0.805783 0.449740
Si Si3 0.450111 0.693539 0.794467
Si Si4 0.097425 0.309345 0.361539
Si Si5 0.608633 0.696372 0.013916
Si Si6 0.702418 0.196074 0.946180
Si Si7 0.750000 0.500000 0.625696
Si Si8 0.958540 0.193196 0.833066
O O1 0.139713 0.793737 0.334533
O O2 0.198703 0.782503 0.183670
O O3 0.213218 0.651533 0.368556
O O4 0.203136 0.000000 0.337605
O O5 0.500000 0.746192 0.500000
O O6 0.547400 0.780151 0.321629
O O7 0.582732 0.713793 0.515272
O O8 0.549079 0.000000 0.474560
O O9 0.443457 0.500000 0.773796
O O10 0.412238 0.755540 0.873254
O O11 0.496184 0.716889 0.853773
O O12 0.105707 0.500000 0.335978
O O13 0.059136 0.248189 0.283721
O O14 0.602373 0.500000 0.008488
O O15 0.659206 0.732265 0.998929
O O16 0.579609 0.771026 0.917793
O O17 0.750000 0.261539 0.979150
O O18 0.702046 0.000000 0.966822
O O19 0.967833 0.000000 0.832593
#
# Coordination Sequence:
#
# PCOD9405837 Si02
#       8
#     8   8   8   8   8   8   2   8
#     4  11  22  37  57  89 127 156 199 250 298 372
#     4  11  23  39  61  87 115 152 200 251 295 348
#     4  11  24  41  58  84 116 157 204 249 296 357
#     4  12  23  37  59  89 121 161 200 243 305 359
#     4  11  24  38  57  85 120 156 197 244 297 361
#     4  10  21  36  56  84 117 154 193 243 298 355
#     4  12  22  36  60  90 118 168 198 236 324 374
#     4  12  23  36  57  84 120 160 199 242 295 356
#
# _framework density 18.736923000000001
#
# number of rings (size 3 to 8) (size 9 to 14) (size 15 to 20)
#    0.000    0.828    4.138    4.345    0.966    4.690 
#    0.000    0.000    0.000    0.000    1.793    0.000 
#    0.000    0.000    0.000    0.000    0.000    0.000 
#
# Total GULP energy -323426.715846 kJ/mol
# GULP energy per Si atom -5576.322687 kJ/mol
# Density = 1.869428 g / cm^3
# Si number density = 18.736923 Si / 1000 Ang^3
#
#
#
# Elastic Constant Matrix: (Units=GPa)
#
#
# Indices 1 2 3 4 5 6 
#
# 1 118.6502 5.8247 31.1194 0.0000 0.0000 0.0000
# 2 5.8247 65.9690 3.6203 0.0000 0.0000 0.0000
# 3 31.1194 3.6203 69.8757 0.0000 0.0000 0.0000
# 4 0.0000 0.0000 0.0000 29.3545 0.0000 0.0000
# 5 0.0000 0.0000 0.0000 0.0000 23.2185 0.0000
# 6 0.0000 0.0000 0.0000 0.0000 0.0000 26.4599
#
#
#
# Elastic Compliance Matrix: (Units=1/GPa)
#
#
# Indices 1 2 3 4 5 6 
#
# 1 0.009567 -0.000613 -0.004229 0.000000 0.000000 0.000000
# 2 -0.000613 0.015241 -0.000517 0.000000 0.000000 0.000000
# 3 -0.004229 -0.000517 0.016221 0.000000 0.000000 0.000000
# 4 0.000000 0.000000 0.000000 0.034066 0.000000 0.000000
# 5 0.000000 0.000000 0.000000 0.000000 0.043069 0.000000
# 6 0.000000 0.000000 0.000000 0.000000 0.000000 0.037793
#
#
# Mechanical properties :
#
#
# Convention : Reuss Voigt Hill
#
# Bulk Modulus (GPa) = 32.98947 37.29150 35.14049
# Shear Modulus (GPa) = 28.28376 30.06860 29.17618
#
# Velocity S-wave (km/s) = 3.88947 4.01031 3.95035
# Velocity P-wave (km/s) = 6.14943 6.43346 6.29305
#
# Compressibility (1/GPa) = 0.03031270
#
# Stress axis : x y z
#
# Youngs Moduli (GPa) = 104.52134 65.61207 61.64705
#
# Poissons Ratio (x) = 0.04020 0.26071
# Poissons Ratio (y) = 0.06404 0.03186
# Poissons Ratio (z) = 0.44204 0.03391
#
# Static dielectric constant tensor:
#      x y z
#    x 1.662160 0.000000 0.000000 
#    y 0.000000 1.653810 0.000000 
#    z 0.000000 0.000000 1.638920 
# 
# From -- ./inp_files/19375.got.cif
#   From: 2010.05.17/outbox.cif.g08.bks.cpg/sg51_10_cif.got.tgz:19375.got - 2010.06.03 11:52:47.
