data_PCOD9405227
_publ_section_title
;
Structure prediction by ZEFSAII (Michael W. Deem and Ramdas Pophale) SiO2 
 PCOD9405227
Probable space group: P M M A
;
_chemical_formula_sum "Si O2"
_cell_formula_units_Z 48
_cell_length_a 19.753849
_cell_length_b 7.974914
_cell_length_c 16.460916
_cell_angle_alpha 90.000000
_cell_angle_beta 90.000000
_cell_angle_gamma 90.000000
_cell_volume 2593.174467
_symmetry_space_group_name_H-M "P M M A"
_symmetry_group_IT_number 51
_symmetry_cell_setting 'orthorhombic'
loop_
_space_group_symop_operation_xyz
x,y,z
1/2-x,-y,z
1/2+x,-y,-z
-x,y,-z
-x,-y,-z
1/2+x,y,-z
1/2-x,y,z
x,-y,z
loop_
_atom_site_type_symbol
_atom_site_label
_atom_site_fract_x
_atom_site_fract_y
_atom_site_fract_z
Si Si1 0.572115 0.500000 0.045777
Si Si2 0.171771 0.500000 0.104701
Si Si3 0.548798 0.813368 0.157439
Si Si4 0.076925 0.304949 0.664577
Si Si5 0.430512 0.200482 0.383841
Si Si6 0.327444 0.797418 0.522463
Si Si7 0.608980 0.807436 0.801660
O O1 0.575867 0.664860 0.101777
O O2 0.500000 0.500000 0.000000
O O3 0.628257 0.500000 0.976888
O O4 0.250000 0.500000 0.085488
O O5 0.152629 0.334688 0.156113
O O6 0.572919 0.793565 0.250595
O O7 0.467170 0.797217 0.162334
O O8 0.565502 0.000000 0.127457
O O9 0.081606 0.500000 0.684835
O O10 0.138410 0.251712 0.607372
O O11 0.005894 0.274981 0.617369
O O12 0.378626 0.263049 0.451954
O O13 0.399269 0.226918 0.294405
O O14 0.439165 0.000000 0.394466
O O15 0.250000 0.737782 0.514083
O O16 0.326026 0.000000 0.517175
O O17 0.632792 0.000000 0.811970
#
# Coordination Sequence:
#
# PCOD9405227 Si02
#       7
#     4   4   8   8   8   8   8
#     4  12  22  40  66  91 121 150 191 248 291 357
#     4  12  26  40  58  89 127 161 189 234 298 360
#     4  10  20  38  66  95 117 149 198 251 301 349
#     4  11  21  35  58  87 120 153 197 254 299 349
#     4   9  19  35  59  86 115 152 203 254 294 342
#     4  10  21  37  55  79 116 163 209 250 297 349
#     4   9  19  37  61  89 119 155 197 243 295 353
#
# _framework density 18.510131000000001
#
# number of rings (size 3 to 8) (size 9 to 14) (size 15 to 20)
#    0.000    1.833    2.500    3.000    3.500    5.000 
#    0.000    2.500    0.000    1.000    0.000    0.000 
#    0.000    0.000    0.000    0.000    0.000    0.000 
#
# Total GULP energy -268081.021471 kJ/mol
# GULP energy per Si atom -5585.021281 kJ/mol
# Density = 1.846800 g / cm^3
# Si number density = 18.510131 Si / 1000 Ang^3
#
#
#
# Elastic Constant Matrix: (Units=GPa)
#
#
# Indices 1 2 3 4 5 6 
#
# 1 69.8690 32.8904 32.5315 0.0000 0.0000 0.0000
# 2 32.8904 88.1430 34.2662 0.0000 0.0000 0.0000
# 3 32.5315 34.2662 50.5127 0.0000 0.0000 0.0000
# 4 0.0000 0.0000 0.0000 27.6262 0.0000 0.0000
# 5 0.0000 0.0000 0.0000 0.0000 18.2272 0.0000
# 6 0.0000 0.0000 0.0000 0.0000 0.0000 17.1024
#
#
#
# Elastic Compliance Matrix: (Units=1/GPa)
#
#
# Indices 1 2 3 4 5 6 
#
# 1 0.021225 -0.003539 -0.011269 0.000000 0.000000 0.000000
# 2 -0.003539 0.015999 -0.008574 0.000000 0.000000 0.000000
# 3 -0.011269 -0.008574 0.032871 0.000000 0.000000 0.000000
# 4 0.000000 0.000000 0.000000 0.036198 0.000000 0.000000
# 5 0.000000 0.000000 0.000000 0.000000 0.054863 0.000000
# 6 0.000000 0.000000 0.000000 0.000000 0.000000 0.058471
#
#
# Mechanical properties :
#
#
# Convention : Reuss Voigt Hill
#
# Bulk Modulus (GPa) = 42.86104 45.32232 44.09168
# Shear Modulus (GPa) = 18.23699 19.84692 19.04195
#
# Velocity S-wave (km/s) = 3.14226 3.27803 3.21086
# Velocity P-wave (km/s) = 6.03082 6.23423 6.13337
#
# Compressibility (1/GPa) = 0.02333121
#
# Stress axis : x y z
#
# Youngs Moduli (GPa) = 47.11324 62.50372 30.42240
#
# Poissons Ratio (x) = 0.22123 0.34282
# Poissons Ratio (y) = 0.16676 0.26083
# Poissons Ratio (z) = 0.53091 0.53589
#
# Static dielectric constant tensor:
#      x y z
#    x 1.609260 0.000000 0.000000 
#    y 0.000000 1.660600 0.000000 
#    z 0.000000 0.000000 1.628370 
# 
# From -- ./inp_files/24919.got.cif
#   From: 2010.05.17/outbox.cif.g08.bks.cpg/sg51_13_cif.got.tgz:24919.got - 2010.06.03 11:52:47.
