data_PCOD9405549
_publ_section_title
;
Structure prediction by ZEFSAII (Michael W. Deem and Ramdas Pophale) SiO2 
 PCOD9405549
Probable space group: P M M A
;
_chemical_formula_sum "Si O2"
_cell_formula_units_Z 64
_cell_length_a 24.527092
_cell_length_b 8.036777
_cell_length_c 15.538602
_cell_angle_alpha 90.000000
_cell_angle_beta 90.000000
_cell_angle_gamma 90.000000
_cell_volume 3062.950096
_symmetry_space_group_name_H-M "P M M A"
_symmetry_group_IT_number 51
_symmetry_cell_setting 'orthorhombic'
loop_
_space_group_symop_operation_xyz
x,y,z
1/2-x,-y,z
1/2+x,-y,-z
-x,y,-z
-x,-y,-z
1/2+x,y,-z
1/2-x,y,z
x,-y,z
loop_
_atom_site_type_symbol
_atom_site_label
_atom_site_fract_x
_atom_site_fract_y
_atom_site_fract_z
Si Si1 0.375910 0.303425 0.330467
Si Si2 0.689775 0.701697 0.198878
Si Si3 0.992695 0.199475 0.602051
Si Si4 0.479278 0.813407 0.901143
Si Si5 0.389520 0.802263 0.650310
Si Si6 0.311714 0.298947 0.493851
Si Si7 0.095310 0.298458 0.147420
Si Si8 0.368409 0.307006 0.962251
O O1 0.364409 0.500000 0.323923
O O2 0.437432 0.280648 0.364615
O O3 0.335270 0.234781 0.402835
O O4 0.375034 0.236175 0.233199
O O5 0.750000 0.755971 0.226759
O O6 0.689480 0.500000 0.196681
O O7 0.643868 0.755005 0.265418
O O8 0.675955 0.764643 0.102864
O O9 0.048359 0.261528 0.646612
O O10 0.000000 0.227766 0.500000
O O11 0.106250 0.000000 0.644805
O O12 0.531402 0.749379 0.849564
O O13 0.425071 0.705446 0.908848
O O14 0.464858 0.000000 0.872561
O O15 0.500000 0.819993 0.000000
O O16 0.354053 0.745141 0.568633
O O17 0.512838 0.000000 0.615126
O O18 0.250000 0.240146 0.510773
O O19 0.310017 0.500000 0.490250
O O20 0.097055 0.500000 0.145193
O O21 0.120396 0.234437 0.057054
O O22 0.354845 0.500000 0.976109
#
# Coordination Sequence:
#
# PCOD9405549 Si02
#       8
#     8   8   8   8   8   8   8   8
#     4  10  21  35  55  83 113 146 184 221 265 325
#     4  10  22  39  57  79 108 144 187 231 276 327
#     4  10  21  38  56  79 113 146 177 223 278 327
#     4   9  17  29  47  73 102 133 171 214 260 312
#     4  11  23  38  58  83 110 142 181 225 277 333
#     4  10  21  38  58  80 109 144 181 224 270 319
#     4   9  18  33  52  77 108 141 177 217 263 316
#     4   9  18  34  54  74 103 140 178 220 266 316
#
# _framework density 20.894888000000002
#
# number of rings (size 3 to 8) (size 9 to 14) (size 15 to 20)
#    0.000    2.250    1.250    1.125    1.750    5.750 
#    0.000    0.625    0.000    3.750    0.000    0.000 
#    0.000    5.000    0.000    0.000    0.000    0.000 
#
# Total GULP energy -357150.279740 kJ/mol
# GULP energy per Si atom -5580.473121 kJ/mol
# Density = 2.084733 g / cm^3
# Si number density = 20.894888 Si / 1000 Ang^3
#
#
#
# Elastic Constant Matrix: (Units=GPa)
#
#
# Indices 1 2 3 4 5 6 
#
# 1 57.3008 -3.7182 0.9831 0.0000 0.0000 0.0000
# 2 -3.7182 17.1754 0.9832 0.0000 0.0000 0.0000
# 3 0.9831 0.9832 81.8133 0.0000 0.0000 0.0000
# 4 0.0000 0.0000 0.0000 -2.2358 0.0000 0.0000
# 5 0.0000 0.0000 0.0000 0.0000 26.9300 0.0000
# 6 0.0000 0.0000 0.0000 0.0000 0.0000 -34.4803
#
#
#
# Elastic Compliance Matrix: (Units=1/GPa)
#
#
# Indices 1 2 3 4 5 6 
#
# 1 0.017706 0.003848 -0.000259 0.000000 0.000000 0.000000
# 2 0.003848 0.059099 -0.000756 0.000000 0.000000 0.000000
# 3 -0.000259 -0.000756 0.012235 0.000000 0.000000 0.000000
# 4 0.000000 0.000000 0.000000 -0.447261 0.000000 0.000000
# 5 0.000000 0.000000 0.000000 0.000000 0.037133 0.000000
# 6 0.000000 0.000000 0.000000 0.000000 0.000000 -0.029002
#
#
# Mechanical properties :
#
#
# Convention : Reuss Voigt Hill
#
# Bulk Modulus (GPa) = 10.55909 16.97617 13.76763
# Shear Modulus (GPa) = -15.42326 8.57887 -3.42220
#
# Velocity S-wave (km/s) = -2.71981 2.02846 -1.28116
# Velocity P-wave (km/s) = 2.19061 3.69166 2.10114
#
# Compressibility (1/GPa) = 0.09470515
#
# Stress axis : x y z
#
# Youngs Moduli (GPa) = 56.47833 16.92071 81.73171
#
# Poissons Ratio (x) = -0.06511 0.02117
# Poissons Ratio (y) = -0.21732 0.06183
# Poissons Ratio (z) = 0.01463 0.01280
#
# Static dielectric constant tensor:
#      x y z
#    x 1.736600 0.000000 0.000000 
#    y 0.000000 1.757830 0.000000 
#    z 0.000000 0.000000 1.783460 
# 
# From -- ./inp_files/26177.got.cif
#   From: 2010.05.17/outbox.cif.g08.bks.cpg/sg51_14_cif.got.tgz:26177.got - 2010.06.03 11:52:47.
