data_PCOD9405111
_publ_section_title
;
Structure prediction by ZEFSAII (Michael W. Deem and Ramdas Pophale) SiO2 
 PCOD9405111
Probable space group: P M M A
;
_chemical_formula_sum "Si O2"
_cell_formula_units_Z 40
_cell_length_a 23.621319
_cell_length_b 8.660154
_cell_length_c 10.525808
_cell_angle_alpha 90.000000
_cell_angle_beta 90.000000
_cell_angle_gamma 90.000000
_cell_volume 2153.204127
_symmetry_space_group_name_H-M "P M M A"
_symmetry_group_IT_number 51
_symmetry_cell_setting 'orthorhombic'
loop_
_space_group_symop_operation_xyz
x,y,z
1/2-x,-y,z
1/2+x,-y,-z
-x,y,-z
-x,-y,-z
1/2+x,y,-z
1/2-x,y,z
x,-y,z
loop_
_atom_site_type_symbol
_atom_site_label
_atom_site_fract_x
_atom_site_fract_y
_atom_site_fract_z
Si Si1 0.872603 0.813262 0.985805
Si Si2 0.250000 0.813613 0.107203
Si Si3 0.750000 0.313544 0.607135
Si Si4 0.128313 0.686414 0.496589
Si Si5 0.571359 0.814839 0.251313
Si Si6 0.555386 0.685222 0.751129
O O1 0.807825 0.763768 0.961556
O O2 0.911343 0.748767 0.872951
O O3 0.874443 0.000000 0.980262
O O4 0.896822 0.765329 0.122264
O O5 0.250000 0.752496 0.250851
O O6 0.250000 0.000000 0.110758
O O7 0.750000 0.500000 0.616749
O O8 0.692631 0.266998 0.535504
O O9 0.126481 0.500000 0.507212
O O10 0.104641 0.758248 0.624959
O O11 0.089166 0.730718 0.376582
O O12 0.508128 0.747989 0.252288
O O13 0.568213 0.000000 0.251737
O O14 0.554428 0.500000 0.756609
#
# Coordination Sequence:
#
# PCOD9405111 Si02
#       6
#     8   4   4   8   8   8
#     4  10  22  39  59  86 118 152 191 239 290 342
#     4  10  20  37  62  86 112 148 192 237 284 344
#     4  10  20  39  62  86 116 148 190 241 290 342
#     4  10  22  39  60  86 117 151 191 240 290 343
#     4  11  24  39  57  85 122 157 193 239 290 344
#     4  11  22  38  62  87 115 154 198 241 287 345
#
# _framework density 18.576968000000001
#
# number of rings (size 3 to 8) (size 9 to 14) (size 15 to 20)
#    0.000    1.600    2.000    2.400    0.000    9.600 
#    0.000    1.000    0.000    0.000    0.000    0.000 
#    0.000    0.000    0.000    0.000    0.000    0.000 
#
# Total GULP energy -223563.867417 kJ/mol
# GULP energy per Si atom -5589.096685 kJ/mol
# Density = 1.853469 g / cm^3
# Si number density = 18.576968 Si / 1000 Ang^3
#
#
#
# Elastic Constant Matrix: (Units=GPa)
#
#
# Indices 1 2 3 4 5 6 
#
# 1 217.9138 38.7997 122.1923 0.0000 0.0000 0.0000
# 2 38.7997 17.2099 40.2717 0.0000 0.0000 0.0000
# 3 122.1923 40.2717 196.4762 0.0000 0.0000 0.0000
# 4 0.0000 0.0000 0.0000 43.3570 0.0000 0.0000
# 5 0.0000 0.0000 0.0000 0.0000 -89.4702 0.0000
# 6 0.0000 0.0000 0.0000 0.0000 0.0000 20.2261
#
#
#
# Elastic Compliance Matrix: (Units=1/GPa)
#
#
# Indices 1 2 3 4 5 6 
#
# 1 0.008278 -0.012714 -0.002542 0.000000 0.000000 0.000000
# 2 -0.012714 0.131191 -0.018983 0.000000 0.000000 0.000000
# 3 -0.002542 -0.018983 0.010562 0.000000 0.000000 0.000000
# 4 0.000000 0.000000 0.000000 0.023064 0.000000 0.000000
# 5 0.000000 0.000000 0.000000 0.000000 -0.011177 0.000000
# 6 0.000000 0.000000 0.000000 0.000000 0.000000 0.049441
#
#
# Mechanical properties :
#
#
# Convention : Reuss Voigt Hill
#
# Bulk Modulus (GPa) = 12.26211 92.68081 52.47146
# Shear Modulus (GPa) = 16.28541 10.17833 13.23187
#
# Velocity S-wave (km/s) = 2.96403 2.34327 2.67174
# Velocity P-wave (km/s) = 4.28124 7.57098 6.15015
#
# Compressibility (1/GPa) = 0.08155200
#
# Stress axis : x y z
#
# Youngs Moduli (GPa) = 120.79630 7.62246 94.68049
#
# Poissons Ratio (x) = 0.09691 0.24072
# Poissons Ratio (y) = 1.53583 1.79732
# Poissons Ratio (z) = 0.30712 0.14470
#
# Static dielectric constant tensor:
#      x y z
#    x 1.627040 0.000000 0.000000 
#    y 0.000000 1.633620 0.000000 
#    z 0.000000 0.000000 1.599430 
# 
# From -- ./inp_files/18007.got.cif
#   From: 2010.05.17/outbox.cif.g08.bks.cpg/sg51_10_cif.got.tgz:18007.got - 2010.06.03 11:52:47.
