data_PCOD9405218
_publ_section_title
;
Structure prediction by ZEFSAII (Michael W. Deem and Ramdas Pophale) SiO2 
 PCOD9405218
Probable space group: P M M A
;
_chemical_formula_sum "Si O2"
_cell_formula_units_Z 48
_cell_length_a 15.617921
_cell_length_b 9.324903
_cell_length_c 17.540316
_cell_angle_alpha 90.000000
_cell_angle_beta 90.000000
_cell_angle_gamma 90.000000
_cell_volume 2554.494417
_symmetry_space_group_name_H-M "P M M A"
_symmetry_group_IT_number 51
_symmetry_cell_setting 'orthorhombic'
loop_
_space_group_symop_operation_xyz
x,y,z
1/2-x,-y,z
1/2+x,-y,-z
-x,y,-z
-x,-y,-z
1/2+x,y,-z
1/2-x,y,z
x,-y,z
loop_
_atom_site_type_symbol
_atom_site_label
_atom_site_fract_x
_atom_site_fract_y
_atom_site_fract_z
Si Si1 0.607358 0.826928 0.824897
Si Si2 0.750000 0.826413 0.086976
Si Si3 0.084231 0.162239 0.637032
Si Si4 0.848736 0.339283 0.502660
Si Si5 0.250000 0.326914 0.075461
Si Si6 0.379393 0.160854 0.349011
Si Si7 0.091124 0.173732 0.804056
O O1 0.666797 0.738465 0.881677
O O2 0.640056 0.801414 0.738344
O O3 0.506208 0.785727 0.827040
O O4 0.613560 0.000000 0.838656
O O5 0.664977 0.791325 0.136035
O O6 0.750000 0.000000 0.073059
O O7 0.750000 0.737996 0.009359
O O8 0.103416 0.249752 0.561587
O O9 0.114535 0.224772 0.718408
O O10 0.982253 0.154670 0.646784
O O11 0.118122 0.000000 0.627589
O O12 0.750000 0.343541 0.478398
O O13 0.883126 0.500000 0.507204
O O14 0.851375 0.267389 0.585452
O O15 0.250000 0.500000 0.076543
O O16 0.347658 0.000000 0.364739
O O17 0.088468 0.000000 0.797488
#
# Coordination Sequence:
#
# PCOD9405218 Si02
#       7
#     8   4   8   8   4   8   8
#     4   9  19  39  63  87 114 147 189 238 287 337
#     4  10  20  38  64  91 116 147 184 227 284 345
#     4   9  18  35  58  83 107 137 182 235 281 326
#     4  11  24  35  45  73 115 154 189 224 267 324
#     4  12  26  40  56  85 120 153 188 229 280 341
#     4   9  19  36  58  81 105 137 184 236 283 326
#     4   8  17  35  63  93 115 141 187 240 286 333
#
# _framework density 18.790410999999999
#
# number of rings (size 3 to 8) (size 9 to 14) (size 15 to 20)
#    0.000    2.500    0.000    3.750    2.333    5.333 
#    0.000    7.500    0.000    0.000    0.000    0.000 
#    0.000    0.000    0.000    0.000    0.000    0.000 
#
# Total GULP energy -267718.890826 kJ/mol
# GULP energy per Si atom -5577.476892 kJ/mol
# Density = 1.874764 g / cm^3
# Si number density = 18.790411 Si / 1000 Ang^3
#
#
#
# Elastic Constant Matrix: (Units=GPa)
#
#
# Indices 1 2 3 4 5 6 
#
# 1 82.5573 37.2194 61.8567 0.0000 0.0000 0.0000
# 2 37.2194 83.2535 77.5907 0.0000 0.0000 0.0000
# 3 61.8567 77.5907 135.8882 0.0000 0.0000 0.0000
# 4 0.0000 0.0000 0.0000 -16.8449 0.0000 0.0000
# 5 0.0000 0.0000 0.0000 0.0000 36.0520 0.0000
# 6 0.0000 0.0000 0.0000 0.0000 0.0000 18.8446
#
#
#
# Elastic Compliance Matrix: (Units=1/GPa)
#
#
# Indices 1 2 3 4 5 6 
#
# 1 0.018414 -0.000898 -0.007869 0.000000 0.000000 0.000000
# 2 -0.000898 0.025718 -0.014276 0.000000 0.000000 0.000000
# 3 -0.007869 -0.014276 0.019092 0.000000 0.000000 0.000000
# 4 0.000000 0.000000 0.000000 -0.059365 0.000000 0.000000
# 5 0.000000 0.000000 0.000000 0.000000 0.027738 0.000000
# 6 0.000000 0.000000 0.000000 0.000000 0.000000 0.053066
#
#
# Mechanical properties :
#
#
# Convention : Reuss Voigt Hill
#
# Bulk Modulus (GPa) = 58.35065 72.78137 65.56601
# Shear Modulus (GPa) = 36.64063 15.94582 26.29322
#
# Velocity S-wave (km/s) = 4.42063 2.91626 3.74477
# Velocity P-wave (km/s) = 7.56153 7.08214 7.32576
#
# Compressibility (1/GPa) = 0.01713777
#
# Stress axis : x y z
#
# Youngs Moduli (GPa) = 54.30725 38.88375 52.37712
#
# Poissons Ratio (x) = 0.03492 0.41216
# Poissons Ratio (y) = 0.04878 0.74772
# Poissons Ratio (z) = 0.42735 0.55509
#
# Static dielectric constant tensor:
#      x y z
#    x 1.673520 0.000000 0.000000 
#    y 0.000000 1.639090 0.000000 
#    z 0.000000 0.000000 1.643650 
# 
# From -- ./inp_files/24909.got.cif
#   From: 2010.05.17/outbox.cif.g08.bks.cpg/sg51_13_cif.got.tgz:24909.got - 2010.06.03 11:52:47.
