data_PCOD9405895
_publ_section_title
;
Structure prediction by ZEFSAII (Michael W. Deem and Ramdas Pophale) SiO2 
 PCOD9405895
Probable space group: P M M A
;
_chemical_formula_sum "Si O2"
_cell_formula_units_Z 64
_cell_length_a 19.234856
_cell_length_b 9.185936
_cell_length_c 22.171786
_cell_angle_alpha 90.000000
_cell_angle_beta 90.000000
_cell_angle_gamma 90.000000
_cell_volume 3917.536331
_symmetry_space_group_name_H-M "P M M A"
_symmetry_group_IT_number 51
_symmetry_cell_setting 'orthorhombic'
loop_
_space_group_symop_operation_xyz
x,y,z
1/2-x,-y,z
1/2+x,-y,-z
-x,y,-z
-x,-y,-z
1/2+x,y,-z
1/2-x,y,z
x,-y,z
loop_
_atom_site_type_symbol
_atom_site_label
_atom_site_fract_x
_atom_site_fract_y
_atom_site_fract_z
Si Si1 0.614701 0.170623 0.769326
Si Si2 0.080175 0.326384 0.483835
Si Si3 0.173716 0.827348 0.103984
Si Si4 0.468211 0.324468 0.064288
Si Si5 0.668456 0.175061 0.412215
Si Si6 0.918839 0.829030 0.641031
Si Si7 0.523667 0.672474 0.190047
Si Si8 0.427569 0.172941 0.697587
O O1 0.669142 0.187721 0.823033
O O2 0.630569 0.196798 0.699166
O O3 0.552214 0.277001 0.787055
O O4 0.590664 0.000000 0.771861
O O5 0.087503 0.500000 0.485928
O O6 0.129566 0.251937 0.532791
O O7 0.095407 0.266498 0.417161
O O8 0.000000 0.289489 0.500000
O O9 0.250000 0.776445 0.083519
O O10 0.106931 0.746874 0.076614
O O11 0.167771 0.000000 0.091379
O O12 0.460312 0.500000 0.065830
O O13 0.520194 0.284726 0.119549
O O14 0.500000 0.282474 0.000000
O O15 0.750000 0.208159 0.411680
O O16 0.631092 0.218878 0.349785
O O17 0.659899 0.000000 0.418027
O O18 0.997406 0.800210 0.665497
O O19 0.915181 0.000000 0.624845
O O20 0.532052 0.500000 0.194178
O O21 0.574155 0.749556 0.237674
O O22 0.422774 0.000000 0.707039
#
# Coordination Sequence:
#
# PCOD9405895 Si02
#       8
#     8   8   8   8   8   8   8   8
#     4   8  15  28  44  66  95 125 154 191 239 284
#     4  11  22  33  48  72 100 130 164 204 251 300
#     4   9  17  30  49  73 101 131 165 206 250 297
#     4   9  18  32  49  72 103 137 173 208 241 283
#     4  10  21  37  55  72  92 124 165 207 253 304
#     4   9  16  28  48  70  92 122 161 203 239 282
#     4   9  16  26  45  71  95 120 154 196 236 279
#     4   9  17  30  49  72  95 119 152 198 246 292
#
# _framework density 16.336798999999999
#
# number of rings (size 3 to 8) (size 9 to 14) (size 15 to 20)
#    0.000    2.750    1.250    1.500    0.000    4.250 
#    0.000    0.625    0.000    3.000    0.000    3.500 
#    0.000    0.000    0.000    0.000    0.000    0.000 
#
# Total GULP energy -356304.795239 kJ/mol
# GULP energy per Si atom -5567.262426 kJ/mol
# Density = 1.629962 g / cm^3
# Si number density = 16.336799 Si / 1000 Ang^3
#
#
#
# Elastic Constant Matrix: (Units=GPa)
#
#
# Indices 1 2 3 4 5 6 
#
# 1 78.8088 33.2376 59.1750 0.0000 0.0000 0.0000
# 2 33.2376 28.0782 49.9933 0.0000 0.0000 0.0000
# 3 59.1750 49.9933 152.7364 0.0000 0.0000 0.0000
# 4 0.0000 0.0000 0.0000 25.7807 0.0000 0.0000
# 5 0.0000 0.0000 0.0000 0.0000 14.5828 0.0000
# 6 0.0000 0.0000 0.0000 0.0000 0.0000 12.2490
#
#
#
# Elastic Compliance Matrix: (Units=1/GPa)
#
#
# Indices 1 2 3 4 5 6 
#
# 1 0.025340 -0.029999 0.000002 0.000000 0.000000 0.000000
# 2 -0.029999 0.120880 -0.027944 0.000000 0.000000 0.000000
# 3 0.000002 -0.027944 0.015693 0.000000 0.000000 0.000000
# 4 0.000000 0.000000 0.000000 0.038789 0.000000 0.000000
# 5 0.000000 0.000000 0.000000 0.000000 0.068574 0.000000
# 6 0.000000 0.000000 0.000000 0.000000 0.000000 0.081639
#
#
# Mechanical properties :
#
#
# Convention : Reuss Voigt Hill
#
# Bulk Modulus (GPa) = 21.72454 60.49281 41.10867
# Shear Modulus (GPa) = 10.37043 18.33701 14.35372
#
# Velocity S-wave (km/s) = 2.52224 3.35391 2.96736
# Velocity P-wave (km/s) = 4.67001 7.21853 6.07932
#
# Compressibility (1/GPa) = 0.04603090
#
# Stress axis : x y z
#
# Youngs Moduli (GPa) = 39.46372 8.27266 63.72300
#
# Poissons Ratio (x) = 0.24817 -0.00012
# Poissons Ratio (y) = 1.18388 1.78065
# Poissons Ratio (z) = -0.00007 0.23117
#
# Static dielectric constant tensor:
#      x y z
#    x 1.543720 0.000000 0.000000 
#    y 0.000000 1.544730 0.000000 
#    z 0.000000 0.000000 1.569820 
# 
# From -- ./inp_files/34130.got.cif
#   From: 2010.05.17/outbox.cif.g08.bks.cpg/sg51_18_cif.got.tgz:34130.got - 2010.06.03 11:52:47.
