data_PCOD9405942
_publ_section_title
;
Structure prediction by ZEFSAII (Michael W. Deem and Ramdas Pophale) SiO2 
 PCOD9405942
Probable space group: P M M A
;
_chemical_formula_sum "Si O2"
_cell_formula_units_Z 56
_cell_length_a 8.995767
_cell_length_b 14.561339
_cell_length_c 24.235054
_cell_angle_alpha 90.000000
_cell_angle_beta 90.000000
_cell_angle_gamma 90.000000
_cell_volume 3174.559729
_symmetry_space_group_name_H-M "P M M A"
_symmetry_group_IT_number 51
_symmetry_cell_setting 'orthorhombic'
loop_
_space_group_symop_operation_xyz
x,y,z
1/2-x,-y,z
1/2+x,-y,-z
-x,y,-z
-x,-y,-z
1/2+x,y,-z
1/2-x,y,z
x,-y,z
loop_
_atom_site_type_symbol
_atom_site_label
_atom_site_fract_x
_atom_site_fract_y
_atom_site_fract_z
Si Si1 0.072283 0.761223 0.356347
Si Si2 0.422199 0.889723 0.557406
Si Si3 0.427751 0.746333 0.060205
Si Si4 0.071594 0.394040 0.442159
Si Si5 0.428200 0.892248 0.860107
Si Si6 0.428255 0.607640 0.855297
Si Si7 0.073116 0.246097 0.762669
O O1 0.250000 0.767714 0.355823
O O2 0.028696 0.671162 0.391766
O O3 0.003995 0.844838 0.390992
O O4 0.011519 0.757188 0.294658
O O5 0.500000 0.862554 0.500000
O O6 0.250000 0.861582 0.556349
O O7 0.428974 0.000000 0.561089
O O8 0.250000 0.746041 0.056959
O O9 0.485792 0.836288 0.092853
O O10 0.486237 0.659998 0.096034
O O11 0.500000 0.743785 0.000000
O O12 0.250000 0.390189 0.447785
O O13 0.028321 0.500000 0.432354
O O14 0.000000 0.364463 0.500000
O O15 0.250000 0.882185 0.869372
O O16 0.461169 0.840404 0.802509
O O17 0.463551 0.000000 0.858746
O O18 0.250000 0.617296 0.864566
O O19 0.463455 0.500000 0.851861
O O20 0.462075 0.663657 0.799231
O O21 0.250000 0.245534 0.752181
#
# Coordination Sequence:
#
# PCOD9405942 Si02
#       7
#     8   8   8   8   8   8   8
#     4  11  22  34  52  78 107 140 176 216 262 312
#     4  10  21  37  56  77 103 135 171 215 268 324
#     4  11  22  36  56  84 117 148 181 222 266 316
#     4   9  19  35  52  72 100 133 169 210 258 311
#     4   9  19  38  61  81 106 143 183 224 272 321
#     4   9  19  38  61  82 108 144 184 226 272 320
#     4   9  19  35  54  79 109 140 177 220 266 316
#
# _framework density 17.640242000000001
#
# number of rings (size 3 to 8) (size 9 to 14) (size 15 to 20)
#    0.000    2.286    0.000    3.429    0.000    7.714 
#    0.000    1.429    0.000    0.000    0.000    0.000 
#    0.000    0.000    0.000    0.000    0.000    0.000 
#
# Total GULP energy -312612.325397 kJ/mol
# GULP energy per Si atom -5582.362954 kJ/mol
# Density = 1.760009 g / cm^3
# Si number density = 17.640242 Si / 1000 Ang^3
#
#
#
# Elastic Constant Matrix: (Units=GPa)
#
#
# Indices 1 2 3 4 5 6 
#
# 1 79.6279 60.8675 87.8626 0.0000 0.0000 0.0000
# 2 60.8675 125.7121 74.9881 0.0000 0.0000 0.0000
# 3 87.8626 74.9881 175.1741 0.0000 0.0000 0.0000
# 4 0.0000 0.0000 0.0000 12.8691 0.0000 0.0000
# 5 0.0000 0.0000 0.0000 0.0000 38.7933 0.0000
# 6 0.0000 0.0000 0.0000 0.0000 0.0000 5.7345
#
#
#
# Elastic Compliance Matrix: (Units=1/GPa)
#
#
# Indices 1 2 3 4 5 6 
#
# 1 0.033578 -0.008342 -0.013271 0.000000 0.000000 0.000000
# 2 -0.008342 0.012755 -0.001276 0.000000 0.000000 0.000000
# 3 -0.013271 -0.001276 0.012911 0.000000 0.000000 0.000000
# 4 0.000000 0.000000 0.000000 0.077706 0.000000 0.000000
# 5 0.000000 0.000000 0.000000 0.000000 0.025778 0.000000
# 6 0.000000 0.000000 0.000000 0.000000 0.000000 0.174383
#
#
# Mechanical properties :
#
#
# Convention : Reuss Voigt Hill
#
# Bulk Modulus (GPa) = 74.25748 91.99451 83.12600
# Shear Modulus (GPa) = 12.90731 21.93243 17.41987
#
# Velocity S-wave (km/s) = 2.70792 3.52990 3.14587
# Velocity P-wave (km/s) = 7.20861 8.29923 7.77307
#
# Compressibility (1/GPa) = 0.01346666
#
# Stress axis : x y z
#
# Youngs Moduli (GPa) = 29.78113 78.40206 77.45173
#
# Poissons Ratio (x) = 0.65401 1.02787
# Poissons Ratio (y) = 0.24843 0.09883
# Poissons Ratio (z) = 0.39523 0.10004
#
# Static dielectric constant tensor:
#      x y z
#    x 1.588880 0.000000 0.000000 
#    y 0.000000 1.606970 0.000000 
#    z 0.000000 0.000000 1.562160 
# 
# From -- ./inp_files/31877.got.cif
#   From: 2010.05.17/outbox.cif.g08.bks.cpg/sg51_16_cif.got.tgz:31877.got - 2010.06.03 11:52:47.
