data_PCOD9405287
_publ_section_title
;
Structure prediction by ZEFSAII (Michael W. Deem and Ramdas Pophale) SiO2 
 PCOD9405287
Probable space group: P M M A
;
_chemical_formula_sum "Si O2"
_cell_formula_units_Z 64
_cell_length_a 24.456552
_cell_length_b 15.250441
_cell_length_c 8.826043
_cell_angle_alpha 90.000000
_cell_angle_beta 90.000000
_cell_angle_gamma 90.000000
_cell_volume 3291.877531
_symmetry_space_group_name_H-M "P M M A"
_symmetry_group_IT_number 51
_symmetry_cell_setting 'orthorhombic'
loop_
_space_group_symop_operation_xyz
x,y,z
1/2-x,-y,z
1/2+x,-y,-z
-x,y,-z
-x,-y,-z
1/2+x,y,-z
1/2-x,y,z
x,-y,z
loop_
_atom_site_type_symbol
_atom_site_label
_atom_site_fract_x
_atom_site_fract_y
_atom_site_fract_z
Si Si1 0.399449 0.805547 0.628796
Si Si2 0.813490 0.599870 0.661549
Si Si3 0.986867 0.652549 0.343031
Si Si4 0.083386 0.100247 0.313167
Si Si5 0.096535 0.280842 0.181947
Si Si6 0.528584 0.100388 0.149832
Si Si7 0.813422 0.337918 0.320635
Si Si8 0.404144 0.403705 0.901585
O O1 0.444759 0.729344 0.608799
O O2 0.402689 0.868139 0.482888
O O3 0.419138 0.853409 0.780918
O O4 0.342302 0.756002 0.650376
O O5 0.750000 0.614779 0.702939
O O6 0.828090 0.500000 0.701280
O O7 0.853485 0.668311 0.739617
O O8 0.817642 0.611865 0.480600
O O9 0.954528 0.600290 0.215143
O O10 0.000000 0.604414 0.500000
O O11 0.041104 0.693616 0.270671
O O12 0.105142 0.176765 0.201784
O O13 0.018180 0.100292 0.279462
O O14 0.101765 0.000000 0.286490
O O15 0.090652 0.323421 0.017255
O O16 0.542259 0.000000 0.111203
O O17 0.500000 0.140327 0.000000
O O18 0.750000 0.330793 0.279114
O O19 0.849419 0.387277 0.195518
O O20 0.403078 0.500000 0.975064
#
# Coordination Sequence:
#
# PCOD9405287 Si02
#       8
#     8   8   8   8   8   8   8   8
#     4  11  19  37  60  87 124 161 203 251 307 367
#     4  10  21  39  64  89 115 155 208 259 304 362
#     4  11  21  37  60  88 123 168 203 246 305 378
#     4  11  22  36  59  93 126 163 208 251 304 367
#     4  12  22  39  61  89 128 164 201 256 314 368
#     4  10  21  33  55  92 126 160 202 249 305 366
#     4  10  22  40  64  89 117 156 206 256 308 368
#     4  11  26  40  59  90 126 168 207 255 315 377
#
# _framework density 19.441792
#
# number of rings (size 3 to 8) (size 9 to 14) (size 15 to 20)
#    0.000    1.250    3.750    2.625    3.500    4.000 
#    0.000    0.000    0.000    2.625    0.000    0.000 
#    0.000    0.000    0.000    0.000    0.000    0.000 
#
# Total GULP energy -357484.322683 kJ/mol
# GULP energy per Si atom -5585.692542 kJ/mol
# Density = 1.939754 g / cm^3
# Si number density = 19.441792 Si / 1000 Ang^3
#
#
#
# Elastic Constant Matrix: (Units=GPa)
#
#
# Indices 1 2 3 4 5 6 
#
# 1 73.0902 41.7176 16.7827 0.0000 0.0000 0.0000
# 2 41.7176 146.1756 39.5227 0.0000 0.0000 0.0000
# 3 16.7827 39.5227 84.5434 0.0000 0.0000 0.0000
# 4 0.0000 0.0000 0.0000 17.6879 0.0000 0.0000
# 5 0.0000 0.0000 0.0000 0.0000 -45.1359 0.0000
# 6 0.0000 0.0000 0.0000 0.0000 0.0000 1.1602
#
#
#
# Elastic Compliance Matrix: (Units=1/GPa)
#
#
# Indices 1 2 3 4 5 6 
#
# 1 0.016454 -0.004364 -0.001226 0.000000 0.000000 0.000000
# 2 -0.004364 0.008989 -0.003336 0.000000 0.000000 0.000000
# 3 -0.001226 -0.003336 0.013631 0.000000 0.000000 0.000000
# 4 0.000000 0.000000 0.000000 0.056536 0.000000 0.000000
# 5 0.000000 0.000000 0.000000 0.000000 -0.022155 0.000000
# 6 0.000000 0.000000 0.000000 0.000000 0.000000 0.861951
#
#
# Mechanical properties :
#
#
# Convention : Reuss Voigt Hill
#
# Bulk Modulus (GPa) = 47.12169 55.53945 51.33057
# Shear Modulus (GPa) = 5.20653 8.46152 6.83403
#
# Velocity S-wave (km/s) = 1.63824 2.08846 1.87690
# Velocity P-wave (km/s) = 5.27905 5.86896 5.58180
#
# Compressibility (1/GPa) = 0.02122165
#
# Stress axis : x y z
#
# Youngs Moduli (GPa) = 60.77421 111.25253 73.36235
#
# Poissons Ratio (x) = 0.48556 0.08994
# Poissons Ratio (y) = 0.26525 0.24471
# Poissons Ratio (z) = 0.07451 0.37110
#
# Static dielectric constant tensor:
#      x y z
#    x 1.647210 0.000000 0.000000 
#    y 0.000000 1.707070 0.000000 
#    z 0.000000 0.000000 1.729330 
# 
# From -- ./inp_files/11897.got.cif
#   From: 2010.05.17/outbox.cif.g08.bks.cpg/sg51_6_cif.got.tgz:11897.got - 2010.06.03 11:52:47.
