data_PCOD9405289
_publ_section_title
;
Structure prediction by ZEFSAII (Michael W. Deem and Ramdas Pophale) SiO2 
 PCOD9405289
Probable space group: P M M A
;
_chemical_formula_sum "Si O2"
_cell_formula_units_Z 64
_cell_length_a 30.590548
_cell_length_b 8.870738
_cell_length_c 15.261396
_cell_angle_alpha 90.000000
_cell_angle_beta 90.000000
_cell_angle_gamma 90.000000
_cell_volume 4141.343660
_symmetry_space_group_name_H-M "P M M A"
_symmetry_group_IT_number 51
_symmetry_cell_setting 'orthorhombic'
loop_
_space_group_symop_operation_xyz
x,y,z
1/2-x,-y,z
1/2+x,-y,-z
-x,y,-z
-x,-y,-z
1/2+x,y,-z
1/2-x,y,z
x,-y,z
loop_
_atom_site_type_symbol
_atom_site_label
_atom_site_fract_x
_atom_site_fract_y
_atom_site_fract_z
Si Si1 0.539512 0.319382 0.177817
Si Si2 0.701433 0.182996 0.994291
Si Si3 0.105917 0.181488 0.958828
Si Si4 0.435156 0.180587 0.447538
Si Si5 0.200414 0.819465 0.210959
Si Si6 0.440774 0.318138 0.129179
Si Si7 0.969326 0.818469 0.368386
Si Si8 0.617275 0.679304 0.702940
O O1 0.542810 0.500000 0.175395
O O2 0.577746 0.246490 0.120701
O O3 0.491936 0.278378 0.137204
O O4 0.540429 0.261819 0.277485
O O5 0.750000 0.235210 0.023350
O O6 0.696177 0.223346 0.891615
O O7 0.702382 0.000000 0.997828
O O8 0.656955 0.231043 0.042059
O O9 0.104708 0.000000 0.958114
O O10 0.083353 0.240335 0.048118
O O11 0.481503 0.217134 0.401022
O O12 0.438848 0.225693 0.549285
O O13 0.398138 0.254254 0.389038
O O14 0.430940 0.000000 0.445528
O O15 0.250000 0.785121 0.238043
O O16 0.164191 0.738355 0.267586
O O17 0.194266 0.000000 0.215680
O O18 0.437678 0.500000 0.118990
O O19 0.416580 0.274978 0.219636
O O20 0.966698 0.000000 0.357430
O O21 0.616748 0.500000 0.698781
#
# Coordination Sequence:
#
# PCOD9405289 Si02
#       8
#     8   8   8   8   8   8   8   8
#     4  11  22  35  48  65  98 136 165 199 242 288
#     4   8  15  29  48  69  92 118 153 199 245 285
#     4  11  21  32  50  72  92 124 168 206 240 284
#     4   9  18  32  51  72  96 123 156 201 245 280
#     4   9  17  31  50  70  94 126 163 202 245 290
#     4  10  21  34  44  63  98 137 167 194 232 281
#     4   9  18  33  51  72  94 121 161 205 240 277
#     4  11  20  30  47  72 101 131 165 196 236 294
#
# _framework density 15.453923
#
# number of rings (size 3 to 8) (size 9 to 14) (size 15 to 20)
#    0.000    2.250    2.500    3.000    0.000    3.750 
#    0.000    1.250    0.000    1.500    0.000    0.875 
#    0.000    3.000    0.000    0.000    0.000    0.000 
#
# Total GULP energy -356890.748361 kJ/mol
# GULP energy per Si atom -5576.417943 kJ/mol
# Density = 1.541875 g / cm^3
# Si number density = 15.453923 Si / 1000 Ang^3
#
#
#
# Elastic Constant Matrix: (Units=GPa)
#
#
# Indices 1 2 3 4 5 6 
#
# 1 122.1366 33.5395 59.6451 0.0000 0.0000 0.0000
# 2 33.5395 21.5873 29.0295 0.0000 0.0000 0.0000
# 3 59.6451 29.0295 81.2092 0.0000 0.0000 0.0000
# 4 0.0000 0.0000 0.0000 18.2344 0.0000 0.0000
# 5 0.0000 0.0000 0.0000 0.0000 22.7102 0.0000
# 6 0.0000 0.0000 0.0000 0.0000 0.0000 8.4509
#
#
#
# Elastic Compliance Matrix: (Units=1/GPa)
#
#
# Indices 1 2 3 4 5 6 
#
# 1 0.015382 -0.016765 -0.005304 0.000000 0.000000 0.000000
# 2 -0.016765 0.107477 -0.026106 0.000000 0.000000 0.000000
# 3 -0.005304 -0.026106 0.025542 0.000000 0.000000 0.000000
# 4 0.000000 0.000000 0.000000 0.054841 0.000000 0.000000
# 5 0.000000 0.000000 0.000000 0.000000 0.044033 0.000000
# 6 0.000000 0.000000 0.000000 0.000000 0.000000 0.118330
#
#
# Mechanical properties :
#
#
# Convention : Reuss Voigt Hill
#
# Bulk Modulus (GPa) = 19.21241 52.15125 35.68183
# Shear Modulus (GPa) = 10.43174 16.72704 13.57939
#
# Velocity S-wave (km/s) = 2.60094 3.29353 2.96751
# Velocity P-wave (km/s) = 4.63453 6.94857 5.90599
#
# Compressibility (1/GPa) = 0.05204968
#
# Stress axis : x y z
#
# Youngs Moduli (GPa) = 65.01215 9.30428 39.15159
#
# Poissons Ratio (x) = 0.15599 0.20767
# Poissons Ratio (y) = 1.08994 1.02210
# Poissons Ratio (z) = 0.34485 0.24290
#
# Static dielectric constant tensor:
#      x y z
#    x 1.519810 0.000000 0.000000 
#    y 0.000000 1.513470 0.000000 
#    z 0.000000 0.000000 1.493980 
# 
# From -- ./inp_files/26625.got.cif
#   From: 2010.05.17/outbox.cif.g08.bks.cpg/sg51_14_cif.got.tgz:26625.got - 2010.06.03 11:52:47.
