data_PCOD9405696
_publ_section_title
;
Structure prediction by ZEFSAII (Michael W. Deem and Ramdas Pophale) SiO2 
 PCOD9405696
Probable space group: P M M A
;
_chemical_formula_sum "Si O2"
_cell_formula_units_Z 48
_cell_length_a 7.755937
_cell_length_b 9.736980
_cell_length_c 31.557729
_cell_angle_alpha 90.000000
_cell_angle_beta 90.000000
_cell_angle_gamma 90.000000
_cell_volume 2383.220868
_symmetry_space_group_name_H-M "P M M A"
_symmetry_group_IT_number 51
_symmetry_cell_setting 'orthorhombic'
loop_
_space_group_symop_operation_xyz
x,y,z
1/2-x,-y,z
1/2+x,-y,-z
-x,y,-z
-x,-y,-z
1/2+x,y,-z
1/2-x,y,z
x,-y,z
loop_
_atom_site_type_symbol
_atom_site_label
_atom_site_fract_x
_atom_site_fract_y
_atom_site_fract_z
Si Si1 0.958213 0.842651 0.719299
Si Si2 0.045083 0.844883 0.874120
Si Si3 0.539471 0.842225 0.623749
Si Si4 0.544109 0.344411 0.201654
Si Si5 0.957438 0.656705 0.546640
Si Si6 0.455468 0.345075 0.048710
O O1 0.750000 0.844815 0.719229
O O2 0.014773 0.804808 0.671552
O O3 0.014961 0.736222 0.754714
O O4 0.015814 0.000000 0.728305
O O5 0.250000 0.856065 0.866827
O O6 0.973031 0.748718 0.836675
O O7 0.021229 0.766604 0.918353
O O8 0.974250 0.000000 0.874147
O O9 0.750000 0.838356 0.623613
O O10 0.477754 0.745488 0.586020
O O11 0.489261 0.000000 0.616302
O O12 0.750000 0.354690 0.195505
O O13 0.474877 0.500000 0.202008
O O14 0.750000 0.652127 0.549725
O O15 0.022931 0.500000 0.548645
O O16 0.000000 0.712992 0.500000
O O17 0.250000 0.348641 0.052457
O O18 0.522383 0.500000 0.058134
O O19 0.500000 0.313858 0.000000
#
# Coordination Sequence:
#
# PCOD9405696 Si02
#       6
#     8   8   8   8   8   8
#     4   9  18  33  53  76 101 130 166 208 253 301
#     4  10  21  37  57  79 104 138 177 214 255 303
#     4   8  15  29  48  69  93 122 157 197 240 288
#     4  10  21  36  54  77 105 137 172 210 254 303
#     4   9  17  29  45  65  90 121 156 194 238 287
#     4  10  21  37  58  83 110 141 176 214 257 303
#
# _framework density 20.140809999999998
#
# number of rings (size 3 to 8) (size 9 to 14) (size 15 to 20)
#    0.000    2.667    0.000    2.500    0.000    5.333 
#    0.000    2.500    0.000    3.000    0.000    0.000 
#    0.000    0.000    0.000    0.000    0.000    0.000 
#
# Total GULP energy -267855.829935 kJ/mol
# GULP energy per Si atom -5580.329790 kJ/mol
# Density = 2.009497 g / cm^3
# Si number density = 20.140810 Si / 1000 Ang^3
#
#
#
# Elastic Constant Matrix: (Units=GPa)
#
#
# Indices 1 2 3 4 5 6 
#
# 1 28.3341 7.9429 -3.5113 0.0000 0.0000 0.0000
# 2 7.9429 169.2078 133.7021 0.0000 0.0000 0.0000
# 3 -3.5113 133.7021 161.7217 0.0000 0.0000 0.0000
# 4 0.0000 0.0000 0.0000 43.7225 0.0000 0.0000
# 5 0.0000 0.0000 0.0000 0.0000 26.9214 0.0000
# 6 0.0000 0.0000 0.0000 0.0000 0.0000 16.3740
#
#
#
# Elastic Compliance Matrix: (Units=1/GPa)
#
#
# Indices 1 2 3 4 5 6 
#
# 1 0.038091 -0.007041 0.006649 0.000000 0.000000 0.000000
# 2 -0.007041 0.018346 -0.015320 0.000000 0.000000 0.000000
# 3 0.006649 -0.015320 0.018994 0.000000 0.000000 0.000000
# 4 0.000000 0.000000 0.000000 0.022872 0.000000 0.000000
# 5 0.000000 0.000000 0.000000 0.000000 0.037145 0.000000
# 6 0.000000 0.000000 0.000000 0.000000 0.000000 0.061072
#
#
# Mechanical properties :
#
#
# Convention : Reuss Voigt Hill
#
# Bulk Modulus (GPa) = 22.72510 70.61457 46.66983
# Shear Modulus (GPa) = 20.60883 32.14556 26.37719
#
# Velocity S-wave (km/s) = 3.20228 3.99938 3.62282
# Velocity P-wave (km/s) = 4.99804 7.51421 6.38137
#
# Compressibility (1/GPa) = 0.04400421
#
# Stress axis : x y z
#
# Youngs Moduli (GPa) = 26.25293 54.50783 52.64892
#
# Poissons Ratio (x) = 0.38382 -0.35004
# Poissons Ratio (y) = 0.18486 0.80660
# Poissons Ratio (z) = -0.17454 0.83508
#
# Static dielectric constant tensor:
#      x y z
#    x 1.748770 0.000000 0.000000 
#    y 0.000000 1.708920 0.000000 
#    z 0.000000 0.000000 1.690740 
# 
# From -- ./inp_files/36959.got.cif
#   From: 2010.05.17/outbox.cif.g08.bks.cpg/sg51_19_cif.got.tgz:36959.got - 2010.06.03 11:52:47.
