data_PCOD9405216
_publ_section_title
;
Structure prediction by ZEFSAII (Michael W. Deem and Ramdas Pophale) SiO2 
 PCOD9405216
Probable space group: P M M A
;
_chemical_formula_sum "Si O2"
_cell_formula_units_Z 56
_cell_length_a 15.932096
_cell_length_b 19.302452
_cell_length_c 9.698678
_cell_angle_alpha 90.000000
_cell_angle_beta 90.000000
_cell_angle_gamma 90.000000
_cell_volume 2982.620075
_symmetry_space_group_name_H-M "P M M A"
_symmetry_group_IT_number 51
_symmetry_cell_setting 'orthorhombic'
loop_
_space_group_symop_operation_xyz
x,y,z
1/2-x,-y,z
1/2+x,-y,-z
-x,y,-z
-x,-y,-z
1/2+x,y,-z
1/2-x,y,z
x,-y,z
loop_
_atom_site_type_symbol
_atom_site_label
_atom_site_fract_x
_atom_site_fract_y
_atom_site_fract_z
Si Si1 0.655480 0.308055 0.231153
Si Si2 0.536544 0.844545 0.651476
Si Si3 0.422517 0.186529 0.911398
Si Si4 0.404911 0.296068 0.475505
Si Si5 0.483807 0.578581 0.838385
Si Si6 0.349714 0.081150 0.134933
Si Si7 0.658279 0.578434 0.682837
O O1 0.750000 0.334960 0.226782
O O2 0.641939 0.247471 0.120353
O O3 0.635005 0.274510 0.379795
O O4 0.585511 0.366791 0.208760
O O5 0.500000 0.864134 0.500000
O O6 0.463226 0.838125 0.766607
O O7 0.580694 0.769486 0.624695
O O8 0.603671 0.893914 0.725726
O O9 0.500000 0.216582 0.000000
O O10 0.384790 0.125995 0.006422
O O11 0.500000 0.322575 0.500000
O O12 0.349266 0.359090 0.423200
O O13 0.456550 0.500000 0.804369
O O14 0.575803 0.588912 0.773832
O O15 0.500000 0.583909 0.000000
O O16 0.250000 0.091632 0.146528
O O17 0.366407 0.000000 0.112062
O O18 0.750000 0.582780 0.753046
O O19 0.652830 0.500000 0.624507
#
# Coordination Sequence:
#
# PCOD9405216 Si02
#       7
#     8   8   8   8   8   8   8
#     4  12  23  36  58  89 120 158 204 251 310 374
#     4  10  20  39  64  90 119 161 206 252 305 363
#     4  10  20  38  64  88 122 160 204 251 301 363
#     4  11  20  38  60  84 122 157 196 255 310 360
#     4  10  22  40  58  79 114 157 200 255 311 362
#     4  10  23  42  63  92 128 162 199 247 306 374
#     4  10  21  37  59  85 113 154 205 252 306 366
#
# _framework density 18.77544
#
# number of rings (size 3 to 8) (size 9 to 14) (size 15 to 20)
#    0.000    1.571    4.286    1.286    0.000    6.857 
#    0.000    1.429    0.000    1.714    0.000    0.000 
#    0.000    0.000    0.000    0.000    0.000    0.000 
#
# Total GULP energy -312198.256479 kJ/mol
# GULP energy per Si atom -5574.968866 kJ/mol
# Density = 1.873271 g / cm^3
# Si number density = 18.775440 Si / 1000 Ang^3
#
#
#
# Elastic Constant Matrix: (Units=GPa)
#
#
# Indices 1 2 3 4 5 6 
#
# 1 121.9788 67.2857 37.7507 0.0000 0.0000 0.0000
# 2 67.2857 104.0421 49.0164 0.0000 0.0000 0.0000
# 3 37.7507 49.0164 102.8016 0.0000 0.0000 0.0000
# 4 0.0000 0.0000 0.0000 20.3755 0.0000 0.0000
# 5 0.0000 0.0000 0.0000 0.0000 16.0345 0.0000
# 6 0.0000 0.0000 0.0000 0.0000 0.0000 6.8733
#
#
#
# Elastic Compliance Matrix: (Units=1/GPa)
#
#
# Indices 1 2 3 4 5 6 
#
# 1 0.012820 -0.007832 -0.000973 0.000000 0.000000 0.000000
# 2 -0.007832 0.017181 -0.005316 0.000000 0.000000 0.000000
# 3 -0.000973 -0.005316 0.012620 0.000000 0.000000 0.000000
# 4 0.000000 0.000000 0.000000 0.049079 0.000000 0.000000
# 5 0.000000 0.000000 0.000000 0.000000 0.062366 0.000000
# 6 0.000000 0.000000 0.000000 0.000000 0.000000 0.145490
#
#
# Mechanical properties :
#
#
# Convention : Reuss Voigt Hill
#
# Bulk Modulus (GPa) = 69.55218 70.76978 70.16098
# Shear Modulus (GPa) = 15.03352 20.30796 17.67074
#
# Velocity S-wave (km/s) = 2.83274 3.29237 3.07117
# Velocity P-wave (km/s) = 6.91548 7.22686 7.07288
#
# Compressibility (1/GPa) = 0.01437770
#
# Stress axis : x y z
#
# Youngs Moduli (GPa) = 78.00465 58.20321 79.24228
#
# Poissons Ratio (x) = 0.45586 0.07712
# Poissons Ratio (y) = 0.61095 0.42125
# Poissons Ratio (z) = 0.07591 0.30940
#
# Static dielectric constant tensor:
#      x y z
#    x 1.658140 0.000000 0.000000 
#    y 0.000000 1.651720 0.000000 
#    z 0.000000 0.000000 1.696720 
# 
# From -- ./inp_files/8568.got.cif
#   From: 2010.05.17/outbox.cif.g08.bks.cpg/sg51_5_cif.got.tgz:8568.got - 2010.06.03 11:52:47.
