data_PCOD9405478
_publ_section_title
;
Structure prediction by ZEFSAII (Michael W. Deem and Ramdas Pophale) SiO2 
 PCOD9405478
Probable space group: P M M A
;
_chemical_formula_sum "Si O2"
_cell_formula_units_Z 64
_cell_length_a 18.857242
_cell_length_b 8.668455
_cell_length_c 21.138812
_cell_angle_alpha 90.000000
_cell_angle_beta 90.000000
_cell_angle_gamma 90.000000
_cell_volume 3455.416875
_symmetry_space_group_name_H-M "P M M A"
_symmetry_group_IT_number 51
_symmetry_cell_setting 'orthorhombic'
loop_
_space_group_symop_operation_xyz
x,y,z
1/2-x,-y,z
1/2+x,-y,-z
-x,y,-z
-x,-y,-z
1/2+x,y,-z
1/2-x,y,z
x,-y,z
loop_
_atom_site_type_symbol
_atom_site_label
_atom_site_fract_x
_atom_site_fract_y
_atom_site_fract_z
Si Si1 0.922984 0.184757 0.121381
Si Si2 0.081325 0.186363 0.502809
Si Si3 0.167688 0.185945 0.379720
Si Si4 0.832264 0.685900 0.755680
Si Si5 0.332743 0.313899 0.763949
Si Si6 0.331938 0.314118 0.619644
Si Si7 0.918553 0.685327 0.879427
Si Si8 0.332338 0.813472 0.001622
O O1 0.883747 0.239665 0.184745
O O2 0.001516 0.253543 0.116489
O O3 0.927951 0.000000 0.120855
O O4 0.874924 0.232951 0.061430
O O5 0.122628 0.238771 0.439840
O O6 0.119073 0.244987 0.565844
O O7 0.000000 0.236780 0.500000
O O8 0.083137 0.000000 0.503331
O O9 0.250000 0.231621 0.388269
O O10 0.143605 0.250908 0.312182
O O11 0.164786 0.000000 0.377079
O O12 0.750000 0.734755 0.765506
O O13 0.833018 0.500000 0.753472
O O14 0.881119 0.735792 0.813914
O O15 0.250000 0.272700 0.775459
O O16 0.337722 0.500000 0.767906
O O17 0.350540 0.268655 0.691659
O O18 0.250000 0.268425 0.608462
O O19 0.335036 0.500000 0.617036
O O20 0.919338 0.500000 0.880707
O O21 0.872011 0.746193 0.937649
O O22 0.250000 0.765172 0.999065
O O23 0.333960 0.000000 0.005161
#
# Coordination Sequence:
#
# PCOD9405478 Si02
#       8
#     8   8   8   8   8   8   8   8
#     4  11  23  38  57  83 115 149 185 224 269 324
#     4  10  21  35  51  76 110 143 177 220 269 322
#     4   9  18  33  53  76 103 137 177 220 265 315
#     4   9  19  36  56  78 104 135 175 222 268 318
#     4   9  19  37  59  83 112 144 180 225 274 323
#     4   9  19  36  57  80 106 139 181 226 271 322
#     4  11  23  38  57  83 114 146 182 225 274 327
#     4  10  22  40  60  82 110 144 183 228 274 321
#
# _framework density 18.521642
#
# number of rings (size 3 to 8) (size 9 to 14) (size 15 to 20)
#    0.000    2.250    0.000    3.000    0.000    8.000 
#    0.000    6.250    0.000    0.000    0.000    0.000 
#    0.000    0.000    0.000    0.000    0.000    0.000 
#
# Total GULP energy -357379.926213 kJ/mol
# GULP energy per Si atom -5584.061347 kJ/mol
# Density = 1.847949 g / cm^3
# Si number density = 18.521642 Si / 1000 Ang^3
#
#
#
# Elastic Constant Matrix: (Units=GPa)
#
#
# Indices 1 2 3 4 5 6 
#
# 1 151.1737 34.4099 124.3559 0.0000 0.0000 0.0000
# 2 34.4099 13.0748 34.5785 0.0000 0.0000 0.0000
# 3 124.3559 34.5785 184.9486 0.0000 0.0000 0.0000
# 4 0.0000 0.0000 0.0000 36.2303 0.0000 0.0000
# 5 0.0000 0.0000 0.0000 0.0000 -16.9522 0.0000
# 6 0.0000 0.0000 0.0000 0.0000 0.0000 24.4194
#
#
#
# Elastic Compliance Matrix: (Units=1/GPa)
#
#
# Indices 1 2 3 4 5 6 
#
# 1 0.020527 -0.034657 -0.007322 0.000000 0.000000 0.000000
# 2 -0.034657 0.209802 -0.015923 0.000000 0.000000 0.000000
# 3 -0.007322 -0.015923 0.013307 0.000000 0.000000 0.000000
# 4 0.000000 0.000000 0.000000 0.027601 0.000000 0.000000
# 5 0.000000 0.000000 0.000000 0.000000 -0.058989 0.000000
# 6 0.000000 0.000000 0.000000 0.000000 0.000000 0.040951
#
#
# Mechanical properties :
#
#
# Convention : Reuss Voigt Hill
#
# Bulk Modulus (GPa) = 7.82272 81.76507 44.79389
# Shear Modulus (GPa) = 12.14731 19.12968 15.63850
#
# Velocity S-wave (km/s) = 2.56372 3.21725 2.90890
# Velocity P-wave (km/s) = 3.60504 7.61856 5.95981
#
# Compressibility (1/GPa) = 0.12783284
#
# Stress axis : x y z
#
# Youngs Moduli (GPa) = 48.71695 4.76639 75.14746
#
# Poissons Ratio (x) = 0.16519 0.55025
# Poissons Ratio (y) = 1.68838 1.19654
# Poissons Ratio (z) = 0.35672 0.07589
#
# Static dielectric constant tensor:
#      x y z
#    x 1.617470 0.000000 0.000000 
#    y 0.000000 1.630930 0.000000 
#    z 0.000000 0.000000 1.615270 
# 
# From -- ./inp_files/33879.got.cif
#   From: 2010.05.17/outbox.cif.g08.bks.cpg/sg51_17_cif.got.tgz:33879.got - 2010.06.03 11:52:47.
