data_PCOD9405202
_publ_section_title
;
Structure prediction by ZEFSAII (Michael W. Deem and Ramdas Pophale) SiO2 
 PCOD9405202
Probable space group: P M M A
;
_chemical_formula_sum "Si O2"
_cell_formula_units_Z 48
_cell_length_a 28.678542
_cell_length_b 8.152147
_cell_length_c 10.077932
_cell_angle_alpha 90.000000
_cell_angle_beta 90.000000
_cell_angle_gamma 90.000000
_cell_volume 2356.136755
_symmetry_space_group_name_H-M "P M M A"
_symmetry_group_IT_number 51
_symmetry_cell_setting 'orthorhombic'
loop_
_space_group_symop_operation_xyz
x,y,z
1/2-x,-y,z
1/2+x,-y,-z
-x,y,-z
-x,-y,-z
1/2+x,y,-z
1/2-x,y,z
x,-y,z
loop_
_atom_site_type_symbol
_atom_site_label
_atom_site_fract_x
_atom_site_fract_y
_atom_site_fract_z
Si Si1 0.301709 0.699811 0.783026
Si Si2 0.863293 0.693704 0.458626
Si Si3 0.462249 0.808163 0.603337
Si Si4 0.043708 0.697705 0.910686
Si Si5 0.142252 0.698567 0.037360
Si Si6 0.803918 0.194784 0.704140
O O1 0.250000 0.759919 0.755214
O O2 0.301052 0.500000 0.776818
O O3 0.338247 0.755163 0.674222
O O4 0.319611 0.744698 0.927255
O O5 0.873092 0.500000 0.445776
O O6 0.912436 0.783019 0.466870
O O7 0.827304 0.721608 0.577048
O O8 0.500000 0.735702 0.500000
O O9 0.460244 0.740307 0.754294
O O10 0.472504 0.000000 0.618834
O O11 0.044370 0.500000 0.916358
O O12 0.092062 0.753601 0.980126
O O13 0.000000 0.755509 0.000000
O O14 0.140614 0.500000 0.048033
O O15 0.161512 0.767216 0.174377
O O16 0.750000 0.249436 0.726966
O O17 0.802890 0.000000 0.682346
#
# Coordination Sequence:
#
# PCOD9405202 Si02
#       6
#     8   8   8   8   8   8
#     4   9  17  32  58  89 117 146 191 250 302 354
#     4  11  22  40  65  91 121 159 207 259 310 362
#     4  11  25  43  63  92 127 163 203 250 312 381
#     4  10  22  41  65  95 125 157 206 262 312 366
#     4  10  20  38  62  90 122 160 205 255 307 360
#     4  11  25  42  59  88 131 172 208 250 305 368
#
# _framework density 20.372330999999999
#
# number of rings (size 3 to 8) (size 9 to 14) (size 15 to 20)
#    0.000    1.667    1.667    2.500    2.333    5.000 
#    0.000    0.000    0.000    3.000    0.000    0.000 
#    0.000    0.000    0.000    0.000    0.000    0.000 
#
# Total GULP energy -267997.838887 kJ/mol
# GULP energy per Si atom -5583.288310 kJ/mol
# Density = 2.032596 g / cm^3
# Si number density = 20.372331 Si / 1000 Ang^3
#
#
#
# Elastic Constant Matrix: (Units=GPa)
#
#
# Indices 1 2 3 4 5 6 
#
# 1 99.4766 0.0935 0.2405 0.0000 0.0000 0.0000
# 2 0.0935 9.6776 0.3490 0.0000 0.0000 0.0000
# 3 0.2405 0.3490 64.4783 0.0000 0.0000 0.0000
# 4 0.0000 0.0000 0.0000 5487.7834 0.0000 0.0000
# 5 0.0000 0.0000 0.0000 0.0000 37.6045 0.0000
# 6 0.0000 0.0000 0.0000 0.0000 0.0000 -11.0034
#
#
#
# Elastic Compliance Matrix: (Units=1/GPa)
#
#
# Indices 1 2 3 4 5 6 
#
# 1 0.010053 -0.000096 -0.000037 0.000000 0.000000 0.000000
# 2 -0.000096 0.103353 -0.000559 0.000000 0.000000 0.000000
# 3 -0.000037 -0.000559 0.015512 0.000000 0.000000 0.000000
# 4 0.000000 0.000000 0.000000 0.000182 0.000000 0.000000
# 5 0.000000 0.000000 0.000000 0.000000 0.026593 0.000000
# 6 0.000000 0.000000 0.000000 0.000000 0.000000 -0.090881
#
#
# Mechanical properties :
#
#
# Convention : Reuss Voigt Hill
#
# Bulk Modulus (GPa) = 7.84102 19.44427 13.64265
# Shear Modulus (GPa) = 45.99548 1114.40689 580.20119
#
# Velocity S-wave (km/s) = 4.75673 23.41383 16.89429
# Velocity P-wave (km/s) = 5.83316 27.21228 19.67910
#
# Compressibility (1/GPa) = 0.12753437
#
# Stress axis : x y z
#
# Youngs Moduli (GPa) = 99.47485 9.67560 64.46520
#
# Poissons Ratio (x) = 0.00093 0.00238
# Poissons Ratio (y) = 0.00953 0.03604
# Poissons Ratio (z) = 0.00368 0.00541
#
# Static dielectric constant tensor:
#      x y z
#    x 1.736680 0.000000 0.000000 
#    y 0.000000 1.733860 0.000000 
#    z 0.000000 0.000000 1.736620 
# 
# From -- ./inp_files/12792.got.cif
#   From: 2010.05.17/outbox.cif.g08.bks.cpg/sg51_7_cif.got.tgz:12792.got - 2010.06.03 11:52:47.
