data_PCOD9405960
_publ_section_title
;
Structure prediction by ZEFSAII (Michael W. Deem and Ramdas Pophale) SiO2 
 PCOD9405960
Probable space group: P M M A
;
_chemical_formula_sum "Si O2"
_cell_formula_units_Z 32
_cell_length_a 8.985625
_cell_length_b 13.925222
_cell_length_c 14.352207
_cell_angle_alpha 90.000000
_cell_angle_beta 90.000000
_cell_angle_gamma 90.000000
_cell_volume 1795.846064
_symmetry_space_group_name_H-M "P M M A"
_symmetry_group_IT_number 51
_symmetry_cell_setting 'orthorhombic'
loop_
_space_group_symop_operation_xyz
x,y,z
1/2-x,-y,z
1/2+x,-y,-z
-x,y,-z
-x,-y,-z
1/2+x,y,-z
1/2-x,y,z
x,-y,z
loop_
_atom_site_type_symbol
_atom_site_label
_atom_site_fract_x
_atom_site_fract_y
_atom_site_fract_z
Si Si1 0.076842 0.750346 0.247519
Si Si2 0.076071 0.614936 0.601318
Si Si3 0.929073 0.890333 0.102728
Si Si4 0.579430 0.106022 0.585417
O O1 0.250000 0.726976 0.225806
O O2 0.073777 0.837362 0.320657
O O3 0.000905 0.666619 0.309763
O O4 0.992719 0.799694 0.160832
O O5 0.250000 0.643830 0.596561
O O6 0.068441 0.500000 0.615227
O O7 0.000000 0.632908 0.500000
O O8 0.750000 0.884079 0.098967
O O9 0.965367 0.000000 0.139057
O O10 0.000000 0.886122 0.000000
O O11 0.500000 0.156232 0.500000
O O12 0.750000 0.097846 0.558239
O O13 0.513033 0.000000 0.597453
#
# Coordination Sequence:
#
# PCOD9405960 Si02
#       4
#     8   8   8   8
#     4  11  21  33  53  78 105 139 179 222 268 321
#     4  10  21  37  56  79 109 144 183 227 273 323
#     4  10  21  37  57  81 110 144 182 224 269 319
#     4   9  18  30  43  64  97 134 168 203 246 299
#
# _framework density 17.818898999999998
#
# number of rings (size 3 to 8) (size 9 to 14) (size 15 to 20)
#    0.000    2.000    0.000    3.750    0.000    8.000 
#    0.000    2.500    0.000    0.750    0.000    0.000 
#    0.000    0.000    0.000    0.000    0.000    0.000 
#
# Total GULP energy -178179.952600 kJ/mol
# GULP energy per Si atom -5568.123519 kJ/mol
# Density = 1.777834 g / cm^3
# Si number density = 17.818899 Si / 1000 Ang^3
#
#
#
# Elastic Constant Matrix: (Units=GPa)
#
#
# Indices 1 2 3 4 5 6 
#
# 1 97.7270 47.7441 53.9101 0.0000 0.0000 0.0000
# 2 47.7441 87.3434 34.9004 0.0000 0.0000 0.0000
# 3 53.9101 34.9004 80.5217 0.0000 0.0000 0.0000
# 4 0.0000 0.0000 0.0000 38.9344 0.0000 0.0000
# 5 0.0000 0.0000 0.0000 0.0000 31.8763 0.0000
# 6 0.0000 0.0000 0.0000 0.0000 0.0000 28.1528
#
#
#
# Elastic Compliance Matrix: (Units=1/GPa)
#
#
# Indices 1 2 3 4 5 6 
#
# 1 0.018725 -0.006321 -0.009797 0.000000 0.000000 0.000000
# 2 -0.006321 0.015981 -0.002695 0.000000 0.000000 0.000000
# 3 -0.009797 -0.002695 0.020146 0.000000 0.000000 0.000000
# 4 0.000000 0.000000 0.000000 0.025684 0.000000 0.000000
# 5 0.000000 0.000000 0.000000 0.000000 0.031371 0.000000
# 6 0.000000 0.000000 0.000000 0.000000 0.000000 0.035520
#
#
# Mechanical properties :
#
#
# Convention : Reuss Voigt Hill
#
# Bulk Modulus (GPa) = 58.04834 59.85571 58.95202
# Shear Modulus (GPa) = 26.20606 28.39518 27.30062
#
# Velocity S-wave (km/s) = 3.83912 3.99625 3.91847
# Velocity P-wave (km/s) = 7.23183 7.41333 7.32314
#
# Compressibility (1/GPa) = 0.01722702
#
# Stress axis : x y z
#
# Youngs Moduli (GPa) = 53.40441 62.57431 49.63741
#
# Poissons Ratio (x) = 0.39553 0.48629
# Poissons Ratio (y) = 0.33757 0.13376
# Poissons Ratio (z) = 0.52320 0.16862
#
# Static dielectric constant tensor:
#      x y z
#    x 1.626670 0.000000 0.000000 
#    y 0.000000 1.651160 0.000000 
#    z 0.000000 0.000000 1.605070 
# 
# From -- ./inp_files/13689.got.cif
#   From: 2010.05.17/outbox.cif.g08.bks.cpg/sg51_7_cif.got.tgz:13689.got - 2010.06.03 11:52:47.
