data_PCOD9405315
_publ_section_title
;
Structure prediction by ZEFSAII (Michael W. Deem and Ramdas Pophale) SiO2 
 PCOD9405315
Probable space group: P M M A
;
_chemical_formula_sum "Si O2"
_cell_formula_units_Z 56
_cell_length_a 9.610691
_cell_length_b 14.886009
_cell_length_c 22.350689
_cell_angle_alpha 90.000000
_cell_angle_beta 90.000000
_cell_angle_gamma 90.000000
_cell_volume 3197.597583
_symmetry_space_group_name_H-M "P M M A"
_symmetry_group_IT_number 51
_symmetry_cell_setting 'orthorhombic'
loop_
_space_group_symop_operation_xyz
x,y,z
1/2-x,-y,z
1/2+x,-y,-z
-x,y,-z
-x,-y,-z
1/2+x,y,-z
1/2-x,y,z
x,-y,z
loop_
_atom_site_type_symbol
_atom_site_label
_atom_site_fract_x
_atom_site_fract_y
_atom_site_fract_z
Si Si1 0.907369 0.768408 0.256099
Si Si2 0.091552 0.397893 0.259514
Si Si3 0.974863 0.214558 0.392494
Si Si4 0.086866 0.892101 0.176331
Si Si5 0.588819 0.599289 0.594861
Si Si6 0.750000 0.103624 0.604292
Si Si7 0.088018 0.890738 0.941894
Si Si8 0.250000 0.102489 0.539127
O O1 0.750000 0.777615 0.233554
O O2 0.904651 0.771659 0.328147
O O3 0.979748 0.674320 0.238874
O O4 0.007482 0.845379 0.230834
O O5 0.250000 0.373095 0.242433
O O6 0.064105 0.500000 0.240015
O O7 0.089337 0.398806 0.332318
O O8 0.882712 0.154237 0.435631
O O9 0.005799 0.311526 0.421805
O O10 0.116203 0.161210 0.378362
O O11 0.250000 0.866900 0.172714
O O12 0.999678 0.866005 0.117054
O O13 0.081094 0.000000 0.181821
O O14 0.750000 0.607371 0.575752
O O15 0.536716 0.500000 0.576731
O O16 0.750000 0.101014 0.532153
O O17 0.750000 0.000000 0.625979
O O18 0.250000 0.860961 0.941521
O O19 0.091912 0.000000 0.943294
O O20 0.000000 0.861655 0.000000
O O21 0.250000 0.000000 0.561042
#
# Coordination Sequence:
#
# PCOD9405315 Si02
#       8
#     8   8   8   8   8   4   8   4
#     4  11  22  34  49  75 108 137 164 203 260 318
#     4   8  15  29  51  75  99 129 165 203 243 294
#     4  11  21  38  57  80 100 130 167 208 262 316
#     4  10  21  34  48  69 100 140 182 221 259 302
#     4   8  14  28  53  80 102 126 156 193 242 304
#     4  11  24  40  61  77  91 127 177 219 254 301
#     4   9  16  28  47  69  96 133 178 222 261 302
#     4  11  24  42  57  75 103 129 165 219 266 301
#
# _framework density 17.513148999999999
#
# number of rings (size 3 to 8) (size 9 to 14) (size 15 to 20)
#    0.000    2.286    1.429    3.000    2.000    5.143 
#    0.000    0.357    0.000    2.571    0.000    0.000 
#    0.000    0.571    0.000    2.143    0.000    3.286 
#
# Total GULP energy -312302.757604 kJ/mol
# GULP energy per Si atom -5576.834957 kJ/mol
# Density = 1.747329 g / cm^3
# Si number density = 17.513149 Si / 1000 Ang^3
#
#
#
# Elastic Constant Matrix: (Units=GPa)
#
#
# Indices 1 2 3 4 5 6 
#
# 1 137.0769 50.2980 20.0973 0.0000 0.0000 0.0000
# 2 50.2980 99.1886 12.9231 0.0000 0.0000 0.0000
# 3 20.0973 12.9231 40.2236 0.0000 0.0000 0.0000
# 4 0.0000 0.0000 0.0000 -28.7644 0.0000 0.0000
# 5 0.0000 0.0000 0.0000 0.0000 21.6871 0.0000
# 6 0.0000 0.0000 0.0000 0.0000 0.0000 28.1696
#
#
#
# Elastic Compliance Matrix: (Units=1/GPa)
#
#
# Indices 1 2 3 4 5 6 
#
# 1 0.009362 -0.004319 -0.003290 0.000000 0.000000 0.000000
# 2 -0.004319 0.012515 -0.001863 0.000000 0.000000 0.000000
# 3 -0.003290 -0.001863 0.027103 0.000000 0.000000 0.000000
# 4 0.000000 0.000000 0.000000 -0.034765 0.000000 0.000000
# 5 0.000000 0.000000 0.000000 0.000000 0.046110 0.000000
# 6 0.000000 0.000000 0.000000 0.000000 0.000000 0.035499
#
#
# Mechanical properties :
#
#
# Convention : Reuss Voigt Hill
#
# Bulk Modulus (GPa) = 33.29282 49.23621 41.26452
# Shear Modulus (GPa) = 40.07024 17.09649 28.58337
#
# Velocity S-wave (km/s) = 4.78850 3.12782 4.04432
# Velocity P-wave (km/s) = 7.04446 6.42022 6.73957
#
# Compressibility (1/GPa) = 0.03003650
#
# Stress axis : x y z
#
# Youngs Moduli (GPa) = 106.81126 79.90668 36.89569
#
# Poissons Ratio (x) = 0.34511 0.12139
# Poissons Ratio (y) = 0.46131 0.06873
# Poissons Ratio (z) = 0.35143 0.14885
#
# Static dielectric constant tensor:
#      x y z
#    x 1.557200 0.000000 0.000000 
#    y 0.000000 1.603920 0.000000 
#    z 0.000000 0.000000 1.597230 
# 
# From -- ./inp_files/32120.got.cif
#   From: 2010.05.17/outbox.cif.g08.bks.cpg/sg51_17_cif.got.tgz:32120.got - 2010.06.03 11:52:47.
