data_PCOD9405069
_publ_section_title
;
Structure prediction by ZEFSAII (Michael W. Deem and Ramdas Pophale) SiO2 
 PCOD9405069
Probable space group: P M M A
;
_chemical_formula_sum "Si O2"
_cell_formula_units_Z 56
_cell_length_a 8.189047
_cell_length_b 16.025649
_cell_length_c 20.751606
_cell_angle_alpha 90.000000
_cell_angle_beta 90.000000
_cell_angle_gamma 90.000000
_cell_volume 2723.332715
_symmetry_space_group_name_H-M "P M M A"
_symmetry_group_IT_number 51
_symmetry_cell_setting 'orthorhombic'
loop_
_space_group_symop_operation_xyz
x,y,z
1/2-x,-y,z
1/2+x,-y,-z
-x,y,-z
-x,-y,-z
1/2+x,y,-z
1/2-x,y,z
x,-y,z
loop_
_atom_site_type_symbol
_atom_site_label
_atom_site_fract_x
_atom_site_fract_y
_atom_site_fract_z
Si Si1 0.055206 0.688902 0.290563
Si Si2 0.055360 0.089119 0.398557
Si Si3 0.054655 0.909903 0.115400
Si Si4 0.553875 0.271953 0.567998
Si Si5 0.054839 0.730566 0.070719
Si Si6 0.441491 0.129625 0.742619
Si Si7 0.054823 0.592552 0.827040
O O1 0.250000 0.704333 0.288577
O O2 0.005371 0.682761 0.365568
O O3 0.968531 0.770863 0.261797
O O4 0.012668 0.613607 0.243813
O O5 0.250000 0.089028 0.409523
O O6 0.988872 0.176106 0.426557
O O7 0.024216 0.094927 0.321963
O O8 0.987271 0.000000 0.421785
O O9 0.250000 0.910297 0.106154
O O10 0.988981 0.824456 0.084305
O O11 0.018922 0.902495 0.191532
O O12 0.989856 0.000000 0.092215
O O13 0.500000 0.308545 0.500000
O O14 0.750000 0.268413 0.568104
O O15 0.250000 0.734419 0.073474
O O16 0.999638 0.664724 0.124218
O O17 0.000000 0.703769 0.000000
O O18 0.250000 0.109979 0.741677
O O19 0.250000 0.593694 0.824180
O O20 0.000629 0.500000 0.847671
#
# Coordination Sequence:
#
# PCOD9405069 Si02
#       7
#     8   8   8   8   8   8   8
#     4  10  20  37  60  85 116 155 196 239 292 355
#     4   9  18  32  47  66 101 148 195 245 300 357
#     4  10  21  37  57  82 116 161 207 249 297 352
#     4   9  19  33  51  77 109 149 196 241 294 355
#     4  11  24  42  65  90 124 167 206 248 298 353
#     4  11  20  30  50  80 112 147 194 250 301 348
#     4  11  24  42  67  99 128 153 190 244 302 360
#
# _framework density 20.563040000000001
#
# number of rings (size 3 to 8) (size 9 to 14) (size 15 to 20)
#    0.000    1.857    1.429    3.857    0.000    7.714 
#    0.000    0.000    0.000    0.429    0.000    0.000 
#    0.000    0.000    0.000    0.000    0.000    0.000 
#
# Total GULP energy -312692.025571 kJ/mol
# GULP energy per Si atom -5583.786171 kJ/mol
# Density = 2.051624 g / cm^3
# Si number density = 20.563040 Si / 1000 Ang^3
#
#
#
# Elastic Constant Matrix: (Units=GPa)
#
#
# Indices 1 2 3 4 5 6 
#
# 1 28.0626 18.2171 6.1883 0.0000 0.0000 0.0000
# 2 18.2171 101.5715 46.0294 0.0000 0.0000 0.0000
# 3 6.1883 46.0294 117.4523 0.0000 0.0000 0.0000
# 4 0.0000 0.0000 0.0000 20.9756 0.0000 0.0000
# 5 0.0000 0.0000 0.0000 0.0000 21.2918 0.0000
# 6 0.0000 0.0000 0.0000 0.0000 0.0000 2.7385
#
#
#
# Elastic Compliance Matrix: (Units=1/GPa)
#
#
# Indices 1 2 3 4 5 6 
#
# 1 0.040402 -0.007638 0.000865 0.000000 0.000000 0.000000
# 2 -0.007638 0.013415 -0.004855 0.000000 0.000000 0.000000
# 3 0.000865 -0.004855 0.010371 0.000000 0.000000 0.000000
# 4 0.000000 0.000000 0.000000 0.047675 0.000000 0.000000
# 5 0.000000 0.000000 0.000000 0.000000 0.046966 0.000000
# 6 0.000000 0.000000 0.000000 0.000000 0.000000 0.365159
#
#
# Mechanical properties :
#
#
# Convention : Reuss Voigt Hill
#
# Bulk Modulus (GPa) = 24.43079 43.10623 33.76851
# Shear Modulus (GPa) = 8.91441 20.77796 14.84618
#
# Velocity S-wave (km/s) = 2.08436 3.18221 2.68989
# Velocity P-wave (km/s) = 4.20708 5.87456 5.10930
#
# Compressibility (1/GPa) = 0.04093195
#
# Stress axis : x y z
#
# Youngs Moduli (GPa) = 24.75104 74.54145 96.42073
#
# Poissons Ratio (x) = 0.56936 -0.08337
# Poissons Ratio (y) = 0.18905 0.46812
# Poissons Ratio (z) = -0.02140 0.36190
#
# Static dielectric constant tensor:
#      x y z
#    x 1.712060 0.000000 0.000000 
#    y 0.000000 1.778150 0.000000 
#    z 0.000000 0.000000 1.708640 
# 
# From -- ./inp_files/31920.got.cif
#   From: 2010.05.17/outbox.cif.g08.bks.cpg/sg51_16_cif.got.tgz:31920.got - 2010.06.03 11:52:47.
