data_PCOD9405746
_publ_section_title
;
Structure prediction by ZEFSAII (Michael W. Deem and Ramdas Pophale) SiO2 
 PCOD9405746
Probable space group: P M M A
;
_chemical_formula_sum "Si O2"
_cell_formula_units_Z 64
_cell_length_a 9.307188
_cell_length_b 15.166223
_cell_length_c 23.802219
_cell_angle_alpha 90.000000
_cell_angle_beta 90.000000
_cell_angle_gamma 90.000000
_cell_volume 3359.799574
_symmetry_space_group_name_H-M "P M M A"
_symmetry_group_IT_number 51
_symmetry_cell_setting 'orthorhombic'
loop_
_space_group_symop_operation_xyz
x,y,z
1/2-x,-y,z
1/2+x,-y,-z
-x,y,-z
-x,-y,-z
1/2+x,y,-z
1/2-x,y,z
x,-y,z
loop_
_atom_site_type_symbol
_atom_site_label
_atom_site_fract_x
_atom_site_fract_y
_atom_site_fract_z
Si Si1 0.911890 0.106605 0.053456
Si Si2 0.414322 0.605992 0.944442
Si Si3 0.577195 0.101941 0.560476
Si Si4 0.577672 0.601441 0.702005
Si Si5 0.090884 0.150522 0.161024
Si Si6 0.918294 0.762112 0.356956
Si Si7 0.407889 0.904880 0.739896
Si Si8 0.086144 0.641898 0.170663
O O1 0.750000 0.137320 0.049745
O O2 0.986210 0.137950 0.109481
O O3 0.912829 0.000000 0.053800
O O4 0.000000 0.137399 0.000000
O O5 0.250000 0.639153 0.943779
O O6 0.408130 0.500000 0.949615
O O7 0.493058 0.623394 0.884944
O O8 0.500000 0.638463 0.000000
O O9 0.500000 0.106144 0.500000
O O10 0.750000 0.114235 0.556370
O O11 0.506022 0.179117 0.597965
O O12 0.554354 0.000000 0.581241
O O13 0.750000 0.620047 0.700399
O O14 0.554983 0.500000 0.684238
O O15 0.494173 0.671680 0.663235
O O16 0.534373 0.608363 0.768284
O O17 0.250000 0.120910 0.145141
O O18 0.093250 0.252964 0.176499
O O19 0.030159 0.100207 0.214257
O O20 0.750000 0.748948 0.373298
O O21 0.918818 0.825201 0.302546
O O22 0.250000 0.899175 0.768037
O O23 0.413877 0.000000 0.710620
O O24 0.250000 0.608824 0.161700
#
# Coordination Sequence:
#
# PCOD9405746 Si02
#       8
#     8   8   8   8   8   8   8   8
#     4  10  21  37  55  73  96 130 175 225 279 342
#     4  10  21  36  55  78 102 131 172 224 286 358
#     4  10  21  38  63  96 135 177 218 257 299 351
#     4  10  21  39  62  86 117 159 206 257 311 366
#     4  11  22  35  53  77 105 137 179 229 281 342
#     4  11  22  37  60  90 127 165 206 255 301 353
#     4  10  21  36  54  79 114 155 192 231 285 343
#     4  10  21  37  56  78 108 144 184 234 293 356
#
# _framework density 19.048755
#
# number of rings (size 3 to 8) (size 9 to 14) (size 15 to 20)
#    0.000    1.750    1.250    3.000    0.000    7.750 
#    0.000    0.000    0.000    0.375    0.000    0.000 
#    0.000    0.000    0.000    0.000    0.000    0.000 
#
# Total GULP energy -357160.057948 kJ/mol
# GULP energy per Si atom -5580.625905 kJ/mol
# Density = 1.900540 g / cm^3
# Si number density = 19.048755 Si / 1000 Ang^3
#
#
#
# Elastic Constant Matrix: (Units=GPa)
#
#
# Indices 1 2 3 4 5 6 
#
# 1 134.6315 60.7442 59.5632 0.0000 0.0000 0.0000
# 2 60.7442 106.3242 45.1579 0.0000 0.0000 0.0000
# 3 59.5632 45.1579 82.9066 0.0000 0.0000 0.0000
# 4 0.0000 0.0000 0.0000 28.2285 0.0000 0.0000
# 5 0.0000 0.0000 0.0000 0.0000 33.1374 0.0000
# 6 0.0000 0.0000 0.0000 0.0000 0.0000 26.2597
#
#
#
# Elastic Compliance Matrix: (Units=1/GPa)
#
#
# Indices 1 2 3 4 5 6 
#
# 1 0.012189 -0.004221 -0.006458 0.000000 0.000000 0.000000
# 2 -0.004221 0.013697 -0.004428 0.000000 0.000000 0.000000
# 3 -0.006458 -0.004428 0.019114 0.000000 0.000000 0.000000
# 4 0.000000 0.000000 0.000000 0.035425 0.000000 0.000000
# 5 0.000000 0.000000 0.000000 0.000000 0.030177 0.000000
# 6 0.000000 0.000000 0.000000 0.000000 0.000000 0.038081
#
#
# Mechanical properties :
#
#
# Convention : Reuss Voigt Hill
#
# Bulk Modulus (GPa) = 67.63380 72.75476 70.19428
# Shear Modulus (GPa) = 27.19939 28.08490 27.64214
#
# Velocity S-wave (km/s) = 3.78283 3.84392 3.81350
# Velocity P-wave (km/s) = 7.39341 7.61432 7.50467
#
# Compressibility (1/GPa) = 0.01478551
#
# Stress axis : x y z
#
# Youngs Moduli (GPa) = 82.03869 73.00621 52.31881
#
# Poissons Ratio (x) = 0.30816 0.33789
# Poissons Ratio (y) = 0.34629 0.23168
# Poissons Ratio (z) = 0.52982 0.32329
#
# Static dielectric constant tensor:
#      x y z
#    x 1.678780 0.000000 0.000000 
#    y 0.000000 1.689660 0.000000 
#    z 0.000000 0.000000 1.634080 
# 
# From -- ./inp_files/34966.got.cif
#   From: 2010.05.17/outbox.cif.g08.bks.cpg/sg51_18_cif.got.tgz:34966.got - 2010.06.03 11:52:47.
