data_PCOD9405589
_publ_section_title
;
Structure prediction by ZEFSAII (Michael W. Deem and Ramdas Pophale) SiO2 
 PCOD9405589
Probable space group: P M M A
;
_chemical_formula_sum "Si O2"
_cell_formula_units_Z 44
_cell_length_a 8.666092
_cell_length_b 19.572807
_cell_length_c 14.843493
_cell_angle_alpha 90.000000
_cell_angle_beta 90.000000
_cell_angle_gamma 90.000000
_cell_volume 2517.749515
_symmetry_space_group_name_H-M "P M M A"
_symmetry_group_IT_number 51
_symmetry_cell_setting 'orthorhombic'
loop_
_space_group_symop_operation_xyz
x,y,z
1/2-x,-y,z
1/2+x,-y,-z
-x,y,-z
-x,-y,-z
1/2+x,y,-z
1/2-x,y,z
x,-y,z
loop_
_atom_site_type_symbol
_atom_site_label
_atom_site_fract_x
_atom_site_fract_y
_atom_site_fract_z
Si Si1 0.564671 0.500000 0.899397
Si Si2 0.426866 0.850880 0.908814
Si Si3 0.568832 0.230810 0.758214
Si Si4 0.933913 0.145547 0.401181
Si Si5 0.580221 0.000000 0.149750
Si Si6 0.570270 0.000000 0.664673
Si Si7 0.063028 0.651338 0.102801
O O1 0.750000 0.500000 0.900761
O O2 0.518540 0.425253 0.863987
O O3 0.500000 0.500000 0.000000
O O4 0.250000 0.827248 0.896169
O O5 0.535104 0.830661 0.826856
O O6 0.424836 0.932423 0.908894
O O7 0.500000 0.823319 0.000000
O O8 0.750000 0.239660 0.740455
O O9 0.486602 0.205287 0.667712
O O10 0.513551 0.294700 0.820268
O O11 0.750000 0.142540 0.401981
O O12 0.000000 0.159515 0.500000
O O13 0.996219 0.070636 0.371125
O O14 0.455209 0.000000 0.227926
O O15 0.750000 0.000000 0.196761
O O16 0.750000 0.000000 0.640657
O O17 0.250000 0.656041 0.096228
O O18 0.000000 0.661186 0.000000
#
# Coordination Sequence:
#
# PCOD9405589 Si02
#       7
#     4   8   8   8   4   4   8
#     4   8  14  28  48  74 107 146 183 218 255 296
#     4  11  22  35  51  71 100 138 178 219 261 311
#     4  11  22  36  53  78 107 138 176 218 266 319
#     4  12  25  42  61  81 105 134 172 219 273 327
#     4  10  21  36  52  71  98 134 177 216 261 308
#     4  12  23  38  61  83 104 132 170 220 273 324
#     4   9  18  31  51  78 112 148 184 219 256 304
#
# _framework density 17.475923999999999
#
# number of rings (size 3 to 8) (size 9 to 14) (size 15 to 20)
#    0.000    1.455    1.818    4.636    0.000    3.636 
#    0.000    0.000    0.000    0.000    0.000    0.636 
#    0.000    0.000    0.000    0.000    0.000    0.000 
#
# Total GULP energy -245299.915356 kJ/mol
# GULP energy per Si atom -5574.998076 kJ/mol
# Density = 1.743615 g / cm^3
# Si number density = 17.475924 Si / 1000 Ang^3
#
#
#
# Elastic Constant Matrix: (Units=GPa)
#
#
# Indices 1 2 3 4 5 6 
#
# 1 77.3890 36.5546 39.1453 0.0000 0.0000 0.0000
# 2 36.5546 123.3234 37.2893 0.0000 0.0000 0.0000
# 3 39.1453 37.2893 107.2199 0.0000 0.0000 0.0000
# 4 0.0000 0.0000 0.0000 23.6653 0.0000 0.0000
# 5 0.0000 0.0000 0.0000 0.0000 26.7607 0.0000
# 6 0.0000 0.0000 0.0000 0.0000 0.0000 13.8450
#
#
#
# Elastic Compliance Matrix: (Units=1/GPa)
#
#
# Indices 1 2 3 4 5 6 
#
# 1 0.017144 -0.003564 -0.005020 0.000000 0.000000 0.000000
# 2 -0.003564 0.009803 -0.002108 0.000000 0.000000 0.000000
# 3 -0.005020 -0.002108 0.011892 0.000000 0.000000 0.000000
# 4 0.000000 0.000000 0.000000 0.042256 0.000000 0.000000
# 5 0.000000 0.000000 0.000000 0.000000 0.037368 0.000000
# 6 0.000000 0.000000 0.000000 0.000000 0.000000 0.072228
#
#
# Mechanical properties :
#
#
# Convention : Reuss Voigt Hill
#
# Bulk Modulus (GPa) = 57.28745 59.32343 58.30544
# Shear Modulus (GPa) = 22.94697 25.85040 24.39869
#
# Velocity S-wave (km/s) = 3.62755 3.85021 3.74054
# Velocity P-wave (km/s) = 7.09912 7.33383 7.21742
#
# Compressibility (1/GPa) = 0.01745583
#
# Stress axis : x y z
#
# Youngs Moduli (GPa) = 58.32847 102.01422 84.08702
#
# Poissons Ratio (x) = 0.36357 0.42210
# Poissons Ratio (y) = 0.20788 0.17726
# Poissons Ratio (z) = 0.29280 0.21505
#
# Static dielectric constant tensor:
#      x y z
#    x 1.617630 0.000000 0.000000 
#    y 0.000000 1.654810 0.000000 
#    z 0.000000 0.000000 1.596870 
# 
# From -- ./inp_files/20998.got.cif
#   From: 2010.05.17/outbox.cif.g08.bks.cpg/sg51_11_cif.got.tgz:20998.got - 2010.06.03 11:52:47.
