data_PCOD9405389
_publ_section_title
;
Structure prediction by ZEFSAII (Michael W. Deem and Ramdas Pophale) SiO2 
 PCOD9405389
Probable space group: P M M A
;
_chemical_formula_sum "Si O2"
_cell_formula_units_Z 56
_cell_length_a 14.858651
_cell_length_b 9.458985
_cell_length_c 18.931321
_cell_angle_alpha 90.000000
_cell_angle_beta 90.000000
_cell_angle_gamma 90.000000
_cell_volume 2660.754702
_symmetry_space_group_name_H-M "P M M A"
_symmetry_group_IT_number 51
_symmetry_cell_setting 'orthorhombic'
loop_
_space_group_symop_operation_xyz
x,y,z
1/2-x,-y,z
1/2+x,-y,-z
-x,y,-z
-x,-y,-z
1/2+x,y,-z
1/2-x,y,z
x,-y,z
loop_
_atom_site_type_symbol
_atom_site_label
_atom_site_fract_x
_atom_site_fract_y
_atom_site_fract_z
Si Si1 0.094833 0.669056 0.362896
Si Si2 0.609543 0.658421 0.791603
Si Si3 0.607217 0.662520 0.213929
Si Si4 0.857082 0.843310 0.927539
Si Si5 0.142804 0.340914 0.943137
Si Si6 0.889955 0.161776 0.504688
Si Si7 0.596105 0.169605 0.348679
O O1 0.079462 0.500000 0.369436
O O2 0.142959 0.691787 0.287538
O O3 0.138367 0.732099 0.433623
O O4 0.001144 0.754814 0.355964
O O5 0.639412 0.500000 0.811209
O O6 0.501248 0.656213 0.785070
O O7 0.632105 0.765636 0.853122
O O8 0.640089 0.500000 0.220553
O O9 0.630522 0.717393 0.135893
O O10 0.637905 0.758502 0.279307
O O11 0.750000 0.855476 0.939120
O O12 0.896748 0.000000 0.925615
O O13 0.893400 0.751782 0.992744
O O14 0.250000 0.352970 0.953666
O O15 0.103974 0.500000 0.943926
O O16 0.858411 0.194044 0.425030
O O17 0.000000 0.165773 0.500000
O O18 0.865738 0.000000 0.522463
O O19 0.586904 0.000000 0.340223
#
# Coordination Sequence:
#
# PCOD9405389 Si02
#       7
#     8   8   8   8   8   8   8
#     4   9  16  25  39  61  88 118 152 188 225 265
#     4   9  18  31  46  67  95 123 150 185 230 273
#     4   9  18  31  47  70  96 120 152 191 226 266
#     4  10  21  35  50  69  91 116 151 191 226 268
#     4   9  18  34  54  71  90 120 153 185 226 272
#     4   8  14  23  35  55  85 120 154 185 220 265
#     4   9  16  25  38  59  89 123 154 184 224 269
#
# _framework density 21.046659999999999
#
# number of rings (size 3 to 8) (size 9 to 14) (size 15 to 20)
#    0.000    3.000    0.000    3.000    0.000    8.000 
#    0.000    2.857    0.000    0.000    0.000    1.000 
#    0.000    3.429    0.000    0.000    0.000    0.000 
#
# Total GULP energy -312175.584788 kJ/mol
# GULP energy per Si atom -5574.564014 kJ/mol
# Density = 2.099876 g / cm^3
# Si number density = 21.046660 Si / 1000 Ang^3
#
#
#
# Elastic Constant Matrix: (Units=GPa)
#
#
# Indices 1 2 3 4 5 6 
#
# 1 48.7098 4.2461 -0.0808 0.0000 0.0000 0.0000
# 2 4.2461 127.8117 130.3638 0.0000 0.0000 0.0000
# 3 -0.0808 130.3638 216.6010 0.0000 0.0000 0.0000
# 4 0.0000 0.0000 0.0000 -93.6691 0.0000 0.0000
# 5 0.0000 0.0000 0.0000 0.0000 34.5281 0.0000
# 6 0.0000 0.0000 0.0000 0.0000 0.0000 0.6227
#
#
#
# Elastic Compliance Matrix: (Units=1/GPa)
#
#
# Indices 1 2 3 4 5 6 
#
# 1 0.020688 -0.001800 0.001091 0.000000 0.000000 0.000000
# 2 -0.001800 0.020420 -0.012291 0.000000 0.000000 0.000000
# 3 0.001091 -0.012291 0.012014 0.000000 0.000000 0.000000
# 4 0.000000 0.000000 0.000000 -0.010676 0.000000 0.000000
# 5 0.000000 0.000000 0.000000 0.000000 0.028962 0.000000
# 6 0.000000 0.000000 0.000000 0.000000 0.000000 1.605903
#
#
# Mechanical properties :
#
#
# Convention : Reuss Voigt Hill
#
# Bulk Modulus (GPa) = 36.86855 73.57563 55.22209
# Shear Modulus (GPa) = 2.91996 5.53591 4.22794
#
# Velocity S-wave (km/s) = 1.17915 1.62358 1.41887
# Velocity P-wave (km/s) = 4.40561 6.20878 5.38323
#
# Compressibility (1/GPa) = 0.02712339
#
# Stress axis : x y z
#
# Youngs Moduli (GPa) = 48.33604 48.97205 83.23337
#
# Poissons Ratio (x) = 0.08817 -0.09083
# Poissons Ratio (y) = 0.08702 1.02299
# Poissons Ratio (z) = -0.05275 0.60189
#
# Static dielectric constant tensor:
#      x y z
#    x 1.770270 0.000000 0.000000 
#    y 0.000000 1.737090 0.000000 
#    z 0.000000 0.000000 1.790080 
# 
# From -- ./inp_files/30433.got.cif
#   From: 2010.05.17/outbox.cif.g08.bks.cpg/sg51_16_cif.got.tgz:30433.got - 2010.06.03 11:52:47.
