data_PCOD9405021
_publ_section_title
;
Structure prediction by ZEFSAII (Michael W. Deem and Ramdas Pophale) SiO2 
 PCOD9405021
Probable space group: P M M A
;
_chemical_formula_sum "Si O2"
_cell_formula_units_Z 48
_cell_length_a 13.848977
_cell_length_b 15.898256
_cell_length_c 9.920201
_cell_angle_alpha 90.000000
_cell_angle_beta 90.000000
_cell_angle_gamma 90.000000
_cell_volume 2184.176105
_symmetry_space_group_name_H-M "P M M A"
_symmetry_group_IT_number 51
_symmetry_cell_setting 'orthorhombic'
loop_
_space_group_symop_operation_xyz
x,y,z
1/2-x,-y,z
1/2+x,-y,-z
-x,y,-z
-x,-y,-z
1/2+x,y,-z
1/2-x,y,z
x,-y,z
loop_
_atom_site_type_symbol
_atom_site_label
_atom_site_fract_x
_atom_site_fract_y
_atom_site_fract_z
Si Si1 0.592258 0.000000 0.908169
Si Si2 0.443403 0.761002 0.326914
Si Si3 0.439073 0.404073 0.207523
Si Si4 0.360331 0.349659 0.917683
Si Si5 0.361239 0.172735 0.588063
Si Si6 0.354654 0.814599 0.063467
Si Si7 0.957912 0.000000 0.349765
O O1 0.644821 0.085706 0.949257
O O2 0.546215 0.000000 0.757112
O O3 0.500000 0.000000 0.000000
O O4 0.409019 0.665003 0.317767
O O5 0.555563 0.763692 0.365493
O O6 0.382621 0.821209 0.426613
O O7 0.432674 0.794958 0.176189
O O8 0.426098 0.500000 0.247250
O O9 0.381103 0.385456 0.068650
O O10 0.551855 0.385875 0.169938
O O11 0.250000 0.368996 0.876618
O O12 0.368323 0.248038 0.938348
O O13 0.250000 0.191363 0.615577
O O14 0.392789 0.084009 0.653877
O O15 0.250000 0.789285 0.120176
O O16 0.000000 0.000000 0.500000
#
# Coordination Sequence:
#
# PCOD9405021 Si02
#       7
#     4   8   8   8   8   8   4
#     4  12  25  36  59  91 136 171 206 266 318 364
#     4  10  21  38  61  85 116 152 202 259 306 368
#     4  10  21  36  58  86 118 156 199 254 316 373
#     4   9  19  34  58  86 116 157 205 251 302 371
#     4  11  22  39  62  89 117 155 202 255 308 362
#     4  10  20  37  58  84 120 167 207 245 304 371
#     4  12  21  42  65  92 121 164 219 262 306 360
#
# _framework density 21.97625
#
# number of rings (size 3 to 8) (size 9 to 14) (size 15 to 20)
#    0.000    1.667    3.333    2.000    4.667    2.667 
#    0.000    7.500    0.000    1.000    0.000    0.000 
#    0.000    0.000    0.000    0.000    0.000    0.000 
#
# Total GULP energy -267812.690270 kJ/mol
# GULP energy per Si atom -5579.431047 kJ/mol
# Density = 2.192623 g / cm^3
# Si number density = 21.976250 Si / 1000 Ang^3
#
#
#
# Elastic Constant Matrix: (Units=GPa)
#
#
# Indices 1 2 3 4 5 6 
#
# 1 106.5254 -5.7845 -4.3804 0.0000 0.0000 0.0000
# 2 -5.7845 154.5163 -9.5240 0.0000 0.0000 0.0000
# 3 -4.3804 -9.5240 15.1125 0.0000 0.0000 0.0000
# 4 0.0000 0.0000 0.0000 21.9009 0.0000 0.0000
# 5 0.0000 0.0000 0.0000 0.0000 11.9537 0.0000
# 6 0.0000 0.0000 0.0000 0.0000 0.0000 12.4774
#
#
#
# Elastic Compliance Matrix: (Units=1/GPa)
#
#
# Indices 1 2 3 4 5 6 
#
# 1 0.009545 0.000549 0.003113 0.000000 0.000000 0.000000
# 2 0.000549 0.006765 0.004423 0.000000 0.000000 0.000000
# 3 0.003113 0.004423 0.069860 0.000000 0.000000 0.000000
# 4 0.000000 0.000000 0.000000 0.045660 0.000000 0.000000
# 5 0.000000 0.000000 0.000000 0.000000 0.083656 0.000000
# 6 0.000000 0.000000 0.000000 0.000000 0.000000 0.080145
#
#
# Mechanical properties :
#
#
# Convention : Reuss Voigt Hill
#
# Bulk Modulus (GPa) = 9.77145 26.30849 18.03997
# Shear Modulus (GPa) = 15.94514 28.98927 22.46720
#
# Velocity S-wave (km/s) = 2.69655 3.63591 3.20087
# Velocity P-wave (km/s) = 3.76181 5.44277 4.67840
#
# Compressibility (1/GPa) = 0.10233895
#
# Stress axis : x y z
#
# Youngs Moduli (GPa) = 104.76408 147.82053 14.31443
#
# Poissons Ratio (x) = -0.08118 -0.04456
# Poissons Ratio (y) = -0.05754 -0.06331
# Poissons Ratio (z) = -0.32611 -0.65374
#
# Static dielectric constant tensor:
#      x y z
#    x 1.777450 0.000000 0.000000 
#    y 0.000000 1.920120 0.000000 
#    z 0.000000 0.000000 1.852370 
# 
# From -- ./inp_files/16533.got.cif
#   From: 2010.05.17/outbox.cif.g08.bks.cpg/sg51_9_cif.got.tgz:16533.got - 2010.06.03 11:52:47.
