data_PCOD9405690
_publ_section_title
;
Structure prediction by ZEFSAII (Michael W. Deem and Ramdas Pophale) SiO2 
 PCOD9405690
Probable space group: P M M A
;
_chemical_formula_sum "Si O2"
_cell_formula_units_Z 48
_cell_length_a 9.422822
_cell_length_b 7.479244
_cell_length_c 31.880745
_cell_angle_alpha 90.000000
_cell_angle_beta 90.000000
_cell_angle_gamma 90.000000
_cell_volume 2246.814151
_symmetry_space_group_name_H-M "P M M A"
_symmetry_group_IT_number 51
_symmetry_cell_setting 'orthorhombic'
loop_
_space_group_symop_operation_xyz
x,y,z
1/2-x,-y,z
1/2+x,-y,-z
-x,y,-z
-x,-y,-z
1/2+x,y,-z
1/2-x,y,z
x,-y,z
loop_
_atom_site_type_symbol
_atom_site_label
_atom_site_fract_x
_atom_site_fract_y
_atom_site_fract_z
Si Si1 0.913636 0.281620 0.541155
Si Si2 0.411852 0.786035 0.202053
Si Si3 0.913079 0.718755 0.376610
Si Si4 0.911078 0.714064 0.960298
Si Si5 0.588030 0.285997 0.703523
Si Si6 0.589448 0.785278 0.123152
O O1 0.750000 0.223855 0.540405
O O2 0.912543 0.500000 0.541046
O O3 0.000000 0.225085 0.500000
O O4 0.994820 0.225781 0.583258
O O5 0.250000 0.716611 0.198474
O O6 0.462984 0.750765 0.249296
O O7 0.511919 0.717282 0.165106
O O8 0.404367 0.000000 0.197372
O O9 0.750000 0.776054 0.379668
O O10 0.912389 0.500000 0.376537
O O11 0.987714 0.779182 0.333659
O O12 0.750000 0.783655 0.958913
O O13 0.901777 0.500000 0.965163
O O14 0.994814 0.747695 0.917460
O O15 0.000000 0.783731 0.000000
O O16 0.750000 0.217005 0.699833
O O17 0.595363 0.500000 0.699104
O O18 0.750000 0.717107 0.118481
O O19 0.598010 0.000000 0.126816
#
# Coordination Sequence:
#
# PCOD9405690 Si02
#       6
#     8   8   8   8   8   8
#     4   9  15  22  33  50  75 109 147 184 224 272
#     4   9  18  33  51  70  95 127 161 199 243 288
#     4   9  16  25  37  55  81 112 146 185 229 276
#     4  10  21  37  57  80 106 136 169 205 246 291
#     4   9  17  29  45  65  89 118 153 192 234 281
#     4  10  21  36  54  77 104 134 168 205 246 292
#
# _framework density 21.363582999999998
#
# number of rings (size 3 to 8) (size 9 to 14) (size 15 to 20)
#    0.000    2.667    0.000    2.000    0.000    7.667 
#    0.000    1.667    0.000    0.000    0.000    0.000 
#    0.000    0.667    0.000    1.833    0.000    3.333 
#
# Total GULP energy -268125.110228 kJ/mol
# GULP energy per Si atom -5585.939796 kJ/mol
# Density = 2.131496 g / cm^3
# Si number density = 21.363583 Si / 1000 Ang^3
#
#
#
# Elastic Constant Matrix: (Units=GPa)
#
#
# Indices 1 2 3 4 5 6 
#
# 1 213.8875 6.7440 159.8017 0.0000 0.0000 0.0000
# 2 6.7440 60.9493 -1.3301 0.0000 0.0000 0.0000
# 3 159.8017 -1.3301 238.4642 0.0000 0.0000 0.0000
# 4 0.0000 0.0000 0.0000 25.4650 0.0000 0.0000
# 5 0.0000 0.0000 0.0000 0.0000 164.7902 0.0000
# 6 0.0000 0.0000 0.0000 0.0000 0.0000 7.9715
#
#
#
# Elastic Compliance Matrix: (Units=1/GPa)
#
#
# Indices 1 2 3 4 5 6 
#
# 1 0.009448 -0.001184 -0.006338 0.000000 0.000000 0.000000
# 2 -0.001184 0.016557 0.000886 0.000000 0.000000 0.000000
# 3 -0.006338 0.000886 0.008446 0.000000 0.000000 0.000000
# 4 0.000000 0.000000 0.000000 0.039270 0.000000 0.000000
# 5 0.000000 0.000000 0.000000 0.000000 0.006068 0.000000
# 6 0.000000 0.000000 0.000000 0.000000 0.000000 0.125447
#
#
# Mechanical properties :
#
#
# Convention : Reuss Voigt Hill
#
# Bulk Modulus (GPa) = 47.21688 93.74803 70.48245
# Shear Modulus (GPa) = 22.16627 62.85103 42.50865
#
# Velocity S-wave (km/s) = 3.22463 5.42988 4.46552
# Velocity P-wave (km/s) = 6.00116 9.12627 7.72343
#
# Compressibility (1/GPa) = 0.02117887
#
# Stress axis : x y z
#
# Youngs Moduli (GPa) = 105.84317 60.39605 118.40383
#
# Poissons Ratio (x) = 0.07149 0.75044
# Poissons Ratio (y) = 0.12529 -0.10486
# Poissons Ratio (z) = 0.67083 -0.05349
#
# Static dielectric constant tensor:
#      x y z
#    x 1.746930 0.000000 0.000000 
#    y 0.000000 1.820620 0.000000 
#    z 0.000000 0.000000 1.723490 
# 
# From -- ./inp_files/34514.got.cif
#   From: 2010.05.17/outbox.cif.g08.bks.cpg/sg51_18_cif.got.tgz:34514.got - 2010.06.03 11:52:47.
