data_PCOD9405100
_publ_section_title
;
Structure prediction by ZEFSAII (Michael W. Deem and Ramdas Pophale) SiO2 
 PCOD9405100
Probable space group: P M M A
;
_chemical_formula_sum "Si O2"
_cell_formula_units_Z 48
_cell_length_a 16.453378
_cell_length_b 8.396836
_cell_length_c 17.278520
_cell_angle_alpha 90.000000
_cell_angle_beta 90.000000
_cell_angle_gamma 90.000000
_cell_volume 2387.136681
_symmetry_space_group_name_H-M "P M M A"
_symmetry_group_IT_number 51
_symmetry_cell_setting 'orthorhombic'
loop_
_space_group_symop_operation_xyz
x,y,z
1/2-x,-y,z
1/2+x,-y,-z
-x,y,-z
-x,-y,-z
1/2+x,y,-z
1/2-x,y,z
x,-y,z
loop_
_atom_site_type_symbol
_atom_site_label
_atom_site_fract_x
_atom_site_fract_y
_atom_site_fract_z
Si Si1 0.937203 0.306752 0.154205
Si Si2 0.913104 0.692408 0.467313
Si Si3 0.250000 0.317163 0.280851
Si Si4 0.250000 0.185478 0.449810
Si Si5 0.381532 0.185721 0.165982
Si Si6 0.843231 0.311635 0.002367
Si Si7 0.657458 0.305928 0.306588
O O1 0.941762 0.500000 0.153364
O O2 0.902541 0.257359 0.070677
O O3 0.877757 0.258263 0.223758
O O4 0.025191 0.236746 0.170137
O O5 0.915864 0.500000 0.467900
O O6 0.832912 0.741124 0.515191
O O7 0.897429 0.745344 0.378885
O O8 0.000000 0.750050 0.500000
O O9 0.250000 0.500000 0.305846
O O10 0.250000 0.212663 0.357796
O O11 0.327218 0.281865 0.226677
O O12 0.250000 0.000000 0.468529
O O13 0.370727 0.000000 0.182031
O O14 0.353985 0.223323 0.078430
O O15 0.750000 0.296601 0.029189
O O16 0.858614 0.500000 0.987893
O O17 0.750000 0.251991 0.317804
O O18 0.658419 0.500000 0.307219
#
# Coordination Sequence:
#
# PCOD9405100 Si02
#       7
#     8   8   4   4   8   8   8
#     4  10  21  36  60  92 122 162 214 258 299 358
#     4  10  21  39  66  98 128 169 220 264 312 377
#     4  12  26  46  70  89 114 157 208 259 310 371
#     4  12  26  44  66  97 134 169 206 261 330 389
#     4  12  25  41  60  89 125 160 197 252 322 379
#     4  10  20  37  61  88 120 164 216 260 301 356
#     4   9  17  34  61  92 124 157 207 267 306 344
#
# _framework density 20.107773000000002
#
# number of rings (size 3 to 8) (size 9 to 14) (size 15 to 20)
#    0.000    1.500    1.667    4.000    2.333    5.000 
#    0.000    0.833    0.000    1.000    0.000    0.000 
#    0.000    0.000    0.000    0.000    0.000    0.000 
#
# Total GULP energy -268289.461714 kJ/mol
# GULP energy per Si atom -5589.363786 kJ/mol
# Density = 2.006201 g / cm^3
# Si number density = 20.107773 Si / 1000 Ang^3
#
#
#
# Elastic Constant Matrix: (Units=GPa)
#
#
# Indices 1 2 3 4 5 6 
#
# 1 93.7832 2.4503 15.1223 0.0000 0.0000 0.0000
# 2 2.4503 20.9805 -8.4168 0.0000 0.0000 0.0000
# 3 15.1223 -8.4168 80.1848 0.0000 0.0000 0.0000
# 4 0.0000 0.0000 0.0000 2.1110 0.0000 0.0000
# 5 0.0000 0.0000 0.0000 0.0000 56.9315 0.0000
# 6 0.0000 0.0000 0.0000 0.0000 0.0000 -63.8701
#
#
#
# Elastic Compliance Matrix: (Units=1/GPa)
#
#
# Indices 1 2 3 4 5 6 
#
# 1 0.011096 -0.002229 -0.002327 0.000000 0.000000 0.000000
# 2 -0.002229 0.050206 0.005690 0.000000 0.000000 0.000000
# 3 -0.002327 0.005690 0.013507 0.000000 0.000000 0.000000
# 4 0.000000 0.000000 0.000000 0.473704 0.000000 0.000000
# 5 0.000000 0.000000 0.000000 0.000000 0.017565 0.000000
# 6 0.000000 0.000000 0.000000 0.000000 0.000000 -0.015657
#
#
# Mechanical properties :
#
#
# Convention : Reuss Voigt Hill
#
# Bulk Modulus (GPa) = 12.97370 23.69554 18.33462
# Shear Modulus (GPa) = 8.71313 11.42067 10.06690
#
# Velocity S-wave (km/s) = 2.08390 2.38580 2.23994
# Velocity P-wave (km/s) = 3.50089 4.40446 3.97841
#
# Compressibility (1/GPa) = 0.07707904
#
# Stress axis : x y z
#
# Youngs Moduli (GPa) = 90.12003 19.91776 74.03397
#
# Poissons Ratio (x) = 0.04440 0.17225
# Poissons Ratio (y) = 0.20091 -0.42129
# Poissons Ratio (z) = 0.20968 -0.11334
#
# Static dielectric constant tensor:
#      x y z
#    x 1.696110 0.000000 0.000000 
#    y 0.000000 1.711630 0.000000 
#    z 0.000000 0.000000 1.687440 
# 
# From -- ./inp_files/29595.got.cif
#   From: 2010.05.17/outbox.cif.g08.bks.cpg/sg51_15_cif.got.tgz:29595.got - 2010.06.03 11:52:47.
