data_PCOD9405797
_publ_section_title
;
Structure prediction by ZEFSAII (Michael W. Deem and Ramdas Pophale) SiO2 
 PCOD9405797
Probable space group: P M M A
;
_chemical_formula_sum "Si O2"
_cell_formula_units_Z 64
_cell_length_a 15.793282
_cell_length_b 8.661239
_cell_length_c 24.618275
_cell_angle_alpha 90.000000
_cell_angle_beta 90.000000
_cell_angle_gamma 90.000000
_cell_volume 3367.518820
_symmetry_space_group_name_H-M "P M M A"
_symmetry_group_IT_number 51
_symmetry_cell_setting 'orthorhombic'
loop_
_space_group_symop_operation_xyz
x,y,z
1/2-x,-y,z
1/2+x,-y,-z
-x,y,-z
-x,-y,-z
1/2+x,y,-z
1/2-x,y,z
x,-y,z
loop_
_atom_site_type_symbol
_atom_site_label
_atom_site_fract_x
_atom_site_fract_y
_atom_site_fract_z
Si Si1 0.906006 0.816223 0.444041
Si Si2 0.156073 0.685198 0.667058
Si Si3 0.344780 0.815889 0.329573
Si Si4 0.846821 0.313531 0.057769
Si Si5 0.847333 0.184948 0.937628
Si Si6 0.998608 0.686737 0.865935
Si Si7 0.002003 0.686707 0.259230
Si Si8 0.596878 0.684240 0.557347
O O1 0.855468 0.765079 0.391044
O O2 0.869503 0.752731 0.500696
O O3 0.999708 0.742537 0.438213
O O4 0.913628 0.000000 0.446983
O O5 0.250000 0.716430 0.688873
O O6 0.148223 0.500000 0.659103
O O7 0.081537 0.734717 0.707424
O O8 0.250000 0.781508 0.309610
O O9 0.416262 0.749767 0.290248
O O10 0.356556 0.744194 0.389293
O O11 0.354677 0.000000 0.333895
O O12 0.750000 0.269922 0.072405
O O13 0.849624 0.500000 0.053975
O O14 0.917598 0.264236 0.100880
O O15 0.865638 0.245593 0.998367
O O16 0.750000 0.230503 0.924632
O O17 0.915614 0.252289 0.896347
O O18 0.851901 0.000000 0.937371
O O19 0.996734 0.500000 0.866736
O O20 0.001154 0.736935 0.803308
O O21 0.004889 0.500000 0.260255
O O22 0.598101 0.500000 0.555255
#
# Coordination Sequence:
#
# PCOD9405797 Si02
#       8
#     8   8   8   8   8   8   8   8
#     4  11  21  35  58  87 119 152 187 231 287 345
#     4  10  21  38  60  85 114 151 193 236 285 342
#     4  11  24  41  61  85 114 150 191 238 292 346
#     4   9  18  34  57  85 118 152 186 229 281 336
#     4  10  21  36  55  82 116 152 190 233 284 338
#     4  10  21  36  57  85 114 149 193 236 282 335
#     4  10  22  40  60  83 114 151 192 240 286 335
#     4  11  21  36  60  87 116 149 187 233 289 347
#
# _framework density 19.005089999999999
#
# number of rings (size 3 to 8) (size 9 to 14) (size 15 to 20)
#    0.000    1.750    1.250    4.125    0.000    6.000 
#    0.000    5.000    0.000    0.000    0.000    3.500 
#    0.000    0.000    0.000    0.000    0.000    0.000 
#
# Total GULP energy -357600.663427 kJ/mol
# GULP energy per Si atom -5587.510366 kJ/mol
# Density = 1.896183 g / cm^3
# Si number density = 19.005090 Si / 1000 Ang^3
#
#
#
# Elastic Constant Matrix: (Units=GPa)
#
#
# Indices 1 2 3 4 5 6 
#
# 1 138.1400 42.5469 104.4933 0.0000 0.0000 0.0000
# 2 42.5469 38.2714 40.7784 0.0000 0.0000 0.0000
# 3 104.4933 40.7784 163.8793 0.0000 0.0000 0.0000
# 4 0.0000 0.0000 0.0000 -26.9913 0.0000 0.0000
# 5 0.0000 0.0000 0.0000 0.0000 -10.6511 0.0000
# 6 0.0000 0.0000 0.0000 0.0000 0.0000 -14.5916
#
#
#
# Elastic Compliance Matrix: (Units=1/GPa)
#
#
# Indices 1 2 3 4 5 6 
#
# 1 0.016187 -0.009523 -0.007952 0.000000 0.000000 0.000000
# 2 -0.009523 0.041159 -0.004170 0.000000 0.000000 0.000000
# 3 -0.007952 -0.004170 0.012210 0.000000 0.000000 0.000000
# 4 0.000000 0.000000 0.000000 -0.037049 0.000000 0.000000
# 5 0.000000 0.000000 0.000000 0.000000 -0.093887 0.000000
# 6 0.000000 0.000000 0.000000 0.000000 0.000000 -0.068532
#
#
# Mechanical properties :
#
#
# Convention : Reuss Voigt Hill
#
# Bulk Modulus (GPa) = 38.07026 79.54754 58.80890
# Shear Modulus (GPa) = -64.20953 -0.28200 -32.24576
#
# Velocity S-wave (km/s) = -5.81883 -0.38562 -4.12356
# Velocity P-wave (km/s) = 5.00699 6.46131 2.88778
#
# Compressibility (1/GPa) = 0.02626722
#
# Stress axis : x y z
#
# Youngs Moduli (GPa) = 61.77882 24.29629 81.90238
#
# Poissons Ratio (x) = 0.23137 0.65125
# Poissons Ratio (y) = 0.58830 0.34150
# Poissons Ratio (z) = 0.49123 0.10131
#
# Static dielectric constant tensor:
#      x y z
#    x 1.672240 0.000000 0.000000 
#    y 0.000000 1.637730 0.000000 
#    z 0.000000 0.000000 1.631880 
# 
# From -- ./inp_files/35714.got.cif
#   From: 2010.05.17/outbox.cif.g08.bks.cpg/sg51_18_cif.got.tgz:35714.got - 2010.06.03 11:52:47.
