data_PCOD9405646
_publ_section_title
;
Structure prediction by ZEFSAII (Michael W. Deem and Ramdas Pophale) SiO2 
 PCOD9405646
Probable space group: P M M A
;
_chemical_formula_sum "Si O2"
_cell_formula_units_Z 64
_cell_length_a 22.398562
_cell_length_b 7.613443
_cell_length_c 15.716471
_cell_angle_alpha 90.000000
_cell_angle_beta 90.000000
_cell_angle_gamma 90.000000
_cell_volume 2680.132551
_symmetry_space_group_name_H-M "P M M A"
_symmetry_group_IT_number 51
_symmetry_cell_setting 'orthorhombic'
loop_
_space_group_symop_operation_xyz
x,y,z
1/2-x,-y,z
1/2+x,-y,-z
-x,y,-z
-x,-y,-z
1/2+x,y,-z
1/2-x,y,z
x,-y,z
loop_
_atom_site_type_symbol
_atom_site_label
_atom_site_fract_x
_atom_site_fract_y
_atom_site_fract_z
Si Si1 0.319033 0.298083 0.238922
Si Si2 0.005877 0.299064 0.594650
Si Si3 0.642866 0.784079 0.392525
Si Si4 0.679003 0.802748 0.576522
Si Si5 0.588364 0.196223 0.896333
Si Si6 0.984486 0.706078 0.224077
Si Si7 0.315863 0.783879 0.973797
Si Si8 0.152917 0.203174 0.789358
O O1 0.250000 0.237611 0.233864
O O2 0.321353 0.500000 0.210986
O O3 0.339353 0.291691 0.337347
O O4 0.362882 0.192804 0.179250
O O5 0.982842 0.500000 0.587194
O O6 0.076454 0.289425 0.608920
O O7 0.000000 0.216775 0.500000
O O8 0.985665 0.225070 0.686864
O O9 0.667074 0.726489 0.483703
O O10 0.671617 0.726346 0.303322
O O11 0.642617 0.000000 0.391758
O O12 0.750000 0.815000 0.581863
O O13 0.653119 0.000000 0.578964
O O14 0.529621 0.277151 0.854428
O O15 0.626962 0.278546 0.972631
O O16 0.571274 0.000000 0.922542
O O17 0.973908 0.500000 0.238533
O O18 0.919682 0.789490 0.207715
O O19 0.250000 0.734179 0.007483
O O20 0.317922 0.000000 0.976034
O O21 0.322276 0.721721 0.876683
O O22 0.171479 0.000000 0.789805
#
# Coordination Sequence:
#
# PCOD9405646 Si02
#       8
#     8   8   8   8   8   8   8   8
#     4  10  21  36  53  75 106 145 186 228 276 332
#     4   9  19  34  51  72 100 140 182 222 265 314
#     4   9  18  31  50  78 106 136 173 220 268 310
#     4   9  18  32  49  74 108 143 179 218 267 324
#     4  11  22  36  57  83 112 144 184 234 283 333
#     4  10  21  37  55  80 114 149 188 228 277 335
#     4   9  19  36  60  88 112 141 184 230 279 335
#     4   9  18  36  59  82 112 145 184 230 276 329
#
# _framework density 23.879417
#
# number of rings (size 3 to 8) (size 9 to 14) (size 15 to 20)
#    0.000    2.500    0.000    1.500    1.750    3.500 
#    0.000    6.250    0.000    1.875    0.000    3.500 
#    0.000    0.000    0.000    0.000    0.000    0.000 
#
# Total GULP energy -356902.920504 kJ/mol
# GULP energy per Si atom -5576.608133 kJ/mol
# Density = 2.382507 g / cm^3
# Si number density = 23.879417 Si / 1000 Ang^3
#
#
#
# Elastic Constant Matrix: (Units=GPa)
#
#
# Indices 1 2 3 4 5 6 
#
# 1 48.1675 -5.7910 2.2158 0.0000 0.0000 0.0000
# 2 -5.7910 51.4101 -4.0475 0.0000 0.0000 0.0000
# 3 2.2158 -4.0475 105.1655 0.0000 0.0000 0.0000
# 4 0.0000 0.0000 0.0000 -1.0377 0.0000 0.0000
# 5 0.0000 0.0000 0.0000 0.0000 39.5129 0.0000
# 6 0.0000 0.0000 0.0000 0.0000 0.0000 38.5226
#
#
#
# Elastic Compliance Matrix: (Units=1/GPa)
#
#
# Indices 1 2 3 4 5 6 
#
# 1 0.021059 0.002344 -0.000353 0.000000 0.000000 0.000000
# 2 0.002344 0.019772 0.000712 0.000000 0.000000 0.000000
# 3 -0.000353 0.000712 0.009544 0.000000 0.000000 0.000000
# 4 0.000000 0.000000 0.000000 -0.963623 0.000000 0.000000
# 5 0.000000 0.000000 0.000000 0.000000 0.025308 0.000000
# 6 0.000000 0.000000 0.000000 0.000000 0.000000 0.025959
#
#
# Mechanical properties :
#
#
# Convention : Reuss Voigt Hill
#
# Bulk Modulus (GPa) = 17.92790 21.05530 19.49160
# Shear Modulus (GPa) = -5.89071 29.55728 11.83329
#
# Velocity S-wave (km/s) = -1.57233 3.52202 2.22850
# Velocity P-wave (km/s) = 2.05614 5.03745 3.84731
#
# Compressibility (1/GPa) = 0.05577897
#
# Stress axis : x y z
#
# Youngs Moduli (GPa) = 47.48566 50.57778 104.78172
#
# Poissons Ratio (x) = -0.11857 0.03704
# Poissons Ratio (y) = -0.11132 -0.07456
# Poissons Ratio (z) = 0.01678 -0.03599
#
# Static dielectric constant tensor:
#      x y z
#    x 1.871070 0.000000 0.000000 
#    y 0.000000 1.985700 0.000000 
#    z 0.000000 0.000000 2.002820 
# 
# From -- ./inp_files/26191.got.cif
#   From: 2010.05.17/outbox.cif.g08.bks.cpg/sg51_14_cif.got.tgz:26191.got - 2010.06.03 11:52:47.
