data_PCOD9405365
_publ_section_title
;
Structure prediction by ZEFSAII (Michael W. Deem and Ramdas Pophale) SiO2 
 PCOD9405365
Probable space group: P M M A
;
_chemical_formula_sum "Si O2"
_cell_formula_units_Z 44
_cell_length_a 22.576177
_cell_length_b 18.917995
_cell_length_c 5.568139
_cell_angle_alpha 90.000000
_cell_angle_beta 90.000000
_cell_angle_gamma 90.000000
_cell_volume 2378.129914
_symmetry_space_group_name_H-M "P M M A"
_symmetry_group_IT_number 51
_symmetry_cell_setting 'orthorhombic'
loop_
_space_group_symop_operation_xyz
x,y,z
1/2-x,-y,z
1/2+x,-y,-z
-x,y,-z
-x,-y,-z
1/2+x,y,-z
1/2-x,y,z
x,-y,z
loop_
_atom_site_type_symbol
_atom_site_label
_atom_site_fract_x
_atom_site_fract_y
_atom_site_fract_z
Si Si1 0.386123 0.693474 0.254124
Si Si2 0.316644 0.423108 0.517269
Si Si3 0.075383 0.421864 0.883444
Si Si4 0.678365 0.080936 0.341885
Si Si5 0.000000 0.650854 0.500000
Si Si6 0.178060 0.160553 0.156752
O O1 0.334418 0.643895 0.360761
O O2 0.442068 0.697179 0.436239
O O3 0.357736 0.766391 0.173420
O O4 0.413620 0.645234 0.047773
O O5 0.250000 0.416095 0.610006
O O6 0.320161 0.500000 0.388177
O O7 0.365663 0.425421 0.721705
O O8 0.068354 0.500000 0.993468
O O9 0.021101 0.401444 0.711297
O O10 0.750000 0.078820 0.338760
O O11 0.663323 0.117895 0.596688
O O12 0.656754 0.000000 0.337306
O O13 0.662140 0.121104 0.093778
O O14 0.250000 0.171435 0.155375
#
# Coordination Sequence:
#
# PCOD9405365 Si02
#       6
#     8   8   8   8   4   8
#     4  11  22  35  53  78 109 144 189 239 294 342
#     4   9  19  34  51  74 107 146 184 225 279 345
#     4  10  21  37  56  76 103 143 196 248 293 338
#     4   9  18  35  58  87 122 156 188 223 273 343
#     4  10  23  38  54  74 103 142 198 248 301 338
#     4  10  21  34  57  90 123 155 186 229 285 348
#
# _framework density 18.501930999999999
#
# number of rings (size 3 to 8) (size 9 to 14) (size 15 to 20)
#    0.000    2.182    0.000    2.455    5.091    6.545 
#    0.000    1.818    0.000    0.000    0.000    3.818 
#    0.000    0.000    0.000    0.000    0.000    0.000 
#
# Total GULP energy -245142.851791 kJ/mol
# GULP energy per Si atom -5571.428450 kJ/mol
# Density = 1.845982 g / cm^3
# Si number density = 18.501931 Si / 1000 Ang^3
#
#
#
# Elastic Constant Matrix: (Units=GPa)
#
#
# Indices 1 2 3 4 5 6 
#
# 1 82.8023 43.4821 19.6790 0.0000 0.0000 0.0000
# 2 43.4821 151.0605 72.5654 0.0000 0.0000 0.0000
# 3 19.6790 72.5654 98.5344 0.0000 0.0000 0.0000
# 4 0.0000 0.0000 0.0000 30.3039 0.0000 0.0000
# 5 0.0000 0.0000 0.0000 0.0000 11.1740 0.0000
# 6 0.0000 0.0000 0.0000 0.0000 0.0000 19.2108
#
#
#
# Elastic Compliance Matrix: (Units=1/GPa)
#
#
# Indices 1 2 3 4 5 6 
#
# 1 0.014232 -0.004226 0.000270 0.000000 0.000000 0.000000
# 2 -0.004226 0.011499 -0.007624 0.000000 0.000000 0.000000
# 3 0.000270 -0.007624 0.015710 0.000000 0.000000 0.000000
# 4 0.000000 0.000000 0.000000 0.032999 0.000000 0.000000
# 5 0.000000 0.000000 0.000000 0.000000 0.089493 0.000000
# 6 0.000000 0.000000 0.000000 0.000000 0.000000 0.052054
#
#
# Mechanical properties :
#
#
# Convention : Reuss Voigt Hill
#
# Bulk Modulus (GPa) = 54.70565 67.09445 60.90005
# Shear Modulus (GPa) = 20.38805 25.24911 22.81858
#
# Velocity S-wave (km/s) = 3.32315 3.69816 3.51566
# Velocity P-wave (km/s) = 6.66004 7.38765 7.03326
#
# Compressibility (1/GPa) = 0.01827965
#
# Stress axis : x y z
#
# Youngs Moduli (GPa) = 70.26325 86.96479 63.65522
#
# Poissons Ratio (x) = 0.36755 -0.01720
# Poissons Ratio (y) = 0.29696 0.48532
# Poissons Ratio (z) = -0.01898 0.66304
#
# Static dielectric constant tensor:
#      x y z
#    x 1.628290 0.000000 0.000000 
#    y 0.000000 1.625890 0.000000 
#    z 0.000000 0.000000 1.727660 
# 
# From -- ./inp_files/3077.got.cif
#   From: 2010.05.17/outbox.cif.g08.bks.cpg/sg51_2_cif.got.tgz:3077.got - 2010.06.03 11:52:47.
