data_PCOD9405263
_publ_section_title
;
Structure prediction by ZEFSAII (Michael W. Deem and Ramdas Pophale) SiO2 
 PCOD9405263
Probable space group: P M M A
;
_chemical_formula_sum "Si O2"
_cell_formula_units_Z 40
_cell_length_a 18.535295
_cell_length_b 8.975707
_cell_length_c 12.671951
_cell_angle_alpha 90.000000
_cell_angle_beta 90.000000
_cell_angle_gamma 90.000000
_cell_volume 2108.199250
_symmetry_space_group_name_H-M "P M M A"
_symmetry_group_IT_number 51
_symmetry_cell_setting 'orthorhombic'
loop_
_space_group_symop_operation_xyz
x,y,z
1/2-x,-y,z
1/2+x,-y,-z
-x,y,-z
-x,-y,-z
1/2+x,y,-z
1/2-x,y,z
x,-y,z
loop_
_atom_site_type_symbol
_atom_site_label
_atom_site_fract_x
_atom_site_fract_y
_atom_site_fract_z
Si Si1 0.665271 0.322661 0.351636
Si Si2 0.666791 0.322112 0.971557
Si Si3 0.413383 0.178479 0.214359
Si Si4 0.577948 0.821614 0.159789
Si Si5 0.581517 0.821770 0.538310
O O1 0.750000 0.290422 0.339540
O O2 0.654959 0.500000 0.342250
O O3 0.620049 0.240651 0.261121
O O4 0.636187 0.265143 0.463561
O O5 0.750000 0.283237 0.995111
O O6 0.659735 0.500000 0.976977
O O7 0.644053 0.263327 0.856872
O O8 0.614174 0.247480 0.056583
O O9 0.493558 0.215689 0.172267
O O10 0.410224 0.214416 0.338405
O O11 0.403702 0.000000 0.203316
O O12 0.583802 0.000000 0.156612
O O13 0.500000 0.788639 0.500000
O O14 0.592005 0.000000 0.525403
#
# Coordination Sequence:
#
# PCOD9405263 Si02
#       5
#     8   8   8   8   8
#     4  11  24  39  58  90 128 162 200 247 301 361
#     4  11  25  42  59  86 125 162 199 247 302 361
#     4  10  22  40  64  91 119 154 202 252 298 357
#     4  11  22  40  65  91 119 155 203 255 302 356
#     4  10  20  40  64  88 120 157 200 250 298 351
#
# _framework density 18.973537
#
# number of rings (size 3 to 8) (size 9 to 14) (size 15 to 20)
#    0.000    1.400    2.000    3.000    0.000   11.600 
#    0.000    4.000    0.000    0.000    0.000    0.000 
#    0.000    0.000    0.000    0.000    0.000    0.000 
#
# Total GULP energy -223687.424435 kJ/mol
# GULP energy per Si atom -5592.185611 kJ/mol
# Density = 1.893035 g / cm^3
# Si number density = 18.973537 Si / 1000 Ang^3
#
#
#
# Elastic Constant Matrix: (Units=GPa)
#
#
# Indices 1 2 3 4 5 6 
#
# 1 32.5811 17.7043 -0.2805 0.0000 0.0000 0.0000
# 2 17.7043 23.9623 13.1096 0.0000 0.0000 0.0000
# 3 -0.2805 13.1096 80.2279 0.0000 0.0000 0.0000
# 4 0.0000 0.0000 0.0000 -687.8422 0.0000 0.0000
# 5 0.0000 0.0000 0.0000 0.0000 -12.3323 0.0000
# 6 0.0000 0.0000 0.0000 0.0000 0.0000 33.2232
#
#
#
# Elastic Compliance Matrix: (Units=1/GPa)
#
#
# Indices 1 2 3 4 5 6 
#
# 1 0.055124 -0.044842 0.007520 0.000000 0.000000 0.000000
# 2 -0.044842 0.082307 -0.013606 0.000000 0.000000 0.000000
# 3 0.007520 -0.013606 0.014714 0.000000 0.000000 0.000000
# 4 0.000000 0.000000 0.000000 -0.001454 0.000000 0.000000
# 5 0.000000 0.000000 0.000000 0.000000 -0.081088 0.000000
# 6 0.000000 0.000000 0.000000 0.000000 0.000000 0.030099
#
#
# Mechanical properties :
#
#
# Convention : Reuss Voigt Hill
#
# Bulk Modulus (GPa) = 19.88499 21.98201 20.93350
# Shear Modulus (GPa) = 22.90201 -126.30773 -51.70286
#
# Velocity S-wave (km/s) = 3.47803 -8.16792 -5.22581
# Velocity P-wave (km/s) = 5.16063 8.79446 5.03540
#
# Compressibility (1/GPa) = 0.05028918
#
# Stress axis : x y z
#
# Youngs Moduli (GPa) = 18.14094 12.14966 67.96212
#
# Poissons Ratio (x) = 0.54481 -0.51108
# Poissons Ratio (y) = 0.81347 0.92470
# Poissons Ratio (z) = -0.13642 0.16531
#
# Static dielectric constant tensor:
#      x y z
#    x 1.637110 0.000000 0.000000 
#    y 0.000000 1.630400 0.000000 
#    z 0.000000 0.000000 1.645870 
# 
# From -- ./inp_files/17060.got.cif
#   From: 2010.05.17/outbox.cif.g08.bks.cpg/sg51_9_cif.got.tgz:17060.got - 2010.06.03 11:52:47.
