data_PCOD9405597
_publ_section_title
;
Structure prediction by ZEFSAII (Michael W. Deem and Ramdas Pophale) SiO2 
 PCOD9405597
Probable space group: P M M A
;
_chemical_formula_sum "Si O2"
_cell_formula_units_Z 44
_cell_length_a 8.433413
_cell_length_b 29.348286
_cell_length_c 9.376777
_cell_angle_alpha 90.000000
_cell_angle_beta 90.000000
_cell_angle_gamma 90.000000
_cell_volume 2320.810600
_symmetry_space_group_name_H-M "P M M A"
_symmetry_group_IT_number 51
_symmetry_cell_setting 'orthorhombic'
loop_
_space_group_symop_operation_xyz
x,y,z
1/2-x,-y,z
1/2+x,-y,-z
-x,y,-z
-x,-y,-z
1/2+x,y,-z
1/2-x,y,z
x,-y,z
loop_
_atom_site_type_symbol
_atom_site_label
_atom_site_fract_x
_atom_site_fract_y
_atom_site_fract_z
Si Si1 0.441788 0.187520 0.338521
Si Si2 0.939748 0.364327 0.660410
Si Si3 0.941983 0.099452 0.836920
Si Si4 0.558809 0.000000 0.836865
Si Si5 0.939955 0.447938 0.158918
Si Si6 0.558355 0.723671 0.838426
O O1 0.500000 0.189784 0.500000
O O2 0.250000 0.187346 0.339251
O O3 0.496536 0.141422 0.259571
O O4 0.494155 0.231651 0.248631
O O5 0.750000 0.363755 0.659435
O O6 0.995920 0.321943 0.757202
O O7 0.000000 0.359378 0.500000
O O8 0.996624 0.411336 0.730115
O O9 0.750000 0.100158 0.839907
O O10 0.993350 0.049406 0.779490
O O11 0.000000 0.104466 0.000000
O O12 0.750000 0.000000 0.834462
O O13 0.500000 0.000000 0.000000
O O14 0.750000 0.446789 0.158808
O O15 0.991453 0.500000 0.190300
O O16 0.000000 0.436520 0.000000
O O17 0.750000 0.723543 0.839695
O O18 0.500000 0.724759 0.000000
#
# Coordination Sequence:
#
# PCOD9405597 Si02
#       6
#     8   8   8   4   8   8
#     4  10  21  36  52  74 104 137 172 211 258 310
#     4  11  23  38  57  82 112 145 180 220 267 318
#     4   9  17  30  50  74 100 131 170 213 257 306
#     4   8  14  26  45  70  98 128 164 210 257 300
#     4  10  21  38  60  85 113 146 184 225 267 313
#     4  10  22  38  57  81 106 135 174 217 262 313
#
# _framework density 18.958893
#
# number of rings (size 3 to 8) (size 9 to 14) (size 15 to 20)
#    0.000    2.182    0.000    2.727    0.000    5.818 
#    0.000    0.455    0.000    0.000    0.000    0.000 
#    0.000    0.000    0.000    0.000    0.000    0.000 
#
# Total GULP energy -245606.656510 kJ/mol
# GULP energy per Si atom -5581.969466 kJ/mol
# Density = 1.891574 g / cm^3
# Si number density = 18.958893 Si / 1000 Ang^3
#
#
#
# Elastic Constant Matrix: (Units=GPa)
#
#
# Indices 1 2 3 4 5 6 
#
# 1 16.2203 25.2357 18.7455 0.0000 0.0000 0.0000
# 2 25.2357 162.8428 110.0217 0.0000 0.0000 0.0000
# 3 18.7455 110.0217 157.3385 0.0000 0.0000 0.0000
# 4 0.0000 0.0000 0.0000 -2.0796 0.0000 0.0000
# 5 0.0000 0.0000 0.0000 0.0000 35.0399 0.0000
# 6 0.0000 0.0000 0.0000 0.0000 0.0000 2.1553
#
#
#
# Elastic Compliance Matrix: (Units=1/GPa)
#
#
# Indices 1 2 3 4 5 6 
#
# 1 0.081467 -0.011501 -0.001664 0.000000 0.000000 0.000000
# 2 -0.011501 0.013264 -0.007905 0.000000 0.000000 0.000000
# 3 -0.001664 -0.007905 0.012082 0.000000 0.000000 0.000000
# 4 0.000000 0.000000 0.000000 -0.480851 0.000000 0.000000
# 5 0.000000 0.000000 0.000000 0.000000 0.028539 0.000000
# 6 0.000000 0.000000 0.000000 0.000000 0.000000 0.463966
#
#
# Mechanical properties :
#
#
# Convention : Reuss Voigt Hill
#
# Bulk Modulus (GPa) = 15.46233 71.60082 43.53157
# Shear Modulus (GPa) = 27.44798 19.18302 23.31550
#
# Velocity S-wave (km/s) = 3.80908 3.18437 3.51064
# Velocity P-wave (km/s) = 5.24584 7.16719 6.28042
#
# Compressibility (1/GPa) = 0.06467332
#
# Stress axis : x y z
#
# Youngs Moduli (GPa) = 12.27494 75.39277 82.77078
#
# Poissons Ratio (x) = 0.86706 0.13774
# Poissons Ratio (y) = 0.14117 0.65429
# Poissons Ratio (z) = 0.02043 0.59597
#
# Static dielectric constant tensor:
#      x y z
#    x 1.651120 0.000000 0.000000 
#    y 0.000000 1.690300 0.000000 
#    z 0.000000 0.000000 1.595410 
# 
# From -- ./inp_files/5719.got.cif
#   From: 2010.05.17/outbox.cif.g08.bks.cpg/sg51_3_cif.got.tgz:5719.got - 2010.06.03 11:52:47.
