data_PCOD9405598
_publ_section_title
;
Structure prediction by ZEFSAII (Michael W. Deem and Ramdas Pophale) SiO2 
 PCOD9405598
Probable space group: P M M A
;
_chemical_formula_sum "Si O2"
_cell_formula_units_Z 24
_cell_length_a 14.497761
_cell_length_b 8.205773
_cell_length_c 9.095776
_cell_angle_alpha 90.000000
_cell_angle_beta 90.000000
_cell_angle_gamma 90.000000
_cell_volume 1082.082046
_symmetry_space_group_name_H-M "P M M A"
_symmetry_group_IT_number 51
_symmetry_cell_setting 'orthorhombic'
loop_
_space_group_symop_operation_xyz
x,y,z
1/2-x,-y,z
1/2+x,-y,-z
-x,y,-z
-x,-y,-z
1/2+x,y,-z
1/2-x,y,z
x,-y,z
loop_
_atom_site_type_symbol
_atom_site_label
_atom_site_fract_x
_atom_site_fract_y
_atom_site_fract_z
Si Si1 0.602743 0.000000 0.931348
Si Si2 0.361703 0.316725 0.593355
Si Si3 0.602509 0.322136 0.066872
Si Si4 0.362032 0.000000 0.406687
O O1 0.599284 0.000000 0.756901
O O2 0.500000 0.000000 0.000000
O O3 0.647015 0.833985 0.990688
O O4 0.250000 0.311859 0.605686
O O5 0.386150 0.500000 0.539672
O O6 0.400059 0.296789 0.758002
O O7 0.389095 0.165047 0.492159
O O8 0.645525 0.500000 0.041212
O O9 0.500000 0.331182 0.000000
O O10 0.250000 0.000000 0.396343
#
# Coordination Sequence:
#
# PCOD9405598 Si02
#       4
#     4   8   8   4
#     4  10  21  36  52  75 109 143 176 216 261 314
#     4   9  18  34  56  80 106 138 176 219 266 313
#     4   9  18  34  54  77 107 141 177 215 258 312
#     4  10  21  36  56  81 107 137 174 218 266 314
#
# _framework density 22.179465
#
# number of rings (size 3 to 8) (size 9 to 14) (size 15 to 20)
#    0.000    2.667    0.000    1.000    0.000    2.667 
#    0.000   13.333    0.000   18.000    0.000    0.000 
#    0.000    0.000    0.000    0.000    0.000    0.000 
#
# Total GULP energy -134022.282571 kJ/mol
# GULP energy per Si atom -5584.261774 kJ/mol
# Density = 2.212898 g / cm^3
# Si number density = 22.179465 Si / 1000 Ang^3
#
#
#
# Elastic Constant Matrix: (Units=GPa)
#
#
# Indices 1 2 3 4 5 6 
#
# 1 98.6737 21.5521 34.1224 0.0000 0.0000 0.0000
# 2 21.5521 280.4115 145.1817 0.0000 0.0000 0.0000
# 3 34.1224 145.1817 165.2342 0.0000 0.0000 0.0000
# 4 0.0000 0.0000 0.0000 110.0728 0.0000 0.0000
# 5 0.0000 0.0000 0.0000 0.0000 43.3469 0.0000
# 6 0.0000 0.0000 0.0000 0.0000 0.0000 -19.8889
#
#
#
# Elastic Compliance Matrix: (Units=1/GPa)
#
#
# Indices 1 2 3 4 5 6 
#
# 1 0.010969 0.000605 -0.002797 0.000000 0.000000 0.000000
# 2 0.000605 0.006576 -0.005903 0.000000 0.000000 0.000000
# 3 -0.002797 -0.005903 0.011816 0.000000 0.000000 0.000000
# 4 0.000000 0.000000 0.000000 0.009085 0.000000 0.000000
# 5 0.000000 0.000000 0.000000 0.000000 0.023070 0.000000
# 6 0.000000 0.000000 0.000000 0.000000 0.000000 -0.050279
#
#
# Mechanical properties :
#
#
# Convention : Reuss Voigt Hill
#
# Bulk Modulus (GPa) = 75.91841 105.11466 90.51654
# Shear Modulus (GPa) = 157.15260 49.60370 103.37815
#
# Velocity S-wave (km/s) = 8.42667 4.73426 6.83455
# Velocity P-wave (km/s) = 11.35702 8.79659 10.15780
#
# Compressibility (1/GPa) = 0.01317204
#
# Stress axis : x y z
#
# Youngs Moduli (GPa) = 91.16224 152.07328 84.63154
#
# Poissons Ratio (x) = -0.09200 0.23670
# Poissons Ratio (y) = -0.05515 0.49955
# Poissons Ratio (z) = 0.25496 0.89764
#
# Static dielectric constant tensor:
#      x y z
#    x 1.763950 0.000000 0.000000 
#    y 0.000000 1.918000 0.000000 
#    z 0.000000 0.000000 1.728060 
# 
# From -- ./inp_files/2769.got.cif
#   From: 2010.05.17/outbox.cif.g08.bks.cpg/sg51_2_cif.got.tgz:2769.got - 2010.06.03 11:52:47.
