data_PCOD9405557
_publ_section_title
;
Structure prediction by ZEFSAII (Michael W. Deem and Ramdas Pophale) SiO2 
 PCOD9405557
Probable space group: P M M A
;
_chemical_formula_sum "Si O2"
_cell_formula_units_Z 48
_cell_length_a 14.988363
_cell_length_b 8.472111
_cell_length_c 20.329612
_cell_angle_alpha 90.000000
_cell_angle_beta 90.000000
_cell_angle_gamma 90.000000
_cell_volume 2581.516646
_symmetry_space_group_name_H-M "P M M A"
_symmetry_group_IT_number 51
_symmetry_cell_setting 'orthorhombic'
loop_
_space_group_symop_operation_xyz
x,y,z
1/2-x,-y,z
1/2+x,-y,-z
-x,y,-z
-x,-y,-z
1/2+x,y,-z
1/2-x,y,z
x,-y,z
loop_
_atom_site_type_symbol
_atom_site_label
_atom_site_fract_x
_atom_site_fract_y
_atom_site_fract_z
Si Si1 0.487706 0.190472 0.830454
Si Si2 0.147291 0.688669 0.087297
Si Si3 0.750000 0.189384 0.524454
Si Si4 0.059439 0.191344 0.683603
Si Si5 0.353308 0.809415 0.944115
Si Si6 0.558060 0.689198 0.563549
Si Si7 0.250000 0.807861 0.628145
O O1 0.582977 0.244531 0.857181
O O2 0.465757 0.244840 0.756897
O O3 0.414909 0.244989 0.884209
O O4 0.485052 0.000000 0.829998
O O5 0.250000 0.741347 0.095570
O O6 0.145021 0.500000 0.088477
O O7 0.117101 0.746589 0.015152
O O8 0.841114 0.249804 0.556845
O O9 0.750000 0.242395 0.447963
O O10 0.750000 0.000000 0.525623
O O11 0.159110 0.243596 0.663336
O O12 0.990729 0.250381 0.628802
O O13 0.058654 0.000000 0.682843
O O14 0.250000 0.762084 0.934357
O O15 0.356522 0.000000 0.946417
O O16 0.500000 0.743096 0.500000
O O17 0.558880 0.500000 0.563509
O O18 0.250000 0.000000 0.628644
#
# Coordination Sequence:
#
# PCOD9405557 Si02
#       7
#     8   8   4   8   8   8   4
#     4  10  21  35  56  84 113 145 182 228 280 333
#     4  10  21  37  56  77 105 146 192 234 277 329
#     4  11  21  37  65  91 111 146 195 242 285 333
#     4  10  21  38  59  86 117 150 189 232 280 340
#     4   9  18  33  55  84 114 143 178 225 279 332
#     4  11  23  39  59  86 120 154 190 234 284 339
#     4   9  18  33  59  89 115 144 181 230 281 331
#
# _framework density 18.593720999999999
#
# number of rings (size 3 to 8) (size 9 to 14) (size 15 to 20)
#    0.000    2.000    1.667    1.750    1.167    5.000 
#    1.500    0.417    0.000    0.000    0.000    0.000 
#    0.000    0.000    0.000    0.000    0.000    0.000 
#
# Total GULP energy -268077.644537 kJ/mol
# GULP energy per Si atom -5584.950928 kJ/mol
# Density = 1.855140 g / cm^3
# Si number density = 18.593721 Si / 1000 Ang^3
#
#
#
# Elastic Constant Matrix: (Units=GPa)
#
#
# Indices 1 2 3 4 5 6 
#
# 1 163.8867 23.7560 111.8354 0.0000 0.0000 0.0000
# 2 23.7560 15.3641 24.5600 0.0000 0.0000 0.0000
# 3 111.8354 24.5600 177.5539 0.0000 0.0000 0.0000
# 4 0.0000 0.0000 0.0000 5.7429 0.0000 0.0000
# 5 0.0000 0.0000 0.0000 0.0000 11.6579 0.0000
# 6 0.0000 0.0000 0.0000 0.0000 0.0000 15.7550
#
#
#
# Elastic Compliance Matrix: (Units=1/GPa)
#
#
# Indices 1 2 3 4 5 6 
#
# 1 0.011402 -0.007895 -0.006089 0.000000 0.000000 0.000000
# 2 -0.007895 0.089031 -0.007342 0.000000 0.000000 0.000000
# 3 -0.006089 -0.007342 0.010483 0.000000 0.000000 0.000000
# 4 0.000000 0.000000 0.000000 0.174129 0.000000 0.000000
# 5 0.000000 0.000000 0.000000 0.000000 0.085779 0.000000
# 6 0.000000 0.000000 0.000000 0.000000 0.000000 0.063472
#
#
# Mechanical properties :
#
#
# Convention : Reuss Voigt Hill
#
# Bulk Modulus (GPa) = 14.64942 75.23416 44.94179
# Shear Modulus (GPa) = 10.00595 19.74138 14.87366
#
# Velocity S-wave (km/s) = 2.32229 3.26194 2.83137
# Velocity P-wave (km/s) = 3.88414 7.39845 5.90862
#
# Compressibility (1/GPa) = 0.06826207
#
# Stress axis : x y z
#
# Youngs Moduli (GPa) = 87.70725 11.23209 95.39051
#
# Poissons Ratio (x) = 0.08868 0.58087
# Poissons Ratio (y) = 0.69245 0.70038
# Poissons Ratio (z) = 0.53409 0.08247
#
# Static dielectric constant tensor:
#      x y z
#    x 1.633340 0.000000 0.000000 
#    y 0.000000 1.632530 0.000000 
#    z 0.000000 0.000000 1.615880 
# 
# From -- ./inp_files/29543.got.cif
#   From: 2010.05.17/outbox.cif.g08.bks.cpg/sg51_15_cif.got.tgz:29543.got - 2010.06.03 11:52:47.
