data_PCOD9405400
_publ_section_title
;
Structure prediction by ZEFSAII (Michael W. Deem and Ramdas Pophale) SiO2 
 PCOD9405400
Probable space group: P M M A
;
_chemical_formula_sum "Si O2"
_cell_formula_units_Z 48
_cell_length_a 7.502852
_cell_length_b 32.963070
_cell_length_c 9.159621
_cell_angle_alpha 90.000000
_cell_angle_beta 90.000000
_cell_angle_gamma 90.000000
_cell_volume 2265.330314
_symmetry_space_group_name_H-M "P M M A"
_symmetry_group_IT_number 51
_symmetry_cell_setting 'orthorhombic'
loop_
_space_group_symop_operation_xyz
x,y,z
1/2-x,-y,z
1/2+x,-y,-z
-x,y,-z
-x,-y,-z
1/2+x,y,-z
1/2-x,y,z
x,-y,z
loop_
_atom_site_type_symbol
_atom_site_label
_atom_site_fract_x
_atom_site_fract_y
_atom_site_fract_z
Si Si1 0.036401 0.456435 0.174191
Si Si2 0.036263 0.287423 0.328708
Si Si3 0.536332 0.793708 0.828538
Si Si4 0.036285 0.874725 0.329016
Si Si5 0.536003 0.368286 0.827096
Si Si6 0.963686 0.044929 0.828382
O O1 0.250000 0.456616 0.194266
O O2 0.967792 0.500000 0.231303
O O3 0.968038 0.412528 0.225428
O O4 0.000000 0.456424 0.000000
O O5 0.250000 0.287866 0.308261
O O6 0.967293 0.247135 0.248200
O O7 0.966653 0.329150 0.258249
O O8 0.000000 0.285542 0.500000
O O9 0.750000 0.793782 0.808478
O O10 0.467224 0.834926 0.754468
O O11 0.500000 0.793265 0.000000
O O12 0.250000 0.875305 0.308469
O O13 0.966486 0.916930 0.262432
O O14 0.000000 0.871755 0.500000
O O15 0.750000 0.369246 0.810067
O O16 0.500000 0.364073 0.000000
O O17 0.750000 0.043786 0.809848
O O18 0.032557 0.000000 0.787913
O O19 0.000000 0.051139 0.000000
#
# Coordination Sequence:
#
# PCOD9405400 Si02
#       6
#     8   8   8   8   8   8
#     4   8  13  22  38  61  88 116 146 184 229 272
#     4  10  21  35  50  70  96 125 158 194 233 280
#     4  10  21  36  54  76  99 124 158 198 238 283
#     4  10  21  35  51  74 103 132 163 199 239 285
#     4   9  17  29  46  69  94 120 154 193 232 278
#     4   9  18  33  52  74 100 130 166 206 244 284
#
# _framework density 21.188965
#
# number of rings (size 3 to 8) (size 9 to 14) (size 15 to 20)
#    0.000    2.667    0.000    1.500    0.000    3.000 
#    0.000    0.000    0.000    0.500    0.000    0.000 
#    0.000    0.000    0.000    0.000    0.000    0.000 
#
# Total GULP energy -267821.659200 kJ/mol
# GULP energy per Si atom -5579.617900 kJ/mol
# Density = 2.114074 g / cm^3
# Si number density = 21.188965 Si / 1000 Ang^3
#
#
#
# Elastic Constant Matrix: (Units=GPa)
#
#
# Indices 1 2 3 4 5 6 
#
# 1 60.9286 14.6944 -10.8373 0.0000 0.0000 0.0000
# 2 14.6944 288.3508 127.2991 0.0000 0.0000 0.0000
# 3 -10.8373 127.2991 117.3994 0.0000 0.0000 0.0000
# 4 0.0000 0.0000 0.0000 -15.7173 0.0000 0.0000
# 5 0.0000 0.0000 0.0000 0.0000 24.0150 0.0000
# 6 0.0000 0.0000 0.0000 0.0000 0.0000 -12.0182
#
#
#
# Elastic Compliance Matrix: (Units=1/GPa)
#
#
# Indices 1 2 3 4 5 6 
#
# 1 0.018091 -0.003183 0.005121 0.000000 0.000000 0.000000
# 2 -0.003183 0.007213 -0.008115 0.000000 0.000000 0.000000
# 3 0.005121 -0.008115 0.017789 0.000000 0.000000 0.000000
# 4 0.000000 0.000000 0.000000 -0.063624 0.000000 0.000000
# 5 0.000000 0.000000 0.000000 0.000000 0.041641 0.000000
# 6 0.000000 0.000000 0.000000 0.000000 0.000000 -0.083207
#
#
# Mechanical properties :
#
#
# Convention : Reuss Voigt Hill
#
# Bulk Modulus (GPa) = 32.52994 80.99900 56.76447
# Shear Modulus (GPa) = -126.58926 21.62407 -52.48260
#
# Velocity S-wave (km/s) = -7.73775 3.19805 -4.98223
# Velocity P-wave (km/s) = 8.02774 7.20740 2.49980
#
# Compressibility (1/GPa) = 0.03074091
#
# Stress axis : x y z
#
# Youngs Moduli (GPa) = 55.27561 138.64728 56.21299
#
# Poissons Ratio (x) = 0.44129 -0.28788
# Poissons Ratio (y) = 0.17593 0.45614
# Poissons Ratio (z) = -0.28308 1.12506
#
# Static dielectric constant tensor:
#      x y z
#    x 1.768780 0.000000 0.000000 
#    y 0.000000 1.824390 0.000000 
#    z 0.000000 0.000000 1.657660 
# 
# From -- ./inp_files/6034.got.cif
#   From: 2010.05.17/outbox.cif.g08.bks.cpg/sg51_4_cif.got.tgz:6034.got - 2010.06.03 11:52:47.
