data_PCOD9405386
_publ_section_title
;
Structure prediction by ZEFSAII (Michael W. Deem and Ramdas Pophale) SiO2 
 PCOD9405386
Probable space group: P M M A
;
_chemical_formula_sum "Si O2"
_cell_formula_units_Z 48
_cell_length_a 8.655287
_cell_length_b 31.960456
_cell_length_c 9.680548
_cell_angle_alpha 90.000000
_cell_angle_beta 90.000000
_cell_angle_gamma 90.000000
_cell_volume 2677.900171
_symmetry_space_group_name_H-M "P M M A"
_symmetry_group_IT_number 51
_symmetry_cell_setting 'orthorhombic'
loop_
_space_group_symop_operation_xyz
x,y,z
1/2-x,-y,z
1/2+x,-y,-z
-x,y,-z
-x,-y,-z
1/2+x,y,-z
1/2-x,y,z
x,-y,z
loop_
_atom_site_type_symbol
_atom_site_label
_atom_site_fract_x
_atom_site_fract_y
_atom_site_fract_z
Si Si1 0.933928 0.620644 0.844466
Si Si2 0.436226 0.799447 0.844625
Si Si3 0.936931 0.123379 0.345834
Si Si4 0.063566 0.952177 0.848652
Si Si5 0.435251 0.706951 0.843799
Si Si6 0.564911 0.547926 0.345896
O O1 0.750000 0.621433 0.851091
O O2 0.993711 0.664794 0.781751
O O3 0.992733 0.581833 0.755543
O O4 0.000000 0.617299 0.000000
O O5 0.250000 0.800894 0.854316
O O6 0.487659 0.836584 0.744534
O O7 0.477171 0.753022 0.788310
O O8 0.500000 0.804443 0.000000
O O9 0.750000 0.123714 0.350480
O O10 0.986352 0.081442 0.264756
O O11 0.000000 0.124738 0.500000
O O12 0.250000 0.951361 0.854952
O O13 0.015261 0.000000 0.817627
O O14 0.000000 0.941063 0.000000
O O15 0.250000 0.703028 0.845953
O O16 0.500000 0.707857 0.000000
O O17 0.500000 0.554068 0.500000
O O18 0.750000 0.552180 0.347394
O O19 0.527257 0.500000 0.304519
#
# Coordination Sequence:
#
# PCOD9405386 Si02
#       6
#     8   8   8   8   8   8
#     4  11  21  34  54  80 109 139 173 214 260 307
#     4   9  18  32  52  75  98 128 167 211 253 299
#     4  10  21  35  49  71 103 135 168 206 251 300
#     4   9  18  33  53  76 101 129 165 209 252 298
#     4   9  16  29  49  73 101 130 164 208 257 304
#     4  10  21  38  58  79 105 138 175 214 257 307
#
# _framework density 17.924492999999998
#
# number of rings (size 3 to 8) (size 9 to 14) (size 15 to 20)
#    0.000    2.333    0.000    4.000    0.000    3.667 
#    0.000    0.833    0.000    2.000    0.000    0.000 
#    0.000    0.000    0.000    0.000    0.000    0.000 
#
# Total GULP energy -267720.153250 kJ/mol
# GULP energy per Si atom -5577.503193 kJ/mol
# Density = 1.788370 g / cm^3
# Si number density = 17.924493 Si / 1000 Ang^3
#
#
#
# Elastic Constant Matrix: (Units=GPa)
#
#
# Indices 1 2 3 4 5 6 
#
# 1 56.7473 54.3477 32.4920 0.0000 0.0000 0.0000
# 2 54.3477 179.7834 104.1808 0.0000 0.0000 0.0000
# 3 32.4920 104.1808 98.8930 0.0000 0.0000 0.0000
# 4 0.0000 0.0000 0.0000 77.8963 0.0000 0.0000
# 5 0.0000 0.0000 0.0000 0.0000 30.5296 0.0000
# 6 0.0000 0.0000 0.0000 0.0000 0.0000 -8.4260
#
#
#
# Elastic Compliance Matrix: (Units=1/GPa)
#
#
# Indices 1 2 3 4 5 6 
#
# 1 0.024819 -0.007130 -0.000643 0.000000 0.000000 0.000000
# 2 -0.007130 0.016327 -0.014858 0.000000 0.000000 0.000000
# 3 -0.000643 -0.014858 0.025976 0.000000 0.000000 0.000000
# 4 0.000000 0.000000 0.000000 0.012838 0.000000 0.000000
# 5 0.000000 0.000000 0.000000 0.000000 0.032755 0.000000
# 6 0.000000 0.000000 0.000000 0.000000 0.000000 -0.118681
#
#
# Mechanical properties :
#
#
# Convention : Reuss Voigt Hill
#
# Bulk Modulus (GPa) = 45.74631 79.71829 62.73230
# Shear Modulus (GPa) = 107.33751 29.62686 68.48219
#
# Velocity S-wave (km/s) = 7.74682 4.06996 6.18780
# Velocity P-wave (km/s) = 10.27592 8.16438 9.28040
#
# Compressibility (1/GPa) = 0.02185969
#
# Stress axis : x y z
#
# Youngs Moduli (GPa) = 40.29239 61.24676 38.49755
#
# Poissons Ratio (x) = 0.43667 0.02477
# Poissons Ratio (y) = 0.28727 0.57199
# Poissons Ratio (z) = 0.02592 0.91000
#
# Static dielectric constant tensor:
#      x y z
#    x 1.601980 0.000000 0.000000 
#    y 0.000000 1.656110 0.000000 
#    z 0.000000 0.000000 1.541320 
# 
# From -- ./inp_files/6081.got.cif
#   From: 2010.05.17/outbox.cif.g08.bks.cpg/sg51_4_cif.got.tgz:6081.got - 2010.06.03 11:52:47.
