data_PCOD9405778
_publ_section_title
;
Structure prediction by ZEFSAII (Michael W. Deem and Ramdas Pophale) SiO2 
 PCOD9405778
Probable space group: P M M A
;
_chemical_formula_sum "Si O2"
_cell_formula_units_Z 48
_cell_length_a 9.265851
_cell_length_b 8.892362
_cell_length_c 31.637721
_cell_angle_alpha 90.000000
_cell_angle_beta 90.000000
_cell_angle_gamma 90.000000
_cell_volume 2606.799555
_symmetry_space_group_name_H-M "P M M A"
_symmetry_group_IT_number 51
_symmetry_cell_setting 'orthorhombic'
loop_
_space_group_symop_operation_xyz
x,y,z
1/2-x,-y,z
1/2+x,-y,-z
-x,y,-z
-x,-y,-z
1/2+x,y,-z
1/2-x,y,z
x,-y,z
loop_
_atom_site_type_symbol
_atom_site_label
_atom_site_fract_x
_atom_site_fract_y
_atom_site_fract_z
Si Si1 0.079760 0.679410 0.702512
Si Si2 0.417829 0.681513 0.957224
Si Si3 0.581507 0.180088 0.623133
Si Si4 0.582264 0.181542 0.877593
Si Si5 0.581214 0.318720 0.456804
Si Si6 0.080230 0.179999 0.792301
O O1 0.250000 0.716113 0.696401
O O2 0.064559 0.500000 0.700639
O O3 0.038333 0.739307 0.748858
O O4 0.987544 0.755044 0.665815
O O5 0.250000 0.725880 0.958951
O O6 0.424505 0.500000 0.954777
O O7 0.494957 0.749521 0.916434
O O8 0.500000 0.728035 0.000000
O O9 0.750000 0.222302 0.620062
O O10 0.495198 0.245049 0.583278
O O11 0.571019 0.000000 0.623472
O O12 0.750000 0.225146 0.879652
O O13 0.511873 0.226829 0.832906
O O14 0.573497 0.000000 0.879944
O O15 0.500000 0.275832 0.500000
O O16 0.750000 0.278054 0.458817
O O17 0.571985 0.500000 0.452691
O O18 0.250000 0.210755 0.800264
O O19 0.064438 0.000000 0.786710
#
# Coordination Sequence:
#
# PCOD9405778 Si02
#       6
#     8   8   8   8   8   8
#     4  10  21  37  58  84 112 143 182 227 275 328
#     4  10  21  37  57  80 107 141 181 225 273 324
#     4  11  24  39  56  81 113 149 188 229 274 324
#     4  10  21  36  55  81 112 145 181 222 269 322
#     4  10  21  38  61  87 114 146 184 226 274 327
#     4   9  18  34  55  78 108 146 184 223 269 321
#
# _framework density 18.413383
#
# number of rings (size 3 to 8) (size 9 to 14) (size 15 to 20)
#    0.000    2.000    0.000    3.000    0.000    9.333 
#    0.000    3.333    0.000    0.000    0.000    0.000 
#    0.000    0.000    0.000    0.000    0.000    0.000 
#
# Total GULP energy -268197.582158 kJ/mol
# GULP energy per Si atom -5587.449628 kJ/mol
# Density = 1.837147 g / cm^3
# Si number density = 18.413383 Si / 1000 Ang^3
#
#
#
# Elastic Constant Matrix: (Units=GPa)
#
#
# Indices 1 2 3 4 5 6 
#
# 1 171.3223 55.3800 134.5296 0.0000 0.0000 0.0000
# 2 55.3800 23.0775 53.8956 0.0000 0.0000 0.0000
# 3 134.5296 53.8956 201.9158 0.0000 0.0000 0.0000
# 4 0.0000 0.0000 0.0000 41.0885 0.0000 0.0000
# 5 0.0000 0.0000 0.0000 0.0000 42.5856 0.0000
# 6 0.0000 0.0000 0.0000 0.0000 0.0000 28.3894
#
#
#
# Elastic Compliance Matrix: (Units=1/GPa)
#
#
# Indices 1 2 3 4 5 6 
#
# 1 0.026267 -0.058845 -0.001794 0.000000 0.000000 0.000000
# 2 -0.058845 0.246881 -0.026691 0.000000 0.000000 0.000000
# 3 -0.001794 -0.026691 0.013272 0.000000 0.000000 0.000000
# 4 0.000000 0.000000 0.000000 0.024338 0.000000 0.000000
# 5 0.000000 0.000000 0.000000 0.000000 0.023482 0.000000
# 6 0.000000 0.000000 0.000000 0.000000 0.000000 0.035224
#
#
# Mechanical properties :
#
#
# Convention : Reuss Voigt Hill
#
# Bulk Modulus (GPa) = 8.94777 98.21399 53.58088
# Shear Modulus (GPa) = 8.60024 32.58007 20.59015
#
# Velocity S-wave (km/s) = 2.16351 4.21095 3.34760
# Velocity P-wave (km/s) = 3.33331 8.78049 6.64108
#
# Compressibility (1/GPa) = 0.11175969
#
# Stress axis : x y z
#
# Youngs Moduli (GPa) = 38.06987 4.05054 75.34481
#
# Poissons Ratio (x) = 0.23836 0.13517
# Poissons Ratio (y) = 2.24023 2.01104
# Poissons Ratio (z) = 0.06830 0.10811
#
# Static dielectric constant tensor:
#      x y z
#    x 1.620330 0.000000 0.000000 
#    y 0.000000 1.620530 0.000000 
#    z 0.000000 0.000000 1.591020 
# 
# From -- ./inp_files/36954.got.cif
#   From: 2010.05.17/outbox.cif.g08.bks.cpg/sg51_19_cif.got.tgz:36954.got - 2010.06.03 11:52:47.
