data_PCOD9405414
_publ_section_title
;
Structure prediction by ZEFSAII (Michael W. Deem and Ramdas Pophale) SiO2 
 PCOD9405414
Probable space group: P M M A
;
_chemical_formula_sum "Si O2"
_cell_formula_units_Z 64
_cell_length_a 8.432553
_cell_length_b 15.197248
_cell_length_c 24.739164
_cell_angle_alpha 90.000000
_cell_angle_beta 90.000000
_cell_angle_gamma 90.000000
_cell_volume 3170.363430
_symmetry_space_group_name_H-M "P M M A"
_symmetry_group_IT_number 51
_symmetry_cell_setting 'orthorhombic'
loop_
_space_group_symop_operation_xyz
x,y,z
1/2-x,-y,z
1/2+x,-y,-z
-x,y,-z
-x,-y,-z
1/2+x,y,-z
1/2-x,y,z
x,-y,z
loop_
_atom_site_type_symbol
_atom_site_label
_atom_site_fract_x
_atom_site_fract_y
_atom_site_fract_z
Si Si1 0.439932 0.279174 0.058087
Si Si2 0.438398 0.400085 0.275189
Si Si3 0.440621 0.594939 0.438855
Si Si4 0.938395 0.396946 0.156302
Si Si5 0.559593 0.102142 0.769444
Si Si6 0.565645 0.785495 0.439536
Si Si7 0.056748 0.901129 0.106422
Si Si8 0.560783 0.776071 0.325882
O O1 0.250000 0.280419 0.058668
O O2 0.501136 0.338275 0.107251
O O3 0.495805 0.178771 0.068917
O O4 0.500000 0.310115 0.000000
O O5 0.250000 0.403587 0.281825
O O6 0.501730 0.500000 0.283665
O O7 0.479900 0.375304 0.213384
O O8 0.499482 0.322397 0.313179
O O9 0.500000 0.583646 0.500000
O O10 0.250000 0.611308 0.436882
O O11 0.469109 0.500000 0.411152
O O12 0.536474 0.682413 0.425761
O O13 0.750000 0.386072 0.162867
O O14 0.971324 0.500000 0.145199
O O15 0.750000 0.112636 0.767617
O O16 0.509697 0.119131 0.831499
O O17 0.485538 0.165400 0.725389
O O18 0.522618 0.000000 0.758009
O O19 0.500000 0.802785 0.500000
O O20 0.750000 0.806243 0.443712
O O21 0.500253 0.821446 0.382176
O O22 0.250000 0.902852 0.105904
O O23 0.002762 0.000000 0.092273
O O24 0.750000 0.771723 0.330094
#
# Coordination Sequence:
#
# PCOD9405414 Si02
#       8
#     8   8   8   8   8   8   8   8
#     4  11  22  35  54  80 112 151 192 233 275 323
#     4  10  21  37  58  84 113 147 187 229 276 333
#     4   9  16  26  42  63  87 119 161 207 252 299
#     4  10  21  38  59  81 108 143 184 235 290 337
#     4   9  18  35  61  89 112 138 178 227 279 336
#     4  10  21  35  50  70  98 136 179 220 266 320
#     4   8  16  33  56  81 109 141 177 218 266 321
#     4  11  23  36  54  82 114 146 180 225 279 330
#
# _framework density 20.186959000000002
#
# number of rings (size 3 to 8) (size 9 to 14) (size 15 to 20)
#    0.000    2.250    0.000    4.500    0.000    6.500 
#    0.000    3.125    0.000    3.000    0.000    0.000 
#    0.000    0.000    0.000    0.000    0.000    0.000 
#
# Total GULP energy -356794.241450 kJ/mol
# GULP energy per Si atom -5574.910023 kJ/mol
# Density = 2.014101 g / cm^3
# Si number density = 20.186959 Si / 1000 Ang^3
#
#
#
# Elastic Constant Matrix: (Units=GPa)
#
#
# Indices 1 2 3 4 5 6 
#
# 1 22.0429 18.0507 14.6226 0.0000 0.0000 0.0000
# 2 18.0507 29.8402 35.4126 0.0000 0.0000 0.0000
# 3 14.6226 35.4126 110.2130 0.0000 0.0000 0.0000
# 4 0.0000 0.0000 0.0000 3.9232 0.0000 0.0000
# 5 0.0000 0.0000 0.0000 0.0000 19.4145 0.0000
# 6 0.0000 0.0000 0.0000 0.0000 0.0000 15.3251
#
#
#
# Elastic Compliance Matrix: (Units=1/GPa)
#
#
# Indices 1 2 3 4 5 6 
#
# 1 0.095731 -0.069236 0.009545 0.000000 0.000000 0.000000
# 2 -0.069236 0.104240 -0.024307 0.000000 0.000000 0.000000
# 3 0.009545 -0.024307 0.015617 0.000000 0.000000 0.000000
# 4 0.000000 0.000000 0.000000 0.254896 0.000000 0.000000
# 5 0.000000 0.000000 0.000000 0.000000 0.051508 0.000000
# 6 0.000000 0.000000 0.000000 0.000000 0.000000 0.065252
#
#
# Mechanical properties :
#
#
# Convention : Reuss Voigt Hill
#
# Bulk Modulus (GPa) = 21.01232 33.14087 27.07660
# Shear Modulus (GPa) = 6.48419 13.99990 10.24205
#
# Velocity S-wave (km/s) = 1.79417 2.63632 2.25491
# Velocity P-wave (km/s) = 3.83712 5.07144 4.49683
#
# Compressibility (1/GPa) = 0.04759112
#
# Stress axis : x y z
#
# Youngs Moduli (GPa) = 10.44592 9.59321 64.03213
#
# Poissons Ratio (x) = 0.66420 -0.61119
# Poissons Ratio (y) = 0.72324 1.55646
# Poissons Ratio (z) = -0.09971 0.23319
#
# Static dielectric constant tensor:
#      x y z
#    x 1.687590 0.000000 0.000000 
#    y 0.000000 1.792320 0.000000 
#    z 0.000000 0.000000 1.615750 
# 
# From -- ./inp_files/34925.got.cif
#   From: 2010.05.17/outbox.cif.g08.bks.cpg/sg51_18_cif.got.tgz:34925.got - 2010.06.03 11:52:47.
