data_PCOD9405884
_publ_section_title
;
Structure prediction by ZEFSAII (Michael W. Deem and Ramdas Pophale) SiO2 
 PCOD9405884
Probable space group: P M M A
;
_chemical_formula_sum "Si O2"
_cell_formula_units_Z 44
_cell_length_a 8.801354
_cell_length_b 15.588559
_cell_length_c 17.943222
_cell_angle_alpha 90.000000
_cell_angle_beta 90.000000
_cell_angle_gamma 90.000000
_cell_volume 2461.817704
_symmetry_space_group_name_H-M "P M M A"
_symmetry_group_IT_number 51
_symmetry_cell_setting 'orthorhombic'
loop_
_space_group_symop_operation_xyz
x,y,z
1/2-x,-y,z
1/2+x,-y,-z
-x,y,-z
-x,-y,-z
1/2+x,y,-z
1/2-x,y,z
x,-y,z
loop_
_atom_site_type_symbol
_atom_site_label
_atom_site_fract_x
_atom_site_fract_y
_atom_site_fract_z
Si Si1 0.429964 0.851962 0.921672
Si Si2 0.567486 0.597575 0.416971
Si Si3 0.068818 0.328782 0.852892
Si Si4 0.067601 0.097823 0.755077
Si Si5 0.068566 0.733935 0.302591
Si Si6 0.930927 0.500000 0.918316
O O1 0.250000 0.867511 0.925844
O O2 0.456848 0.750108 0.909743
O O3 0.482452 0.891241 0.842174
O O4 0.500000 0.880944 0.000000
O O5 0.500000 0.603985 0.500000
O O6 0.750000 0.604917 0.419022
O O7 0.531055 0.500000 0.389341
O O8 0.499142 0.672936 0.366501
O O9 0.250000 0.338424 0.844350
O O10 0.995021 0.303121 0.774914
O O11 0.993076 0.415406 0.879256
O O12 0.250000 0.114156 0.754736
O O13 0.989295 0.167765 0.702242
O O14 0.040133 0.000000 0.732500
O O15 0.250000 0.731594 0.305289
O O16 0.750000 0.500000 0.920397
O O17 0.000000 0.500000 0.000000
#
# Coordination Sequence:
#
# PCOD9405884 Si02
#       6
#     8   8   8   8   8   4
#     4   9  18  31  49  72  99 134 176 226 282 335
#     4  10  21  38  61  89 121 155 188 223 267 322
#     4  10  21  37  53  71 100 141 187 232 278 330
#     4   9  19  37  57  77 106 146 191 235 284 341
#     4  11  22  36  57  85 116 147 184 230 279 335
#     4  12  24  36  50  72 101 138 183 232 284 336
#
# _framework density 17.872971
#
# number of rings (size 3 to 8) (size 9 to 14) (size 15 to 20)
#    0.000    2.000    0.000    5.182    1.273    6.909 
#    0.000    0.000    0.000    0.545    0.000    0.000 
#    0.000    0.000    0.000    0.000    0.000    0.000 
#
# Total GULP energy -245559.834192 kJ/mol
# GULP energy per Si atom -5580.905323 kJ/mol
# Density = 1.783229 g / cm^3
# Si number density = 17.872971 Si / 1000 Ang^3
#
#
#
# Elastic Constant Matrix: (Units=GPa)
#
#
# Indices 1 2 3 4 5 6 
#
# 1 96.6426 72.2317 41.0238 0.0000 0.0000 0.0000
# 2 72.2317 126.9366 49.1240 0.0000 0.0000 0.0000
# 3 41.0238 49.1240 73.9599 0.0000 0.0000 0.0000
# 4 0.0000 0.0000 0.0000 4.0317 0.0000 0.0000
# 5 0.0000 0.0000 0.0000 0.0000 31.5694 0.0000
# 6 0.0000 0.0000 0.0000 0.0000 0.0000 20.5703
#
#
#
# Elastic Compliance Matrix: (Units=1/GPa)
#
#
# Indices 1 2 3 4 5 6 
#
# 1 0.019073 -0.009097 -0.004537 0.000000 0.000000 0.000000
# 2 -0.009097 0.014943 -0.004879 0.000000 0.000000 0.000000
# 3 -0.004537 -0.004879 0.019278 0.000000 0.000000 0.000000
# 4 0.000000 0.000000 0.000000 0.248036 0.000000 0.000000
# 5 0.000000 0.000000 0.000000 0.000000 0.031676 0.000000
# 6 0.000000 0.000000 0.000000 0.000000 0.000000 0.048614
#
#
# Mechanical properties :
#
#
# Convention : Reuss Voigt Hill
#
# Bulk Modulus (GPa) = 61.47286 69.14424 65.30855
# Shear Modulus (GPa) = 11.79059 20.24492 16.01775
#
# Velocity S-wave (km/s) = 2.57123 3.36923 2.99691
# Velocity P-wave (km/s) = 6.57905 7.34208 6.97101
#
# Compressibility (1/GPa) = 0.01626734
#
# Stress axis : x y z
#
# Youngs Moduli (GPa) = 52.43107 66.92186 51.87319
#
# Poissons Ratio (x) = 0.60881 0.23533
# Poissons Ratio (y) = 0.47698 0.25308
# Poissons Ratio (z) = 0.23786 0.32650
#
# Static dielectric constant tensor:
#      x y z
#    x 1.594390 0.000000 0.000000 
#    y 0.000000 1.615590 0.000000 
#    z 0.000000 0.000000 1.581980 
# 
# From -- ./inp_files/27371.got.cif
#   From: 2010.05.17/outbox.cif.g08.bks.cpg/sg51_14_cif.got.tgz:27371.got - 2010.06.03 11:52:47.
