data_PCOD9405410
_publ_section_title
;
Structure prediction by ZEFSAII (Michael W. Deem and Ramdas Pophale) SiO2 
 PCOD9405410
Probable space group: P M M A
;
_chemical_formula_sum "Si O2"
_cell_formula_units_Z 40
_cell_length_a 9.748476
_cell_length_b 7.731797
_cell_length_c 26.725662
_cell_angle_alpha 90.000000
_cell_angle_beta 90.000000
_cell_angle_gamma 90.000000
_cell_volume 2014.399669
_symmetry_space_group_name_H-M "P M M A"
_symmetry_group_IT_number 51
_symmetry_cell_setting 'orthorhombic'
loop_
_space_group_symop_operation_xyz
x,y,z
1/2-x,-y,z
1/2+x,-y,-z
-x,y,-z
-x,-y,-z
1/2+x,y,-z
1/2-x,y,z
x,-y,z
loop_
_atom_site_type_symbol
_atom_site_label
_atom_site_fract_x
_atom_site_fract_y
_atom_site_fract_z
Si Si1 0.908201 0.211723 0.952423
Si Si2 0.904596 0.705299 0.249721
Si Si3 0.093759 0.207989 0.342989
Si Si4 0.090646 0.788920 0.453841
Si Si5 0.406426 0.794804 0.861344
O O1 0.750000 0.269094 0.955314
O O2 0.987415 0.271783 0.902515
O O3 0.904679 0.000000 0.952089
O O4 0.000000 0.262847 0.000000
O O5 0.750000 0.775343 0.257187
O O6 0.896632 0.500000 0.245663
O O7 0.954284 0.769901 0.195682
O O8 0.998798 0.746207 0.296737
O O9 0.250000 0.270541 0.335666
O O10 0.045417 0.267150 0.398149
O O11 0.099093 0.000000 0.345221
O O12 0.250000 0.740851 0.459809
O O13 0.000000 0.726331 0.500000
O O14 0.085455 0.000000 0.454481
O O15 0.250000 0.724201 0.865673
O O16 0.396316 0.000000 0.870117
#
# Coordination Sequence:
#
# PCOD9405410 Si02
#       5
#     8   8   8   8   8
#     4   9  16  26  43  69  98 124 151 187 232 280
#     4  10  21  35  50  70  97 129 165 204 245 289
#     4   9  18  32  50  73 100 128 160 199 241 287
#     4   8  14  25  42  67  97 124 151 188 235 284
#     4   9  17  30  48  69  94 124 157 194 236 281
#
# _framework density 19.857033999999999
#
# number of rings (size 3 to 8) (size 9 to 14) (size 15 to 20)
#    0.000    3.000    0.000    2.400    0.000    5.600 
#    0.000    4.000    0.000    1.200    0.000    0.000 
#    0.000    0.000    0.000    0.000    0.000    0.000 
#
# Total GULP energy -223040.426552 kJ/mol
# GULP energy per Si atom -5576.010664 kJ/mol
# Density = 1.981184 g / cm^3
# Si number density = 19.857034 Si / 1000 Ang^3
#
#
#
# Elastic Constant Matrix: (Units=GPa)
#
#
# Indices 1 2 3 4 5 6 
#
# 1 121.9444 5.1519 131.5882 0.0000 0.0000 0.0000
# 2 5.1519 27.3882 0.9307 0.0000 0.0000 0.0000
# 3 131.5882 0.9307 218.9324 0.0000 0.0000 0.0000
# 4 0.0000 0.0000 0.0000 -40.2380 0.0000 0.0000
# 5 0.0000 0.0000 0.0000 0.0000 37.2805 0.0000
# 6 0.0000 0.0000 0.0000 0.0000 0.0000 4.4008
#
#
#
# Elastic Compliance Matrix: (Units=1/GPa)
#
#
# Indices 1 2 3 4 5 6 
#
# 1 0.023762 -0.003985 -0.014265 0.000000 0.000000 0.000000
# 2 -0.003985 0.037186 0.002237 0.000000 0.000000 0.000000
# 3 -0.014265 0.002237 0.013132 0.000000 0.000000 0.000000
# 4 0.000000 0.000000 0.000000 -0.024852 0.000000 0.000000
# 5 0.000000 0.000000 0.000000 0.000000 0.026824 0.000000
# 6 0.000000 0.000000 0.000000 0.000000 0.000000 0.227229
#
#
# Mechanical properties :
#
#
# Convention : Reuss Voigt Hill
#
# Bulk Modulus (GPa) = 23.77914 71.51184 47.64549
# Shear Modulus (GPa) = 14.31332 15.66162 14.98747
#
# Velocity S-wave (km/s) = 2.68772 2.81146 2.75029
# Velocity P-wave (km/s) = 4.65112 6.82866 5.84224
#
# Compressibility (1/GPa) = 0.04205367
#
# Stress axis : x y z
#
# Youngs Moduli (GPa) = 42.08375 26.89212 76.14917
#
# Poissons Ratio (x) = 0.10717 1.08628
# Poissons Ratio (y) = 0.16771 -0.17035
# Poissons Ratio (z) = 0.60033 -0.06016
#
# Static dielectric constant tensor:
#      x y z
#    x 1.696340 0.000000 0.000000 
#    y 0.000000 1.722890 0.000000 
#    z 0.000000 0.000000 1.692130 
# 
# From -- ./inp_files/34300.got.cif
#   From: 2010.05.17/outbox.cif.g08.bks.cpg/sg51_18_cif.got.tgz:34300.got - 2010.06.03 11:52:47.
