data_PCOD9405809
_publ_section_title
;
Structure prediction by ZEFSAII (Michael W. Deem and Ramdas Pophale) SiO2 
 PCOD9405809
Probable space group: P M M A
;
_chemical_formula_sum "Si O2"
_cell_formula_units_Z 56
_cell_length_a 7.938943
_cell_length_b 18.962864
_cell_length_c 16.592919
_cell_angle_alpha 90.000000
_cell_angle_beta 90.000000
_cell_angle_gamma 90.000000
_cell_volume 2497.982591
_symmetry_space_group_name_H-M "P M M A"
_symmetry_group_IT_number 51
_symmetry_cell_setting 'orthorhombic'
loop_
_space_group_symop_operation_xyz
x,y,z
1/2-x,-y,z
1/2+x,-y,-z
-x,y,-z
-x,-y,-z
1/2+x,y,-z
1/2-x,y,z
x,-y,z
loop_
_atom_site_type_symbol
_atom_site_label
_atom_site_fract_x
_atom_site_fract_y
_atom_site_fract_z
Si Si1 0.440179 0.846233 0.129996
Si Si2 0.452331 0.000000 0.091418
Si Si3 0.453290 0.578855 0.230051
Si Si4 0.560288 0.231520 0.585647
Si Si5 0.547842 0.000000 0.406192
Si Si6 0.550751 0.388585 0.413625
Si Si7 0.560536 0.131135 0.297780
Si Si8 0.953893 0.690052 0.908741
O O1 0.250000 0.848957 0.095758
O O2 0.520666 0.923364 0.116931
O O3 0.440368 0.847180 0.225880
O O4 0.516192 0.771551 0.102064
O O5 0.250000 0.000000 0.109797
O O6 0.500000 0.000000 0.000000
O O7 0.250000 0.584538 0.233877
O O8 0.496804 0.500000 0.199915
O O9 0.514675 0.582772 0.323385
O O10 0.510764 0.638763 0.165221
O O11 0.500000 0.203802 0.500000
O O12 0.750000 0.209019 0.602319
O O13 0.548942 0.315135 0.584881
O O14 0.434013 0.200787 0.649387
O O15 0.500000 0.000000 0.500000
O O16 0.494362 0.068429 0.354816
O O17 0.750000 0.000000 0.405312
O O18 0.500000 0.423663 0.500000
O O19 0.750000 0.376806 0.418401
O O20 0.750000 0.112888 0.270158
O O21 0.750000 0.692360 0.903253
O O22 0.000000 0.666715 0.000000
#
# Coordination Sequence:
#
# PCOD9405809 Si02
#       8
#     8   4   8   8   4   8   8   8
#     4  10  21  37  57  84 116 151 192 240 299 364
#     4  10  21  36  56  82 112 146 185 230 285 348
#     4  10  22  41  63  89 124 165 208 256 311 370
#     4  11  21  35  55  80 111 148 191 240 293 350
#     4  10  23  38  52  74 108 150 199 252 306 366
#     4  11  22  38  62  92 125 162 204 251 305 366
#     4  11  22  36  54  79 109 146 194 246 301 360
#     4  10  22  40  63  90 121 158 202 254 313 376
#
# _framework density 22.418092000000001
#
# number of rings (size 3 to 8) (size 9 to 14) (size 15 to 20)
#    0.000    1.571    0.000    6.000    0.000    6.000 
#    0.000    0.000    0.000    0.000    0.000    0.000 
#    0.000    0.000    0.000    0.000    0.000    0.000 
#
# Total GULP energy -312067.421590 kJ/mol
# GULP energy per Si atom -5572.632528 kJ/mol
# Density = 2.236707 g / cm^3
# Si number density = 22.418092 Si / 1000 Ang^3
#
#
#
# Elastic Constant Matrix: (Units=GPa)
#
#
# Indices 1 2 3 4 5 6 
#
# 1 68.3670 11.8755 9.1442 0.0000 0.0000 0.0000
# 2 11.8755 126.8870 59.2302 0.0000 0.0000 0.0000
# 3 9.1442 59.2302 139.1689 0.0000 0.0000 0.0000
# 4 0.0000 0.0000 0.0000 30.1011 0.0000 0.0000
# 5 0.0000 0.0000 0.0000 0.0000 32.2697 0.0000
# 6 0.0000 0.0000 0.0000 0.0000 0.0000 -0.4031
#
#
#
# Elastic Compliance Matrix: (Units=1/GPa)
#
#
# Indices 1 2 3 4 5 6 
#
# 1 0.014894 -0.001169 -0.000481 0.000000 0.000000 0.000000
# 2 -0.001169 0.009927 -0.004148 0.000000 0.000000 0.000000
# 3 -0.000481 -0.004148 0.008982 0.000000 0.000000 0.000000
# 4 0.000000 0.000000 0.000000 0.033221 0.000000 0.000000
# 5 0.000000 0.000000 0.000000 0.000000 0.030989 0.000000
# 6 0.000000 0.000000 0.000000 0.000000 0.000000 -2.480759
#
#
# Mechanical properties :
#
#
# Convention : Reuss Voigt Hill
#
# Bulk Modulus (GPa) = 45.03112 54.99141 50.01126
# Shear Modulus (GPa) = -2.11529 29.33841 13.61156
#
# Velocity S-wave (km/s) = -0.97243 3.62151 2.46675
# Velocity P-wave (km/s) = 4.34393 6.48616 5.51997
#
# Compressibility (1/GPa) = 0.02220687
#
# Stress axis : x y z
#
# Youngs Moduli (GPa) = 67.13933 100.73811 111.32783
#
# Poissons Ratio (x) = 0.11781 0.05354
# Poissons Ratio (y) = 0.07852 0.46178
# Poissons Ratio (z) = 0.03229 0.41786
#
# Static dielectric constant tensor:
#      x y z
#    x 1.810740 0.000000 0.000000 
#    y 0.000000 1.759120 0.000000 
#    z 0.000000 0.000000 1.732600 
# 
# From -- ./inp_files/21914.got.cif
#   From: 2010.05.17/outbox.cif.g08.bks.cpg/sg51_11_cif.got.tgz:21914.got - 2010.06.03 11:52:47.
