data_PCOD9405939
_publ_section_title
;
Structure prediction by ZEFSAII (Michael W. Deem and Ramdas Pophale) SiO2 
 PCOD9405939
Probable space group: P M M A
;
_chemical_formula_sum "Si O2"
_cell_formula_units_Z 48
_cell_length_a 9.576028
_cell_length_b 7.807901
_cell_length_c 31.958754
_cell_angle_alpha 90.000000
_cell_angle_beta 90.000000
_cell_angle_gamma 90.000000
_cell_volume 2389.513806
_symmetry_space_group_name_H-M "P M M A"
_symmetry_group_IT_number 51
_symmetry_cell_setting 'orthorhombic'
loop_
_space_group_symop_operation_xyz
x,y,z
1/2-x,-y,z
1/2+x,-y,-z
-x,y,-z
-x,-y,-z
1/2+x,y,-z
1/2-x,y,z
x,-y,z
loop_
_atom_site_type_symbol
_atom_site_label
_atom_site_fract_x
_atom_site_fract_y
_atom_site_fract_z
Si Si1 0.090078 0.292961 0.289257
Si Si2 0.091248 0.298787 0.883079
Si Si3 0.907999 0.796869 0.961854
Si Si4 0.087749 0.290927 0.539566
Si Si5 0.411969 0.709076 0.632079
Si Si6 0.089506 0.203203 0.195681
O O1 0.250000 0.234208 0.293623
O O2 0.089360 0.500000 0.290270
O O3 0.042032 0.239903 0.243073
O O4 0.999522 0.230387 0.328267
O O5 0.250000 0.228908 0.883336
O O6 0.099777 0.500000 0.891609
O O7 0.992891 0.223316 0.919017
O O8 0.015228 0.274807 0.838712
O O9 0.750000 0.726448 0.959522
O O10 0.894526 0.000000 0.969400
O O11 0.000000 0.723955 0.000000
O O12 0.250000 0.242473 0.535587
O O13 0.083185 0.500000 0.539165
O O14 0.037530 0.237128 0.585836
O O15 0.000000 0.229482 0.500000
O O16 0.250000 0.758460 0.635998
O O17 0.416049 0.500000 0.632414
O O18 0.250000 0.269755 0.191196
O O19 0.094913 0.000000 0.189608
#
# Coordination Sequence:
#
# PCOD9405939 Si02
#       6
#     8   8   8   8   8   8
#     4   9  17  29  46  68  93 122 158 199 242 291
#     4  11  24  39  56  81 111 142 177 216 258 304
#     4  10  21  38  61  87 114 146 182 218 258 303
#     4   8  13  20  30  47  74 109 147 185 226 275
#     4   8  14  24  37  55  82 116 152 190 234 284
#     4  10  21  37  56  77 102 133 169 210 257 307
#
# _framework density 20.087769000000002
#
# number of rings (size 3 to 8) (size 9 to 14) (size 15 to 20)
#    0.000    2.667    0.000    3.000    0.000    7.000 
#    0.000    5.000    0.000    0.000    0.000    0.000 
#    0.000    0.667    0.000    1.500    0.000    3.000 
#
# Total GULP energy -267789.652263 kJ/mol
# GULP energy per Si atom -5578.951089 kJ/mol
# Density = 2.004205 g / cm^3
# Si number density = 20.087769 Si / 1000 Ang^3
#
#
#
# Elastic Constant Matrix: (Units=GPa)
#
#
# Indices 1 2 3 4 5 6 
#
# 1 127.4616 5.0332 104.9084 0.0000 0.0000 0.0000
# 2 5.0332 25.1437 -7.4632 0.0000 0.0000 0.0000
# 3 104.9084 -7.4632 170.9073 0.0000 0.0000 0.0000
# 4 0.0000 0.0000 0.0000 19.4610 0.0000 0.0000
# 5 0.0000 0.0000 0.0000 0.0000 41.7645 0.0000
# 6 0.0000 0.0000 0.0000 0.0000 0.0000 -89.0167
#
#
#
# Elastic Compliance Matrix: (Units=1/GPa)
#
#
# Indices 1 2 3 4 5 6 
#
# 1 0.016852 -0.006528 -0.010629 0.000000 0.000000 0.000000
# 2 -0.006528 0.042823 0.005877 0.000000 0.000000 0.000000
# 3 -0.010629 0.005877 0.012632 0.000000 0.000000 0.000000
# 4 0.000000 0.000000 0.000000 0.051385 0.000000 0.000000
# 5 0.000000 0.000000 0.000000 0.000000 0.023944 0.000000
# 6 0.000000 0.000000 0.000000 0.000000 0.000000 -0.011234
#
#
# Mechanical properties :
#
#
# Convention : Reuss Voigt Hill
#
# Bulk Modulus (GPa) = 20.10200 58.71883 39.41041
# Shear Modulus (GPa) = 28.48284 9.17737 18.83010
#
# Velocity S-wave (km/s) = 3.76961 2.13975 3.06501
# Velocity P-wave (km/s) = 5.38288 5.94973 5.67339
#
# Compressibility (1/GPa) = 0.04974629
#
# Stress axis : x y z
#
# Youngs Moduli (GPa) = 59.34080 23.35208 79.16173
#
# Poissons Ratio (x) = 0.15245 0.84143
# Poissons Ratio (y) = 0.38740 -0.46526
# Poissons Ratio (z) = 0.63075 -0.13725
#
# Static dielectric constant tensor:
#      x y z
#    x 1.704310 0.000000 0.000000 
#    y 0.000000 1.740600 0.000000 
#    z 0.000000 0.000000 1.691780 
# 
# From -- ./inp_files/37001.got.cif
#   From: 2010.05.17/outbox.cif.g08.bks.cpg/sg51_19_cif.got.tgz:37001.got - 2010.06.03 11:52:47.
