data_PCOD9405319
_publ_section_title
;
Structure prediction by ZEFSAII (Michael W. Deem and Ramdas Pophale) SiO2 
 PCOD9405319
Probable space group: P M M A
;
_chemical_formula_sum "Si O2"
_cell_formula_units_Z 32
_cell_length_a 7.570490
_cell_length_b 21.573025
_cell_length_c 9.358871
_cell_angle_alpha 90.000000
_cell_angle_beta 90.000000
_cell_angle_gamma 90.000000
_cell_volume 1528.475557
_symmetry_space_group_name_H-M "P M M A"
_symmetry_group_IT_number 51
_symmetry_cell_setting 'orthorhombic'
loop_
_space_group_symop_operation_xyz
x,y,z
1/2-x,-y,z
1/2+x,-y,-z
-x,y,-z
-x,-y,-z
1/2+x,y,-z
1/2-x,y,z
x,-y,z
loop_
_atom_site_type_symbol
_atom_site_label
_atom_site_fract_x
_atom_site_fract_y
_atom_site_fract_z
Si Si1 0.037854 0.000000 0.333235
Si Si2 0.037866 0.741986 0.167178
Si Si3 0.037835 0.500000 0.168040
Si Si4 0.961995 0.119950 0.833139
Si Si5 0.962210 0.621830 0.667493
O O1 0.969100 0.937345 0.259003
O O2 0.000000 0.000000 0.500000
O O3 0.250000 0.000000 0.313267
O O4 0.250000 0.743821 0.182679
O O5 0.970013 0.811042 0.203430
O O6 0.969754 0.685838 0.263729
O O7 0.000000 0.730257 0.000000
O O8 0.250000 0.500000 0.184093
O O9 0.970594 0.561966 0.246140
O O10 0.000000 0.500000 0.000000
O O11 0.750000 0.121782 0.815876
O O12 0.000000 0.109084 0.000000
O O13 0.750000 0.622543 0.684204
O O14 0.000000 0.617139 0.500000
#
# Coordination Sequence:
#
# PCOD9405319 Si02
#       5
#     4   8   4   8   8
#     4  10  21  34  48  70 100 130 161 200 244 290
#     4   9  18  33  52  74  99 127 162 202 242 287
#     4  10  21  36  54  76 100 128 165 206 244 286
#     4   9  18  33  52  73  97 126 162 203 243 286
#     4  10  21  35  51  74 103 132 163 200 242 289
#
# _framework density 20.935893
#
# number of rings (size 3 to 8) (size 9 to 14) (size 15 to 20)
#    0.000    2.500    0.000    1.500    0.000    4.000 
#    0.000    0.000    0.000    0.000    0.000    0.000 
#    0.000    0.000    0.000    0.000    0.000    0.000 
#
# Total GULP energy -178687.501065 kJ/mol
# GULP energy per Si atom -5583.984408 kJ/mol
# Density = 2.088824 g / cm^3
# Si number density = 20.935893 Si / 1000 Ang^3
#
#
#
# Elastic Constant Matrix: (Units=GPa)
#
#
# Indices 1 2 3 4 5 6 
#
# 1 48.9037 12.2545 -8.3122 0.0000 0.0000 0.0000
# 2 12.2545 251.1135 158.6916 0.0000 0.0000 0.0000
# 3 -8.3122 158.6916 158.0862 0.0000 0.0000 0.0000
# 4 0.0000 0.0000 0.0000 -64.2026 0.0000 0.0000
# 5 0.0000 0.0000 0.0000 0.0000 29.8079 0.0000
# 6 0.0000 0.0000 0.0000 0.0000 0.0000 -11.2007
#
#
#
# Elastic Compliance Matrix: (Units=1/GPa)
#
#
# Indices 1 2 3 4 5 6 
#
# 1 0.022807 -0.005117 0.006336 0.000000 0.000000 0.000000
# 2 -0.005117 0.012040 -0.012355 0.000000 0.000000 0.000000
# 3 0.006336 -0.012355 0.019061 0.000000 0.000000 0.000000
# 4 0.000000 0.000000 0.000000 -0.015576 0.000000 0.000000
# 5 0.000000 0.000000 0.000000 0.000000 0.033548 0.000000
# 6 0.000000 0.000000 0.000000 0.000000 0.000000 -0.089280
#
#
# Mechanical properties :
#
#
# Convention : Reuss Voigt Hill
#
# Bulk Modulus (GPa) = 31.60956 87.04126 59.32541
# Shear Modulus (GPa) = 324.31780 10.57888 167.44834
#
# Velocity S-wave (km/s) = 12.45978 2.25032 8.95294
# Velocity P-wave (km/s) = 14.90389 6.95826 11.63064
#
# Compressibility (1/GPa) = 0.03163600
#
# Stress axis : x y z
#
# Youngs Moduli (GPa) = 43.84537 83.05966 52.46369
#
# Poissons Ratio (x) = 0.42500 -0.33239
# Poissons Ratio (y) = 0.22435 0.64817
# Poissons Ratio (z) = -0.27779 1.02618
#
# Static dielectric constant tensor:
#      x y z
#    x 1.762860 0.000000 0.000000 
#    y 0.000000 1.782990 0.000000 
#    z 0.000000 0.000000 1.669720 
# 
# From -- ./inp_files/705.got.cif
#   From: 2010.05.17/outbox.cif.g08.bks.cpg/sg51_1_cif.got.tgz:705.got - 2010.06.03 11:52:47.
