data_PCOD9405593
_publ_section_title
;
Structure prediction by ZEFSAII (Michael W. Deem and Ramdas Pophale) SiO2 
 PCOD9405593
Probable space group: P M M A
;
_chemical_formula_sum "Si O2"
_cell_formula_units_Z 40
_cell_length_a 9.054805
_cell_length_b 14.330980
_cell_length_c 15.892624
_cell_angle_alpha 90.000000
_cell_angle_beta 90.000000
_cell_angle_gamma 90.000000
_cell_volume 2062.294106
_symmetry_space_group_name_H-M "P M M A"
_symmetry_group_IT_number 51
_symmetry_cell_setting 'orthorhombic'
loop_
_space_group_symop_operation_xyz
x,y,z
1/2-x,-y,z
1/2+x,-y,-z
-x,y,-z
-x,-y,-z
1/2+x,y,-z
1/2-x,y,z
x,-y,z
loop_
_atom_site_type_symbol
_atom_site_label
_atom_site_fract_x
_atom_site_fract_y
_atom_site_fract_z
Si Si1 0.074014 0.394742 0.255829
Si Si2 0.427210 0.890777 0.909830
Si Si3 0.573341 0.794610 0.265063
Si Si4 0.584394 0.389927 0.078891
Si Si5 0.417485 0.888408 0.416568
O O1 0.250000 0.384601 0.261983
O O2 0.034575 0.500000 0.285355
O O3 0.989814 0.306152 0.292790
O O4 0.019751 0.388068 0.159389
O O5 0.250000 0.884168 0.918442
O O6 0.471487 0.826889 0.829807
O O7 0.462619 0.000000 0.890606
O O8 0.500000 0.868897 0.000000
O O9 0.750000 0.794142 0.267394
O O10 0.507526 0.864950 0.333015
O O11 0.750000 0.351523 0.094001
O O12 0.604247 0.500000 0.060817
O O13 0.500000 0.346936 0.000000
O O14 0.500000 0.852431 0.500000
O O15 0.250000 0.851925 0.411120
O O16 0.409358 0.000000 0.424192
#
# Coordination Sequence:
#
# PCOD9405593 Si02
#       5
#     8   8   8   8   8
#     4  10  21  36  52  72 102 141 186 236 286 336
#     4   9  19  35  54  78 110 148 188 230 277 331
#     4  11  22  36  57  84 115 151 191 236 285 341
#     4   9  16  27  44  65  90 124 170 224 280 333
#     4  10  21  38  62  92 123 152 183 224 277 337
#
# _framework density 19.395876000000001
#
# number of rings (size 3 to 8) (size 9 to 14) (size 15 to 20)
#    0.000    2.200    0.000    3.000    0.000    8.000 
#    0.000    4.000    0.000    0.600    0.000    0.000 
#    0.000    0.000    0.000    0.000    0.000    0.000 
#
# Total GULP energy -223072.831144 kJ/mol
# GULP energy per Si atom -5576.820779 kJ/mol
# Density = 1.935173 g / cm^3
# Si number density = 19.395876 Si / 1000 Ang^3
#
#
#
# Elastic Constant Matrix: (Units=GPa)
#
#
# Indices 1 2 3 4 5 6 
#
# 1 85.6569 29.7250 34.4371 0.0000 0.0000 0.0000
# 2 29.7250 85.1139 13.3098 0.0000 0.0000 0.0000
# 3 34.4371 13.3098 75.5248 0.0000 0.0000 0.0000
# 4 0.0000 0.0000 0.0000 -101.9724 0.0000 0.0000
# 5 0.0000 0.0000 0.0000 0.0000 26.3424 0.0000
# 6 0.0000 0.0000 0.0000 0.0000 0.0000 18.9211
#
#
#
# Elastic Compliance Matrix: (Units=1/GPa)
#
#
# Indices 1 2 3 4 5 6 
#
# 1 0.015824 -0.004523 -0.006418 0.000000 0.000000 0.000000
# 2 -0.004523 0.013375 -0.000295 0.000000 0.000000 0.000000
# 3 -0.006418 -0.000295 0.016219 0.000000 0.000000 0.000000
# 4 0.000000 0.000000 0.000000 -0.009807 0.000000 0.000000
# 5 0.000000 0.000000 0.000000 0.000000 0.037962 0.000000
# 6 0.000000 0.000000 0.000000 0.000000 0.000000 0.052851
#
#
# Mechanical properties :
#
#
# Convention : Reuss Voigt Hill
#
# Bulk Modulus (GPa) = 43.57998 44.58216 44.08107
# Shear Modulus (GPa) = 31.93968 -0.08688 15.92640
#
# Velocity S-wave (km/s) = 4.06239 -0.21187 2.86863
# Velocity P-wave (km/s) = 6.67244 4.79327 5.80934
#
# Compressibility (1/GPa) = 0.02294632
#
# Stress axis : x y z
#
# Youngs Moduli (GPa) = 63.19340 74.76864 61.65513
#
# Poissons Ratio (x) = 0.33816 0.39573
# Poissons Ratio (y) = 0.28581 0.01817
# Poissons Ratio (z) = 0.40560 0.02204
#
# Static dielectric constant tensor:
#      x y z
#    x 1.676490 0.000000 0.000000 
#    y 0.000000 1.776510 0.000000 
#    z 0.000000 0.000000 1.694450 
# 
# From -- ./inp_files/20484.got.cif
#   From: 2010.05.17/outbox.cif.g08.bks.cpg/sg51_11_cif.got.tgz:20484.got - 2010.06.03 11:52:47.
