data_PCOD9405684
_publ_section_title
;
Structure prediction by ZEFSAII (Michael W. Deem and Ramdas Pophale) SiO2 
 PCOD9405684
Probable space group: P M M A
;
_chemical_formula_sum "Si O2"
_cell_formula_units_Z 48
_cell_length_a 24.126123
_cell_length_b 7.615205
_cell_length_c 11.360274
_cell_angle_alpha 90.000000
_cell_angle_beta 90.000000
_cell_angle_gamma 90.000000
_cell_volume 2087.170572
_symmetry_space_group_name_H-M "P M M A"
_symmetry_group_IT_number 51
_symmetry_cell_setting 'orthorhombic'
loop_
_space_group_symop_operation_xyz
x,y,z
1/2-x,-y,z
1/2+x,-y,-z
-x,y,-z
-x,-y,-z
1/2+x,y,-z
1/2-x,y,z
x,-y,z
loop_
_atom_site_type_symbol
_atom_site_label
_atom_site_fract_x
_atom_site_fract_y
_atom_site_fract_z
Si Si1 0.585252 0.711211 0.188350
Si Si2 0.080229 0.294857 0.070107
Si Si3 0.812598 0.789641 0.331039
Si Si4 0.813461 0.213086 0.801760
Si Si5 0.979366 0.711738 0.692339
Si Si6 0.873647 0.208874 0.562998
O O1 0.581367 0.500000 0.183743
O O2 0.647741 0.755605 0.221095
O O3 0.542393 0.772853 0.289343
O O4 0.568351 0.778545 0.059042
O O5 0.064618 0.500000 0.067271
O O6 0.145440 0.277436 0.096921
O O7 0.050402 0.223129 0.186715
O O8 0.750000 0.721440 0.322813
O O9 0.845693 0.719197 0.445184
O O10 0.808792 0.000000 0.343371
O O11 0.750000 0.269218 0.812676
O O12 0.840370 0.274560 0.678130
O O13 0.814548 0.000000 0.802547
O O14 0.979575 0.500000 0.690763
O O15 0.938814 0.761025 0.586118
O O16 0.866010 0.000000 0.561051
#
# Coordination Sequence:
#
# PCOD9405684 Si02
#       6
#     8   8   8   8   8   8
#     4  10  21  36  54  76 104 138 172 207 249 300
#     4   9  18  33  52  74 102 136 171 207 251 303
#     4  10  22  39  56  74 101 139 177 210 248 298
#     4   9  17  30  50  75 101 130 167 213 261 304
#     4   9  18  34  56  80 104 131 166 209 257 305
#     4   9  18  34  55  77 101 131 169 212 257 303
#
# _framework density 22.997641000000002
#
# number of rings (size 3 to 8) (size 9 to 14) (size 15 to 20)
#    0.000    2.667    0.000    1.000    0.000    8.000 
#    0.000    6.667    0.000    8.000    0.000    0.000 
#    0.000    0.000    0.000    0.000    0.000    0.000 
#
# Total GULP energy -267963.833841 kJ/mol
# GULP energy per Si atom -5582.579872 kJ/mol
# Density = 2.294530 g / cm^3
# Si number density = 22.997641 Si / 1000 Ang^3
#
#
#
# Elastic Constant Matrix: (Units=GPa)
#
#
# Indices 1 2 3 4 5 6 
#
# 1 118.7896 -6.3298 14.5830 0.0000 0.0000 0.0000
# 2 -6.3298 47.3212 -2.2490 0.0000 0.0000 0.0000
# 3 14.5830 -2.2490 61.1227 0.0000 0.0000 0.0000
# 4 0.0000 0.0000 0.0000 15.1314 0.0000 0.0000
# 5 0.0000 0.0000 0.0000 0.0000 27.9499 0.0000
# 6 0.0000 0.0000 0.0000 0.0000 0.0000 18.9954
#
#
#
# Elastic Compliance Matrix: (Units=1/GPa)
#
#
# Indices 1 2 3 4 5 6 
#
# 1 0.008726 0.001070 -0.002043 0.000000 0.000000 0.000000
# 2 0.001070 0.021300 0.000528 0.000000 0.000000 0.000000
# 3 -0.002043 0.000528 0.016867 0.000000 0.000000 0.000000
# 4 0.000000 0.000000 0.000000 0.066088 0.000000 0.000000
# 5 0.000000 0.000000 0.000000 0.000000 0.035778 0.000000
# 6 0.000000 0.000000 0.000000 0.000000 0.000000 0.052644
#
#
# Mechanical properties :
#
#
# Convention : Reuss Voigt Hill
#
# Bulk Modulus (GPa) = 21.73638 26.58243 24.15941
# Shear Modulus (GPa) = 22.97504 27.16395 25.06950
#
# Velocity S-wave (km/s) = 3.16415 3.44053 3.30523
# Velocity P-wave (km/s) = 4.77716 5.23134 5.00940
#
# Compressibility (1/GPa) = 0.04600582
#
# Stress axis : x y z
#
# Youngs Moduli (GPa) = 114.59989 46.94744 59.28634
#
# Poissons Ratio (x) = -0.05024 0.12109
# Poissons Ratio (y) = -0.12264 -0.03133
# Poissons Ratio (z) = 0.23407 -0.02481
#
# Static dielectric constant tensor:
#      x y z
#    x 1.859520 0.000000 0.000000 
#    y 0.000000 1.862770 0.000000 
#    z 0.000000 0.000000 1.874910 
# 
# From -- ./inp_files/18560.got.cif
#   From: 2010.05.17/outbox.cif.g08.bks.cpg/sg51_10_cif.got.tgz:18560.got - 2010.06.03 11:52:47.
