data_PCOD9405325
_publ_section_title
;
Structure prediction by ZEFSAII (Michael W. Deem and Ramdas Pophale) SiO2 
 PCOD9405325
Probable space group: P M M A
;
_chemical_formula_sum "Si O2"
_cell_formula_units_Z 48
_cell_length_a 7.547009
_cell_length_b 32.589787
_cell_length_c 9.398214
_cell_angle_alpha 90.000000
_cell_angle_beta 90.000000
_cell_angle_gamma 90.000000
_cell_volume 2311.541632
_symmetry_space_group_name_H-M "P M M A"
_symmetry_group_IT_number 51
_symmetry_cell_setting 'orthorhombic'
loop_
_space_group_symop_operation_xyz
x,y,z
1/2-x,-y,z
1/2+x,-y,-z
-x,y,-z
-x,-y,-z
1/2+x,y,-z
1/2-x,y,z
x,-y,z
loop_
_atom_site_type_symbol
_atom_site_label
_atom_site_fract_x
_atom_site_fract_y
_atom_site_fract_z
Si Si1 0.462538 0.751012 0.833414
Si Si2 0.037434 0.170138 0.666858
Si Si3 0.537284 0.920458 0.332637
Si Si4 0.462826 0.419472 0.667232
Si Si5 0.462790 0.660088 0.832686
Si Si6 0.962772 0.500000 0.167735
Si Si7 0.037200 0.000000 0.833375
O O1 0.250000 0.750200 0.813497
O O2 0.533249 0.790291 0.749318
O O3 0.530341 0.705593 0.792695
O O4 0.500000 0.756110 0.000000
O O5 0.250000 0.169471 0.686608
O O6 0.969868 0.124874 0.710016
O O7 0.000000 0.174598 0.500000
O O8 0.500000 0.926403 0.500000
O O9 0.750000 0.919495 0.316486
O O10 0.468539 0.958734 0.242332
O O11 0.500000 0.422299 0.500000
O O12 0.250000 0.419051 0.683615
O O13 0.530927 0.377323 0.737530
O O14 0.530020 0.459101 0.753500
O O15 0.250000 0.661159 0.817662
O O16 0.500000 0.653127 0.000000
O O17 0.750000 0.500000 0.183388
O O18 0.000000 0.500000 0.000000
O O19 0.250000 0.000000 0.814303
O O20 0.000000 0.000000 0.000000
#
# Coordination Sequence:
#
# PCOD9405325 Si02
#       7
#     8   8   8   8   8   4   4
#     4   9  18  32  49  70  97 127 159 197 238 280
#     4   9  18  32  49  70  96 124 156 195 236 279
#     4   9  18  33  51  70  93 123 158 194 233 279
#     4  10  21  35  51  74 102 129 160 199 241 284
#     4   9  18  33  51  71  96 127 163 199 236 282
#     4  10  21  36  54  76 100 128 163 200 238 284
#     4  10  21  34  48  70  98 124 153 192 236 280
#
# _framework density 20.765362
#
# number of rings (size 3 to 8) (size 9 to 14) (size 15 to 20)
#    0.000    2.667    0.000    1.000    0.000    4.000 
#    0.000    0.000    0.000    0.000    0.000    0.000 
#    0.000    0.000    0.000    0.000    0.000    0.000 
#
# Total GULP energy -267878.738178 kJ/mol
# GULP energy per Si atom -5580.807045 kJ/mol
# Density = 2.071810 g / cm^3
# Si number density = 20.765362 Si / 1000 Ang^3
#
#
#
# Elastic Constant Matrix: (Units=GPa)
#
#
# Indices 1 2 3 4 5 6 
#
# 1 52.3550 14.5122 -6.5537 0.0000 0.0000 0.0000
# 2 14.5122 275.7422 141.2715 0.0000 0.0000 0.0000
# 3 -6.5537 141.2715 118.9456 0.0000 0.0000 0.0000
# 4 0.0000 0.0000 0.0000 58.5048 0.0000 0.0000
# 5 0.0000 0.0000 0.0000 0.0000 27.3995 0.0000
# 6 0.0000 0.0000 0.0000 0.0000 0.0000 -1.3448
#
#
#
# Elastic Compliance Matrix: (Units=1/GPa)
#
#
# Indices 1 2 3 4 5 6 
#
# 1 0.021102 -0.004358 0.006339 0.000000 0.000000 0.000000
# 2 -0.004358 0.010163 -0.012311 0.000000 0.000000 0.000000
# 3 0.006339 -0.012311 0.023378 0.000000 0.000000 0.000000
# 4 0.000000 0.000000 0.000000 0.017093 0.000000 0.000000
# 5 0.000000 0.000000 0.000000 0.000000 0.036497 0.000000
# 6 0.000000 0.000000 0.000000 0.000000 0.000000 -0.743627
#
#
# Mechanical properties :
#
#
# Convention : Reuss Voigt Hill
#
# Bulk Modulus (GPa) = 29.42665 82.83363 56.13014
# Shear Modulus (GPa) = -8.28630 36.76610 14.23990
#
# Velocity S-wave (km/s) = -1.99978 4.21235 2.62153
# Velocity P-wave (km/s) = 2.97820 7.97718 6.02101
#
# Compressibility (1/GPa) = 0.03398280
#
# Stress axis : x y z
#
# Youngs Moduli (GPa) = 47.38909 98.39330 42.77472
#
# Poissons Ratio (x) = 0.42882 -0.27115
# Poissons Ratio (y) = 0.20653 0.52660
# Poissons Ratio (z) = -0.30040 1.21133
#
# Static dielectric constant tensor:
#      x y z
#    x 1.755080 0.000000 0.000000 
#    y 0.000000 1.786430 0.000000 
#    z 0.000000 0.000000 1.673540 
# 
# From -- ./inp_files/6273.got.cif
#   From: 2010.05.17/outbox.cif.g08.bks.cpg/sg51_4_cif.got.tgz:6273.got - 2010.06.03 11:52:47.
