data_PCOD9405614
_publ_section_title
;
Structure prediction by ZEFSAII (Michael W. Deem and Ramdas Pophale) SiO2 
 PCOD9405614
Probable space group: P M M A
;
_chemical_formula_sum "Si O2"
_cell_formula_units_Z 48
_cell_length_a 9.753907
_cell_length_b 7.534398
_cell_length_c 32.368864
_cell_angle_alpha 90.000000
_cell_angle_beta 90.000000
_cell_angle_gamma 90.000000
_cell_volume 2378.781905
_symmetry_space_group_name_H-M "P M M A"
_symmetry_group_IT_number 51
_symmetry_cell_setting 'orthorhombic'
loop_
_space_group_symop_operation_xyz
x,y,z
1/2-x,-y,z
1/2+x,-y,-z
-x,y,-z
-x,-y,-z
1/2+x,y,-z
1/2-x,y,z
x,-y,z
loop_
_atom_site_type_symbol
_atom_site_label
_atom_site_fract_x
_atom_site_fract_y
_atom_site_fract_z
Si Si1 0.905668 0.788787 0.718484
Si Si2 0.905010 0.710548 0.963314
Si Si3 0.907307 0.216759 0.207193
Si Si4 0.090029 0.283264 0.461606
Si Si5 0.591535 0.286939 0.628581
Si Si6 0.406466 0.786030 0.886007
O O1 0.750000 0.716248 0.718596
O O2 0.969433 0.762159 0.672890
O O3 0.994658 0.718880 0.756418
O O4 0.895864 0.000000 0.724099
O O5 0.750000 0.782934 0.962568
O O6 0.893061 0.500000 0.970712
O O7 0.985402 0.732685 0.920463
O O8 0.000000 0.785215 0.000000
O O9 0.750000 0.268603 0.214737
O O10 0.943735 0.272454 0.160517
O O11 0.910604 0.000000 0.207403
O O12 0.250000 0.232373 0.465415
O O13 0.087552 0.500000 0.462228
O O14 0.036891 0.227411 0.416081
O O15 0.000000 0.220934 0.500000
O O16 0.750000 0.223820 0.629835
O O17 0.593524 0.500000 0.627425
O O18 0.250000 0.725478 0.895263
O O19 0.402671 0.000000 0.885538
#
# Coordination Sequence:
#
# PCOD9405614 Si02
#       6
#     8   8   8   8   8   8
#     4   9  16  26  43  65  84 107 144 181 208 245
#     4  10  21  36  53  73  98 129 162 193 229 275
#     4   8  15  29  47  66  90 119 147 177 218 265
#     4   8  13  22  37  55  74  99 132 167 204 248
#     4   8  14  25  40  58  82 110 136 167 212 258
#     4   9  18  33  53  75  97 123 157 195 234 275
#
# _framework density 20.178394000000001
#
# number of rings (size 3 to 8) (size 9 to 14) (size 15 to 20)
#    0.000    3.333    0.000    2.500    0.000    2.333 
#    0.000    3.333    0.000    5.000    0.000    0.000 
#    0.000    0.000    0.000    0.000    0.000    0.000 
#
# Total GULP energy -267445.348042 kJ/mol
# GULP energy per Si atom -5571.778084 kJ/mol
# Density = 2.013247 g / cm^3
# Si number density = 20.178394 Si / 1000 Ang^3
#
#
#
# Elastic Constant Matrix: (Units=GPa)
#
#
# Indices 1 2 3 4 5 6 
#
# 1 107.8235 5.4778 119.7905 0.0000 0.0000 0.0000
# 2 5.4778 47.7186 1.7084 0.0000 0.0000 0.0000
# 3 119.7905 1.7084 216.7594 0.0000 0.0000 0.0000
# 4 0.0000 0.0000 0.0000 19.7077 0.0000 0.0000
# 5 0.0000 0.0000 0.0000 0.0000 36.9859 0.0000
# 6 0.0000 0.0000 0.0000 0.0000 0.0000 6.2304
#
#
#
# Elastic Compliance Matrix: (Units=1/GPa)
#
#
# Indices 1 2 3 4 5 6 
#
# 1 0.024277 -0.002307 -0.013398 0.000000 0.000000 0.000000
# 2 -0.002307 0.021181 0.001108 0.000000 0.000000 0.000000
# 3 -0.013398 0.001108 0.012009 0.000000 0.000000 0.000000
# 4 0.000000 0.000000 0.000000 0.050741 0.000000 0.000000
# 5 0.000000 0.000000 0.000000 0.000000 0.027037 0.000000
# 6 0.000000 0.000000 0.000000 0.000000 0.000000 0.160505
#
#
# Mechanical properties :
#
#
# Convention : Reuss Voigt Hill
#
# Bulk Modulus (GPa) = 35.36977 69.58389 52.47683
# Shear Modulus (GPa) = 14.95351 28.93980 21.94665
#
# Velocity S-wave (km/s) = 2.72520 3.79119 3.30150
# Velocity P-wave (km/s) = 5.24108 7.32962 6.37151
#
# Compressibility (1/GPa) = 0.02827273
#
# Stress axis : x y z
#
# Youngs Moduli (GPa) = 41.19137 47.21136 83.26996
#
# Poissons Ratio (x) = 0.10892 1.11567
# Poissons Ratio (y) = 0.09503 -0.09227
# Poissons Ratio (z) = 0.55189 -0.05231
#
# Static dielectric constant tensor:
#      x y z
#    x 1.693400 0.000000 0.000000 
#    y 0.000000 1.778250 0.000000 
#    z 0.000000 0.000000 1.732760 
# 
# From -- ./inp_files/36151.got.cif
#   From: 2010.05.17/outbox.cif.g08.bks.cpg/sg51_19_cif.got.tgz:36151.got - 2010.06.03 11:52:47.
