data_PCOD9405979
_publ_section_title
;
Structure prediction by ZEFSAII (Michael W. Deem and Ramdas Pophale) SiO2 
 PCOD9405979
Probable space group: P M M A
;
_chemical_formula_sum "Si O2"
_cell_formula_units_Z 40
_cell_length_a 18.288888
_cell_length_b 7.325137
_cell_length_c 15.306249
_cell_angle_alpha 90.000000
_cell_angle_beta 90.000000
_cell_angle_gamma 90.000000
_cell_volume 2050.556906
_symmetry_space_group_name_H-M "P M M A"
_symmetry_group_IT_number 51
_symmetry_cell_setting 'orthorhombic'
loop_
_space_group_symop_operation_xyz
x,y,z
1/2-x,-y,z
1/2+x,-y,-z
-x,y,-z
-x,-y,-z
1/2+x,y,-z
1/2-x,y,z
x,-y,z
loop_
_atom_site_type_symbol
_atom_site_label
_atom_site_fract_x
_atom_site_fract_y
_atom_site_fract_z
Si Si1 0.836500 0.283212 0.842394
Si Si2 0.574468 0.278274 0.671037
Si Si3 0.838011 0.000000 0.187001
Si Si4 0.838497 0.000000 0.987416
Si Si5 0.666336 0.722179 0.503952
Si Si6 0.404501 0.280137 0.680978
O O1 0.750000 0.249263 0.826725
O O2 0.845837 0.500000 0.853995
O O3 0.882121 0.223127 0.757924
O O4 0.859204 0.174319 0.928841
O O5 0.576498 0.500000 0.669305
O O6 0.615437 0.216036 0.583559
O O7 0.489697 0.227947 0.674360
O O8 0.867402 0.824941 0.239398
O O9 0.750000 0.000000 0.188511
O O10 0.864604 0.000000 0.086718
O O11 0.750000 0.000000 0.992459
O O12 0.750000 0.781223 0.514893
O O13 0.666166 0.500000 0.506024
O O14 0.634958 0.772484 0.409521
O O15 0.399369 0.500000 0.690862
#
# Coordination Sequence:
#
# PCOD9405979 Si02
#       6
#     8   8   4   4   8   8
#     4   9  17  32  55  81 109 141 178 222 270 319
#     4   9  17  31  53  82 114 145 178 218 266 320
#     4  11  24  41  59  79 104 137 182 230 270 317
#     4   9  20  37  56  79 104 133 177 230 276 319
#     4   9  16  29  53  82 111 147 186 220 259 310
#     4  10  21  37  56  80 112 147 180 218 266 317
#
# _framework density 19.506896000000001
#
# number of rings (size 3 to 8) (size 9 to 14) (size 15 to 20)
#    0.000    2.600    0.000    1.800    0.000    7.600 
#    0.000    7.000    0.000    4.800    0.000    0.000 
#    0.000    0.000    0.000    0.000    0.000    0.000 
#
# Total GULP energy -223400.831547 kJ/mol
# GULP energy per Si atom -5585.020789 kJ/mol
# Density = 1.946250 g / cm^3
# Si number density = 19.506896 Si / 1000 Ang^3
#
#
#
# Elastic Constant Matrix: (Units=GPa)
#
#
# Indices 1 2 3 4 5 6 
#
# 1 82.3561 14.3205 29.7990 0.0000 0.0000 0.0000
# 2 14.3205 77.1050 22.8107 0.0000 0.0000 0.0000
# 3 29.7990 22.8107 125.5750 0.0000 0.0000 0.0000
# 4 0.0000 0.0000 0.0000 35.7290 0.0000 0.0000
# 5 0.0000 0.0000 0.0000 0.0000 -2.3283 0.0000
# 6 0.0000 0.0000 0.0000 0.0000 0.0000 -0.7554
#
#
#
# Elastic Compliance Matrix: (Units=1/GPa)
#
#
# Indices 1 2 3 4 5 6 
#
# 1 0.013478 -0.001645 -0.002899 0.000000 0.000000 0.000000
# 2 -0.001645 0.013907 -0.002136 0.000000 0.000000 0.000000
# 3 -0.002899 -0.002136 0.009039 0.000000 0.000000 0.000000
# 4 0.000000 0.000000 0.000000 0.027988 0.000000 0.000000
# 5 0.000000 0.000000 0.000000 0.000000 -0.429493 0.000000
# 6 0.000000 0.000000 0.000000 0.000000 0.000000 -1.323761
#
#
# Mechanical properties :
#
#
# Convention : Reuss Voigt Hill
#
# Bulk Modulus (GPa) = 43.35998 46.54405 44.95201
# Shear Modulus (GPa) = -2.99797 21.06945 9.03574
#
# Velocity S-wave (km/s) = -1.24105 3.29006 2.15456
# Velocity P-wave (km/s) = 4.49696 6.19231 5.41144
#
# Compressibility (1/GPa) = 0.02306274
#
# Stress axis : x y z
#
# Youngs Moduli (GPa) = 74.19729 71.90757 110.62762
#
# Poissons Ratio (x) = 0.11832 0.32075
# Poissons Ratio (y) = 0.12209 0.23627
# Poissons Ratio (z) = 0.21512 0.15357
#
# Static dielectric constant tensor:
#      x y z
#    x 1.652760 0.000000 0.000000 
#    y 0.000000 1.728570 0.000000 
#    z 0.000000 0.000000 1.638480 
# 
# From -- ./inp_files/17919.got.cif
#   From: 2010.05.17/outbox.cif.g08.bks.cpg/sg51_9_cif.got.tgz:17919.got - 2010.06.03 11:52:47.
