data_PCOD9405952
_publ_section_title
;
Structure prediction by ZEFSAII (Michael W. Deem and Ramdas Pophale) SiO2 
 PCOD9405952
Probable space group: P M M A
;
_chemical_formula_sum "Si O2"
_cell_formula_units_Z 64
_cell_length_a 8.649729
_cell_length_b 31.699407
_cell_length_c 14.767997
_cell_angle_alpha 90.000000
_cell_angle_beta 90.000000
_cell_angle_gamma 90.000000
_cell_volume 4049.256001
_symmetry_space_group_name_H-M "P M M A"
_symmetry_group_IT_number 51
_symmetry_cell_setting 'orthorhombic'
loop_
_space_group_symop_operation_xyz
x,y,z
1/2-x,-y,z
1/2+x,-y,-z
-x,y,-z
-x,-y,-z
1/2+x,y,-z
1/2-x,y,z
x,-y,z
loop_
_atom_site_type_symbol
_atom_site_label
_atom_site_fract_x
_atom_site_fract_y
_atom_site_fract_z
Si Si1 0.564531 0.953865 0.897446
Si Si2 0.934528 0.866163 0.102535
Si Si3 0.564106 0.625155 0.788928
Si Si4 0.435841 0.341527 0.404217
Si Si5 0.935053 0.450954 0.099811
Si Si6 0.064806 0.705004 0.898286
Si Si7 0.936413 0.786100 0.791586
Si Si8 0.935898 0.243439 0.595994
O O1 0.750000 0.949723 0.900220
O O2 0.491778 0.911249 0.858606
O O3 0.526997 0.000000 0.856476
O O4 0.500000 0.955135 0.000000
O O5 0.750000 0.865492 0.098052
O O6 0.997420 0.827722 0.161703
O O7 0.000000 0.862067 0.000000
O O8 0.750000 0.628058 0.794436
O O9 0.516942 0.632877 0.684706
O O10 0.507553 0.581020 0.828801
O O11 0.492376 0.662781 0.848399
O O12 0.500000 0.357017 0.500000
O O13 0.250000 0.341719 0.408305
O O14 0.485703 0.292509 0.393010
O O15 0.750000 0.446508 0.098786
O O16 0.973170 0.500000 0.118383
O O17 0.000000 0.440699 0.000000
O O18 0.250000 0.706435 0.899883
O O19 0.999177 0.745230 0.844362
O O20 0.000000 0.705685 0.000000
O O21 0.750000 0.786143 0.796943
O O22 0.982394 0.781453 0.686133
O O23 0.750000 0.243191 0.591817
O O24 0.000000 0.227975 0.500000
#
# Coordination Sequence:
#
# PCOD9405952 Si02
#       8
#     8   8   8   8   8   8   8   8
#     4   9  16  27  44  65  89 121 162 207 252 294
#     4  11  21  32  46  67  95 132 172 207 248 296
#     4  11  21  36  55  77 104 131 165 203 244 291
#     4   9  18  33  52  76 101 128 160 200 246 290
#     4  10  21  37  56  79 105 133 166 203 245 291
#     4  12  24  36  50  70  98 133 169 204 242 285
#     4  11  21  36  51  68  98 132 166 204 245 291
#     4   9  18  33  52  72  96 125 160 202 247 289
#
# _framework density 15.805374
#
# number of rings (size 3 to 8) (size 9 to 14) (size 15 to 20)
#    0.000    1.750    1.250    5.250    0.000    3.500 
#    0.000    0.000    0.000    0.375    0.000    0.000 
#    0.000    0.500    0.000    1.625    0.000    2.250 
#
# Total GULP energy -357190.771121 kJ/mol
# GULP energy per Si atom -5581.105799 kJ/mol
# Density = 1.576940 g / cm^3
# Si number density = 15.805374 Si / 1000 Ang^3
#
#
#
# Elastic Constant Matrix: (Units=GPa)
#
#
# Indices 1 2 3 4 5 6 
#
# 1 81.6991 43.8299 45.6511 0.0000 0.0000 0.0000
# 2 43.8299 105.2516 70.6884 0.0000 0.0000 0.0000
# 3 45.6511 70.6884 133.3148 0.0000 0.0000 0.0000
# 4 0.0000 0.0000 0.0000 2.9961 0.0000 0.0000
# 5 0.0000 0.0000 0.0000 0.0000 25.4928 0.0000
# 6 0.0000 0.0000 0.0000 0.0000 0.0000 29.1735
#
#
#
# Elastic Compliance Matrix: (Units=1/GPa)
#
#
# Indices 1 2 3 4 5 6 
#
# 1 0.016561 -0.004795 -0.003128 0.000000 0.000000 0.000000
# 2 -0.004795 0.016144 -0.006918 0.000000 0.000000 0.000000
# 3 -0.003128 -0.006918 0.012241 0.000000 0.000000 0.000000
# 4 0.000000 0.000000 0.000000 0.333768 0.000000 0.000000
# 5 0.000000 0.000000 0.000000 0.000000 0.039227 0.000000
# 6 0.000000 0.000000 0.000000 0.000000 0.000000 0.034278
#
#
# Mechanical properties :
#
#
# Convention : Reuss Voigt Hill
#
# Bulk Modulus (GPa) = 65.52275 71.17826 68.35050
# Shear Modulus (GPa) = 10.26717 22.20554 16.23636
#
# Velocity S-wave (km/s) = 2.55149 3.75231 3.20858
# Velocity P-wave (km/s) = 7.08704 7.99407 7.55418
#
# Compressibility (1/GPa) = 0.01526188
#
# Stress axis : x y z
#
# Youngs Moduli (GPa) = 60.38429 61.94105 81.69582
#
# Poissons Ratio (x) = 0.29703 0.25556
# Poissons Ratio (y) = 0.28957 0.56519
# Poissons Ratio (z) = 0.18889 0.42852
#
# Static dielectric constant tensor:
#      x y z
#    x 1.531280 0.000000 0.000000 
#    y 0.000000 1.532810 0.000000 
#    z 0.000000 0.000000 1.511570 
# 
# From -- ./inp_files/22615.got.cif
#   From: 2010.05.17/outbox.cif.g08.bks.cpg/sg51_12_cif.got.tgz:22615.got - 2010.06.03 11:52:47.
