data_PCOD9405963
_publ_section_title
;
Structure prediction by ZEFSAII (Michael W. Deem and Ramdas Pophale) SiO2 
 PCOD9405963
Probable space group: P M M A
;
_chemical_formula_sum "Si O2"
_cell_formula_units_Z 48
_cell_length_a 9.268634
_cell_length_b 13.870340
_cell_length_c 19.321493
_cell_angle_alpha 90.000000
_cell_angle_beta 90.000000
_cell_angle_gamma 90.000000
_cell_volume 2483.953846
_symmetry_space_group_name_H-M "P M M A"
_symmetry_group_IT_number 51
_symmetry_cell_setting 'orthorhombic'
loop_
_space_group_symop_operation_xyz
x,y,z
1/2-x,-y,z
1/2+x,-y,-z
-x,y,-z
-x,-y,-z
1/2+x,y,-z
1/2-x,y,z
x,-y,z
loop_
_atom_site_type_symbol
_atom_site_label
_atom_site_fract_x
_atom_site_fract_y
_atom_site_fract_z
Si Si1 0.092069 0.111162 0.191474
Si Si2 0.419014 0.383883 0.785644
Si Si3 0.916403 0.251276 0.679822
Si Si4 0.083834 0.617001 0.070604
Si Si5 0.923645 0.110729 0.425207
Si Si6 0.407831 0.117522 0.934855
O O1 0.250000 0.115798 0.157106
O O2 0.093517 0.172121 0.259771
O O3 0.976406 0.145672 0.137134
O O4 0.064295 0.000000 0.208511
O O5 0.250000 0.354620 0.788305
O O6 0.423743 0.500000 0.779878
O O7 0.499035 0.336994 0.719286
O O8 0.501066 0.358945 0.857769
O O9 0.750000 0.276312 0.659874
O O10 0.005109 0.195634 0.620337
O O11 0.250000 0.652171 0.071946
O O12 0.089654 0.500000 0.069309
O O13 0.000000 0.644393 0.000000
O O14 0.750000 0.122829 0.430154
O O15 0.000000 0.114099 0.500000
O O16 0.948819 0.000000 0.398133
O O17 0.250000 0.156850 0.941880
O O18 0.404202 0.000000 0.934454
O O19 0.500000 0.145544 0.000000
#
# Coordination Sequence:
#
# PCOD9405963 Si02
#       6
#     8   8   8   8   8   8
#     4   9  18  32  49  71 101 135 170 211 261 316
#     4  10  21  37  56  79 110 149 193 241 292 345
#     4  11  22  36  57  84 114 147 184 227 276 333
#     4   9  16  28  49  76 105 139 182 234 293 352
#     4  10  21  38  62  92 125 158 190 225 268 323
#     4   9  16  26  42  63  89 126 171 216 261 310
#
# _framework density 19.324031000000002
#
# number of rings (size 3 to 8) (size 9 to 14) (size 15 to 20)
#    0.000    2.333    0.000    3.000    0.000    8.000 
#    0.000    2.500    0.000    4.500    0.000    0.000 
#    0.000    0.000    0.000    0.000    0.000    0.000 
#
# Total GULP energy -267873.801999 kJ/mol
# GULP energy per Si atom -5580.704208 kJ/mol
# Density = 1.928005 g / cm^3
# Si number density = 19.324031 Si / 1000 Ang^3
#
#
#
# Elastic Constant Matrix: (Units=GPa)
#
#
# Indices 1 2 3 4 5 6 
#
# 1 156.2091 39.1521 62.0903 0.0000 0.0000 0.0000
# 2 39.1521 81.6069 24.5405 0.0000 0.0000 0.0000
# 3 62.0903 24.5405 86.1162 0.0000 0.0000 0.0000
# 4 0.0000 0.0000 0.0000 63.0849 0.0000 0.0000
# 5 0.0000 0.0000 0.0000 0.0000 35.7311 0.0000
# 6 0.0000 0.0000 0.0000 0.0000 0.0000 20.0261
#
#
#
# Elastic Compliance Matrix: (Units=1/GPa)
#
#
# Indices 1 2 3 4 5 6 
#
# 1 0.009499 -0.002732 -0.006071 0.000000 0.000000 0.000000
# 2 -0.002732 0.014188 -0.002073 0.000000 0.000000 0.000000
# 3 -0.006071 -0.002073 0.016580 0.000000 0.000000 0.000000
# 4 0.000000 0.000000 0.000000 0.015852 0.000000 0.000000
# 5 0.000000 0.000000 0.000000 0.000000 0.027987 0.000000
# 6 0.000000 0.000000 0.000000 0.000000 0.000000 0.049935
#
#
# Mechanical properties :
#
#
# Convention : Reuss Voigt Hill
#
# Bulk Modulus (GPa) = 54.00863 63.94420 58.97642
# Shear Modulus (GPa) = 30.87098 36.97838 33.92468
#
# Velocity S-wave (km/s) = 4.00126 4.37921 4.19450
# Velocity P-wave (km/s) = 7.02541 7.66370 7.35149
#
# Compressibility (1/GPa) = 0.01851556
#
# Stress axis : x y z
#
# Youngs Moduli (GPa) = 105.27042 70.48175 60.31360
#
# Poissons Ratio (x) = 0.19255 0.36614
# Poissons Ratio (y) = 0.28759 0.12506
# Poissons Ratio (z) = 0.63905 0.14614
#
# Static dielectric constant tensor:
#      x y z
#    x 1.707410 0.000000 0.000000 
#    y 0.000000 1.725910 0.000000 
#    z 0.000000 0.000000 1.634620 
# 
# From -- ./inp_files/27601.got.cif
#   From: 2010.05.17/outbox.cif.g08.bks.cpg/sg51_14_cif.got.tgz:27601.got - 2010.06.03 11:52:47.
