data_PCOD9405846
_publ_section_title
;
Structure prediction by ZEFSAII (Michael W. Deem and Ramdas Pophale) SiO2 
 PCOD9405846
Probable space group: P M M A
;
_chemical_formula_sum "Si O2"
_cell_formula_units_Z 64
_cell_length_a 16.595950
_cell_length_b 19.387510
_cell_length_c 9.283714
_cell_angle_alpha 90.000000
_cell_angle_beta 90.000000
_cell_angle_gamma 90.000000
_cell_volume 2987.073475
_symmetry_space_group_name_H-M "P M M A"
_symmetry_group_IT_number 51
_symmetry_cell_setting 'orthorhombic'
loop_
_space_group_symop_operation_xyz
x,y,z
1/2-x,-y,z
1/2+x,-y,-z
-x,y,-z
-x,-y,-z
1/2+x,y,-z
1/2-x,y,z
x,-y,z
loop_
_atom_site_type_symbol
_atom_site_label
_atom_site_fract_x
_atom_site_fract_y
_atom_site_fract_z
Si Si1 0.159071 0.746629 0.346054
Si Si2 0.663068 0.116150 0.464581
Si Si3 0.907184 0.163498 0.190992
Si Si4 0.573591 0.316563 0.107177
Si Si5 0.156484 0.141155 0.109825
Si Si6 0.036347 0.623848 0.348085
Si Si7 0.955144 0.925340 0.682554
Si Si8 0.844379 0.576802 0.894039
O O1 0.250000 0.716479 0.350151
O O2 0.157633 0.808745 0.460329
O O3 0.148971 0.784748 0.191652
O O4 0.087711 0.693857 0.376317
O O5 0.750000 0.085869 0.502727
O O6 0.656968 0.128715 0.295882
O O7 0.583890 0.078622 0.523976
O O8 0.894963 0.245391 0.174689
O O9 0.990085 0.138616 0.265606
O O10 0.897910 0.136761 0.030263
O O11 0.536466 0.359862 0.238853
O O12 0.500000 0.297195 0.000000
O O13 0.630411 0.364255 0.008238
O O14 0.250000 0.133075 0.073861
O O15 0.125362 0.085080 0.221845
O O16 0.100431 0.582456 0.249138
O O17 0.000000 0.597976 0.500000
O O18 0.991572 0.000000 0.713213
O O19 0.750000 0.583814 0.859659
O O20 0.857635 0.500000 0.956291
#
# Coordination Sequence:
#
# PCOD9405846 Si02
#       8
#     8   8   8   8   8   8   8   8
#     4   9  18  35  57  83 119 162 202 240 296 369
#     4  10  22  38  58  83 114 154 199 249 302 359
#     4  12  22  36  59  92 124 148 193 257 313 354
#     4  10  21  37  62  93 125 164 206 251 305 373
#     4  10  21  36  57  84 113 149 198 255 307 358
#     4  11  21  34  58  92 126 161 204 256 311 362
#     4  11  24  42  60  78 112 163 207 242 294 371
#     4  10  23  44  66  88 121 168 214 251 299 372
#
# _framework density 21.425650999999998
#
# number of rings (size 3 to 8) (size 9 to 14) (size 15 to 20)
#    0.000    1.625    0.000    7.125    0.000    7.500 
#    0.000    1.250    0.000    3.750    0.000    0.000 
#    0.000    0.000    0.000    0.000    0.000    0.000 
#
# Total GULP energy -357218.765596 kJ/mol
# GULP energy per Si atom -5581.543212 kJ/mol
# Density = 2.137689 g / cm^3
# Si number density = 21.425651 Si / 1000 Ang^3
#
#
#
# Elastic Constant Matrix: (Units=GPa)
#
#
# Indices 1 2 3 4 5 6 
#
# 1 100.4094 26.4635 24.3238 0.0000 0.0000 0.0000
# 2 26.4635 91.0247 9.5264 0.0000 0.0000 0.0000
# 3 24.3238 9.5264 102.5150 0.0000 0.0000 0.0000
# 4 0.0000 0.0000 0.0000 12.5964 0.0000 0.0000
# 5 0.0000 0.0000 0.0000 0.0000 27.6986 0.0000
# 6 0.0000 0.0000 0.0000 0.0000 0.0000 17.7560
#
#
#
# Elastic Compliance Matrix: (Units=1/GPa)
#
#
# Indices 1 2 3 4 5 6 
#
# 1 0.011346 -0.003046 -0.002409 0.000000 0.000000 0.000000
# 2 -0.003046 0.011912 -0.000384 0.000000 0.000000 0.000000
# 3 -0.002409 -0.000384 0.010362 0.000000 0.000000 0.000000
# 4 0.000000 0.000000 0.000000 0.079388 0.000000 0.000000
# 5 0.000000 0.000000 0.000000 0.000000 0.036103 0.000000
# 6 0.000000 0.000000 0.000000 0.000000 0.000000 0.056319
#
#
# Mechanical properties :
#
#
# Convention : Reuss Voigt Hill
#
# Bulk Modulus (GPa) = 45.57746 46.06405 45.82075
# Shear Modulus (GPa) = 22.27948 27.18588 24.73268
#
# Velocity S-wave (km/s) = 3.22817 3.56595 3.40126
# Velocity P-wave (km/s) = 5.93408 6.20491 6.07100
#
# Compressibility (1/GPa) = 0.02194067
#
# Stress axis : x y z
#
# Youngs Moduli (GPa) = 88.13935 83.94957 96.50714
#
# Poissons Ratio (x) = 0.25574 0.23248
# Poissons Ratio (y) = 0.26851 0.03707
# Poissons Ratio (z) = 0.21232 0.03225
#
# Static dielectric constant tensor:
#      x y z
#    x 1.815410 0.000000 0.000000 
#    y 0.000000 1.781580 0.000000 
#    z 0.000000 0.000000 1.786020 
# 
# From -- ./inp_files/9997.got.cif
#   From: 2010.05.17/outbox.cif.g08.bks.cpg/sg51_5_cif.got.tgz:9997.got - 2010.06.03 11:52:47.
