data_PCOD9405675
_publ_section_title
;
Structure prediction by ZEFSAII (Michael W. Deem and Ramdas Pophale) SiO2 
 PCOD9405675
Probable space group: P M M A
;
_chemical_formula_sum "Si O2"
_cell_formula_units_Z 44
_cell_length_a 9.218852
_cell_length_b 7.590959
_cell_length_c 30.990765
_cell_angle_alpha 90.000000
_cell_angle_beta 90.000000
_cell_angle_gamma 90.000000
_cell_volume 2168.731490
_symmetry_space_group_name_H-M "P M M A"
_symmetry_group_IT_number 51
_symmetry_cell_setting 'orthorhombic'
loop_
_space_group_symop_operation_xyz
x,y,z
1/2-x,-y,z
1/2+x,-y,-z
-x,y,-z
-x,-y,-z
1/2+x,y,-z
1/2-x,y,z
x,-y,z
loop_
_atom_site_type_symbol
_atom_site_label
_atom_site_fract_x
_atom_site_fract_y
_atom_site_fract_z
Si Si1 0.574422 0.500000 0.453217
Si Si2 0.588579 0.790250 0.040770
Si Si3 0.922103 0.787648 0.605488
Si Si4 0.415974 0.711925 0.222502
Si Si5 0.916246 0.287724 0.873105
Si Si6 0.912993 0.790556 0.308636
O O1 0.750000 0.500000 0.455201
O O2 0.500000 0.500000 0.500000
O O3 0.514166 0.328178 0.427936
O O4 0.750000 0.715871 0.041891
O O5 0.510790 0.765580 0.086362
O O6 0.599464 0.000000 0.034177
O O7 0.500000 0.717900 0.000000
O O8 0.750000 0.751938 0.601656
O O9 0.980867 0.733233 0.652873
O O10 0.942110 0.000000 0.599917
O O11 0.250000 0.774170 0.229745
O O12 0.410574 0.500000 0.221079
O O13 0.464094 0.772418 0.174720
O O14 0.518613 0.759140 0.261887
O O15 0.750000 0.228372 0.879133
O O16 0.915304 0.500000 0.872347
O O17 0.750000 0.716453 0.312460
O O18 0.902137 0.000000 0.313731
#
# Coordination Sequence:
#
# PCOD9405675 Si02
#       6
#     4   8   8   8   8   8
#     4  12  26  44  68  98 132 170 214 262 315 376
#     4  10  21  36  54  76 101 131 170 216 268 327
#     4  10  22  42  67  94 127 168 214 264 315 370
#     4   9  19  35  54  77 107 145 186 229 276 333
#     4   9  19  36  55  76 104 138 178 222 272 330
#     4  10  21  36  55  83 118 154 194 240 291 348
#
# _framework density 20.288357000000001
#
# number of rings (size 3 to 8) (size 9 to 14) (size 15 to 20)
#    0.000    2.182    0.000    3.545    1.273    6.182 
#    0.000    5.455    0.000    0.000    0.000    0.000 
#    0.000    0.000    0.000    0.000    0.000    0.000 
#
# Total GULP energy -245627.498427 kJ/mol
# GULP energy per Si atom -5582.443146 kJ/mol
# Density = 2.024218 g / cm^3
# Si number density = 20.288357 Si / 1000 Ang^3
#
#
#
# Elastic Constant Matrix: (Units=GPa)
#
#
# Indices 1 2 3 4 5 6 
#
# 1 167.1777 36.2881 111.6181 0.0000 0.0000 0.0000
# 2 36.2881 56.6794 25.1261 0.0000 0.0000 0.0000
# 3 111.6181 25.1261 180.1225 0.0000 0.0000 0.0000
# 4 0.0000 0.0000 0.0000 33.0574 0.0000 0.0000
# 5 0.0000 0.0000 0.0000 0.0000 32.6502 0.0000
# 6 0.0000 0.0000 0.0000 0.0000 0.0000 25.2015
#
#
#
# Elastic Compliance Matrix: (Units=1/GPa)
#
#
# Indices 1 2 3 4 5 6 
#
# 1 0.011119 -0.004332 -0.006286 0.000000 0.000000 0.000000
# 2 -0.004332 0.020494 -0.000174 0.000000 0.000000 0.000000
# 3 -0.006286 -0.000174 0.009471 0.000000 0.000000 0.000000
# 4 0.000000 0.000000 0.000000 0.030250 0.000000 0.000000
# 5 0.000000 0.000000 0.000000 0.000000 0.030628 0.000000
# 6 0.000000 0.000000 0.000000 0.000000 0.000000 0.039680
#
#
# Mechanical properties :
#
#
# Convention : Reuss Voigt Hill
#
# Bulk Modulus (GPa) = 51.28305 83.33826 67.31065
# Shear Modulus (GPa) = 29.45919 33.57830 31.51874
#
# Velocity S-wave (km/s) = 3.81468 4.07265 3.94577
# Velocity P-wave (km/s) = 6.68837 7.95496 7.34900
#
# Compressibility (1/GPa) = 0.01949962
#
# Stress axis : x y z
#
# Youngs Moduli (GPa) = 89.93803 48.79499 105.58277
#
# Poissons Ratio (x) = 0.21139 0.66367
# Poissons Ratio (y) = 0.38962 0.01840
# Poissons Ratio (z) = 0.56533 0.00850
#
# Static dielectric constant tensor:
#      x y z
#    x 1.710910 0.000000 0.000000 
#    y 0.000000 1.755890 0.000000 
#    z 0.000000 0.000000 1.701590 
# 
# From -- ./inp_files/36818.got.cif
#   From: 2010.05.17/outbox.cif.g08.bks.cpg/sg51_19_cif.got.tgz:36818.got - 2010.06.03 11:52:47.
