data_PCOD9405767
_publ_section_title
;
Structure prediction by ZEFSAII (Michael W. Deem and Ramdas Pophale) SiO2 
 PCOD9405767
Probable space group: P M M A
;
_chemical_formula_sum "Si O2"
_cell_formula_units_Z 46
_cell_length_a 9.367653
_cell_length_b 10.381639
_cell_length_c 25.138802
_cell_angle_alpha 90.000000
_cell_angle_beta 90.000000
_cell_angle_gamma 90.000000
_cell_volume 2444.788509
_symmetry_space_group_name_H-M "P M M A"
_symmetry_group_IT_number 51
_symmetry_cell_setting 'orthorhombic'
loop_
_space_group_symop_operation_xyz
x,y,z
1/2-x,-y,z
1/2+x,-y,-z
-x,y,-z
-x,-y,-z
1/2+x,y,-z
1/2-x,y,z
x,-y,z
loop_
_atom_site_type_symbol
_atom_site_label
_atom_site_fract_x
_atom_site_fract_y
_atom_site_fract_z
Si Si1 0.580299 0.850165 0.352525
Si Si2 0.587238 0.259062 0.143803
Si Si3 0.408000 0.349294 0.048297
Si Si4 0.079343 0.351296 0.555257
Si Si5 0.951952 0.000000 0.078597
Si Si6 0.581107 0.847006 0.758164
Si Si7 0.250000 0.000000 0.024941
O O1 0.750000 0.834570 0.340542
O O2 0.541730 0.750595 0.399011
O O3 0.487451 0.826991 0.299874
O O4 0.559611 0.000000 0.368647
O O5 0.750000 0.306163 0.150025
O O6 0.491402 0.341410 0.103293
O O7 0.590009 0.123903 0.112793
O O8 0.506358 0.235120 0.198898
O O9 0.250000 0.287450 0.049687
O O10 0.390206 0.500000 0.036012
O O11 0.500000 0.291221 0.000000
O O12 0.250000 0.342922 0.547011
O O13 0.046467 0.500000 0.570516
O O14 0.000000 0.323933 0.500000
O O15 0.121316 0.000000 0.069380
O O16 0.869394 0.000000 0.023389
O O17 0.750000 0.818138 0.759131
O O18 0.564195 0.000000 0.770505
#
# Coordination Sequence:
#
# PCOD9405767 Si02
#       7
#     8   8   8   8   4   8   2
#     4   9  18  34  55  78 109 148 190 235 280 330
#     4  12  23  36  57  80 108 140 177 219 270 332
#     4  10  23  41  59  78 102 135 176 222 273 329
#     4   9  18  33  54  82 116 152 188 227 275 330
#     4  11  24  36  52  80 110 142 167 216 272 332
#     4  10  21  36  55  80 109 142 183 227 276 327
#     4  10  24  38  48  74 118 138 172 210 270 336
#
# _framework density 18.815532000000001
#
# number of rings (size 3 to 8) (size 9 to 14) (size 15 to 20)
#    0.000    1.913    1.739    1.565    4.870    2.783 
#    0.000    0.870    0.000    3.130    0.000    0.000 
#    0.000    0.000    0.000    0.000    0.000    0.000 
#
# Total GULP energy -256322.127076 kJ/mol
# GULP energy per Si atom -5572.220154 kJ/mol
# Density = 1.877271 g / cm^3
# Si number density = 18.815532 Si / 1000 Ang^3
#
#
#
# Elastic Constant Matrix: (Units=GPa)
#
#
# Indices 1 2 3 4 5 6 
#
# 1 164.2422 35.9705 81.7202 0.0000 0.0000 0.0000
# 2 35.9705 46.1184 47.1732 0.0000 0.0000 0.0000
# 3 81.7202 47.1732 136.7877 0.0000 0.0000 0.0000
# 4 0.0000 0.0000 0.0000 138.5713 0.0000 0.0000
# 5 0.0000 0.0000 0.0000 0.0000 37.1094 0.0000
# 6 0.0000 0.0000 0.0000 0.0000 0.0000 23.7553
#
#
#
# Elastic Compliance Matrix: (Units=1/GPa)
#
#
# Indices 1 2 3 4 5 6 
#
# 1 0.008819 -0.002301 -0.004475 0.000000 0.000000 0.000000
# 2 -0.002301 0.034101 -0.010386 0.000000 0.000000 0.000000
# 3 -0.004475 -0.010386 0.013566 0.000000 0.000000 0.000000
# 4 0.000000 0.000000 0.000000 0.007217 0.000000 0.000000
# 5 0.000000 0.000000 0.000000 0.000000 0.026947 0.000000
# 6 0.000000 0.000000 0.000000 0.000000 0.000000 0.042096
#
#
# Mechanical properties :
#
#
# Convention : Reuss Voigt Hill
#
# Bulk Modulus (GPa) = 45.12130 75.20847 60.16488
# Shear Modulus (GPa) = 28.66030 52.03947 40.34989
#
# Velocity S-wave (km/s) = 3.90709 5.26477 4.63590
# Velocity P-wave (km/s) = 6.66233 8.77583 7.79108
#
# Compressibility (1/GPa) = 0.02216248
#
# Stress axis : x y z
#
# Youngs Moduli (GPa) = 113.38859 29.32448 73.71439
#
# Poissons Ratio (x) = 0.06748 0.32989
# Poissons Ratio (y) = 0.26091 0.76557
# Poissons Ratio (z) = 0.50745 0.30455
#
# Static dielectric constant tensor:
#      x y z
#    x 1.689070 0.000000 0.000000 
#    y 0.000000 1.836000 0.000000 
#    z 0.000000 0.000000 1.598650 
# 
# From -- ./inp_files/34570.got.cif
#   From: 2010.05.17/outbox.cif.g08.bks.cpg/sg51_18_cif.got.tgz:34570.got - 2010.06.03 11:52:47.
