data_PCOD9405500
_publ_section_title
;
Structure prediction by ZEFSAII (Michael W. Deem and Ramdas Pophale) SiO2 
 PCOD9405500
Probable space group: P M M A
;
_chemical_formula_sum "Si O2"
_cell_formula_units_Z 56
_cell_length_a 8.862706
_cell_length_b 14.311812
_cell_length_c 21.832548
_cell_angle_alpha 90.000000
_cell_angle_beta 90.000000
_cell_angle_gamma 90.000000
_cell_volume 2769.270563
_symmetry_space_group_name_H-M "P M M A"
_symmetry_group_IT_number 51
_symmetry_cell_setting 'orthorhombic'
loop_
_space_group_symop_operation_xyz
x,y,z
1/2-x,-y,z
1/2+x,-y,-z
-x,y,-z
-x,-y,-z
1/2+x,y,-z
1/2-x,y,z
x,-y,z
loop_
_atom_site_type_symbol
_atom_site_label
_atom_site_fract_x
_atom_site_fract_y
_atom_site_fract_z
Si Si1 0.578269 0.113494 0.742796
Si Si2 0.429257 0.890931 0.614677
Si Si3 0.427402 0.386949 0.678512
Si Si4 0.931188 0.107043 0.129012
Si Si5 0.931063 0.288047 0.063459
Si Si6 0.066537 0.390903 0.813253
Si Si7 0.928390 0.287661 0.562546
O O1 0.750000 0.147340 0.735466
O O2 0.477190 0.135837 0.684016
O O3 0.505936 0.139969 0.807512
O O4 0.583176 0.000000 0.744336
O O5 0.250000 0.881616 0.607559
O O6 0.514613 0.818512 0.571832
O O7 0.469881 0.000000 0.604837
O O8 0.250000 0.361970 0.672644
O O9 0.436537 0.500000 0.677584
O O10 0.483553 0.355824 0.746137
O O11 0.515500 0.343658 0.621990
O O12 0.750000 0.109451 0.137640
O O13 0.969722 0.179552 0.075939
O O14 0.975665 0.000000 0.116587
O O15 0.750000 0.297093 0.060265
O O16 0.984010 0.340436 0.125004
O O17 0.000000 0.321717 0.000000
O O18 0.250000 0.384478 0.811732
O O19 0.027400 0.500000 0.817545
O O20 0.750000 0.290085 0.558367
O O21 0.000000 0.325684 0.500000
#
# Coordination Sequence:
#
# PCOD9405500 Si02
#       7
#     8   8   8   8   8   8   8
#     4   9  17  30  50  79 111 142 183 237 293 343
#     4  10  21  38  60  85 117 159 203 246 293 348
#     4   9  19  39  67  94 119 152 196 246 300 361
#     4   9  18  32  49  72 105 147 193 237 284 341
#     4  10  21  35  52  78 110 149 191 236 287 345
#     4   8  16  34  60  86 111 143 184 230 286 349
#     4  12  26  42  61  89 124 162 201 246 298 355
#
# _framework density 20.221931999999999
#
# number of rings (size 3 to 8) (size 9 to 14) (size 15 to 20)
#    0.000    2.429    0.000    3.000    2.000    4.571 
#    0.000    0.714    0.000    0.857    0.000    0.000 
#    0.000    0.000    0.000    0.000    0.000    0.000 
#
# Total GULP energy -312676.021811 kJ/mol
# GULP energy per Si atom -5583.500389 kJ/mol
# Density = 2.017591 g / cm^3
# Si number density = 20.221932 Si / 1000 Ang^3
#
#
#
# Elastic Constant Matrix: (Units=GPa)
#
#
# Indices 1 2 3 4 5 6 
#
# 1 59.2929 23.8069 48.3014 0.0000 0.0000 0.0000
# 2 23.8069 58.0289 54.2291 0.0000 0.0000 0.0000
# 3 48.3014 54.2291 171.6185 0.0000 0.0000 0.0000
# 4 0.0000 0.0000 0.0000 19.0642 0.0000 0.0000
# 5 0.0000 0.0000 0.0000 0.0000 32.4423 0.0000
# 6 0.0000 0.0000 0.0000 0.0000 0.0000 17.5149
#
#
#
# Elastic Compliance Matrix: (Units=1/GPa)
#
#
# Indices 1 2 3 4 5 6 
#
# 1 0.022772 -0.004758 -0.004906 0.000000 0.000000 0.000000
# 2 -0.004758 0.025448 -0.006702 0.000000 0.000000 0.000000
# 3 -0.004906 -0.006702 0.009325 0.000000 0.000000 0.000000
# 4 0.000000 0.000000 0.000000 0.052454 0.000000 0.000000
# 5 0.000000 0.000000 0.000000 0.000000 0.030824 0.000000
# 6 0.000000 0.000000 0.000000 0.000000 0.000000 0.057094
#
#
# Mechanical properties :
#
#
# Convention : Reuss Voigt Hill
#
# Bulk Modulus (GPa) = 40.29996 60.17945 50.23971
# Shear Modulus (GPa) = 20.92743 24.64447 22.78595
#
# Velocity S-wave (km/s) = 3.22046 3.49478 3.36042
# Velocity P-wave (km/s) = 5.81382 6.79034 6.32097
#
# Compressibility (1/GPa) = 0.02481392
#
# Stress axis : x y z
#
# Youngs Moduli (GPa) = 43.91333 39.29572 107.23473
#
# Poissons Ratio (x) = 0.18697 0.52606
# Poissons Ratio (y) = 0.20894 0.71870
# Poissons Ratio (z) = 0.21542 0.26336
#
# Static dielectric constant tensor:
#      x y z
#    x 1.685930 0.000000 0.000000 
#    y 0.000000 1.753810 0.000000 
#    z 0.000000 0.000000 1.708870 
# 
# From -- ./inp_files/31952.got.cif
#   From: 2010.05.17/outbox.cif.g08.bks.cpg/sg51_16_cif.got.tgz:31952.got - 2010.06.03 11:52:47.
