data_PCOD9405967
_publ_section_title
;
Structure prediction by ZEFSAII (Michael W. Deem and Ramdas Pophale) SiO2 
 PCOD9405967
Probable space group: P M M A
;
_chemical_formula_sum "Si O2"
_cell_formula_units_Z 56
_cell_length_a 8.985158
_cell_length_b 14.266858
_cell_length_c 21.748243
_cell_angle_alpha 90.000000
_cell_angle_beta 90.000000
_cell_angle_gamma 90.000000
_cell_volume 2787.906689
_symmetry_space_group_name_H-M "P M M A"
_symmetry_group_IT_number 51
_symmetry_cell_setting 'orthorhombic'
loop_
_space_group_symop_operation_xyz
x,y,z
1/2-x,-y,z
1/2+x,-y,-z
-x,y,-z
-x,-y,-z
1/2+x,y,-z
1/2-x,y,z
x,-y,z
loop_
_atom_site_type_symbol
_atom_site_label
_atom_site_fract_x
_atom_site_fract_y
_atom_site_fract_z
Si Si1 0.426517 0.205777 0.936838
Si Si2 0.071875 0.607844 0.873253
Si Si3 0.425709 0.389259 0.618274
Si Si4 0.568929 0.108314 0.684292
Si Si5 0.572323 0.781430 0.562260
Si Si6 0.081666 0.386392 0.254446
Si Si7 0.923503 0.886583 0.819715
O O1 0.250000 0.195726 0.941106
O O2 0.462848 0.315543 0.924659
O O3 0.485564 0.152049 0.876942
O O4 0.500000 0.173134 0.000000
O O5 0.250000 0.609834 0.862306
O O6 0.030979 0.500000 0.887822
O O7 0.989277 0.638368 0.810804
O O8 0.250000 0.372212 0.612287
O O9 0.453109 0.500000 0.609353
O O10 0.517453 0.324622 0.572371
O O11 0.481819 0.363476 0.686842
O O12 0.750000 0.109389 0.685792
O O13 0.522572 0.164129 0.623868
O O14 0.522375 0.144867 0.751752
O O15 0.522459 0.000000 0.678781
O O16 0.500000 0.819484 0.500000
O O17 0.750000 0.785655 0.558160
O O18 0.250000 0.349794 0.261941
O O19 0.089284 0.500000 0.253724
O O20 0.750000 0.859384 0.826889
O O21 0.928950 0.000000 0.818984
#
# Coordination Sequence:
#
# PCOD9405967 Si02
#       7
#     8   8   8   8   8   8   8
#     4  11  24  39  57  85 118 156 197 242 292 346
#     4   9  19  36  55  78 113 155 196 239 288 339
#     4  10  21  37  56  79 113 156 198 243 292 341
#     4   8  17  37  64  91 117 148 188 234 289 349
#     4  11  23  38  58  87 120 157 197 240 289 346
#     4   9  17  30  51  80 109 141 187 238 286 338
#     4   9  19  39  66  91 115 147 188 238 295 352
#
# _framework density 20.086753999999999
#
# number of rings (size 3 to 8) (size 9 to 14) (size 15 to 20)
#    0.000    2.429    0.000    2.571    2.000    5.143 
#    0.000    0.714    0.000    3.000    0.000    0.000 
#    0.000    0.000    0.000    0.000    0.000    0.000 
#
# Total GULP energy -312700.250335 kJ/mol
# GULP energy per Si atom -5583.933042 kJ/mol
# Density = 2.004104 g / cm^3
# Si number density = 20.086754 Si / 1000 Ang^3
#
#
#
# Elastic Constant Matrix: (Units=GPa)
#
#
# Indices 1 2 3 4 5 6 
#
# 1 43.8078 27.3441 50.4794 0.0000 0.0000 0.0000
# 2 27.3441 55.2497 47.6754 0.0000 0.0000 0.0000
# 3 50.4794 47.6754 168.1913 0.0000 0.0000 0.0000
# 4 0.0000 0.0000 0.0000 19.0271 0.0000 0.0000
# 5 0.0000 0.0000 0.0000 0.0000 30.6745 0.0000
# 6 0.0000 0.0000 0.0000 0.0000 0.0000 17.9610
#
#
#
# Elastic Compliance Matrix: (Units=1/GPa)
#
#
# Indices 1 2 3 4 5 6 
#
# 1 0.040673 -0.012703 -0.008606 0.000000 0.000000 0.000000
# 2 -0.012703 0.027928 -0.004104 0.000000 0.000000 0.000000
# 3 -0.008606 -0.004104 0.009692 0.000000 0.000000 0.000000
# 4 0.000000 0.000000 0.000000 0.052557 0.000000 0.000000
# 5 0.000000 0.000000 0.000000 0.000000 0.032600 0.000000
# 6 0.000000 0.000000 0.000000 0.000000 0.000000 0.055676
#
#
# Mechanical properties :
#
#
# Convention : Reuss Voigt Hill
#
# Bulk Modulus (GPa) = 36.40866 57.58296 46.99581
# Shear Modulus (GPa) = 17.91414 22.98251 20.44833
#
# Velocity S-wave (km/s) = 2.98961 3.38622 3.19407
# Velocity P-wave (km/s) = 5.48471 6.63460 6.08687
#
# Compressibility (1/GPa) = 0.02746599
#
# Stress axis : x y z
#
# Youngs Moduli (GPa) = 24.58610 35.80635 103.17885
#
# Poissons Ratio (x) = 0.45487 0.88800
# Poissons Ratio (y) = 0.31233 0.42342
# Poissons Ratio (z) = 0.21160 0.14694
#
# Static dielectric constant tensor:
#      x y z
#    x 1.669640 0.000000 0.000000 
#    y 0.000000 1.752280 0.000000 
#    z 0.000000 0.000000 1.698150 
# 
# From -- ./inp_files/31934.got.cif
#   From: 2010.05.17/outbox.cif.g08.bks.cpg/sg51_16_cif.got.tgz:31934.got - 2010.06.03 11:52:47.
