data_PCOD9405187
_publ_section_title
;
Structure prediction by ZEFSAII (Michael W. Deem and Ramdas Pophale) SiO2 
 PCOD9405187
Probable space group: P M M A
;
_chemical_formula_sum "Si O2"
_cell_formula_units_Z 48
_cell_length_a 8.574654
_cell_length_b 31.812573
_cell_length_c 9.483814
_cell_angle_alpha 90.000000
_cell_angle_beta 90.000000
_cell_angle_gamma 90.000000
_cell_volume 2587.011914
_symmetry_space_group_name_H-M "P M M A"
_symmetry_group_IT_number 51
_symmetry_cell_setting 'orthorhombic'
loop_
_space_group_symop_operation_xyz
x,y,z
1/2-x,-y,z
1/2+x,-y,-z
-x,y,-z
-x,-y,-z
1/2+x,y,-z
1/2-x,y,z
x,-y,z
loop_
_atom_site_type_symbol
_atom_site_label
_atom_site_fract_x
_atom_site_fract_y
_atom_site_fract_z
Si Si1 0.561442 0.908068 0.159989
Si Si2 0.562311 0.172415 0.341151
Si Si3 0.062171 0.671344 0.343699
Si Si4 0.437577 0.250012 0.158294
Si Si5 0.937344 0.424469 0.656846
Si Si6 0.061992 0.000000 0.840204
Si Si7 0.564475 0.500000 0.157198
O O1 0.750000 0.907380 0.153106
O O2 0.511352 0.870038 0.259834
O O3 0.512188 0.954348 0.216915
O O4 0.500000 0.902919 0.000000
O O5 0.500000 0.173354 0.500000
O O6 0.750000 0.173614 0.343418
O O7 0.499985 0.211931 0.253081
O O8 0.250000 0.672048 0.349837
O O9 0.011733 0.706306 0.231958
O O10 0.014810 0.623546 0.307557
O O11 0.000000 0.681237 0.500000
O O12 0.250000 0.248641 0.156140
O O13 0.500000 0.246729 0.000000
O O14 0.750000 0.426715 0.656418
O O15 0.000000 0.433231 0.500000
O O16 0.004025 0.458829 0.761882
O O17 0.250000 0.000000 0.840496
O O18 0.000000 0.000000 0.000000
O O19 0.750000 0.500000 0.156440
O O20 0.500000 0.500000 0.000000
#
# Coordination Sequence:
#
# PCOD9405187 Si02
#       7
#     8   8   8   8   8   4   4
#     4   9  18  32  53  78 105 136 175 219 267 319
#     4  11  23  38  55  78 107 143 182 225 273 325
#     4   9  20  37  59  85 113 144 182 224 270 321
#     4  11  23  39  58  83 112 145 182 224 271 324
#     4  10  20  38  61  86 114 148 187 227 270 323
#     4   8  14  28  49  74 102 134 170 214 263 316
#     4  12  25  40  57  82 114 150 188 232 281 328
#
# _framework density 18.554224999999999
#
# number of rings (size 3 to 8) (size 9 to 14) (size 15 to 20)
#    0.000    2.000    0.000    3.500    0.000    6.667 
#    0.000    2.083    0.000    0.000    0.000    0.000 
#    0.000    0.000    0.000    0.000    0.000    0.000 
#
# Total GULP energy -267981.923336 kJ/mol
# GULP energy per Si atom -5582.956736 kJ/mol
# Density = 1.851200 g / cm^3
# Si number density = 18.554225 Si / 1000 Ang^3
#
#
#
# Elastic Constant Matrix: (Units=GPa)
#
#
# Indices 1 2 3 4 5 6 
#
# 1 51.6132 48.1135 39.6216 0.0000 0.0000 0.0000
# 2 48.1135 180.8413 129.3007 0.0000 0.0000 0.0000
# 3 39.6216 129.3007 154.8390 0.0000 0.0000 0.0000
# 4 0.0000 0.0000 0.0000 37.1160 0.0000 0.0000
# 5 0.0000 0.0000 0.0000 0.0000 33.9432 0.0000
# 6 0.0000 0.0000 0.0000 0.0000 0.0000 25.4344
#
#
#
# Elastic Compliance Matrix: (Units=1/GPa)
#
#
# Indices 1 2 3 4 5 6 
#
# 1 0.026058 -0.005374 -0.002180 0.000000 0.000000 0.000000
# 2 -0.005374 0.014832 -0.011011 0.000000 0.000000 0.000000
# 3 -0.002180 -0.011011 0.016211 0.000000 0.000000 0.000000
# 4 0.000000 0.000000 0.000000 0.026943 0.000000 0.000000
# 5 0.000000 0.000000 0.000000 0.000000 0.029461 0.000000
# 6 0.000000 0.000000 0.000000 0.000000 0.000000 0.039317
#
#
# Mechanical properties :
#
#
# Convention : Reuss Voigt Hill
#
# Bulk Modulus (GPa) = 50.07206 91.26280 70.66743
# Shear Modulus (GPa) = 25.43130 30.64922 28.04026
#
# Velocity S-wave (km/s) = 3.70624 4.06873 3.89171
# Velocity P-wave (km/s) = 6.73502 8.44788 7.63960
#
# Compressibility (1/GPa) = 0.01997122
#
# Stress axis : x y z
#
# Youngs Moduli (GPa) = 38.37558 67.42217 61.68730
#
# Poissons Ratio (x) = 0.36232 0.13451
# Poissons Ratio (y) = 0.20622 0.67921
# Poissons Ratio (z) = 0.08368 0.74235
#
# Static dielectric constant tensor:
#      x y z
#    x 1.631680 0.000000 0.000000 
#    y 0.000000 1.669390 0.000000 
#    z 0.000000 0.000000 1.584560 
# 
# From -- ./inp_files/6259.got.cif
#   From: 2010.05.17/outbox.cif.g08.bks.cpg/sg51_4_cif.got.tgz:6259.got - 2010.06.03 11:52:47.
