data_PCOD9405098
_publ_section_title
;
Structure prediction by ZEFSAII (Michael W. Deem and Ramdas Pophale) SiO2 
 PCOD9405098
Probable space group: P M M A
;
_chemical_formula_sum "Si O2"
_cell_formula_units_Z 38
_cell_length_a 8.803582
_cell_length_b 25.497837
_cell_length_c 9.186116
_cell_angle_alpha 90.000000
_cell_angle_beta 90.000000
_cell_angle_gamma 90.000000
_cell_volume 2062.028576
_symmetry_space_group_name_H-M "P M M A"
_symmetry_group_IT_number 51
_symmetry_cell_setting 'orthorhombic'
loop_
_space_group_symop_operation_xyz
x,y,z
1/2-x,-y,z
1/2+x,-y,-z
-x,y,-z
-x,-y,-z
1/2+x,y,-z
1/2-x,y,z
x,-y,z
loop_
_atom_site_type_symbol
_atom_site_label
_atom_site_fract_x
_atom_site_fract_y
_atom_site_fract_z
Si Si1 0.068073 0.306298 0.339583
Si Si2 0.567214 0.000000 0.162492
Si Si3 0.917434 0.604577 0.154446
Si Si4 0.933304 0.098360 0.662210
Si Si5 0.750000 0.500000 0.225948
Si Si6 0.932368 0.796555 0.839463
O O1 0.250000 0.306467 0.348443
O O2 0.019325 0.256654 0.241788
O O3 0.000000 0.301749 0.500000
O O4 0.010567 0.359183 0.263132
O O5 0.505522 0.949205 0.247421
O O6 0.750000 0.000000 0.158388
O O7 0.500000 0.000000 0.000000
O O8 0.750000 0.629416 0.130764
O O9 0.880076 0.546907 0.216014
O O10 0.000000 0.600208 0.000000
O O11 0.750000 0.092977 0.657853
O O12 0.972145 0.152805 0.742920
O O13 0.000000 0.098270 0.500000
O O14 0.750000 0.795369 0.851493
O O15 0.000000 0.800181 0.000000
#
# Coordination Sequence:
#
# PCOD9405098 Si02
#       6
#     8   4   8   8   2   8
#     4  11  23  40  61  88 121 159 200 247 304 361
#     4  12  25  42  63  90 124 166 210 260 307 360
#     4  10  20  37  61  88 119 153 196 244 292 353
#     4  11  23  41  63  91 125 164 207 253 307 365
#     4   8  22  36  64  86 126 148 206 236 306 336
#     4  10  23  40  62  91 122 156 201 251 303 361
#
# _framework density 18.428456000000001
#
# number of rings (size 3 to 8) (size 9 to 14) (size 15 to 20)
#    0.632    0.842    0.000    5.368    0.000    6.737 
#    0.000    0.526    0.000    0.000    0.000    0.000 
#    0.000    0.000    0.000    0.000    0.000    0.000 
#
# Total GULP energy -211688.412070 kJ/mol
# GULP energy per Si atom -5570.747686 kJ/mol
# Density = 1.838651 g / cm^3
# Si number density = 18.428456 Si / 1000 Ang^3
#
#
#
# Elastic Constant Matrix: (Units=GPa)
#
#
# Indices 1 2 3 4 5 6 
#
# 1 90.2685 64.6852 51.8449 0.0000 0.0000 0.0000
# 2 64.6852 166.1462 117.9373 0.0000 0.0000 0.0000
# 3 51.8449 117.9373 151.1788 0.0000 0.0000 0.0000
# 4 0.0000 0.0000 0.0000 17.1965 0.0000 0.0000
# 5 0.0000 0.0000 0.0000 0.0000 32.7466 0.0000
# 6 0.0000 0.0000 0.0000 0.0000 0.0000 -464.4138
#
#
#
# Elastic Compliance Matrix: (Units=1/GPa)
#
#
# Indices 1 2 3 4 5 6 
#
# 1 0.015489 -0.005064 -0.001361 0.000000 0.000000 0.000000
# 2 -0.005064 0.015143 -0.010077 0.000000 0.000000 0.000000
# 3 -0.001361 -0.010077 0.014943 0.000000 0.000000 0.000000
# 4 0.000000 0.000000 0.000000 0.058151 0.000000 0.000000
# 5 0.000000 0.000000 0.000000 0.000000 0.030538 0.000000
# 6 0.000000 0.000000 0.000000 0.000000 0.000000 -0.002153
#
#
# Mechanical properties :
#
#
# Convention : Reuss Voigt Hill
#
# Bulk Modulus (GPa) = 79.55133 97.39204 88.47169
# Shear Modulus (GPa) = 29.53256 -71.35238 -20.90991
#
# Velocity S-wave (km/s) = 4.00753 -6.22918 -3.37212
# Velocity P-wave (km/s) = 8.04208 1.10752 5.74028
#
# Compressibility (1/GPa) = 0.01257050
#
# Stress axis : x y z
#
# Youngs Moduli (GPa) = 64.56384 66.03543 66.92208
#
# Poissons Ratio (x) = 0.33440 0.09109
# Poissons Ratio (y) = 0.32694 0.67438
# Poissons Ratio (z) = 0.08788 0.66544
#
# Static dielectric constant tensor:
#      x y z
#    x 1.630020 0.000000 0.000000 
#    y 0.000000 1.616470 0.000000 
#    z 0.000000 0.000000 1.598380 
# 
# From -- ./inp_files/5287.got.cif
#   From: 2010.05.17/outbox.cif.g08.bks.cpg/sg51_3_cif.got.tgz:5287.got - 2010.06.03 11:52:47.
