data_PCOD9405591
_publ_section_title
;
Structure prediction by ZEFSAII (Michael W. Deem and Ramdas Pophale) SiO2 
 PCOD9405591
Probable space group: P M M A
;
_chemical_formula_sum "Si O2"
_cell_formula_units_Z 56
_cell_length_a 8.698380
_cell_length_b 14.147110
_cell_length_c 24.859070
_cell_angle_alpha 90.000000
_cell_angle_beta 90.000000
_cell_angle_gamma 90.000000
_cell_volume 3059.081053
_symmetry_space_group_name_H-M "P M M A"
_symmetry_group_IT_number 51
_symmetry_cell_setting 'orthorhombic'
loop_
_space_group_symop_operation_xyz
x,y,z
1/2-x,-y,z
1/2+x,-y,-z
-x,y,-z
-x,-y,-z
1/2+x,y,-z
1/2-x,y,z
x,-y,z
loop_
_atom_site_type_symbol
_atom_site_label
_atom_site_fract_x
_atom_site_fract_y
_atom_site_fract_z
Si Si1 0.429574 0.000000 0.618289
Si Si2 0.926357 0.000000 0.731859
Si Si3 0.564153 0.606107 0.439737
Si Si4 0.066888 0.739232 0.140199
Si Si5 0.564172 0.790798 0.373073
Si Si6 0.069262 0.791120 0.253720
Si Si7 0.566028 0.108877 0.058672
Si Si8 0.575485 0.387107 0.055857
O O1 0.455031 0.000000 0.682688
O O2 0.491253 0.105867 0.604015
O O3 0.250000 0.000000 0.603731
O O4 0.943722 0.902098 0.762392
O O5 0.750000 0.000000 0.709419
O O6 0.500000 0.614461 0.500000
O O7 0.750000 0.608455 0.441323
O O8 0.520042 0.500000 0.419571
O O9 0.513014 0.697503 0.405496
O O10 0.250000 0.750812 0.142342
O O11 0.010115 0.735717 0.201801
O O12 0.996703 0.824356 0.105395
O O13 0.020914 0.648096 0.106183
O O14 0.750000 0.794052 0.374399
O O15 0.512057 0.780720 0.311090
O O16 0.250000 0.770518 0.262159
O O17 0.750000 0.114106 0.056702
O O18 0.520628 0.000000 0.068678
O O19 0.500000 0.135078 0.000000
O O20 0.750000 0.351129 0.059488
O O21 0.579514 0.500000 0.054866
O O22 0.500000 0.355219 0.000000
#
# Coordination Sequence:
#
# PCOD9405591 Si02
#       8
#     4   4   8   8   8   8   8   8
#     4   8  14  26  45  69  95 127 163 200 247 292
#     4   8  14  28  46  65  92 127 167 204 234 278
#     4   9  18  33  53  77 103 134 172 211 252 298
#     4  11  22  34  52  76 104 135 166 207 255 308
#     4   9  17  31  51  73 101 134 169 212 255 300
#     4   9  19  32  49  73 101 135 171 206 249 298
#     4  10  21  36  52  72 100 135 173 213 257 308
#     4  10  21  38  59  78  96 122 160 208 260 313
#
# _framework density 18.306149999999999
#
# number of rings (size 3 to 8) (size 9 to 14) (size 15 to 20)
#    0.000    2.571    0.000    1.714    1.000    3.429 
#    0.000    1.071    0.000    2.571    0.000    0.000 
#    0.000    0.000    0.000    0.000    0.000    0.000 
#
# Total GULP energy -311899.448941 kJ/mol
# GULP energy per Si atom -5569.633017 kJ/mol
# Density = 1.826448 g / cm^3
# Si number density = 18.306150 Si / 1000 Ang^3
#
#
#
# Elastic Constant Matrix: (Units=GPa)
#
#
# Indices 1 2 3 4 5 6 
#
# 1 24.4789 15.2313 12.9501 0.0000 0.0000 0.0000
# 2 15.2313 114.4807 54.5038 0.0000 0.0000 0.0000
# 3 12.9501 54.5038 75.7774 0.0000 0.0000 0.0000
# 4 0.0000 0.0000 0.0000 1.0053 0.0000 0.0000
# 5 0.0000 0.0000 0.0000 0.0000 22.8294 0.0000
# 6 0.0000 0.0000 0.0000 0.0000 0.0000 7.3983
#
#
#
# Elastic Compliance Matrix: (Units=1/GPa)
#
#
# Indices 1 2 3 4 5 6 
#
# 1 0.045870 -0.003605 -0.005246 0.000000 0.000000 0.000000
# 2 -0.003605 0.013567 -0.009142 0.000000 0.000000 0.000000
# 3 -0.005246 -0.009142 0.020669 0.000000 0.000000 0.000000
# 4 0.000000 0.000000 0.000000 0.994774 0.000000 0.000000
# 5 0.000000 0.000000 0.000000 0.000000 0.043803 0.000000
# 6 0.000000 0.000000 0.000000 0.000000 0.000000 0.135167
#
#
# Mechanical properties :
#
#
# Convention : Reuss Voigt Hill
#
# Bulk Modulus (GPa) = 22.66593 42.23417 32.45005
# Shear Modulus (GPa) = 3.83276 15.05003 9.44139
#
# Velocity S-wave (km/s) = 1.44853 2.87039 2.27348
# Velocity P-wave (km/s) = 3.89950 5.84009 4.96552
#
# Compressibility (1/GPa) = 0.04411908
#
# Stress axis : x y z
#
# Youngs Moduli (GPa) = 21.80075 73.70587 48.38200
#
# Poissons Ratio (x) = 0.26573 0.25380
# Poissons Ratio (y) = 0.07860 0.44233
# Poissons Ratio (z) = 0.11436 0.67385
#
# Static dielectric constant tensor:
#      x y z
#    x 1.632190 0.000000 0.000000 
#    y 0.000000 1.687090 0.000000 
#    z 0.000000 0.000000 1.596130 
# 
# From -- ./inp_files/32152.got.cif
#   From: 2010.05.17/outbox.cif.g08.bks.cpg/sg51_17_cif.got.tgz:32152.got - 2010.06.03 11:52:47.
