data_PCOD9405395
_publ_section_title
;
Structure prediction by ZEFSAII (Michael W. Deem and Ramdas Pophale) SiO2 
 PCOD9405395
Probable space group: P M M A
;
_chemical_formula_sum "Si O2"
_cell_formula_units_Z 64
_cell_length_a 14.799570
_cell_length_b 18.808570
_cell_length_c 11.570873
_cell_angle_alpha 90.000000
_cell_angle_beta 90.000000
_cell_angle_gamma 90.000000
_cell_volume 3220.853725
_symmetry_space_group_name_H-M "P M M A"
_symmetry_group_IT_number 51
_symmetry_cell_setting 'orthorhombic'
loop_
_space_group_symop_operation_xyz
x,y,z
1/2-x,-y,z
1/2+x,-y,-z
-x,y,-z
-x,-y,-z
1/2+x,y,-z
1/2-x,y,z
x,-y,z
loop_
_atom_site_type_symbol
_atom_site_label
_atom_site_fract_x
_atom_site_fract_y
_atom_site_fract_z
Si Si1 0.350074 0.793327 0.468902
Si Si2 0.571633 0.922041 0.395587
Si Si3 0.643439 0.278206 0.170962
Si Si4 0.643692 0.725577 0.895127
Si Si5 0.983007 0.816611 0.743776
Si Si6 0.145167 0.574579 0.732346
Si Si7 0.643039 0.418846 0.768628
Si Si8 0.607343 0.366289 0.508527
O O1 0.250000 0.803912 0.417363
O O2 0.366577 0.856435 0.560722
O O3 0.429482 0.795514 0.373478
O O4 0.354244 0.712642 0.514046
O O5 0.500000 0.927933 0.500000
O O6 0.515439 0.896638 0.283083
O O7 0.614144 0.000000 0.380601
O O8 0.750000 0.269455 0.202898
O O9 0.575768 0.224111 0.230790
O O10 0.608205 0.355303 0.210022
O O11 0.637056 0.273592 0.032954
O O12 0.750000 0.733096 0.863607
O O13 0.585310 0.789853 0.842116
O O14 0.610747 0.649313 0.843622
O O15 0.250000 0.572881 0.766890
O O16 0.102345 0.500000 0.766070
O O17 0.140209 0.584129 0.594924
O O18 0.750000 0.422350 0.792702
O O19 0.608451 0.500000 0.786898
O O20 0.631255 0.395986 0.634611
O O21 0.500000 0.361971 0.500000
#
# Coordination Sequence:
#
# PCOD9405395 Si02
#       8
#     8   8   8   8   8   8   8   8
#     4  11  21  34  58  88 121 159 199 239 285 352
#     4   9  20  37  58  89 127 160 187 225 284 356
#     4  10  22  39  58  82 112 153 207 262 312 363
#     4  10  21  38  60  85 114 152 207 264 310 359
#     4  11  20  37  61  87 116 153 197 247 298 355
#     4  10  21  35  50  70 102 145 191 244 307 369
#     4  10  21  36  55  81 114 154 201 255 316 371
#     4  12  22  34  51  79 114 152 196 245 300 365
#
# _framework density 19.870507
#
# number of rings (size 3 to 8) (size 9 to 14) (size 15 to 20)
#    0.000    1.625    1.250    4.875    0.000    4.250 
#    0.000    2.500    0.000    4.125    0.000    1.750 
#    0.000    0.000    0.000    0.000    0.000    0.000 
#
# Total GULP energy -356979.660319 kJ/mol
# GULP energy per Si atom -5577.807192 kJ/mol
# Density = 1.982528 g / cm^3
# Si number density = 19.870507 Si / 1000 Ang^3
#
#
#
# Elastic Constant Matrix: (Units=GPa)
#
#
# Indices 1 2 3 4 5 6 
#
# 1 88.7002 24.7168 22.2952 0.0000 0.0000 0.0000
# 2 24.7168 110.6430 32.8221 0.0000 0.0000 0.0000
# 3 22.2952 32.8221 65.6610 0.0000 0.0000 0.0000
# 4 0.0000 0.0000 0.0000 -4.3129 0.0000 0.0000
# 5 0.0000 0.0000 0.0000 0.0000 20.1091 0.0000
# 6 0.0000 0.0000 0.0000 0.0000 0.0000 11.5572
#
#
#
# Elastic Compliance Matrix: (Units=1/GPa)
#
#
# Indices 1 2 3 4 5 6 
#
# 1 0.012630 -0.001819 -0.003379 0.000000 0.000000 0.000000
# 2 -0.001819 0.010874 -0.004818 0.000000 0.000000 0.000000
# 3 -0.003379 -0.004818 0.018785 0.000000 0.000000 0.000000
# 4 0.000000 0.000000 0.000000 -0.231862 0.000000 0.000000
# 5 0.000000 0.000000 0.000000 0.000000 0.049729 0.000000
# 6 0.000000 0.000000 0.000000 0.000000 0.000000 0.086526
#
#
# Mechanical properties :
#
#
# Convention : Reuss Voigt Hill
#
# Bulk Modulus (GPa) = 44.92953 47.18583 46.05768
# Shear Modulus (GPa) = -193.30267 17.81535 -87.74366
#
# Velocity S-wave (km/s) = -9.87382 2.99753 -6.65234
# Velocity P-wave (km/s) = 10.36000 5.98151 5.98127
#
# Compressibility (1/GPa) = 0.02225708
#
# Stress axis : x y z
#
# Youngs Moduli (GPa) = 79.17520 91.96576 53.23272
#
# Poissons Ratio (x) = 0.16729 0.17989
# Poissons Ratio (y) = 0.14402 0.25646
# Poissons Ratio (z) = 0.26756 0.44307
#
# Static dielectric constant tensor:
#      x y z
#    x 1.753980 0.000000 0.000000 
#    y 0.000000 1.733110 0.000000 
#    z 0.000000 0.000000 1.700040 
# 
# From -- ./inp_files/16822.got.cif
#   From: 2010.05.17/outbox.cif.g08.bks.cpg/sg51_9_cif.got.tgz:16822.got - 2010.06.03 11:52:47.
