data_PCOD9405663
_publ_section_title
;
Structure prediction by ZEFSAII (Michael W. Deem and Ramdas Pophale) SiO2 
 PCOD9405663
Probable space group: P M M A
;
_chemical_formula_sum "Si O2"
_cell_formula_units_Z 56
_cell_length_a 8.512993
_cell_length_b 20.888798
_cell_length_c 16.058649
_cell_angle_alpha 90.000000
_cell_angle_beta 90.000000
_cell_angle_gamma 90.000000
_cell_volume 2855.648387
_symmetry_space_group_name_H-M "P M M A"
_symmetry_group_IT_number 51
_symmetry_cell_setting 'orthorhombic'
loop_
_space_group_symop_operation_xyz
x,y,z
1/2-x,-y,z
1/2+x,-y,-z
-x,y,-z
-x,-y,-z
1/2+x,y,-z
1/2-x,y,z
x,-y,z
loop_
_atom_site_type_symbol
_atom_site_label
_atom_site_fract_x
_atom_site_fract_y
_atom_site_fract_z
Si Si1 0.059948 0.925555 0.745002
Si Si2 0.436506 0.839021 0.404324
Si Si3 0.065684 0.569331 0.360679
Si Si4 0.938830 0.430989 0.178070
Si Si5 0.935261 0.706464 0.407540
Si Si6 0.561261 0.700610 0.092959
Si Si7 0.059918 0.156636 0.904901
O O1 0.250000 0.921378 0.742470
O O2 0.009058 0.891530 0.831703
O O3 0.996435 0.890755 0.662285
O O4 0.014864 0.000000 0.745698
O O5 0.500000 0.847649 0.500000
O O6 0.250000 0.840523 0.410241
O O7 0.488532 0.769460 0.367308
O O8 0.250000 0.575593 0.380505
O O9 0.009814 0.500000 0.395454
O O10 0.035528 0.565281 0.262625
O O11 0.979283 0.634548 0.383338
O O12 0.750000 0.426704 0.195661
O O13 0.961499 0.500000 0.133245
O O14 0.989511 0.364959 0.136217
O O15 0.750000 0.714117 0.402457
O O16 0.000000 0.711612 0.500000
O O17 0.750000 0.700005 0.094874
O O18 0.511870 0.771162 0.123224
O O19 0.500000 0.697233 0.000000
O O20 0.250000 0.154632 0.909436
O O21 0.000000 0.145356 0.000000
#
# Coordination Sequence:
#
# PCOD9405663 Si02
#       7
#     8   8   8   8   8   8   8
#     4  10  22  40  62  90 122 159 202 245 296 359
#     4  11  23  41  64  92 124 158 198 245 298 355
#     4  10  21  36  53  78 112 148 190 239 289 341
#     4   9  18  32  49  72 103 142 187 234 286 342
#     4  11  22  38  60  84 113 148 190 236 286 343
#     4   9  18  32  50  74 103 140 184 233 287 343
#     4   9  19  36  57  83 117 155 197 245 300 352
#
# _framework density 19.610257000000001
#
# number of rings (size 3 to 8) (size 9 to 14) (size 15 to 20)
#    0.000    2.143    0.000    3.857    2.000    3.429 
#    0.000    0.000    0.000    0.000    0.000    0.000 
#    0.000    0.000    0.000    0.000    0.000    0.000 
#
# Total GULP energy -311944.518947 kJ/mol
# GULP energy per Si atom -5570.437838 kJ/mol
# Density = 1.956562 g / cm^3
# Si number density = 19.610257 Si / 1000 Ang^3
#
#
#
# Elastic Constant Matrix: (Units=GPa)
#
#
# Indices 1 2 3 4 5 6 
#
# 1 44.9104 45.9360 22.1573 0.0000 0.0000 0.0000
# 2 45.9360 196.7817 84.4116 0.0000 0.0000 0.0000
# 3 22.1573 84.4116 81.0303 0.0000 0.0000 0.0000
# 4 0.0000 0.0000 0.0000 74.8975 0.0000 0.0000
# 5 0.0000 0.0000 0.0000 0.0000 29.0659 0.0000
# 6 0.0000 0.0000 0.0000 0.0000 0.0000 0.2623
#
#
#
# Elastic Compliance Matrix: (Units=1/GPa)
#
#
# Indices 1 2 3 4 5 6 
#
# 1 0.029366 -0.006166 -0.001607 0.000000 0.000000 0.000000
# 2 -0.006166 0.010482 -0.009233 0.000000 0.000000 0.000000
# 3 -0.001607 -0.009233 0.022399 0.000000 0.000000 0.000000
# 4 0.000000 0.000000 0.000000 0.013352 0.000000 0.000000
# 5 0.000000 0.000000 0.000000 0.000000 0.034405 0.000000
# 6 0.000000 0.000000 0.000000 0.000000 0.000000 3.812374
#
#
# Mechanical properties :
#
#
# Convention : Reuss Voigt Hill
#
# Bulk Modulus (GPa) = 35.41709 69.74801 52.58255
# Shear Modulus (GPa) = 1.26078 32.19298 16.72688
#
# Velocity S-wave (km/s) = 0.80269 4.05611 2.92373
# Velocity P-wave (km/s) = 4.35417 7.58817 6.18624
#
# Compressibility (1/GPa) = 0.02823495
#
# Stress axis : x y z
#
# Youngs Moduli (GPa) = 34.05309 95.40399 44.64510
#
# Poissons Ratio (x) = 0.58824 0.07174
# Poissons Ratio (y) = 0.20996 0.41221
# Poissons Ratio (z) = 0.05472 0.88088
#
# Static dielectric constant tensor:
#      x y z
#    x 1.669100 0.000000 0.000000 
#    y 0.000000 1.808880 0.000000 
#    z 0.000000 0.000000 1.676990 
# 
# From -- ./inp_files/21709.got.cif
#   From: 2010.05.17/outbox.cif.g08.bks.cpg/sg51_11_cif.got.tgz:21709.got - 2010.06.03 11:52:47.
