data_PCOD9405036
_publ_section_title
;
Structure prediction by ZEFSAII (Michael W. Deem and Ramdas Pophale) SiO2 
 PCOD9405036
Probable space group: P M M A
;
_chemical_formula_sum "Si O2"
_cell_formula_units_Z 56
_cell_length_a 9.098659
_cell_length_b 13.773613
_cell_length_c 24.862838
_cell_angle_alpha 90.000000
_cell_angle_beta 90.000000
_cell_angle_gamma 90.000000
_cell_volume 3115.845862
_symmetry_space_group_name_H-M "P M M A"
_symmetry_group_IT_number 51
_symmetry_cell_setting 'orthorhombic'
loop_
_space_group_symop_operation_xyz
x,y,z
1/2-x,-y,z
1/2+x,-y,-z
-x,y,-z
-x,-y,-z
1/2+x,y,-z
1/2-x,y,z
x,-y,z
loop_
_atom_site_type_symbol
_atom_site_label
_atom_site_fract_x
_atom_site_fract_y
_atom_site_fract_z
Si Si1 0.428040 0.185354 0.672132
Si Si2 0.074408 0.000000 0.139711
Si Si3 0.080214 0.130026 0.945024
Si Si4 0.574217 0.113850 0.445199
Si Si5 0.588038 0.387032 0.835694
Si Si6 0.426379 0.613950 0.728278
Si Si7 0.927499 0.000000 0.732591
Si Si8 0.081185 0.361594 0.945862
O O1 0.250000 0.174550 0.677938
O O2 0.466103 0.168173 0.609590
O O3 0.467110 0.295852 0.689430
O O4 0.504017 0.097909 0.705895
O O5 0.004198 0.089810 0.106920
O O6 0.250000 0.000000 0.133344
O O7 0.040795 0.000000 0.203128
O O8 0.250000 0.100275 0.944382
O O9 0.080491 0.245448 0.945895
O O10 0.000000 0.099985 0.000000
O O11 0.500000 0.149545 0.500000
O O12 0.750000 0.118756 0.451207
O O13 0.533865 0.000000 0.438340
O O14 0.750000 0.340391 0.838620
O O15 0.606862 0.500000 0.823338
O O16 0.490874 0.352553 0.785929
O O17 0.506804 0.385756 0.892325
O O18 0.250000 0.611663 0.731536
O O19 0.470461 0.500000 0.715757
O O20 0.750000 0.000000 0.725613
O O21 0.250000 0.393791 0.944323
O O22 0.000000 0.394037 0.000000
#
# Coordination Sequence:
#
# PCOD9405036 Si02
#       8
#     8   4   8   8   8   8   4   8
#     4  10  20  37  59  82 116 154 188 231 279 330
#     4  11  24  38  51  72 103 136 171 215 264 323
#     4  10  21  37  56  75  96 128 170 215 265 322
#     4   9  17  31  52  80 113 151 192 230 272 323
#     4  10  21  36  54  76 103 135 171 215 270 329
#     4   9  19  36  59  85 110 144 190 234 276 327
#     4  11  25  38  51  82 117 150 188 229 282 335
#     4  10  21  36  54  76  99 128 166 212 268 327
#
# _framework density 17.972646999999998
#
# number of rings (size 3 to 8) (size 9 to 14) (size 15 to 20)
#    0.000    2.143    0.714    1.929    2.000    5.143 
#    0.000    0.000    0.000    0.429    0.000    0.000 
#    0.000    0.000    0.000    0.000    0.000    0.000 
#
# Total GULP energy -312075.279116 kJ/mol
# GULP energy per Si atom -5572.772841 kJ/mol
# Density = 1.793174 g / cm^3
# Si number density = 17.972647 Si / 1000 Ang^3
#
#
#
# Elastic Constant Matrix: (Units=GPa)
#
#
# Indices 1 2 3 4 5 6 
#
# 1 70.3948 37.8141 61.5969 0.0000 0.0000 0.0000
# 2 37.8141 116.6595 62.7981 0.0000 0.0000 0.0000
# 3 61.5969 62.7981 176.4889 0.0000 0.0000 0.0000
# 4 0.0000 0.0000 0.0000 55.4476 0.0000 0.0000
# 5 0.0000 0.0000 0.0000 0.0000 30.0735 0.0000
# 6 0.0000 0.0000 0.0000 0.0000 0.0000 13.6305
#
#
#
# Elastic Compliance Matrix: (Units=1/GPa)
#
#
# Indices 1 2 3 4 5 6 
#
# 1 0.021637 -0.003647 -0.006254 0.000000 0.000000 0.000000
# 2 -0.003647 0.011217 -0.002719 0.000000 0.000000 0.000000
# 3 -0.006254 -0.002719 0.008816 0.000000 0.000000 0.000000
# 4 0.000000 0.000000 0.000000 0.018035 0.000000 0.000000
# 5 0.000000 0.000000 0.000000 0.000000 0.033252 0.000000
# 6 0.000000 0.000000 0.000000 0.000000 0.000000 0.073365
#
#
# Mechanical properties :
#
#
# Convention : Reuss Voigt Hill
#
# Bulk Modulus (GPa) = 60.85798 76.44015 68.64906
# Shear Modulus (GPa) = 25.37578 33.25261 29.31420
#
# Velocity S-wave (km/s) = 3.76162 4.30604 4.04300
# Velocity P-wave (km/s) = 7.26645 8.20648 7.75073
#
# Compressibility (1/GPa) = 0.01643170
#
# Stress axis : x y z
#
# Youngs Moduli (GPa) = 46.21727 89.14655 113.42877
#
# Poissons Ratio (x) = 0.32511 0.70938
# Poissons Ratio (y) = 0.16855 0.30837
# Poissons Ratio (z) = 0.28904 0.24235
#
# Static dielectric constant tensor:
#      x y z
#    x 1.652400 0.000000 0.000000 
#    y 0.000000 1.622020 0.000000 
#    z 0.000000 0.000000 1.589830 
# 
# From -- ./inp_files/32078.got.cif
#   From: 2010.05.17/outbox.cif.g08.bks.cpg/sg51_17_cif.got.tgz:32078.got - 2010.06.03 11:52:47.
