data_PCOD9405261
_publ_section_title
;
Structure prediction by ZEFSAII (Michael W. Deem and Ramdas Pophale) SiO2 
 PCOD9405261
Probable space group: P M M A
;
_chemical_formula_sum "Si O2"
_cell_formula_units_Z 36
_cell_length_a 14.280586
_cell_length_b 13.965143
_cell_length_c 9.596280
_cell_angle_alpha 90.000000
_cell_angle_beta 90.000000
_cell_angle_gamma 90.000000
_cell_volume 1913.790205
_symmetry_space_group_name_H-M "P M M A"
_symmetry_group_IT_number 51
_symmetry_cell_setting 'orthorhombic'
loop_
_space_group_symop_operation_xyz
x,y,z
1/2-x,-y,z
1/2+x,-y,-z
-x,y,-z
-x,-y,-z
1/2+x,y,-z
1/2-x,y,z
x,-y,z
loop_
_atom_site_type_symbol
_atom_site_label
_atom_site_fract_x
_atom_site_fract_y
_atom_site_fract_z
Si Si1 0.500000 0.761121 0.000000
Si Si2 0.863472 0.393950 0.591201
Si Si3 0.361603 0.809882 0.514283
Si Si4 0.638142 0.390786 0.915297
Si Si5 0.513010 0.112988 0.725085
O O1 0.587744 0.688853 0.006203
O O2 0.511415 0.827199 0.865942
O O3 0.750000 0.395211 0.594509
O O4 0.893795 0.500000 0.544840
O O5 0.888241 0.302774 0.498347
O O6 0.892312 0.379674 0.752814
O O7 0.250000 0.819193 0.529464
O O8 0.398898 0.856872 0.371086
O O9 0.421104 0.858986 0.635608
O O10 0.750000 0.380048 0.919792
O O11 0.615936 0.500000 0.957397
O O12 0.514822 0.000000 0.750089
#
# Coordination Sequence:
#
# PCOD9405261 Si02
#       5
#     4   8   8   8   8
#     4  12  22  38  60  84 120 156 192 230 290 350
#     4   8  14  29  56  86 112 141 181 229 279 334
#     4  10  20  40  64  84 111 151 193 237 292 346
#     4   9  18  34  57  86 119 153 189 229 278 344
#     4  11  25  40  57  84 114 150 198 248 289 332
#
# _framework density 18.810838
#
# number of rings (size 3 to 8) (size 9 to 14) (size 15 to 20)
#    0.000    2.222    2.222    3.333    0.000    2.667 
#    0.000    4.444    0.000    6.667    0.000    0.000 
#    0.000    0.000    0.000    0.000    0.000    0.000 
#
# Total GULP energy -200889.985892 kJ/mol
# GULP energy per Si atom -5580.277386 kJ/mol
# Density = 1.876802 g / cm^3
# Si number density = 18.810838 Si / 1000 Ang^3
#
#
#
# Elastic Constant Matrix: (Units=GPa)
#
#
# Indices 1 2 3 4 5 6 
#
# 1 70.0664 16.8783 -1.6071 0.0000 0.0000 0.0000
# 2 16.8783 151.3360 18.7641 0.0000 0.0000 0.0000
# 3 -1.6071 18.7641 35.4734 0.0000 0.0000 0.0000
# 4 0.0000 0.0000 0.0000 22.9175 0.0000 0.0000
# 5 0.0000 0.0000 0.0000 0.0000 8.2547 0.0000
# 6 0.0000 0.0000 0.0000 0.0000 0.0000 23.5743
#
#
#
# Elastic Compliance Matrix: (Units=1/GPa)
#
#
# Indices 1 2 3 4 5 6 
#
# 1 0.014756 -0.001850 0.001647 0.000000 0.000000 0.000000
# 2 -0.001850 0.007304 -0.003947 0.000000 0.000000 0.000000
# 3 0.001647 -0.003947 0.030353 0.000000 0.000000 0.000000
# 4 0.000000 0.000000 0.000000 0.043635 0.000000 0.000000
# 5 0.000000 0.000000 0.000000 0.000000 0.121144 0.000000
# 6 0.000000 0.000000 0.000000 0.000000 0.000000 0.042419
#
#
# Mechanical properties :
#
#
# Convention : Reuss Voigt Hill
#
# Bulk Modulus (GPa) = 22.66967 36.10515 29.38741
# Shear Modulus (GPa) = 17.69204 25.80533 21.74869
#
# Velocity S-wave (km/s) = 3.07012 3.70785 3.40395
# Velocity P-wave (km/s) = 4.96438 6.12913 5.57725
#
# Compressibility (1/GPa) = 0.04411181
#
# Stress axis : x y z
#
# Youngs Moduli (GPa) = 67.77098 136.92015 32.94609
#
# Poissons Ratio (x) = 0.25329 -0.05426
# Poissons Ratio (y) = 0.12537 0.13004
# Poissons Ratio (z) = -0.11162 0.54044
#
# Static dielectric constant tensor:
#      x y z
#    x 1.650190 0.000000 0.000000 
#    y 0.000000 1.661920 0.000000 
#    z 0.000000 0.000000 1.634760 
# 
# From -- ./inp_files/7817.got.cif
#   From: 2010.05.17/outbox.cif.g08.bks.cpg/sg51_4_cif.got.tgz:7817.got - 2010.06.03 11:52:47.
