data_PCOD9405702
_publ_section_title
;
Structure prediction by ZEFSAII (Michael W. Deem and Ramdas Pophale) SiO2 
 PCOD9405702
Probable space group: P M M A
;
_chemical_formula_sum "Si O2"
_cell_formula_units_Z 48
_cell_length_a 9.419645
_cell_length_b 7.750946
_cell_length_c 31.805228
_cell_angle_alpha 90.000000
_cell_angle_beta 90.000000
_cell_angle_gamma 90.000000
_cell_volume 2322.136582
_symmetry_space_group_name_H-M "P M M A"
_symmetry_group_IT_number 51
_symmetry_cell_setting 'orthorhombic'
loop_
_space_group_symop_operation_xyz
x,y,z
1/2-x,-y,z
1/2+x,-y,-z
-x,y,-z
-x,-y,-z
1/2+x,y,-z
1/2-x,y,z
x,-y,z
loop_
_atom_site_type_symbol
_atom_site_label
_atom_site_fract_x
_atom_site_fract_y
_atom_site_fract_z
Si Si1 0.410218 0.205377 0.796893
Si Si2 0.088150 0.705209 0.284253
Si Si3 0.088328 0.792143 0.123761
Si Si4 0.087131 0.211302 0.541123
Si Si5 0.912110 0.207480 0.621688
Si Si6 0.587631 0.707859 0.040426
O O1 0.250000 0.276122 0.797514
O O2 0.486554 0.231229 0.752432
O O3 0.507777 0.274463 0.834715
O O4 0.399837 0.000000 0.803572
O O5 0.250000 0.774426 0.279522
O O6 0.094942 0.500000 0.280864
O O7 0.038340 0.749184 0.331327
O O8 0.250000 0.726832 0.120677
O O9 0.996806 0.750689 0.082710
O O10 0.096311 0.000000 0.126914
O O11 0.250000 0.266955 0.539118
O O12 0.000000 0.265259 0.500000
O O13 0.010360 0.269601 0.583819
O O14 0.086938 0.000000 0.541302
O O15 0.750000 0.272319 0.617299
O O16 0.907127 0.000000 0.618625
O O17 0.750000 0.772315 0.041244
O O18 0.594131 0.500000 0.037302
O O19 0.500000 0.772077 0.000000
#
# Coordination Sequence:
#
# PCOD9405702 Si02
#       6
#     8   8   8   8   8   8
#     4  10  21  37  57  80 106 137 174 217 264 313
#     4  10  21  36  54  77 105 138 175 214 258 310
#     4  10  21  37  58  83 109 139 176 218 265 315
#     4   9  16  26  43  69  99 128 161 204 252 301
#     4   9  17  30  49  72  99 132 168 207 253 303
#     4  10  21  37  57  81 110 145 183 221 262 309
#
# _framework density 20.67062
#
# number of rings (size 3 to 8) (size 9 to 14) (size 15 to 20)
#    0.000    2.333    0.000    2.500    0.000    7.667 
#    0.000    1.667    0.000    0.500    0.000    0.000 
#    0.000    0.000    0.000    0.000    0.000    0.000 
#
# Total GULP energy -268107.958296 kJ/mol
# GULP energy per Si atom -5585.582465 kJ/mol
# Density = 2.062357 g / cm^3
# Si number density = 20.670620 Si / 1000 Ang^3
#
#
#
# Elastic Constant Matrix: (Units=GPa)
#
#
# Indices 1 2 3 4 5 6 
#
# 1 202.1216 8.1561 144.8104 0.0000 0.0000 0.0000
# 2 8.1561 29.0559 -3.5852 0.0000 0.0000 0.0000
# 3 144.8104 -3.5852 209.5871 0.0000 0.0000 0.0000
# 4 0.0000 0.0000 0.0000 49.8815 0.0000 0.0000
# 5 0.0000 0.0000 0.0000 0.0000 41.3442 0.0000
# 6 0.0000 0.0000 0.0000 0.0000 0.0000 6.1396
#
#
#
# Elastic Compliance Matrix: (Units=1/GPa)
#
#
# Indices 1 2 3 4 5 6 
#
# 1 0.010187 -0.003736 -0.007102 0.000000 0.000000 0.000000
# 2 -0.003736 0.035859 0.003195 0.000000 0.000000 0.000000
# 3 -0.007102 0.003195 0.009733 0.000000 0.000000 0.000000
# 4 0.000000 0.000000 0.000000 0.020048 0.000000 0.000000
# 5 0.000000 0.000000 0.000000 0.000000 0.024187 0.000000
# 6 0.000000 0.000000 0.000000 0.000000 0.000000 0.162878
#
#
# Mechanical properties :
#
#
# Convention : Reuss Voigt Hill
#
# Bulk Modulus (GPa) = 24.69613 82.16968 53.43291
# Shear Modulus (GPa) = 17.14235 38.89861 28.02048
#
# Velocity S-wave (km/s) = 2.88290 4.34271 3.68580
# Velocity P-wave (km/s) = 4.80155 8.06125 6.63471
#
# Compressibility (1/GPa) = 0.04049218
#
# Stress axis : x y z
#
# Youngs Moduli (GPa) = 98.16795 27.88682 102.74277
#
# Poissons Ratio (x) = 0.10418 0.72970
# Poissons Ratio (y) = 0.36673 -0.32822
# Poissons Ratio (z) = 0.69721 -0.08909
#
# Static dielectric constant tensor:
#      x y z
#    x 1.731700 0.000000 0.000000 
#    y 0.000000 1.762670 0.000000 
#    z 0.000000 0.000000 1.693890 
# 
# From -- ./inp_files/36917.got.cif
#   From: 2010.05.17/outbox.cif.g08.bks.cpg/sg51_19_cif.got.tgz:36917.got - 2010.06.03 11:52:47.
