data_PCOD9405489
_publ_section_title
;
Structure prediction by ZEFSAII (Michael W. Deem and Ramdas Pophale) SiO2 
 PCOD9405489
Probable space group: P M M A
;
_chemical_formula_sum "Si O2"
_cell_formula_units_Z 44
_cell_length_a 9.510700
_cell_length_b 7.607942
_cell_length_c 31.005084
_cell_angle_alpha 90.000000
_cell_angle_beta 90.000000
_cell_angle_gamma 90.000000
_cell_volume 2243.430336
_symmetry_space_group_name_H-M "P M M A"
_symmetry_group_IT_number 51
_symmetry_cell_setting 'orthorhombic'
loop_
_space_group_symop_operation_xyz
x,y,z
1/2-x,-y,z
1/2+x,-y,-z
-x,y,-z
-x,-y,-z
1/2+x,y,-z
1/2-x,y,z
x,-y,z
loop_
_atom_site_type_symbol
_atom_site_label
_atom_site_fract_x
_atom_site_fract_y
_atom_site_fract_z
Si Si1 0.917333 0.000000 0.455518
Si Si2 0.909088 0.789436 0.216430
Si Si3 0.083651 0.708463 0.614791
Si Si4 0.089108 0.210638 0.136080
Si Si5 0.589925 0.711295 0.698931
Si Si6 0.589993 0.288631 0.959811
O O1 0.949536 0.170906 0.426240
O O2 0.000000 0.000000 0.500000
O O3 0.750000 0.000000 0.463791
O O4 0.750000 0.720673 0.220394
O O5 0.991051 0.720889 0.174314
O O6 0.000644 0.756504 0.258899
O O7 0.899349 0.000000 0.211624
O O8 0.250000 0.731446 0.624688
O O9 0.060479 0.500000 0.606890
O O10 0.991711 0.766851 0.655746
O O11 0.250000 0.278749 0.139240
O O12 0.034445 0.247542 0.087953
O O13 0.096718 0.000000 0.140626
O O14 0.750000 0.778330 0.701250
O O15 0.596339 0.500000 0.696954
O O16 0.750000 0.221434 0.961829
O O17 0.595119 0.500000 0.963175
O O18 0.500000 0.222027 0.000000
#
# Coordination Sequence:
#
# PCOD9405489 Si02
#       6
#     4   8   8   8   8   8
#     4  10  22  38  58  86 116 150 194 236 283 340
#     4  10  21  35  52  76 106 140 176 215 262 317
#     4   9  19  37  58  81 114 152 189 235 285 333
#     4   9  18  33  50  69  97 131 167 208 256 309
#     4  10  21  36  55  81 110 141 180 224 271 324
#     4   9  18  32  49  69  93 122 158 202 253 308
#
# _framework density 19.612822000000001
#
# number of rings (size 3 to 8) (size 9 to 14) (size 15 to 20)
#    0.000    2.545    0.000    1.091    1.273    5.091 
#    0.000    1.818    0.000    0.000    0.000    0.000 
#    0.000    0.000    0.000    0.000    0.000    0.000 
#
# Total GULP energy -245581.255289 kJ/mol
# GULP energy per Si atom -5581.392166 kJ/mol
# Density = 1.956818 g / cm^3
# Si number density = 19.612822 Si / 1000 Ang^3
#
#
#
# Elastic Constant Matrix: (Units=GPa)
#
#
# Indices 1 2 3 4 5 6 
#
# 1 126.6254 28.2640 124.0243 0.0000 0.0000 0.0000
# 2 28.2640 51.8709 31.4753 0.0000 0.0000 0.0000
# 3 124.0243 31.4753 221.0272 0.0000 0.0000 0.0000
# 4 0.0000 0.0000 0.0000 29.7254 0.0000 0.0000
# 5 0.0000 0.0000 0.0000 0.0000 40.9616 0.0000
# 6 0.0000 0.0000 0.0000 0.0000 0.0000 69.5304
#
#
#
# Elastic Compliance Matrix: (Units=1/GPa)
#
#
# Indices 1 2 3 4 5 6 
#
# 1 0.018295 -0.004093 -0.009683 0.000000 0.000000 0.000000
# 2 -0.004093 0.022018 -0.000839 0.000000 0.000000 0.000000
# 3 -0.009683 -0.000839 0.010077 0.000000 0.000000 0.000000
# 4 0.000000 0.000000 0.000000 0.033641 0.000000 0.000000
# 5 0.000000 0.000000 0.000000 0.000000 0.024413 0.000000
# 6 0.000000 0.000000 0.000000 0.000000 0.000000 0.014382
#
#
# Mechanical properties :
#
#
# Convention : Reuss Voigt Hill
#
# Bulk Modulus (GPa) = 47.25798 85.22785 66.24291
# Shear Modulus (GPa) = 31.42493 42.42747 36.92620
#
# Velocity S-wave (km/s) = 4.00717 4.65612 4.34378
# Velocity P-wave (km/s) = 6.74964 8.51208 7.68157
#
# Compressibility (1/GPa) = 0.02116045
#
# Stress axis : x y z
#
# Youngs Moduli (GPa) = 54.66000 45.41772 99.23503
#
# Poissons Ratio (x) = 0.18590 0.96088
# Poissons Ratio (y) = 0.22373 0.08323
# Poissons Ratio (z) = 0.52927 0.03809
#
# Static dielectric constant tensor:
#      x y z
#    x 1.691100 0.000000 0.000000 
#    y 0.000000 1.721960 0.000000 
#    z 0.000000 0.000000 1.648350 
# 
# From -- ./inp_files/36745.got.cif
#   From: 2010.05.17/outbox.cif.g08.bks.cpg/sg51_19_cif.got.tgz:36745.got - 2010.06.03 11:52:47.
