data_PCOD9405324
_publ_section_title
;
Structure prediction by ZEFSAII (Michael W. Deem and Ramdas Pophale) SiO2 
 PCOD9405324
Probable space group: P M M A
;
_chemical_formula_sum "Si O2"
_cell_formula_units_Z 44
_cell_length_a 7.583273
_cell_length_b 29.286895
_cell_length_c 9.940199
_cell_angle_alpha 90.000000
_cell_angle_beta 90.000000
_cell_angle_gamma 90.000000
_cell_volume 2207.623966
_symmetry_space_group_name_H-M "P M M A"
_symmetry_group_IT_number 51
_symmetry_cell_setting 'orthorhombic'
loop_
_space_group_symop_operation_xyz
x,y,z
1/2-x,-y,z
1/2+x,-y,-z
-x,y,-z
-x,-y,-z
1/2+x,y,-z
1/2-x,y,z
x,-y,z
loop_
_atom_site_type_symbol
_atom_site_label
_atom_site_fract_x
_atom_site_fract_y
_atom_site_fract_z
Si Si1 0.462063 0.500000 0.841628
Si Si2 0.538197 0.765638 0.156670
Si Si3 0.961839 0.948915 0.343441
Si Si4 0.038308 0.685004 0.654838
Si Si5 0.538139 0.132403 0.156824
Si Si6 0.538147 0.581964 0.344589
O O1 0.250000 0.500000 0.828561
O O2 0.528067 0.544679 0.761432
O O3 0.500000 0.500000 0.000000
O O4 0.750000 0.766769 0.172765
O O5 0.469163 0.724489 0.247865
O O6 0.471331 0.816603 0.190981
O O7 0.500000 0.757493 0.000000
O O8 0.750000 0.950157 0.327907
O O9 0.030671 0.908382 0.249651
O O10 0.000000 0.940073 0.500000
O O11 0.028793 0.000000 0.310761
O O12 0.250000 0.683220 0.671276
O O13 0.970543 0.633501 0.679680
O O14 0.000000 0.696252 0.500000
O O15 0.750000 0.133570 0.172244
O O16 0.500000 0.124032 0.000000
O O17 0.500000 0.569426 0.500000
O O18 0.750000 0.583505 0.332502
#
# Coordination Sequence:
#
# PCOD9405324 Si02
#       6
#     4   8   8   8   8   8
#     4  10  21  34  48  70  98 124 153 190 230 272
#     4   9  18  32  48  67  93 123 153 187 227 270
#     4   9  18  32  48  67  92 120 150 186 228 272
#     4   9  18  32  49  70  95 121 152 190 229 270
#     4   9  18  32  48  67  92 121 153 188 226 269
#     4   9  18  33  51  70  93 122 155 190 228 271
#
# _framework density 19.930931999999999
#
# number of rings (size 3 to 8) (size 9 to 14) (size 15 to 20)
#    0.000    2.909    0.000    0.273    0.000    4.000 
#    0.000    0.000    0.000    0.000    0.000    0.000 
#    0.000    0.000    0.000    0.000    0.000    0.000 
#
# Total GULP energy -245415.860072 kJ/mol
# GULP energy per Si atom -5577.633183 kJ/mol
# Density = 1.988557 g / cm^3
# Si number density = 19.930932 Si / 1000 Ang^3
#
#
#
# Elastic Constant Matrix: (Units=GPa)
#
#
# Indices 1 2 3 4 5 6 
#
# 1 44.8743 9.4021 -2.5163 0.0000 0.0000 0.0000
# 2 9.4021 213.5930 154.7383 0.0000 0.0000 0.0000
# 3 -2.5163 154.7383 136.8014 0.0000 0.0000 0.0000
# 4 0.0000 0.0000 0.0000 16.3618 0.0000 0.0000
# 5 0.0000 0.0000 0.0000 0.0000 25.3430 0.0000
# 6 0.0000 0.0000 0.0000 0.0000 0.0000 10.8834
#
#
#
# Elastic Compliance Matrix: (Units=1/GPa)
#
#
# Indices 1 2 3 4 5 6 
#
# 1 0.024427 -0.007758 0.009224 0.000000 0.000000 0.000000
# 2 -0.007758 0.028393 -0.032259 0.000000 0.000000 0.000000
# 3 0.009224 -0.032259 0.043968 0.000000 0.000000 0.000000
# 4 0.000000 0.000000 0.000000 0.061118 0.000000 0.000000
# 5 0.000000 0.000000 0.000000 0.000000 0.039459 0.000000
# 6 0.000000 0.000000 0.000000 0.000000 0.000000 0.091883
#
#
# Mechanical properties :
#
#
# Convention : Reuss Voigt Hill
#
# Bulk Modulus (GPa) = 28.40601 79.83520 54.12061
# Shear Modulus (GPa) = 13.79054 26.09396 19.94225
#
# Velocity S-wave (km/s) = 2.63328 3.62224 3.16661
# Velocity P-wave (km/s) = 4.85064 7.59191 6.37047
#
# Compressibility (1/GPa) = 0.03520381
#
# Stress axis : x y z
#
# Youngs Moduli (GPa) = 40.93804 35.21952 22.74378
#
# Poissons Ratio (x) = 0.27323 -0.20980
# Poissons Ratio (y) = 0.31759 0.73369
# Poissons Ratio (z) = -0.37763 1.13614
#
# Static dielectric constant tensor:
#      x y z
#    x 1.725680 0.000000 0.000000 
#    y 0.000000 1.738490 0.000000 
#    z 0.000000 0.000000 1.641120 
# 
# From -- ./inp_files/5839.got.cif
#   From: 2010.05.17/outbox.cif.g08.bks.cpg/sg51_3_cif.got.tgz:5839.got - 2010.06.03 11:52:47.
