data_PCOD9405175
_publ_section_title
;
Structure prediction by ZEFSAII (Michael W. Deem and Ramdas Pophale) SiO2 
 PCOD9405175
Probable space group: P M M A
;
_chemical_formula_sum "Si O2"
_cell_formula_units_Z 48
_cell_length_a 13.703671
_cell_length_b 14.358773
_cell_length_c 11.013821
_cell_angle_alpha 90.000000
_cell_angle_beta 90.000000
_cell_angle_gamma 90.000000
_cell_volume 2167.166442
_symmetry_space_group_name_H-M "P M M A"
_symmetry_group_IT_number 51
_symmetry_cell_setting 'orthorhombic'
loop_
_space_group_symop_operation_xyz
x,y,z
1/2-x,-y,z
1/2+x,-y,-z
-x,y,-z
-x,-y,-z
1/2+x,y,-z
1/2-x,y,z
x,-y,z
loop_
_atom_site_type_symbol
_atom_site_label
_atom_site_fract_x
_atom_site_fract_y
_atom_site_fract_z
Si Si1 0.865749 0.397192 0.441164
Si Si2 0.130421 0.893882 0.699216
Si Si3 0.366688 0.235646 0.924308
Si Si4 0.983244 0.606870 0.188698
Si Si5 0.366839 0.766221 0.192056
Si Si6 0.132718 0.800235 0.449952
O O1 0.750000 0.391340 0.412426
O O2 0.883522 0.500000 0.496305
O O3 0.888148 0.308744 0.524180
O O4 0.925483 0.390205 0.316869
O O5 0.250000 0.892571 0.698403
O O6 0.101744 0.827991 0.811145
O O7 0.097528 0.855565 0.568047
O O8 0.099453 0.000000 0.716668
O O9 0.250000 0.245231 0.917665
O O10 0.415821 0.335651 0.904526
O O11 0.390747 0.196267 0.057750
O O12 0.998389 0.500000 0.155962
O O13 0.081597 0.666148 0.199410
O O14 0.250000 0.756199 0.197798
O O15 0.397798 0.822654 0.312456
O O16 0.250000 0.811446 0.451891
#
# Coordination Sequence:
#
# PCOD9405175 Si02
#       6
#     8   8   8   8   8   8
#     4   9  17  31  54  84 114 146 188 235 281 331
#     4   9  17  33  62  92 113 142 188 237 284 338
#     4  10  20  38  60  85 116 151 190 235 286 338
#     4  11  22  36  58  85 114 152 200 241 278 329
#     4  10  23  38  54  78 117 160 190 228 286 340
#     4   9  17  34  56  82 115 149 184 229 281 334
#
# _framework density 22.148738000000002
#
# number of rings (size 3 to 8) (size 9 to 14) (size 15 to 20)
#    0.000    2.333    1.667    1.000    0.000    4.000 
#    0.000    5.833    0.000    9.000    0.000    0.000 
#    0.000    0.000    0.000    0.000    0.000    0.000 
#
# Total GULP energy -268237.081003 kJ/mol
# GULP energy per Si atom -5588.272521 kJ/mol
# Density = 2.209833 g / cm^3
# Si number density = 22.148738 Si / 1000 Ang^3
#
#
#
# Elastic Constant Matrix: (Units=GPa)
#
#
# Indices 1 2 3 4 5 6 
#
# 1 87.1980 2.9026 36.7009 0.0000 0.0000 0.0000
# 2 2.9026 78.0135 49.1428 0.0000 0.0000 0.0000
# 3 36.7009 49.1428 179.7972 0.0000 0.0000 0.0000
# 4 0.0000 0.0000 0.0000 -6.3377 0.0000 0.0000
# 5 0.0000 0.0000 0.0000 0.0000 35.8138 0.0000
# 6 0.0000 0.0000 0.0000 0.0000 0.0000 11.0415
#
#
#
# Elastic Compliance Matrix: (Units=1/GPa)
#
#
# Indices 1 2 3 4 5 6 
#
# 1 0.012671 0.001399 -0.002969 0.000000 0.000000 0.000000
# 2 0.001399 0.015639 -0.004560 0.000000 0.000000 0.000000
# 3 -0.002969 -0.004560 0.007414 0.000000 0.000000 0.000000
# 4 0.000000 0.000000 0.000000 -0.157787 0.000000 0.000000
# 5 0.000000 0.000000 0.000000 0.000000 0.027922 0.000000
# 6 0.000000 0.000000 0.000000 0.000000 0.000000 0.090567
#
#
# Mechanical properties :
#
#
# Convention : Reuss Voigt Hill
#
# Bulk Modulus (GPa) = 42.61864 58.05567 50.33716
# Shear Modulus (GPa) = 302.88364 25.18770 164.03567
#
# Velocity S-wave (km/s) = 11.70670 3.37591 8.61520
# Velocity P-wave (km/s) = 14.21312 6.43928 11.03352
#
# Compressibility (1/GPa) = 0.02346391
#
# Stress axis : x y z
#
# Youngs Moduli (GPa) = 78.91956 63.94411 134.87727
#
# Poissons Ratio (x) = -0.08944 0.40042
# Poissons Ratio (y) = -0.11038 0.61503
# Poissons Ratio (z) = 0.23429 0.29158
#
# Static dielectric constant tensor:
#      x y z
#    x 1.850690 0.000000 0.000000 
#    y 0.000000 1.752120 0.000000 
#    z 0.000000 0.000000 1.860400 
# 
# From -- ./inp_files/16413.got.cif
#   From: 2010.05.17/outbox.cif.g08.bks.cpg/sg51_9_cif.got.tgz:16413.got - 2010.06.03 11:52:47.
