data_PCOD9405028
_publ_section_title
;
Structure prediction by ZEFSAII (Michael W. Deem and Ramdas Pophale) SiO2 
 PCOD9405028
Probable space group: P M M A
;
_chemical_formula_sum "Si O2"
_cell_formula_units_Z 48
_cell_length_a 30.784228
_cell_length_b 8.656830
_cell_length_c 9.815835
_cell_angle_alpha 90.000000
_cell_angle_beta 90.000000
_cell_angle_gamma 90.000000
_cell_volume 2615.859449
_symmetry_space_group_name_H-M "P M M A"
_symmetry_group_IT_number 51
_symmetry_cell_setting 'orthorhombic'
loop_
_space_group_symop_operation_xyz
x,y,z
1/2-x,-y,z
1/2+x,-y,-z
-x,y,-z
-x,-y,-z
1/2+x,y,-z
1/2-x,y,z
x,-y,z
loop_
_atom_site_type_symbol
_atom_site_label
_atom_site_fract_x
_atom_site_fract_y
_atom_site_fract_z
Si Si1 0.199846 0.315295 0.348963
Si Si2 0.377570 0.187139 0.842086
Si Si3 0.047554 0.814268 0.352293
Si Si4 0.451597 0.684321 0.649288
Si Si5 0.700184 0.186203 0.354744
Si Si6 0.373662 0.186302 0.156471
O O1 0.250000 0.267621 0.325103
O O2 0.197988 0.500000 0.351479
O O3 0.187243 0.252113 0.498078
O O4 0.167826 0.251695 0.235033
O O5 0.418240 0.257371 0.762365
O O6 0.333898 0.232373 0.760864
O O7 0.380920 0.000000 0.837719
O O8 0.375938 0.235448 0.999448
O O9 0.060845 0.754682 0.501953
O O10 0.083359 0.769384 0.241119
O O11 0.000336 0.743841 0.322024
O O12 0.044067 0.000000 0.356376
O O13 0.451547 0.500000 0.640189
O O14 0.750000 0.234806 0.326590
O O15 0.699662 0.000000 0.363430
O O16 0.371077 0.000000 0.158953
#
# Coordination Sequence:
#
# PCOD9405028 Si02
#       6
#     8   8   8   8   8   8
#     4  10  21  36  55  80 110 143 178 219 267 316
#     4  10  21  37  55  79 111 143 176 218 269 319
#     4  10  20  37  59  81 106 139 180 225 271 316
#     4  11  22  36  56  82 108 139 180 222 267 319
#     4   9  18  34  57  81 104 136 179 221 260 308
#     4  10  22  37  56  81 108 142 181 221 266 318
#
# _framework density 18.349608
#
# number of rings (size 3 to 8) (size 9 to 14) (size 15 to 20)
#    0.000    2.000    0.000    4.500    0.000    9.000 
#    0.000    5.000    0.000    2.000    0.000    0.000 
#    0.000    0.000    0.000    0.000    0.000    0.000 
#
# Total GULP energy -268140.248929 kJ/mol
# GULP energy per Si atom -5586.255186 kJ/mol
# Density = 1.830784 g / cm^3
# Si number density = 18.349608 Si / 1000 Ang^3
#
#
#
# Elastic Constant Matrix: (Units=GPa)
#
#
# Indices 1 2 3 4 5 6 
#
# 1 115.5773 35.3465 123.0603 0.0000 0.0000 0.0000
# 2 35.3465 34.2997 43.5701 0.0000 0.0000 0.0000
# 3 123.0603 43.5701 193.0026 0.0000 0.0000 0.0000
# 4 0.0000 0.0000 0.0000 -23.0109 0.0000 0.0000
# 5 0.0000 0.0000 0.0000 0.0000 -13.5673 0.0000
# 6 0.0000 0.0000 0.0000 0.0000 0.0000 18.4088
#
#
#
# Elastic Compliance Matrix: (Units=1/GPa)
#
#
# Indices 1 2 3 4 5 6 
#
# 1 0.028758 -0.008894 -0.016329 0.000000 0.000000 0.000000
# 2 -0.008894 0.043627 -0.004178 0.000000 0.000000 0.000000
# 3 -0.016329 -0.004178 0.016536 0.000000 0.000000 0.000000
# 4 0.000000 0.000000 0.000000 -0.043458 0.000000 0.000000
# 5 0.000000 0.000000 0.000000 0.000000 -0.073707 0.000000
# 6 0.000000 0.000000 0.000000 0.000000 0.000000 0.054322
#
#
# Mechanical properties :
#
#
# Convention : Reuss Voigt Hill
#
# Bulk Modulus (GPa) = 33.20046 82.98147 58.09097
# Shear Modulus (GPa) = 52.67665 5.75966 29.21815
#
# Velocity S-wave (km/s) = 5.36373 1.77360 3.99470
# Velocity P-wave (km/s) = 7.51611 7.03668 7.28034
#
# Compressibility (1/GPa) = 0.03012006
#
# Stress axis : x y z
#
# Youngs Moduli (GPa) = 34.77313 22.92151 60.47533
#
# Poissons Ratio (x) = 0.20386 0.98747
# Poissons Ratio (y) = 0.30926 0.25267
# Poissons Ratio (z) = 0.56779 0.09577
#
# Static dielectric constant tensor:
#      x y z
#    x 1.624730 0.000000 0.000000 
#    y 0.000000 1.615040 0.000000 
#    z 0.000000 0.000000 1.600760 
# 
# From -- ./inp_files/12836.got.cif
#   From: 2010.05.17/outbox.cif.g08.bks.cpg/sg51_7_cif.got.tgz:12836.got - 2010.06.03 11:52:47.
