data_PCOD9405335
_publ_section_title
;
Structure prediction by ZEFSAII (Michael W. Deem and Ramdas Pophale) SiO2 
 PCOD9405335
Probable space group: P M M A
;
_chemical_formula_sum "Si O2"
_cell_formula_units_Z 56
_cell_length_a 18.308380
_cell_length_b 19.856730
_cell_length_c 8.300417
_cell_angle_alpha 90.000000
_cell_angle_beta 90.000000
_cell_angle_gamma 90.000000
_cell_volume 3017.571433
_symmetry_space_group_name_H-M "P M M A"
_symmetry_group_IT_number 51
_symmetry_cell_setting 'orthorhombic'
loop_
_space_group_symop_operation_xyz
x,y,z
1/2-x,-y,z
1/2+x,-y,-z
-x,y,-z
-x,-y,-z
1/2+x,y,-z
1/2-x,y,z
x,-y,z
loop_
_atom_site_type_symbol
_atom_site_label
_atom_site_fract_x
_atom_site_fract_y
_atom_site_fract_z
Si Si1 0.977200 0.075039 0.808932
Si Si2 0.437167 0.305400 0.609500
Si Si3 0.836874 0.693404 0.685902
Si Si4 0.565039 0.805016 0.131214
Si Si5 0.837002 0.161208 0.846028
Si Si6 0.336901 0.576466 0.069202
Si Si7 0.956934 0.577295 0.166269
O O1 0.894698 0.103593 0.791012
O O2 0.033019 0.134040 0.759761
O O3 0.984944 0.000000 0.741242
O O4 0.000000 0.070295 0.000000
O O5 0.500000 0.272810 0.500000
O O6 0.371619 0.317595 0.487756
O O7 0.418727 0.257743 0.757811
O O8 0.469584 0.372650 0.688680
O O9 0.750000 0.688334 0.676133
O O10 0.852976 0.768526 0.752860
O O11 0.861799 0.635355 0.810288
O O12 0.500000 0.789287 0.000000
O O13 0.635809 0.825804 0.028937
O O14 0.750000 0.146670 0.834247
O O15 0.250000 0.580136 0.057697
O O16 0.356448 0.500000 0.124145
O O17 0.373730 0.584976 0.895537
O O18 0.970992 0.500000 0.209171
O O19 0.000000 0.592078 0.000000
#
# Coordination Sequence:
#
# PCOD9405335 Si02
#       7
#     8   8   8   8   8   8   8
#     4   8  15  29  49  75 102 123 154 202 244 279
#     4  12  22  32  50  72  98 132 166 202 245 290
#     4  10  21  34  49  73 103 130 160 203 248 286
#     4   9  18  32  51  72  96 128 165 200 236 283
#     4   9  17  31  51  73  99 131 162 195 240 291
#     4   9  18  35  56  72  92 128 168 203 243 293
#     4  10  21  35  51  72  97 126 163 207 250 292
#
# _framework density 18.557969
#
# number of rings (size 3 to 8) (size 9 to 14) (size 15 to 20)
#    0.000    2.714    0.000    3.857    0.000    2.286 
#    0.000    0.000    0.000    3.857    0.000    0.000 
#    0.000    0.000    0.000    0.000    0.000    0.000 
#
# Total GULP energy -311907.681114 kJ/mol
# GULP energy per Si atom -5569.780020 kJ/mol
# Density = 1.851573 g / cm^3
# Si number density = 18.557969 Si / 1000 Ang^3
#
#
#
# Elastic Constant Matrix: (Units=GPa)
#
#
# Indices 1 2 3 4 5 6 
#
# 1 60.4203 21.8403 7.1946 0.0000 0.0000 0.0000
# 2 21.8403 61.9685 10.7720 0.0000 0.0000 0.0000
# 3 7.1946 10.7720 24.5109 0.0000 0.0000 0.0000
# 4 0.0000 0.0000 0.0000 -0.4380 0.0000 0.0000
# 5 0.0000 0.0000 0.0000 0.0000 27.8022 0.0000
# 6 0.0000 0.0000 0.0000 0.0000 0.0000 15.8373
#
#
#
# Elastic Compliance Matrix: (Units=1/GPa)
#
#
# Indices 1 2 3 4 5 6 
#
# 1 0.019152 -0.006250 -0.002875 0.000000 0.000000 0.000000
# 2 -0.006250 0.019512 -0.006740 0.000000 0.000000 0.000000
# 3 -0.002875 -0.006740 0.044604 0.000000 0.000000 0.000000
# 4 0.000000 0.000000 0.000000 -2.282853 0.000000 0.000000
# 5 0.000000 0.000000 0.000000 0.000000 0.035968 0.000000
# 6 0.000000 0.000000 0.000000 0.000000 0.000000 0.063142
#
#
# Mechanical properties :
#
#
# Convention : Reuss Voigt Hill
#
# Bulk Modulus (GPa) = 19.40340 25.16815 22.28578
# Shear Modulus (GPa) = -2.43716 15.77979 6.67131
#
# Velocity S-wave (km/s) = -1.14722 2.91915 1.89807
# Velocity P-wave (km/s) = 2.95355 4.99532 4.10346
#
# Compressibility (1/GPa) = 0.05153737
#
# Stress axis : x y z
#
# Youngs Moduli (GPa) = 52.21276 51.25111 22.41935
#
# Poissons Ratio (x) = 0.32034 0.06445
# Poissons Ratio (y) = 0.32635 0.15111
# Poissons Ratio (z) = 0.15011 0.34545
#
# Static dielectric constant tensor:
#      x y z
#    x 1.686960 0.000000 0.000000 
#    y 0.000000 1.694950 0.000000 
#    z 0.000000 0.000000 1.623530 
# 
# From -- ./inp_files/9960.got.cif
#   From: 2010.05.17/outbox.cif.g08.bks.cpg/sg51_5_cif.got.tgz:9960.got - 2010.06.03 11:52:47.
