data_PCOD9405137
_publ_section_title
;
Structure prediction by ZEFSAII (Michael W. Deem and Ramdas Pophale) SiO2 
 PCOD9405137
Probable space group: P M M A
;
_chemical_formula_sum "Si O2"
_cell_formula_units_Z 48
_cell_length_a 34.945118
_cell_length_b 8.487877
_cell_length_c 8.004536
_cell_angle_alpha 90.000000
_cell_angle_beta 90.000000
_cell_angle_gamma 90.000000
_cell_volume 2374.224329
_symmetry_space_group_name_H-M "P M M A"
_symmetry_group_IT_number 51
_symmetry_cell_setting 'orthorhombic'
loop_
_space_group_symop_operation_xyz
x,y,z
1/2-x,-y,z
1/2+x,-y,-z
-x,y,-z
-x,-y,-z
1/2+x,y,-z
1/2-x,y,z
x,-y,z
loop_
_atom_site_type_symbol
_atom_site_label
_atom_site_fract_x
_atom_site_fract_y
_atom_site_fract_z
Si Si1 0.542569 0.310249 0.939056
Si Si2 0.088464 0.683302 0.738713
Si Si3 0.958725 0.187446 0.566566
Si Si4 0.205716 0.668959 0.034396
Si Si5 0.792892 0.000000 0.471023
Si Si6 0.206363 0.000000 0.134270
Si Si7 0.322214 0.326030 0.670558
O O1 0.543960 0.500000 0.932220
O O2 0.549906 0.251161 0.751632
O O3 0.500000 0.263152 0.000000
O O4 0.571452 0.256378 0.085532
O O5 0.076454 0.500000 0.725159
O O6 0.071499 0.768344 0.576545
O O7 0.134156 0.686832 0.733106
O O8 0.000000 0.247785 0.500000
O O9 0.960999 0.000000 0.579903
O O10 0.250000 0.671003 0.092650
O O11 0.188643 0.500000 0.089879
O O12 0.187407 0.834580 0.085745
O O13 0.204023 0.669209 0.834695
O O14 0.790263 0.000000 0.668976
O O15 0.812515 0.835054 0.423054
O O16 0.750000 0.000000 0.397530
O O17 0.250000 0.000000 0.060065
O O18 0.318041 0.500000 0.585636
#
# Coordination Sequence:
#
# PCOD9405137 Si02
#       7
#     8   8   8   8   4   4   8
#     4  10  20  37  63  89 114 155 211 258 301 361
#     4  10  22  41  61  85 121 161 205 256 308 363
#     4  11  23  37  58  89 125 162 202 255 311 365
#     4   9  17  33  58  83 111 150 194 241 293 353
#     4  11  23  39  63  91 121 160 201 246 304 375
#     4   9  19  35  55  85 117 144 189 240 289 354
#     4  10  22  40  60  88 122 157 201 255 309 363
#
# _framework density 20.217129
#
# number of rings (size 3 to 8) (size 9 to 14) (size 15 to 20)
#    0.000    2.000    1.667    1.500    1.167    4.000 
#    3.000    1.667    0.000    0.000    0.000    0.000 
#    0.000    0.000    0.000    0.000    0.000    0.000 
#
# Total GULP energy -267563.763184 kJ/mol
# GULP energy per Si atom -5574.245066 kJ/mol
# Density = 2.017111 g / cm^3
# Si number density = 20.217129 Si / 1000 Ang^3
#
#
#
# Elastic Constant Matrix: (Units=GPa)
#
#
# Indices 1 2 3 4 5 6 
#
# 1 53.2689 17.7514 19.7649 0.0000 0.0000 0.0000
# 2 17.7514 138.8824 40.5194 0.0000 0.0000 0.0000
# 3 19.7649 40.5194 114.9586 0.0000 0.0000 0.0000
# 4 0.0000 0.0000 0.0000 24.4275 0.0000 0.0000
# 5 0.0000 0.0000 0.0000 0.0000 -49.2058 0.0000
# 6 0.0000 0.0000 0.0000 0.0000 0.0000 3.6780
#
#
#
# Elastic Compliance Matrix: (Units=1/GPa)
#
#
# Indices 1 2 3 4 5 6 
#
# 1 0.020434 -0.001769 -0.002890 0.000000 0.000000 0.000000
# 2 -0.001769 0.008179 -0.002579 0.000000 0.000000 0.000000
# 3 -0.002890 -0.002579 0.010105 0.000000 0.000000 0.000000
# 4 0.000000 0.000000 0.000000 0.040937 0.000000 0.000000
# 5 0.000000 0.000000 0.000000 0.000000 -0.020323 0.000000
# 6 0.000000 0.000000 0.000000 0.000000 0.000000 0.271888
#
#
# Mechanical properties :
#
#
# Convention : Reuss Voigt Hill
#
# Bulk Modulus (GPa) = 41.24882 51.46461 46.35671
# Shear Modulus (GPa) = 14.13325 11.05156 12.59241
#
# Velocity S-wave (km/s) = 2.64687 2.34058 2.49842
# Velocity P-wave (km/s) = 5.45788 5.72849 5.59482
#
# Compressibility (1/GPa) = 0.02424312
#
# Stress axis : x y z
#
# Youngs Moduli (GPa) = 48.93725 122.26824 98.96543
#
# Poissons Ratio (x) = 0.21626 0.28600
# Poissons Ratio (y) = 0.08656 0.25520
# Poissons Ratio (z) = 0.14142 0.31529
#
# Static dielectric constant tensor:
#      x y z
#    x 1.722760 0.000000 0.000000 
#    y 0.000000 1.768810 0.000000 
#    z 0.000000 0.000000 1.686950 
# 
# From -- ./inp_files/12869.got.cif
#   From: 2010.05.17/outbox.cif.g08.bks.cpg/sg51_7_cif.got.tgz:12869.got - 2010.06.03 11:52:47.
