data_PCOD9405039
_publ_section_title
;
Structure prediction by ZEFSAII (Michael W. Deem and Ramdas Pophale) SiO2 
 PCOD9405039
Probable space group: P M M A
;
_chemical_formula_sum "Si O2"
_cell_formula_units_Z 48
_cell_length_a 8.577163
_cell_length_b 31.743662
_cell_length_c 9.347134
_cell_angle_alpha 90.000000
_cell_angle_beta 90.000000
_cell_angle_gamma 90.000000
_cell_volume 2544.949438
_symmetry_space_group_name_H-M "P M M A"
_symmetry_group_IT_number 51
_symmetry_cell_setting 'orthorhombic'
loop_
_space_group_symop_operation_xyz
x,y,z
1/2-x,-y,z
1/2+x,-y,-z
-x,y,-z
-x,-y,-z
1/2+x,y,-z
1/2-x,y,z
x,-y,z
loop_
_atom_site_type_symbol
_atom_site_label
_atom_site_fract_x
_atom_site_fract_y
_atom_site_fract_z
Si Si1 0.061566 0.500000 0.838464
Si Si2 0.935394 0.000000 0.659299
Si Si3 0.061493 0.253026 0.660118
Si Si4 0.562795 0.077559 0.160234
Si Si5 0.938439 0.417403 0.338556
Si Si6 0.938032 0.827187 0.159934
Si Si7 0.938351 0.335004 0.161061
O O1 0.250000 0.500000 0.844074
O O2 0.011610 0.458489 0.751109
O O3 0.000000 0.500000 0.000000
O O4 0.000000 0.000000 0.500000
O O5 0.995634 0.041500 0.739930
O O6 0.750000 0.000000 0.658826
O O7 0.250000 0.253045 0.656052
O O8 0.009005 0.209353 0.733180
O O9 0.011762 0.292342 0.758447
O O10 0.000000 0.257366 0.500000
O O11 0.750000 0.075076 0.159498
O O12 0.516210 0.125269 0.203282
O O13 0.500000 0.070997 0.000000
O O14 0.750000 0.417456 0.344043
O O15 0.988596 0.375448 0.253854
O O16 0.000000 0.418182 0.500000
O O17 0.750000 0.826061 0.154316
O O18 0.000000 0.819452 0.000000
O O19 0.750000 0.335222 0.155833
O O20 0.000000 0.336912 0.000000
#
# Coordination Sequence:
#
# PCOD9405039 Si02
#       7
#     4   4   8   8   8   8   8
#     4  10  21  36  54  78 108 140 181 224 266 318
#     4  12  25  40  57  80 110 144 180 222 271 320
#     4  10  21  36  53  78 109 141 177 218 263 316
#     4  10  20  37  59  83 110 142 180 221 264 316
#     4  10  21  36  54  79 108 140 178 222 268 320
#     4   9  19  35  56  81 108 138 176 218 261 311
#     4  10  21  36  55  79 107 138 178 222 266 317
#
# _framework density 18.860885
#
# number of rings (size 3 to 8) (size 9 to 14) (size 15 to 20)
#    0.000    2.000    0.000    3.250    0.000    4.000 
#    0.000    1.667    0.000    0.000    0.000    0.000 
#    0.000    0.000    0.000    0.000    0.000    0.000 
#
# Total GULP energy -268152.024192 kJ/mol
# GULP energy per Si atom -5586.500504 kJ/mol
# Density = 1.881796 g / cm^3
# Si number density = 18.860885 Si / 1000 Ang^3
#
#
#
# Elastic Constant Matrix: (Units=GPa)
#
#
# Indices 1 2 3 4 5 6 
#
# 1 28.4604 42.7626 33.3694 0.0000 0.0000 0.0000
# 2 42.7626 197.4199 137.6046 0.0000 0.0000 0.0000
# 3 33.3694 137.6046 188.6805 0.0000 0.0000 0.0000
# 4 0.0000 0.0000 0.0000 -5.6192 0.0000 0.0000
# 5 0.0000 0.0000 0.0000 0.0000 39.9828 0.0000
# 6 0.0000 0.0000 0.0000 0.0000 0.0000 -1.7776
#
#
#
# Elastic Compliance Matrix: (Units=1/GPa)
#
#
# Indices 1 2 3 4 5 6 
#
# 1 0.052463 -0.009959 -0.002015 0.000000 0.000000 0.000000
# 2 -0.009959 0.012193 -0.007131 0.000000 0.000000 0.000000
# 3 -0.002015 -0.007131 0.010857 0.000000 0.000000 0.000000
# 4 0.000000 0.000000 0.000000 -0.177962 0.000000 0.000000
# 5 0.000000 0.000000 0.000000 0.000000 0.025011 0.000000
# 6 0.000000 0.000000 0.000000 0.000000 0.000000 -0.562546
#
#
# Mechanical properties :
#
#
# Convention : Reuss Voigt Hill
#
# Bulk Modulus (GPa) = 26.80789 93.55934 60.18361
# Shear Modulus (GPa) = -8.48408 19.90549 5.71071
#
# Velocity S-wave (km/s) = -2.12321 3.25219 1.74195
# Velocity P-wave (km/s) = 2.86944 7.98843 6.00203
#
# Compressibility (1/GPa) = 0.03730245
#
# Stress axis : x y z
#
# Youngs Moduli (GPa) = 19.06088 82.01424 92.10678
#
# Poissons Ratio (x) = 0.81681 0.18561
# Poissons Ratio (y) = 0.18983 0.65681
# Poissons Ratio (z) = 0.03841 0.58484
#
# Static dielectric constant tensor:
#      x y z
#    x 1.639610 0.000000 0.000000 
#    y 0.000000 1.663200 0.000000 
#    z 0.000000 0.000000 1.592690 
# 
# From -- ./inp_files/6206.got.cif
#   From: 2010.05.17/outbox.cif.g08.bks.cpg/sg51_4_cif.got.tgz:6206.got - 2010.06.03 11:52:47.
