data_PCOD9405372
_publ_section_title
;
Structure prediction by ZEFSAII (Michael W. Deem and Ramdas Pophale) SiO2 
 PCOD9405372
Probable space group: P M M A
;
_chemical_formula_sum "Si O2"
_cell_formula_units_Z 64
_cell_length_a 14.428688
_cell_length_b 8.211728
_cell_length_c 32.983603
_cell_angle_alpha 90.000000
_cell_angle_beta 90.000000
_cell_angle_gamma 90.000000
_cell_volume 3908.044432
_symmetry_space_group_name_H-M "P M M A"
_symmetry_group_IT_number 51
_symmetry_cell_setting 'orthorhombic'
loop_
_space_group_symop_operation_xyz
x,y,z
1/2-x,-y,z
1/2+x,-y,-z
-x,y,-z
-x,-y,-z
1/2+x,y,-z
1/2-x,y,z
x,-y,z
loop_
_atom_site_type_symbol
_atom_site_label
_atom_site_fract_x
_atom_site_fract_y
_atom_site_fract_z
Si Si1 0.362641 0.812106 0.769847
Si Si2 0.537946 0.696415 0.062751
Si Si3 0.966147 0.692747 0.395909
Si Si4 0.855091 0.698746 0.981620
Si Si5 0.141004 0.695548 0.524780
Si Si6 0.144113 0.806414 0.435365
Si Si7 0.643523 0.803233 0.141831
Si Si8 0.644057 0.803805 0.318229
O O1 0.250000 0.815908 0.769742
O O2 0.387560 0.740067 0.813677
O O3 0.387796 0.739567 0.726057
O O4 0.395351 0.000000 0.769939
O O5 0.537746 0.500000 0.062976
O O6 0.434060 0.750111 0.050425
O O7 0.577339 0.755240 0.105269
O O8 0.606042 0.747298 0.025899
O O9 0.951893 0.500000 0.395134
O O10 0.913239 0.758008 0.436003
O O11 0.922271 0.761206 0.355098
O O12 0.073303 0.731103 0.403563
O O13 0.750000 0.755152 0.974768
O O14 0.853707 0.500000 0.981169
O O15 0.250000 0.731059 0.530125
O O16 0.129252 0.500000 0.522445
O O17 0.112631 0.764603 0.481198
O O18 0.250000 0.746111 0.431356
O O19 0.144053 0.000000 0.430736
O O20 0.750000 0.748357 0.134150
O O21 0.646268 0.000000 0.144432
O O22 0.750000 0.746898 0.326195
O O23 0.648106 0.000000 0.314836
#
# Coordination Sequence:
#
# PCOD9405372 Si02
#       8
#     8   8   8   8   8   8   8   8
#     4   7  12  25  43  61  83 113 143 167 201 253
#     4   9  16  25  40  61  80 104 143 183 212 245
#     4  11  21  31  46  68  93 120 146 173 212 261
#     4   8  14  25  39  55  80 113 143 172 211 256
#     4   9  18  32  47  64  90 121 146 169 206 257
#     4  10  21  35  49  65  85 111 148 191 223 247
#     4   9  16  26  41  61  86 114 140 169 210 255
#     4   9  17  30  48  68  90 116 145 175 206 248
#
# _framework density 16.376477999999999
#
# number of rings (size 3 to 8) (size 9 to 14) (size 15 to 20)
#    0.000    3.000    0.000    4.125    0.000    4.750 
#    0.000    3.125    0.000    3.375    0.000    0.875 
#    0.000    5.000    0.000    0.000    0.000    0.000 
#
# Total GULP energy -356479.682542 kJ/mol
# GULP energy per Si atom -5569.995040 kJ/mol
# Density = 1.633920 g / cm^3
# Si number density = 16.376478 Si / 1000 Ang^3
#
#
#
# Elastic Constant Matrix: (Units=GPa)
#
#
# Indices 1 2 3 4 5 6 
#
# 1 84.5863 8.4256 69.2265 0.0000 0.0000 0.0000
# 2 8.4256 7.3512 12.7972 0.0000 0.0000 0.0000
# 3 69.2265 12.7972 147.6803 0.0000 0.0000 0.0000
# 4 0.0000 0.0000 0.0000 28.4368 0.0000 0.0000
# 5 0.0000 0.0000 0.0000 0.0000 24.7702 0.0000
# 6 0.0000 0.0000 0.0000 0.0000 0.0000 14.1864
#
#
#
# Elastic Compliance Matrix: (Units=1/GPa)
#
#
# Indices 1 2 3 4 5 6 
#
# 1 0.019534 -0.007594 -0.008499 0.000000 0.000000 0.000000
# 2 -0.007594 0.163150 -0.010578 0.000000 0.000000 0.000000
# 3 -0.008499 -0.010578 0.011672 0.000000 0.000000 0.000000
# 4 0.000000 0.000000 0.000000 0.035166 0.000000 0.000000
# 5 0.000000 0.000000 0.000000 0.000000 0.040371 0.000000
# 6 0.000000 0.000000 0.000000 0.000000 0.000000 0.070490
#
#
# Mechanical properties :
#
#
# Convention : Reuss Voigt Hill
#
# Bulk Modulus (GPa) = 7.09148 46.72407 26.90778
# Shear Modulus (GPa) = 11.34484 23.42325 17.38404
#
# Velocity S-wave (km/s) = 2.63487 3.78603 3.26164
# Velocity P-wave (km/s) = 3.68733 6.90689 5.53632
#
# Compressibility (1/GPa) = 0.14101421
#
# Stress axis : x y z
#
# Youngs Moduli (GPa) = 51.19229 6.12934 85.67595
#
# Poissons Ratio (x) = 0.04655 0.72814
# Poissons Ratio (y) = 0.38876 0.90627
# Poissons Ratio (z) = 0.43507 0.06484
#
# Static dielectric constant tensor:
#      x y z
#    x 1.550010 0.000000 0.000000 
#    y 0.000000 1.578560 0.000000 
#    z 0.000000 0.000000 1.565420 
# 
# From -- ./inp_files/37813.got.cif
#   From: 2010.05.17/outbox.cif.g08.bks.cpg/sg51_19_cif.got.tgz:37813.got - 2010.06.03 11:52:47.
