data_PCOD9405873
_publ_section_title
;
Structure prediction by ZEFSAII (Michael W. Deem and Ramdas Pophale) SiO2 
 PCOD9405873
Probable space group: P M M A
;
_chemical_formula_sum "Si O2"
_cell_formula_units_Z 64
_cell_length_a 16.395938
_cell_length_b 8.931090
_cell_length_c 22.983986
_cell_angle_alpha 90.000000
_cell_angle_beta 90.000000
_cell_angle_gamma 90.000000
_cell_volume 3365.627764
_symmetry_space_group_name_H-M "P M M A"
_symmetry_group_IT_number 51
_symmetry_cell_setting 'orthorhombic'
loop_
_space_group_symop_operation_xyz
x,y,z
1/2-x,-y,z
1/2+x,-y,-z
-x,y,-z
-x,-y,-z
1/2+x,y,-z
1/2-x,y,z
x,-y,z
loop_
_atom_site_type_symbol
_atom_site_label
_atom_site_fract_x
_atom_site_fract_y
_atom_site_fract_z
Si Si1 0.653393 0.826627 0.760758
Si Si2 0.064013 0.177188 0.118442
Si Si3 0.996313 0.180596 0.568156
Si Si4 0.655070 0.182961 0.358587
Si Si5 0.654769 0.328600 0.985421
Si Si6 0.391126 0.323861 0.886304
Si Si7 0.653614 0.834155 0.231866
Si Si8 0.154737 0.321157 0.362085
O O1 0.750000 0.816891 0.772322
O O2 0.607634 0.788539 0.820283
O O3 0.635939 0.727173 0.704427
O O4 0.634093 0.000000 0.746141
O O5 0.116521 0.221809 0.062514
O O6 0.984757 0.278290 0.113861
O O7 0.045331 0.000000 0.117465
O O8 0.082622 0.227040 0.597776
O O9 0.000000 0.217992 0.500000
O O10 0.915731 0.249795 0.597977
O O11 0.990639 0.000000 0.573955
O O12 0.750000 0.229520 0.370838
O O13 0.627160 0.233310 0.293693
O O14 0.656999 0.000000 0.356977
O O15 0.750000 0.338142 0.973671
O O16 0.620635 0.500000 0.981856
O O17 0.643324 0.272267 0.051456
O O18 0.376879 0.500000 0.883851
O O19 0.357432 0.252950 0.827482
O O20 0.750000 0.850052 0.240470
O O21 0.616007 0.000000 0.225255
O O22 0.250000 0.273098 0.374014
O O23 0.152354 0.500000 0.367500
#
# Coordination Sequence:
#
# PCOD9405873 Si02
#       8
#     8   8   8   8   8   8   8   8
#     4   9  19  37  59  82 109 143 185 234 287 341
#     4  11  23  37  56  83 112 142 182 234 286 336
#     4  10  21  36  59  91 122 156 199 244 290 344
#     4   8  16  33  56  82 115 152 191 239 294 348
#     4  10  22  40  58  75 103 145 186 228 281 339
#     4  11  23  37  54  79 112 147 184 227 278 339
#     4   9  18  34  56  80 106 141 186 235 287 340
#     4  10  22  39  59  85 120 160 200 244 294 347
#
# _framework density 19.015768999999999
#
# number of rings (size 3 to 8) (size 9 to 14) (size 15 to 20)
#    0.000    2.250    0.000    3.000    1.750    6.500 
#    0.000    2.500    0.000    1.125    0.000    0.000 
#    0.000    0.000    0.000    0.000    0.000    0.000 
#
# Total GULP energy -356829.909267 kJ/mol
# GULP energy per Si atom -5575.467332 kJ/mol
# Density = 1.897249 g / cm^3
# Si number density = 19.015769 Si / 1000 Ang^3
#
#
#
# Elastic Constant Matrix: (Units=GPa)
#
#
# Indices 1 2 3 4 5 6 
#
# 1 56.8230 4.7855 38.9984 0.0000 0.0000 0.0000
# 2 4.7855 8.6638 19.0728 0.0000 0.0000 0.0000
# 3 38.9984 19.0728 113.9768 0.0000 0.0000 0.0000
# 4 0.0000 0.0000 0.0000 99.3582 0.0000 0.0000
# 5 0.0000 0.0000 0.0000 0.0000 42.8085 0.0000
# 6 0.0000 0.0000 0.0000 0.0000 0.0000 13.4363
#
#
#
# Elastic Compliance Matrix: (Units=1/GPa)
#
#
# Indices 1 2 3 4 5 6 
#
# 1 0.023296 0.007410 -0.009211 0.000000 0.000000 0.000000
# 2 0.007410 0.185098 -0.033510 0.000000 0.000000 0.000000
# 3 -0.009211 -0.033510 0.017533 0.000000 0.000000 0.000000
# 4 0.000000 0.000000 0.000000 0.010065 0.000000 0.000000
# 5 0.000000 0.000000 0.000000 0.000000 0.023360 0.000000
# 6 0.000000 0.000000 0.000000 0.000000 0.000000 0.074425
#
#
# Mechanical properties :
#
#
# Convention : Reuss Voigt Hill
#
# Bulk Modulus (GPa) = 6.43893 33.90858 20.17375
# Shear Modulus (GPa) = 10.96089 38.89438 24.92763
#
# Velocity S-wave (km/s) = 2.40346 4.52749 3.62455
# Velocity P-wave (km/s) = 3.33101 6.72320 5.30552
#
# Compressibility (1/GPa) = 0.15530537
#
# Stress axis : x y z
#
# Youngs Moduli (GPa) = 42.92570 5.40253 57.03589
#
# Poissons Ratio (x) = -0.04003 0.52535
# Poissons Ratio (y) = -0.31806 1.91125
# Poissons Ratio (z) = 0.39539 0.18104
#
# Static dielectric constant tensor:
#      x y z
#    x 1.666230 0.000000 0.000000 
#    y 0.000000 1.640640 0.000000 
#    z 0.000000 0.000000 1.704690 
# 
# From -- ./inp_files/35783.got.cif
#   From: 2010.05.17/outbox.cif.g08.bks.cpg/sg51_18_cif.got.tgz:35783.got - 2010.06.03 11:52:47.
