data_PCOD9405548
_publ_section_title
;
Structure prediction by ZEFSAII (Michael W. Deem and Ramdas Pophale) SiO2 
 PCOD9405548
Probable space group: P M M A
;
_chemical_formula_sum "Si O2"
_cell_formula_units_Z 48
_cell_length_a 20.595913
_cell_length_b 12.171571
_cell_length_c 11.307982
_cell_angle_alpha 90.000000
_cell_angle_beta 90.000000
_cell_angle_gamma 90.000000
_cell_volume 2834.737141
_symmetry_space_group_name_H-M "P M M A"
_symmetry_group_IT_number 51
_symmetry_cell_setting 'orthorhombic'
loop_
_space_group_symop_operation_xyz
x,y,z
1/2-x,-y,z
1/2+x,-y,-z
-x,y,-z
-x,-y,-z
1/2+x,y,-z
1/2-x,y,z
x,-y,z
loop_
_atom_site_type_symbol
_atom_site_label
_atom_site_fract_x
_atom_site_fract_y
_atom_site_fract_z
Si Si1 0.940395 0.000000 0.339615
Si Si2 0.175664 0.370055 0.455277
Si Si3 0.674462 0.813342 0.728599
Si Si4 0.408676 0.133429 0.059084
Si Si5 0.042979 0.202506 0.816417
Si Si6 0.593700 0.000000 0.601052
Si Si7 0.949720 0.631997 0.394953
O O1 0.927481 0.107496 0.264632
O O2 0.902292 0.000000 0.460961
O O3 0.017688 0.000000 0.367283
O O4 0.250000 0.347010 0.493652
O O5 0.169594 0.500000 0.434204
O O6 0.164589 0.304028 0.333889
O O7 0.121506 0.340882 0.552393
O O8 0.750000 0.842440 0.716986
O O9 0.651705 0.827348 0.863003
O O10 0.629388 0.896029 0.655782
O O11 0.472358 0.162960 0.137151
O O12 0.408236 0.000000 0.040461
O O13 0.415762 0.200501 0.937255
O O14 0.038232 0.306654 0.729253
O O15 0.955123 0.500000 0.380335
O O16 0.000000 0.665227 0.500000
#
# Coordination Sequence:
#
# PCOD9405548 Si02
#       7
#     4   8   8   8   8   4   8
#     4  11  20  30  52  78 107 136 171 224 260 315
#     4   9  19  36  56  77 103 138 175 213 263 322
#     4  11  20  34  54  76 105 138 178 221 266 319
#     4  11  20  35  52  74 104 145 182 213 264 308
#     4  11  19  34  53  76 105 135 181 219 254 314
#     4  11  21  29  49  83 107 130 173 218 277 312
#     4  10  21  35  55  82 111 138 169 218 279 324
#
# _framework density 16.932786
#
# number of rings (size 3 to 8) (size 9 to 14) (size 15 to 20)
#    0.000    1.500    4.167    2.750    2.333    0.000 
#    0.000    3.333    0.000    2.000    0.000    0.000 
#    0.000    0.000    0.000    0.000    0.000    0.000 
#
# Total GULP energy -267639.319966 kJ/mol
# GULP energy per Si atom -5575.819166 kJ/mol
# Density = 1.689425 g / cm^3
# Si number density = 16.932786 Si / 1000 Ang^3
#
#
#
# Elastic Constant Matrix: (Units=GPa)
#
#
# Indices 1 2 3 4 5 6 
#
# 1 62.4878 21.2156 36.5225 0.0000 0.0000 0.0000
# 2 21.2156 52.7894 43.8816 0.0000 0.0000 0.0000
# 3 36.5225 43.8816 138.2854 0.0000 0.0000 0.0000
# 4 0.0000 0.0000 0.0000 23.3305 0.0000 0.0000
# 5 0.0000 0.0000 0.0000 0.0000 23.2039 0.0000
# 6 0.0000 0.0000 0.0000 0.0000 0.0000 -25.5755
#
#
#
# Elastic Compliance Matrix: (Units=1/GPa)
#
#
# Indices 1 2 3 4 5 6 
#
# 1 0.019819 -0.004909 -0.003677 0.000000 0.000000 0.000000
# 2 -0.004909 0.026946 -0.007254 0.000000 0.000000 0.000000
# 3 -0.003677 -0.007254 0.010504 0.000000 0.000000 0.000000
# 4 0.000000 0.000000 0.000000 0.042862 0.000000 0.000000
# 5 0.000000 0.000000 0.000000 0.000000 0.043096 0.000000
# 6 0.000000 0.000000 0.000000 0.000000 0.000000 -0.039100
#
#
# Mechanical properties :
#
#
# Convention : Reuss Voigt Hill
#
# Bulk Modulus (GPa) = 39.07785 50.75578 44.91682
# Shear Modulus (GPa) = 34.64115 14.32131 24.48123
#
# Velocity S-wave (km/s) = 4.52796 2.91137 3.80648
# Velocity P-wave (km/s) = 7.10387 6.42973 6.77519
#
# Compressibility (1/GPa) = 0.02558994
#
# Stress axis : x y z
#
# Youngs Moduli (GPa) = 50.45762 37.11108 95.19799
#
# Poissons Ratio (x) = 0.18217 0.35001
# Poissons Ratio (y) = 0.24768 0.69059
# Poissons Ratio (z) = 0.18551 0.26921
#
# Static dielectric constant tensor:
#      x y z
#    x 1.594910 0.000000 0.000000 
#    y 0.000000 1.591770 0.000000 
#    z 0.000000 0.000000 1.587520 
# 
# From -- ./inp_files/18166.got.cif
#   From: 2010.05.17/outbox.cif.g08.bks.cpg/sg51_10_cif.got.tgz:18166.got - 2010.06.03 11:52:47.
