data_PCOD9405929
_publ_section_title
;
Structure prediction by ZEFSAII (Michael W. Deem and Ramdas Pophale) SiO2 
 PCOD9405929
Probable space group: P M M A
;
_chemical_formula_sum "Si O2"
_cell_formula_units_Z 38
_cell_length_a 9.759639
_cell_length_b 23.035146
_cell_length_c 9.351085
_cell_angle_alpha 90.000000
_cell_angle_beta 90.000000
_cell_angle_gamma 90.000000
_cell_volume 2102.261456
_symmetry_space_group_name_H-M "P M M A"
_symmetry_group_IT_number 51
_symmetry_cell_setting 'orthorhombic'
loop_
_space_group_symop_operation_xyz
x,y,z
1/2-x,-y,z
1/2+x,-y,-z
-x,y,-z
-x,-y,-z
1/2+x,y,-z
1/2-x,y,z
x,-y,z
loop_
_atom_site_type_symbol
_atom_site_label
_atom_site_fract_x
_atom_site_fract_y
_atom_site_fract_z
Si Si1 0.912759 0.830966 0.143032
Si Si2 0.977234 0.500000 0.278325
Si Si3 0.250000 0.500000 0.465585
Si Si4 0.912109 0.932091 0.360129
Si Si5 0.587789 0.622077 0.137627
Si Si6 0.911877 0.275693 0.357198
O O1 0.750000 0.830374 0.110483
O O2 0.945249 0.890047 0.228850
O O3 0.940055 0.777983 0.251438
O O4 0.000000 0.825679 0.000000
O O5 0.128664 0.500000 0.343401
O O6 0.868324 0.500000 0.407462
O O7 0.951276 0.442463 0.185583
O O8 0.750000 0.924983 0.391408
O O9 0.000000 0.916825 0.500000
O O10 0.936736 0.000000 0.327226
O O11 0.750000 0.625607 0.106500
O O12 0.559772 0.665570 0.269262
O O13 0.500000 0.639527 0.000000
O O14 0.750000 0.274496 0.392632
O O15 0.000000 0.272375 0.500000
#
# Coordination Sequence:
#
# PCOD9405929 Si02
#       6
#     8   4   2   8   8   8
#     4  10  21  37  55  79 113 146 183 227 274 327
#     4  11  23  40  61  86 117 147 186 231 277 330
#     4  10  24  38  62  88 116 146 184 234 274 328
#     4   9  18  33  54  80 110 144 184 229 273 322
#     4  11  24  40  59  85 116 147 186 227 277 335
#     4  10  23  39  59  84 110 143 185 230 275 329
#
# _framework density 18.075773999999999
#
# number of rings (size 3 to 8) (size 9 to 14) (size 15 to 20)
#    0.000    1.895    1.053    1.579    4.421    2.947 
#    0.000    0.000    0.000    0.000    0.000    0.000 
#    0.000    0.000    0.000    0.000    0.000    0.000 
#
# Total GULP energy -211707.333438 kJ/mol
# GULP energy per Si atom -5571.245617 kJ/mol
# Density = 1.803463 g / cm^3
# Si number density = 18.075774 Si / 1000 Ang^3
#
#
#
# Elastic Constant Matrix: (Units=GPa)
#
#
# Indices 1 2 3 4 5 6 
#
# 1 113.0526 51.0857 99.6622 0.0000 0.0000 0.0000
# 2 51.0857 97.3212 74.3454 0.0000 0.0000 0.0000
# 3 99.6622 74.3454 166.7344 0.0000 0.0000 0.0000
# 4 0.0000 0.0000 0.0000 -66.9619 0.0000 0.0000
# 5 0.0000 0.0000 0.0000 0.0000 48.7577 0.0000
# 6 0.0000 0.0000 0.0000 0.0000 0.0000 3.1248
#
#
#
# Elastic Compliance Matrix: (Units=1/GPa)
#
#
# Indices 1 2 3 4 5 6 
#
# 1 0.018942 -0.001962 -0.010447 0.000000 0.000000 0.000000
# 2 -0.001962 0.015787 -0.005866 0.000000 0.000000 0.000000
# 3 -0.010447 -0.005866 0.014858 0.000000 0.000000 0.000000
# 4 0.000000 0.000000 0.000000 -0.014934 0.000000 0.000000
# 5 0.000000 0.000000 0.000000 0.000000 0.020510 0.000000
# 6 0.000000 0.000000 0.000000 0.000000 0.000000 0.320022
#
#
# Mechanical properties :
#
#
# Convention : Reuss Voigt Hill
#
# Bulk Modulus (GPa) = 76.71592 91.92163 84.31878
# Shear Modulus (GPa) = 12.01690 7.11846 9.56768
#
# Velocity S-wave (km/s) = 2.58118 1.98662 2.30317
# Velocity P-wave (km/s) = 7.17055 7.49841 7.33631
#
# Compressibility (1/GPa) = 0.01303510
#
# Stress axis : x y z
#
# Youngs Moduli (GPa) = 52.79292 63.34506 67.30403
#
# Poissons Ratio (x) = 0.12429 0.70314
# Poissons Ratio (y) = 0.10358 0.39482
# Poissons Ratio (z) = 0.55154 0.37160
#
# Static dielectric constant tensor:
#      x y z
#    x 1.596970 0.000000 0.000000 
#    y 0.000000 1.634300 0.000000 
#    z 0.000000 0.000000 1.575030 
# 
# From -- ./inp_files/5316.got.cif
#   From: 2010.05.17/outbox.cif.g08.bks.cpg/sg51_3_cif.got.tgz:5316.got - 2010.06.03 11:52:47.
