data_PCOD9405411
_publ_section_title
;
Structure prediction by ZEFSAII (Michael W. Deem and Ramdas Pophale) SiO2 
 PCOD9405411
Probable space group: P M M A
;
_chemical_formula_sum "Si O2"
_cell_formula_units_Z 56
_cell_length_a 14.948469
_cell_length_b 7.656003
_cell_length_c 23.076401
_cell_angle_alpha 90.000000
_cell_angle_beta 90.000000
_cell_angle_gamma 90.000000
_cell_volume 2640.990793
_symmetry_space_group_name_H-M "P M M A"
_symmetry_group_IT_number 51
_symmetry_cell_setting 'orthorhombic'
loop_
_space_group_symop_operation_xyz
x,y,z
1/2-x,-y,z
1/2+x,-y,-z
-x,y,-z
-x,-y,-z
1/2+x,y,-z
1/2-x,y,z
x,-y,z
loop_
_atom_site_type_symbol
_atom_site_label
_atom_site_fract_x
_atom_site_fract_y
_atom_site_fract_z
Si Si1 0.149466 0.213279 0.901299
Si Si2 0.349409 0.202091 0.609471
Si Si3 0.352242 0.787587 0.033603
Si Si4 0.033774 0.214359 0.143579
Si Si5 0.955634 0.297429 0.634600
Si Si6 0.852762 0.291275 0.523878
Si Si7 0.350783 0.205570 0.251119
O O1 0.250000 0.271324 0.886989
O O2 0.069439 0.269476 0.859817
O O3 0.150853 0.000000 0.901391
O O4 0.128255 0.266873 0.967705
O O5 0.250000 0.277263 0.621516
O O6 0.437538 0.282328 0.637613
O O7 0.362231 0.213388 0.539937
O O8 0.348058 0.000000 0.626496
O O9 0.250000 0.737528 0.047122
O O10 0.417987 0.730162 0.084096
O O11 0.355471 0.000000 0.033197
O O12 0.089752 0.278197 0.198554
O O13 0.033992 0.000000 0.144336
O O14 0.930675 0.500000 0.633822
O O15 0.919355 0.224547 0.573285
O O16 0.904112 0.220302 0.689021
O O17 0.750000 0.262989 0.543172
O O18 0.866397 0.500000 0.516067
O O19 0.250000 0.278670 0.254808
O O20 0.341695 0.000000 0.238754
#
# Coordination Sequence:
#
# PCOD9405411 Si02
#       7
#     8   8   8   8   8   8   8
#     4   8  13  20  32  54  84 117 153 194 242 299
#     4  10  21  36  55  81 110 136 164 203 252 303
#     4   8  12  18  31  53  81 114 152 193 241 300
#     4   9  15  24  38  56  84 123 161 197 245 304
#     4  11  22  36  55  76 101 137 177 213 250 295
#     4   9  18  33  53  78 107 137 169 206 251 302
#     4  10  21  35  50  70  97 129 167 212 259 306
#
# _framework density 21.204163000000001
#
# number of rings (size 3 to 8) (size 9 to 14) (size 15 to 20)
#    0.000    2.714    0.000    3.429    0.000    8.000 
#    0.000    2.143    0.000    2.571    0.000    0.000 
#    0.000    2.286    0.000    3.429    0.000    2.857 
#
# Total GULP energy -312496.170953 kJ/mol
# GULP energy per Si atom -5580.288767 kJ/mol
# Density = 2.115590 g / cm^3
# Si number density = 21.204163 Si / 1000 Ang^3
#
#
#
# Elastic Constant Matrix: (Units=GPa)
#
#
# Indices 1 2 3 4 5 6 
#
# 1 150.2711 -1.7756 70.5545 0.0000 0.0000 0.0000
# 2 -1.7756 35.2356 -2.7532 0.0000 0.0000 0.0000
# 3 70.5545 -2.7532 54.7905 0.0000 0.0000 0.0000
# 4 0.0000 0.0000 0.0000 50.4285 0.0000 0.0000
# 5 0.0000 0.0000 0.0000 0.0000 27.4593 0.0000
# 6 0.0000 0.0000 0.0000 0.0000 0.0000 2.2621
#
#
#
# Elastic Compliance Matrix: (Units=1/GPa)
#
#
# Indices 1 2 3 4 5 6 
#
# 1 0.016855 -0.000850 -0.021748 0.000000 0.000000 0.000000
# 2 -0.000850 0.028535 0.002528 0.000000 0.000000 0.000000
# 3 -0.021748 0.002528 0.046383 0.000000 0.000000 0.000000
# 4 0.000000 0.000000 0.000000 0.019830 0.000000 0.000000
# 5 0.000000 0.000000 0.000000 0.000000 0.036417 0.000000
# 6 0.000000 0.000000 0.000000 0.000000 0.000000 0.442058
#
#
# Mechanical properties :
#
#
# Convention : Reuss Voigt Hill
#
# Bulk Modulus (GPa) = 19.36662 41.37206 30.36934
# Shear Modulus (GPa) = 7.72285 27.64808 17.68546
#
# Velocity S-wave (km/s) = 1.91051 3.61487 2.89114
# Velocity P-wave (km/s) = 3.74432 6.08085 5.04959
#
# Compressibility (1/GPa) = 0.05163523
#
# Stress axis : x y z
#
# Youngs Moduli (GPa) = 59.32788 35.04449 21.55950
#
# Poissons Ratio (x) = 0.02979 0.46887
# Poissons Ratio (y) = 0.05042 -0.05451
# Poissons Ratio (z) = 1.29025 -0.08860
#
# Static dielectric constant tensor:
#      x y z
#    x 1.781200 0.000000 0.000000 
#    y 0.000000 1.801070 0.000000 
#    z 0.000000 0.000000 1.733400 
# 
# From -- ./inp_files/33323.got.cif
#   From: 2010.05.17/outbox.cif.g08.bks.cpg/sg51_17_cif.got.tgz:33323.got - 2010.06.03 11:52:47.
