data_PCOD9405553
_publ_section_title
;
Structure prediction by ZEFSAII (Michael W. Deem and Ramdas Pophale) SiO2 
 PCOD9405553
Probable space group: P M M A
;
_chemical_formula_sum "Si O2"
_cell_formula_units_Z 64
_cell_length_a 15.050287
_cell_length_b 22.984703
_cell_length_c 8.458536
_cell_angle_alpha 90.000000
_cell_angle_beta 90.000000
_cell_angle_gamma 90.000000
_cell_volume 2926.030711
_symmetry_space_group_name_H-M "P M M A"
_symmetry_group_IT_number 51
_symmetry_cell_setting 'orthorhombic'
loop_
_space_group_symop_operation_xyz
x,y,z
1/2-x,-y,z
1/2+x,-y,-z
-x,y,-z
-x,-y,-z
1/2+x,y,-z
1/2-x,y,z
x,-y,z
loop_
_atom_site_type_symbol
_atom_site_label
_atom_site_fract_x
_atom_site_fract_y
_atom_site_fract_z
Si Si1 0.849299 0.887834 0.202426
Si Si2 0.025956 0.063054 0.313237
Si Si3 0.647458 0.840635 0.562414
Si Si4 0.352777 0.279359 0.328856
Si Si5 0.893688 0.225978 0.013289
Si Si6 0.651538 0.563399 0.911862
Si Si7 0.848091 0.341539 0.185103
Si Si8 0.022332 0.391411 0.336334
O O1 0.750000 0.914262 0.184466
O O2 0.938385 0.926842 0.206635
O O3 0.853637 0.862587 0.382079
O O4 0.859569 0.835881 0.076209
O O5 0.000000 0.059656 0.500000
O O6 0.090856 0.118542 0.319952
O O7 0.066684 0.000000 0.273063
O O8 0.750000 0.841047 0.615128
O O9 0.615731 0.774268 0.563329
O O10 0.250000 0.293158 0.360665
O O11 0.412271 0.335797 0.349861
O O12 0.359434 0.251108 0.153444
O O13 0.864968 0.275095 0.138395
O O14 0.000000 0.223561 0.000000
O O15 0.750000 0.565822 0.834492
O O16 0.646144 0.500000 0.993190
O O17 0.571073 0.569287 0.791553
O O18 0.648661 0.617940 0.028678
O O19 0.750000 0.347804 0.255851
O O20 0.929001 0.365249 0.283532
O O21 0.000000 0.421824 0.500000
#
# Coordination Sequence:
#
# PCOD9405553 Si02
#       8
#     8   8   8   8   8   8   8   8
#     4  10  21  35  55  85 117 153 196 251 309 363
#     4   9  18  33  55  82 115 155 198 246 295 361
#     4   9  20  36  55  83 119 157 198 247 302 364
#     4  11  22  38  58  83 120 159 199 248 310 374
#     4  12  21  36  59  84 118 154 198 257 310 366
#     4  10  22  45  73  95 123 165 212 262 311 366
#     4  11  23  41  62  91 124 164 214 257 304 367
#     4  12  26  39  60  94 131 168 205 258 314 376
#
# _framework density 21.872634000000001
#
# number of rings (size 3 to 8) (size 9 to 14) (size 15 to 20)
#    0.000    1.500    2.500    2.625    1.750    3.250 
#    0.000    2.500    0.000    4.875    0.000    3.500 
#    0.000    0.000    0.000    0.000    0.000    0.000 
#
# Total GULP energy -357394.676957 kJ/mol
# GULP energy per Si atom -5584.291827 kJ/mol
# Density = 2.182285 g / cm^3
# Si number density = 21.872634 Si / 1000 Ang^3
#
#
#
# Elastic Constant Matrix: (Units=GPa)
#
#
# Indices 1 2 3 4 5 6 
#
# 1 120.5803 21.0261 10.0708 0.0000 0.0000 0.0000
# 2 21.0261 79.4911 -6.6153 0.0000 0.0000 0.0000
# 3 10.0708 -6.6153 36.9585 0.0000 0.0000 0.0000
# 4 0.0000 0.0000 0.0000 14.9652 0.0000 0.0000
# 5 0.0000 0.0000 0.0000 0.0000 13.4826 0.0000
# 6 0.0000 0.0000 0.0000 0.0000 0.0000 21.3456
#
#
#
# Elastic Compliance Matrix: (Units=1/GPa)
#
#
# Indices 1 2 3 4 5 6 
#
# 1 0.008994 -0.002622 -0.002920 0.000000 0.000000 0.000000
# 2 -0.002622 0.013535 0.003137 0.000000 0.000000 0.000000
# 3 -0.002920 0.003137 0.028415 0.000000 0.000000 0.000000
# 4 0.000000 0.000000 0.000000 0.066822 0.000000 0.000000
# 5 0.000000 0.000000 0.000000 0.000000 0.074170 0.000000
# 6 0.000000 0.000000 0.000000 0.000000 0.000000 0.046848
#
#
# Mechanical properties :
#
#
# Convention : Reuss Voigt Hill
#
# Bulk Modulus (GPa) = 21.67635 31.77701 26.72668
# Shear Modulus (GPa) = 19.30715 24.12855 21.71785
#
# Velocity S-wave (km/s) = 2.97426 3.32496 3.15449
# Velocity P-wave (km/s) = 4.66120 5.41297 5.05109
#
# Compressibility (1/GPa) = 0.04613324
#
# Stress axis : x y z
#
# Youngs Moduli (GPa) = 111.18087 73.88436 35.19311
#
# Poissons Ratio (x) = 0.19373 0.10277
# Poissons Ratio (y) = 0.29153 -0.11040
# Poissons Ratio (z) = 0.32467 -0.23178
#
# Static dielectric constant tensor:
#      x y z
#    x 1.802440 0.000000 0.000000 
#    y 0.000000 1.786810 0.000000 
#    z 0.000000 0.000000 1.836950 
# 
# From -- ./inp_files/8743.got.cif
#   From: 2010.05.17/outbox.cif.g08.bks.cpg/sg51_5_cif.got.tgz:8743.got - 2010.06.03 11:52:47.
