data_PCOD9405997
_publ_section_title
;
Structure prediction by ZEFSAII (Michael W. Deem and Ramdas Pophale) SiO2 
 PCOD9405997
Probable space group: P M M A
;
_chemical_formula_sum "Si O2"
_cell_formula_units_Z 48
_cell_length_a 10.105546
_cell_length_b 8.364390
_cell_length_c 29.663873
_cell_angle_alpha 90.000000
_cell_angle_beta 90.000000
_cell_angle_gamma 90.000000
_cell_volume 2507.390122
_symmetry_space_group_name_H-M "P M M A"
_symmetry_group_IT_number 51
_symmetry_cell_setting 'orthorhombic'
loop_
_space_group_symop_operation_xyz
x,y,z
1/2-x,-y,z
1/2+x,-y,-z
-x,y,-z
-x,-y,-z
1/2+x,y,-z
1/2-x,y,z
x,-y,z
loop_
_atom_site_type_symbol
_atom_site_label
_atom_site_fract_x
_atom_site_fract_y
_atom_site_fract_z
Si Si1 0.022778 0.308781 0.395768
Si Si2 0.903735 0.692472 0.959663
Si Si3 0.750000 0.191870 0.435106
Si Si4 0.598535 0.307316 0.217624
Si Si5 0.750000 0.190812 0.538546
Si Si6 0.901312 0.809452 0.116352
Si Si7 0.599799 0.304772 0.704623
O O1 0.030377 0.500000 0.395279
O O2 0.123813 0.246978 0.433289
O O3 0.060762 0.251447 0.345625
O O4 0.878468 0.253408 0.409676
O O5 0.750000 0.750147 0.961312
O O6 0.897467 0.500000 0.963016
O O7 0.984247 0.736402 0.914616
O O8 0.000000 0.751476 0.000000
O O9 0.750000 0.249925 0.487085
O O10 0.750000 0.000000 0.435693
O O11 0.750000 0.271258 0.230572
O O12 0.586774 0.500000 0.213413
O O13 0.574717 0.233810 0.168517
O O14 0.499403 0.251254 0.256377
O O15 0.750000 0.000000 0.536882
O O16 0.750000 0.752556 0.105006
O O17 0.902680 0.000000 0.110795
O O18 0.750000 0.256664 0.714240
O O19 0.595498 0.500000 0.704230
#
# Coordination Sequence:
#
# PCOD9405997 Si02
#       7
#     8   8   4   8   4   8   8
#     4  11  22  38  62  89 115 146 191 243 288 339
#     4  10  21  37  59  86 114 148 193 242 288 338
#     4  11  25  41  57  83 117 155 191 231 288 349
#     4   9  18  33  57  83 109 147 191 232 279 336
#     4  11  23  41  61  81 117 157 189 229 286 353
#     4  10  21  37  56  81 117 155 190 232 283 336
#     4   9  18  34  56  83 112 141 179 231 285 334
#
# _framework density 19.143412000000001
#
# number of rings (size 3 to 8) (size 9 to 14) (size 15 to 20)
#    0.000    2.000    0.833    2.500    1.167    6.333 
#    0.000    3.333    0.000    0.000    0.000    0.000 
#    0.000    0.000    0.000    0.000    0.000    0.000 
#
# Total GULP energy -268012.631948 kJ/mol
# GULP energy per Si atom -5583.596499 kJ/mol
# Density = 1.909984 g / cm^3
# Si number density = 19.143412 Si / 1000 Ang^3
#
#
#
# Elastic Constant Matrix: (Units=GPa)
#
#
# Indices 1 2 3 4 5 6 
#
# 1 174.5555 17.2256 89.4439 0.0000 0.0000 0.0000
# 2 17.2256 16.1739 8.9969 0.0000 0.0000 0.0000
# 3 89.4439 8.9969 109.3041 0.0000 0.0000 0.0000
# 4 0.0000 0.0000 0.0000 348.5899 0.0000 0.0000
# 5 0.0000 0.0000 0.0000 0.0000 41.4965 0.0000
# 6 0.0000 0.0000 0.0000 0.0000 0.0000 23.2729
#
#
#
# Elastic Compliance Matrix: (Units=1/GPa)
#
#
# Indices 1 2 3 4 5 6 
#
# 1 0.010520 -0.006723 -0.008055 0.000000 0.000000 0.000000
# 2 -0.006723 0.069091 -0.000185 0.000000 0.000000 0.000000
# 3 -0.008055 -0.000185 0.015755 0.000000 0.000000 0.000000
# 4 0.000000 0.000000 0.000000 0.002869 0.000000 0.000000
# 5 0.000000 0.000000 0.000000 0.000000 0.024098 0.000000
# 6 0.000000 0.000000 0.000000 0.000000 0.000000 0.042968
#
#
# Mechanical properties :
#
#
# Convention : Reuss Voigt Hill
#
# Bulk Modulus (GPa) = 15.28124 59.04069 37.16096
# Shear Modulus (GPa) = 23.03699 94.96301 59.00000
#
# Velocity S-wave (km/s) = 3.47275 7.05080 5.55760
# Velocity P-wave (km/s) = 4.90712 9.85866 7.78695
#
# Compressibility (1/GPa) = 0.06543971
#
# Stress axis : x y z
#
# Youngs Moduli (GPa) = 95.05953 14.47356 63.47015
#
# Poissons Ratio (x) = 0.09731 0.51125
# Poissons Ratio (y) = 0.63909 0.01177
# Poissons Ratio (z) = 0.76570 0.00268
#
# Static dielectric constant tensor:
#      x y z
#    x 1.530670 0.000000 0.000000 
#    y 0.000000 1.659110 0.000000 
#    z 0.000000 0.000000 1.644870 
# 
# From -- ./inp_files/37118.got.cif
#   From: 2010.05.17/outbox.cif.g08.bks.cpg/sg51_19_cif.got.tgz:37118.got - 2010.06.03 11:52:47.
