data_PCOD9405913
_publ_section_title
;
Structure prediction by ZEFSAII (Michael W. Deem and Ramdas Pophale) SiO2 
 PCOD9405913
Probable space group: P M M A
;
_chemical_formula_sum "Si O2"
_cell_formula_units_Z 64
_cell_length_a 19.090244
_cell_length_b 8.179858
_cell_length_c 21.158292
_cell_angle_alpha 90.000000
_cell_angle_beta 90.000000
_cell_angle_gamma 90.000000
_cell_volume 3303.983351
_symmetry_space_group_name_H-M "P M M A"
_symmetry_group_IT_number 51
_symmetry_cell_setting 'orthorhombic'
loop_
_space_group_symop_operation_xyz
x,y,z
1/2-x,-y,z
1/2+x,-y,-z
-x,y,-z
-x,-y,-z
1/2+x,y,-z
1/2-x,y,z
x,-y,z
loop_
_atom_site_type_symbol
_atom_site_label
_atom_site_fract_x
_atom_site_fract_y
_atom_site_fract_z
Si Si1 0.077997 0.800531 0.926945
Si Si2 0.078127 0.194201 0.306815
Si Si3 0.418584 0.799668 0.685687
Si Si4 0.169499 0.799989 0.808464
Si Si5 0.669294 0.197477 0.435267
Si Si6 0.170944 0.694502 0.188836
Si Si7 0.082923 0.197341 0.069815
Si Si8 0.830354 0.695242 0.575584
O O1 0.129052 0.745351 0.871475
O O2 0.997239 0.751275 0.915559
O O3 0.078499 0.000000 0.926693
O O4 0.098719 0.749321 0.997900
O O5 0.121853 0.252305 0.246490
O O6 0.119335 0.238456 0.370442
O O7 0.998492 0.258113 0.308560
O O8 0.073356 0.000000 0.302213
O O9 0.372972 0.749657 0.746217
O O10 0.380958 0.746602 0.621055
O O11 0.419087 0.000000 0.685125
O O12 0.250000 0.746698 0.806886
O O13 0.169662 0.000000 0.808970
O O14 0.750000 0.250838 0.424499
O O15 0.647801 0.255339 0.504871
O O16 0.669131 0.000000 0.435256
O O17 0.250000 0.761891 0.195056
O O18 0.175190 0.500000 0.191049
O O19 0.135912 0.743653 0.122743
O O20 0.083569 0.000000 0.070357
O O21 0.750000 0.755047 0.584719
O O22 0.829442 0.500000 0.580086
#
# Coordination Sequence:
#
# PCOD9405913 Si02
#       8
#     8   8   8   8   8   8   8   8
#     4   8  15  28  48  77 109 137 169 213 259 300
#     4  11  22  36  56  78 101 132 171 215 261 312
#     4   9  18  31  49  76 106 133 166 212 258 296
#     4   9  15  24  42  70 104 137 166 202 253 306
#     4   9  17  32  55  80 106 138 174 207 243 296
#     4  11  24  39  53  73 104 138 173 218 267 312
#     4   9  17  32  54  77 104 138 174 213 257 307
#     4  10  21  37  55  76 105 137 168 208 256 303
#
# _framework density 19.370557000000002
#
# number of rings (size 3 to 8) (size 9 to 14) (size 15 to 20)
#    0.000    2.500    0.000    3.375    0.000    7.750 
#    0.000    6.250    0.000    0.000    0.000    0.000 
#    0.000    7.000    0.000    0.000    0.000    0.000 
#
# Total GULP energy -357247.544511 kJ/mol
# GULP energy per Si atom -5581.992883 kJ/mol
# Density = 1.932647 g / cm^3
# Si number density = 19.370557 Si / 1000 Ang^3
#
#
#
# Elastic Constant Matrix: (Units=GPa)
#
#
# Indices 1 2 3 4 5 6 
#
# 1 135.7301 13.0804 97.6358 0.0000 0.0000 0.0000
# 2 13.0804 13.7176 9.3947 0.0000 0.0000 0.0000
# 3 97.6358 9.3947 129.5405 0.0000 0.0000 0.0000
# 4 0.0000 0.0000 0.0000 -88.2366 0.0000 0.0000
# 5 0.0000 0.0000 0.0000 0.0000 42.1665 0.0000
# 6 0.0000 0.0000 0.0000 0.0000 0.0000 -5.9390
#
#
#
# Elastic Compliance Matrix: (Units=1/GPa)
#
#
# Indices 1 2 3 4 5 6 
#
# 1 0.016841 -0.007750 -0.012131 0.000000 0.000000 0.000000
# 2 -0.007750 0.080276 0.000020 0.000000 0.000000 0.000000
# 3 -0.012131 0.000020 0.016861 0.000000 0.000000 0.000000
# 4 0.000000 0.000000 0.000000 -0.011333 0.000000 0.000000
# 5 0.000000 0.000000 0.000000 0.000000 0.023716 0.000000
# 6 0.000000 0.000000 0.000000 0.000000 0.000000 -0.168378
#
#
# Mechanical properties :
#
#
# Convention : Reuss Voigt Hill
#
# Bulk Modulus (GPa) = 13.46714 57.69000 35.57857
# Shear Modulus (GPa) = 222.64894 0.19000 111.41947
#
# Velocity S-wave (km/s) = 10.73273 0.31353 7.59242
# Velocity P-wave (km/s) = 12.67107 5.47522 9.76048
#
# Compressibility (1/GPa) = 0.07425481
#
# Stress axis : x y z
#
# Youngs Moduli (GPa) = 59.38012 12.45701 59.30737
#
# Poissons Ratio (x) = 0.09655 0.71945
# Poissons Ratio (y) = 0.46022 -0.00116
# Poissons Ratio (z) = 0.72033 -0.00024
#
# Static dielectric constant tensor:
#      x y z
#    x 1.672850 0.000000 0.000000 
#    y 0.000000 1.677300 0.000000 
#    z 0.000000 0.000000 1.674140 
# 
# From -- ./inp_files/33766.got.cif
#   From: 2010.05.17/outbox.cif.g08.bks.cpg/sg51_17_cif.got.tgz:33766.got - 2010.06.03 11:52:47.
