data_PCOD9405093
_publ_section_title
;
Structure prediction by ZEFSAII (Michael W. Deem and Ramdas Pophale) SiO2 
 PCOD9405093
Probable space group: P M M A
;
_chemical_formula_sum "Si O2"
_cell_formula_units_Z 48
_cell_length_a 33.499191
_cell_length_b 9.079613
_cell_length_c 8.020527
_cell_angle_alpha 90.000000
_cell_angle_beta 90.000000
_cell_angle_gamma 90.000000
_cell_volume 2439.521007
_symmetry_space_group_name_H-M "P M M A"
_symmetry_group_IT_number 51
_symmetry_cell_setting 'orthorhombic'
loop_
_space_group_symop_operation_xyz
x,y,z
1/2-x,-y,z
1/2+x,-y,-z
-x,y,-z
-x,-y,-z
1/2+x,y,-z
1/2-x,y,z
x,-y,z
loop_
_atom_site_type_symbol
_atom_site_label
_atom_site_fract_x
_atom_site_fract_y
_atom_site_fract_z
Si Si1 0.842542 0.176750 0.673551
Si Si2 0.297561 0.328611 0.020077
Si Si3 0.415412 0.171839 0.853700
Si Si4 0.918527 0.326396 0.801956
Si Si5 0.330957 0.172974 0.695371
Si Si6 0.498350 0.170635 0.300846
O O1 0.887022 0.242569 0.685203
O O2 0.823202 0.217549 0.495403
O O3 0.844552 0.000000 0.682135
O O4 0.818670 0.239688 0.831205
O O5 0.250000 0.318057 0.038587
O O6 0.309459 0.500000 0.030895
O O7 0.309839 0.263910 0.840566
O O8 0.378546 0.185930 0.727901
O O9 0.458156 0.204908 0.772813
O O10 0.415901 0.000000 0.909479
O O11 0.408332 0.275670 0.010793
O O12 0.914864 0.500000 0.781484
O O13 0.963336 0.272305 0.767207
O O14 0.320567 0.000000 0.714703
O O15 0.500000 0.182008 0.500000
O O16 0.489139 0.000000 0.257155
#
# Coordination Sequence:
#
# PCOD9405093 Si02
#       6
#     8   8   8   8   8   8
#     4  11  23  42  68  96 126 166 218 264 310 371
#     4  11  25  44  66  96 133 168 202 250 318 387
#     4  10  20  37  61  87 118 161 209 261 315 367
#     4  12  24  37  57  88 125 166 209 258 320 375
#     4  10  22  41  68  97 124 163 214 265 312 368
#     4  10  21  38  59  84 117 161 213 263 312 368
#
# _framework density 19.675992000000001
#
# number of rings (size 3 to 8) (size 9 to 14) (size 15 to 20)
#    0.000    1.333    1.667    4.000    0.000    9.000 
#    0.000    5.000    0.000    0.000    0.000    0.000 
#    0.000    0.000    0.000    0.000    0.000    0.000 
#
# Total GULP energy -268386.253341 kJ/mol
# GULP energy per Si atom -5591.380278 kJ/mol
# Density = 1.963121 g / cm^3
# Si number density = 19.675992 Si / 1000 Ang^3
#
#
#
# Elastic Constant Matrix: (Units=GPa)
#
#
# Indices 1 2 3 4 5 6 
#
# 1 53.5587 31.6939 10.0407 0.0000 0.0000 0.0000
# 2 31.6939 89.7159 50.2650 0.0000 0.0000 0.0000
# 3 10.0407 50.2650 98.9896 0.0000 0.0000 0.0000
# 4 0.0000 0.0000 0.0000 5770.1339 0.0000 0.0000
# 5 0.0000 0.0000 0.0000 0.0000 12.7973 0.0000
# 6 0.0000 0.0000 0.0000 0.0000 0.0000 32.6515
#
#
#
# Elastic Compliance Matrix: (Units=1/GPa)
#
#
# Indices 1 2 3 4 5 6 
#
# 1 0.024084 -0.009978 0.002624 0.000000 0.000000 0.000000
# 2 -0.009978 0.019712 -0.008997 0.000000 0.000000 0.000000
# 3 0.002624 -0.008997 0.014405 0.000000 0.000000 0.000000
# 4 0.000000 0.000000 0.000000 0.000173 0.000000 0.000000
# 5 0.000000 0.000000 0.000000 0.000000 0.078142 0.000000
# 6 0.000000 0.000000 0.000000 0.000000 0.000000 0.030626
#
#
# Mechanical properties :
#
#
# Convention : Reuss Voigt Hill
#
# Bulk Modulus (GPa) = 39.21978 47.36259 43.29119
# Shear Modulus (GPa) = 23.99869 1173.13417 598.56643
#
# Velocity S-wave (km/s) = 3.49620 24.44423 17.46058
# Velocity P-wave (km/s) = 6.02279 28.64991 20.70135
#
# Compressibility (1/GPa) = 0.02549734
#
# Stress axis : x y z
#
# Youngs Moduli (GPa) = 41.52152 50.72997 69.42223
#
# Poissons Ratio (x) = 0.50619 -0.18215
# Poissons Ratio (y) = 0.41431 0.62462
# Poissons Ratio (z) = -0.10895 0.45644
#
# Static dielectric constant tensor:
#      x y z
#    x 1.695920 0.000000 0.000000 
#    y 0.000000 1.661550 0.000000 
#    z 0.000000 0.000000 1.683910 
# 
# From -- ./inp_files/12846.got.cif
#   From: 2010.05.17/outbox.cif.g08.bks.cpg/sg51_7_cif.got.tgz:12846.got - 2010.06.03 11:52:47.
