data_PCOD9405458
_publ_section_title
;
Structure prediction by ZEFSAII (Michael W. Deem and Ramdas Pophale) SiO2 
 PCOD9405458
Probable space group: P M M A
;
_chemical_formula_sum "Si O2"
_cell_formula_units_Z 48
_cell_length_a 9.788579
_cell_length_b 7.755870
_cell_length_c 31.480687
_cell_angle_alpha 90.000000
_cell_angle_beta 90.000000
_cell_angle_gamma 90.000000
_cell_volume 2389.980583
_symmetry_space_group_name_H-M "P M M A"
_symmetry_group_IT_number 51
_symmetry_cell_setting 'orthorhombic'
loop_
_space_group_symop_operation_xyz
x,y,z
1/2-x,-y,z
1/2+x,-y,-z
-x,y,-z
-x,-y,-z
1/2+x,y,-z
1/2-x,y,z
x,-y,z
loop_
_atom_site_type_symbol
_atom_site_label
_atom_site_fract_x
_atom_site_fract_y
_atom_site_fract_z
Si Si1 0.904993 0.794878 0.385350
Si Si2 0.406386 0.208049 0.866069
Si Si3 0.595803 0.293686 0.787158
Si Si4 0.404542 0.295252 0.462474
Si Si5 0.092387 0.789594 0.961322
Si Si6 0.404799 0.707917 0.711814
O O1 0.750000 0.727403 0.393514
O O2 0.939939 0.753341 0.336584
O O3 0.015248 0.727338 0.418463
O O4 0.900643 0.000000 0.389992
O O5 0.250000 0.267030 0.857791
O O6 0.509626 0.262165 0.829645
O O7 0.447396 0.265450 0.913638
O O8 0.403115 0.000000 0.866602
O O9 0.750000 0.224957 0.789606
O O10 0.605015 0.500000 0.781902
O O11 0.510413 0.225995 0.746821
O O12 0.500000 0.222160 0.500000
O O13 0.250000 0.224570 0.461926
O O14 0.392709 0.500000 0.470039
O O15 0.250000 0.741041 0.967765
O O16 0.087001 0.000000 0.961502
O O17 0.000000 0.727464 0.000000
O O18 0.250000 0.770834 0.720182
O O19 0.401810 0.500000 0.714637
#
# Coordination Sequence:
#
# PCOD9405458 Si02
#       6
#     8   8   8   8   8   8
#     4  10  21  36  55  81 111 140 170 208 256 306
#     4   9  18  32  50  73 100 130 166 207 250 299
#     4  10  21  35  51  74 103 133 167 209 255 302
#     4  10  21  37  58  82 107 139 179 219 257 299
#     4   8  14  25  42  66  95 125 158 198 244 294
#     4   9  18  34  55  75  98 134 176 212 248 297
#
# _framework density 20.083843999999999
#
# number of rings (size 3 to 8) (size 9 to 14) (size 15 to 20)
#    0.000    2.667    0.000    2.500    0.000    5.667 
#    0.000    5.000    0.000    0.500    0.000    0.000 
#    0.000    0.000    0.000    0.000    0.000    0.000 
#
# Total GULP energy -267864.002541 kJ/mol
# GULP energy per Si atom -5580.500053 kJ/mol
# Density = 2.003813 g / cm^3
# Si number density = 20.083844 Si / 1000 Ang^3
#
#
#
# Elastic Constant Matrix: (Units=GPa)
#
#
# Indices 1 2 3 4 5 6 
#
# 1 175.6176 8.3076 145.5630 0.0000 0.0000 0.0000
# 2 8.3076 27.6557 -1.5080 0.0000 0.0000 0.0000
# 3 145.5630 -1.5080 168.1335 0.0000 0.0000 0.0000
# 4 0.0000 0.0000 0.0000 18.9379 0.0000 0.0000
# 5 0.0000 0.0000 0.0000 0.0000 13.7455 0.0000
# 6 0.0000 0.0000 0.0000 0.0000 0.0000 13.1418
#
#
#
# Elastic Compliance Matrix: (Units=1/GPa)
#
#
# Indices 1 2 3 4 5 6 
#
# 1 0.021621 -0.007519 -0.018786 0.000000 0.000000 0.000000
# 2 -0.007519 0.038792 0.006858 0.000000 0.000000 0.000000
# 3 -0.018786 0.006858 0.022273 0.000000 0.000000 0.000000
# 4 0.000000 0.000000 0.000000 0.052804 0.000000 0.000000
# 5 0.000000 0.000000 0.000000 0.000000 0.072751 0.000000
# 6 0.000000 0.000000 0.000000 0.000000 0.000000 0.076093
#
#
# Mechanical properties :
#
#
# Convention : Reuss Voigt Hill
#
# Bulk Modulus (GPa) = 22.83574 75.12576 48.98075
# Shear Modulus (GPa) = 14.80054 23.76797 19.28425
#
# Velocity S-wave (km/s) = 2.71760 3.44384 3.10205
# Velocity P-wave (km/s) = 4.60891 7.30073 6.10503
#
# Compressibility (1/GPa) = 0.04379101
#
# Stress axis : x y z
#
# Youngs Moduli (GPa) = 46.25198 25.77877 44.89727
#
# Poissons Ratio (x) = 0.19383 0.84343
# Poissons Ratio (y) = 0.34777 -0.30789
# Poissons Ratio (z) = 0.86888 -0.17678
#
# Static dielectric constant tensor:
#      x y z
#    x 1.706470 0.000000 0.000000 
#    y 0.000000 1.754660 0.000000 
#    z 0.000000 0.000000 1.683140 
# 
# From -- ./inp_files/36906.got.cif
#   From: 2010.05.17/outbox.cif.g08.bks.cpg/sg51_19_cif.got.tgz:36906.got - 2010.06.03 11:52:47.
