data_PCOD9405253
_publ_section_title
;
Structure prediction by ZEFSAII (Michael W. Deem and Ramdas Pophale) SiO2 
 PCOD9405253
Probable space group: P M M A
;
_chemical_formula_sum "Si O2"
_cell_formula_units_Z 48
_cell_length_a 19.399536
_cell_length_b 7.664478
_cell_length_c 16.974423
_cell_angle_alpha 90.000000
_cell_angle_beta 90.000000
_cell_angle_gamma 90.000000
_cell_volume 2523.881411
_symmetry_space_group_name_H-M "P M M A"
_symmetry_group_IT_number 51
_symmetry_cell_setting 'orthorhombic'
loop_
_space_group_symop_operation_xyz
x,y,z
1/2-x,-y,z
1/2+x,-y,-z
-x,y,-z
-x,-y,-z
1/2+x,y,-z
1/2-x,y,z
x,-y,z
loop_
_atom_site_type_symbol
_atom_site_label
_atom_site_fract_x
_atom_site_fract_y
_atom_site_fract_z
Si Si1 0.327303 0.795559 0.282481
Si Si2 0.422641 0.000000 0.034303
Si Si3 0.561044 0.712090 0.394556
Si Si4 0.668323 0.000000 0.121232
Si Si5 0.092219 0.708610 0.780971
Si Si6 0.094898 0.711131 0.434330
Si Si7 0.062565 0.304157 0.155892
O O1 0.250000 0.728645 0.269300
O O2 0.348729 0.776217 0.373471
O O3 0.384726 0.705662 0.228786
O O4 0.328742 0.000000 0.262253
O O5 0.415614 0.167776 0.089974
O O6 0.500000 0.000000 0.000000
O O7 0.369363 0.000000 0.963006
O O8 0.559990 0.500000 0.394552
O O9 0.591901 0.763352 0.310911
O O10 0.599425 0.767206 0.474546
O O11 0.481068 0.766249 0.403618
O O12 0.642221 0.829787 0.168820
O O13 0.750000 0.000000 0.113250
O O14 0.106525 0.500000 0.786507
O O15 0.014196 0.736480 0.812629
O O16 0.096418 0.500000 0.432887
O O17 0.061655 0.500000 0.123890
#
# Coordination Sequence:
#
# PCOD9405253 Si02
#       7
#     8   4   8   4   8   8   8
#     4  11  23  37  54  83 130 173 205 255 317 370
#     4  12  24  44  68  97 129 155 191 255 302 369
#     4   8  15  30  56  87 117 152 202 261 303 344
#     4  12  28  46  66  92 124 165 198 243 317 376
#     4  10  20  39  67  96 124 159 208 260 301 357
#     4   9  16  30  53  84 118 155 205 256 304 358
#     4  11  22  39  69  99 122 159 209 252 307 374
#
# _framework density 19.018326999999999
#
# number of rings (size 3 to 8) (size 9 to 14) (size 15 to 20)
#    0.000    1.833    4.167    1.500    0.000    3.333 
#    1.500    1.667    0.000    3.000    0.000    0.000 
#    0.000    0.000    0.000    0.000    0.000    0.000 
#
# Total GULP energy -268061.755128 kJ/mol
# GULP energy per Si atom -5584.619898 kJ/mol
# Density = 1.897504 g / cm^3
# Si number density = 19.018327 Si / 1000 Ang^3
#
#
#
# Elastic Constant Matrix: (Units=GPa)
#
#
# Indices 1 2 3 4 5 6 
#
# 1 119.0473 35.4710 55.8534 0.0000 0.0000 0.0000
# 2 35.4710 69.4290 49.8860 0.0000 0.0000 0.0000
# 3 55.8534 49.8860 145.4022 0.0000 0.0000 0.0000
# 4 0.0000 0.0000 0.0000 26.1052 0.0000 0.0000
# 5 0.0000 0.0000 0.0000 0.0000 22.8863 0.0000
# 6 0.0000 0.0000 0.0000 0.0000 0.0000 -47.7907
#
#
#
# Elastic Compliance Matrix: (Units=1/GPa)
#
#
# Indices 1 2 3 4 5 6 
#
# 1 0.010810 -0.003370 -0.002996 0.000000 0.000000 0.000000
# 2 -0.003370 0.020166 -0.005624 0.000000 0.000000 0.000000
# 3 -0.002996 -0.005624 0.009958 0.000000 0.000000 0.000000
# 4 0.000000 0.000000 0.000000 0.038307 0.000000 0.000000
# 5 0.000000 0.000000 0.000000 0.000000 0.043694 0.000000
# 6 0.000000 0.000000 0.000000 0.000000 0.000000 -0.020925
#
#
# Mechanical properties :
#
#
# Convention : Reuss Voigt Hill
#
# Bulk Modulus (GPa) = 58.98611 68.47771 63.73191
# Shear Modulus (GPa) = 37.98184 13.08470 25.53327
#
# Velocity S-wave (km/s) = 4.47376 2.62583 3.66807
# Velocity P-wave (km/s) = 7.60058 6.72887 7.17797
#
# Compressibility (1/GPa) = 0.01695314
#
# Stress axis : x y z
#
# Youngs Moduli (GPa) = 92.50839 49.58845 100.42133
#
# Poissons Ratio (x) = 0.16711 0.30088
# Poissons Ratio (y) = 0.31174 0.56480
# Poissons Ratio (z) = 0.27718 0.27890
#
# Static dielectric constant tensor:
#      x y z
#    x 1.632900 0.000000 0.000000 
#    y 0.000000 1.687120 0.000000 
#    z 0.000000 0.000000 1.660030 
# 
# From -- ./inp_files/24955.got.cif
#   From: 2010.05.17/outbox.cif.g08.bks.cpg/sg51_13_cif.got.tgz:24955.got - 2010.06.03 11:52:47.
