data_PCOD9405116
_publ_section_title
;
Structure prediction by ZEFSAII (Michael W. Deem and Ramdas Pophale) SiO2 
 PCOD9405116
Probable space group: P M M A
;
_chemical_formula_sum "Si O2"
_cell_formula_units_Z 48
_cell_length_a 8.587940
_cell_length_b 15.488886
_cell_length_c 19.448234
_cell_angle_alpha 90.000000
_cell_angle_beta 90.000000
_cell_angle_gamma 90.000000
_cell_volume 2586.957871
_symmetry_space_group_name_H-M "P M M A"
_symmetry_group_IT_number 51
_symmetry_cell_setting 'orthorhombic'
loop_
_space_group_symop_operation_xyz
x,y,z
1/2-x,-y,z
1/2+x,-y,-z
-x,y,-z
-x,-y,-z
1/2+x,y,-z
1/2-x,y,z
x,-y,z
loop_
_atom_site_type_symbol
_atom_site_label
_atom_site_fract_x
_atom_site_fract_y
_atom_site_fract_z
Si Si1 0.435888 0.500000 0.577171
Si Si2 0.564489 0.845102 0.330742
Si Si3 0.561992 0.248341 0.923062
Si Si4 0.060386 0.598129 0.176013
Si Si5 0.062095 0.900277 0.182175
Si Si6 0.062650 0.654803 0.330339
Si Si7 0.064153 0.000000 0.422930
O O1 0.250000 0.500000 0.576316
O O2 0.500000 0.500000 0.500000
O O3 0.496998 0.416303 0.617956
O O4 0.750000 0.845230 0.335539
O O5 0.512864 0.870870 0.253687
O O6 0.498933 0.750109 0.345847
O O7 0.495687 0.916192 0.382079
O O8 0.750000 0.249771 0.925098
O O9 0.508842 0.333051 0.880861
O O10 0.515436 0.164491 0.878617
O O11 0.500000 0.246525 0.000000
O O12 0.250000 0.597720 0.175081
O O13 0.007641 0.500000 0.164013
O O14 0.015378 0.629191 0.252347
O O15 0.250000 0.893983 0.190166
O O16 0.023177 0.000000 0.168002
O O17 0.250000 0.653987 0.333107
O O18 0.000000 0.000000 0.500000
O O19 0.750000 0.000000 0.576588
#
# Coordination Sequence:
#
# PCOD9405116 Si02
#       7
#     4   8   8   8   8   8   4
#     4  12  26  44  64  96 133 166 207 262 317 371
#     4  12  24  39  63  98 131 162 206 261 315 371
#     4  10  21  37  56  85 122 161 204 254 312 371
#     4   9  17  33  60  88 114 153 205 251 301 366
#     4  10  20  37  62  87 115 160 212 255 306 374
#     4  11  21  40  68  94 122 167 214 257 312 376
#     4  12  26  46  68  94 129 168 209 256 312 374
#
# _framework density 18.554611999999999
#
# number of rings (size 3 to 8) (size 9 to 14) (size 15 to 20)
#    0.000    1.333    3.333    3.500    0.000    2.000 
#    0.000    3.333    0.000    0.000    0.000    0.000 
#    0.000    0.000    0.000    0.000    0.000    0.000 
#
# Total GULP energy -268326.009645 kJ/mol
# GULP energy per Si atom -5590.125201 kJ/mol
# Density = 1.851238 g / cm^3
# Si number density = 18.554612 Si / 1000 Ang^3
#
#
#
# Elastic Constant Matrix: (Units=GPa)
#
#
# Indices 1 2 3 4 5 6 
#
# 1 77.9392 68.6058 60.5414 0.0000 0.0000 0.0000
# 2 68.6058 224.6213 121.1758 0.0000 0.0000 0.0000
# 3 60.5414 121.1758 194.9568 0.0000 0.0000 0.0000
# 4 0.0000 0.0000 0.0000 45.5824 0.0000 0.0000
# 5 0.0000 0.0000 0.0000 0.0000 33.9391 0.0000
# 6 0.0000 0.0000 0.0000 0.0000 0.0000 19.1935
#
#
#
# Elastic Compliance Matrix: (Units=1/GPa)
#
#
# Indices 1 2 3 4 5 6 
#
# 1 0.018971 -0.003936 -0.003445 0.000000 0.000000 0.000000
# 2 -0.003936 0.007514 -0.003448 0.000000 0.000000 0.000000
# 3 -0.003445 -0.003448 0.008342 0.000000 0.000000 0.000000
# 4 0.000000 0.000000 0.000000 0.021938 0.000000 0.000000
# 5 0.000000 0.000000 0.000000 0.000000 0.029465 0.000000
# 6 0.000000 0.000000 0.000000 0.000000 0.000000 0.052101
#
#
# Mechanical properties :
#
#
# Convention : Reuss Voigt Hill
#
# Bulk Modulus (GPa) = 75.93238 110.90703 93.41971
# Shear Modulus (GPa) = 30.41746 36.22262 33.32004
#
# Velocity S-wave (km/s) = 4.05328 4.42318 4.24226
# Velocity P-wave (km/s) = 7.93209 9.27303 8.62865
#
# Compressibility (1/GPa) = 0.01316961
#
# Stress axis : x y z
#
# Youngs Moduli (GPa) = 52.71214 133.07929 119.86982
#
# Poissons Ratio (x) = 0.52379 0.41293
# Poissons Ratio (y) = 0.20747 0.41335
# Poissons Ratio (z) = 0.18158 0.45890
#
# Static dielectric constant tensor:
#      x y z
#    x 1.629570 0.000000 0.000000 
#    y 0.000000 1.630230 0.000000 
#    z 0.000000 0.000000 1.598900 
# 
# From -- ./inp_files/27659.got.cif
#   From: 2010.05.17/outbox.cif.g08.bks.cpg/sg51_14_cif.got.tgz:27659.got - 2010.06.03 11:52:47.
