data_PCOD9405042
_publ_section_title
;
Structure prediction by ZEFSAII (Michael W. Deem and Ramdas Pophale) SiO2 
 PCOD9405042
Probable space group: P M M A
;
_chemical_formula_sum "Si O2"
_cell_formula_units_Z 56
_cell_length_a 8.593200
_cell_length_b 21.821170
_cell_length_c 15.869675
_cell_angle_alpha 90.000000
_cell_angle_beta 90.000000
_cell_angle_gamma 90.000000
_cell_volume 2975.781129
_symmetry_space_group_name_H-M "P M M A"
_symmetry_group_IT_number 51
_symmetry_cell_setting 'orthorhombic'
loop_
_space_group_symop_operation_xyz
x,y,z
1/2-x,-y,z
1/2+x,-y,-z
-x,y,-z
-x,-y,-z
1/2+x,y,-z
1/2-x,y,z
x,-y,z
loop_
_atom_site_type_symbol
_atom_site_label
_atom_site_fract_x
_atom_site_fract_y
_atom_site_fract_z
Si Si1 0.063447 0.629693 0.409841
Si Si2 0.939622 0.289957 0.749932
Si Si3 0.063907 0.500000 0.849325
Si Si4 0.936055 0.500000 0.350136
Si Si5 0.061479 0.851084 0.252622
Si Si6 0.563609 0.928920 0.407960
Si Si7 0.937661 0.929137 0.908874
Si Si8 0.436618 0.629681 0.090366
O O1 0.250000 0.629328 0.411584
O O2 0.010523 0.673170 0.333237
O O3 0.000000 0.650319 0.500000
O O4 0.004396 0.561185 0.391035
O O5 0.750000 0.290220 0.750154
O O6 0.990081 0.219534 0.748993
O O7 0.989544 0.326413 0.833434
O O8 0.250000 0.500000 0.858765
O O9 0.026018 0.500000 0.749591
O O10 0.995591 0.438777 0.890199
O O11 0.750000 0.500000 0.359566
O O12 0.250000 0.852011 0.254285
O O13 0.010534 0.886889 0.168351
O O14 0.001174 0.886312 0.334517
O O15 0.500000 0.911338 0.500000
O O16 0.750000 0.926256 0.409050
O O17 0.516343 0.000000 0.392751
O O18 0.750000 0.928042 0.911362
O O19 0.986649 0.000000 0.895194
O O20 0.000000 0.909393 0.000000
O O21 0.250000 0.629285 0.088658
O O22 0.500000 0.649838 0.000000
#
# Coordination Sequence:
#
# PCOD9405042 Si02
#       8
#     8   8   4   4   8   8   8   8
#     4  11  22  39  60  83 111 147 186 226 280 335
#     4   9  21  39  58  80 112 152 189 229 277 334
#     4  11  22  37  60  88 114 142 184 237 289 337
#     4  11  22  37  60  88 114 140 180 233 283 333
#     4  10  20  37  59  83 113 150 193 234 281 334
#     4  10  21  37  58  86 117 149 187 233 284 337
#     4   9  18  32  53  81 112 146 183 227 277 327
#     4  11  22  39  60  84 114 150 190 232 285 340
#
# _framework density 18.818588999999999
#
# number of rings (size 3 to 8) (size 9 to 14) (size 15 to 20)
#    0.000    1.857    1.429    2.571    0.000    3.714 
#    0.000    5.714    0.000    0.000    0.000    0.000 
#    0.000    0.000    0.000    0.000    0.000    0.000 
#
# Total GULP energy -312902.569543 kJ/mol
# GULP energy per Si atom -5587.545885 kJ/mol
# Density = 1.877576 g / cm^3
# Si number density = 18.818589 Si / 1000 Ang^3
#
#
#
# Elastic Constant Matrix: (Units=GPa)
#
#
# Indices 1 2 3 4 5 6 
#
# 1 29.0776 23.9947 38.6684 0.0000 0.0000 0.0000
# 2 23.9947 145.2240 116.1144 0.0000 0.0000 0.0000
# 3 38.6684 116.1144 207.3199 0.0000 0.0000 0.0000
# 4 0.0000 0.0000 0.0000 -11.3010 0.0000 0.0000
# 5 0.0000 0.0000 0.0000 0.0000 34.0716 0.0000
# 6 0.0000 0.0000 0.0000 0.0000 0.0000 12.1602
#
#
#
# Elastic Compliance Matrix: (Units=1/GPa)
#
#
# Indices 1 2 3 4 5 6 
#
# 1 0.045877 -0.001337 -0.007808 0.000000 0.000000 0.000000
# 2 -0.001337 0.012509 -0.006757 0.000000 0.000000 0.000000
# 3 -0.007808 -0.006757 0.010064 0.000000 0.000000 0.000000
# 4 0.000000 0.000000 0.000000 -0.088488 0.000000 0.000000
# 5 0.000000 0.000000 0.000000 0.000000 0.029350 0.000000
# 6 0.000000 0.000000 0.000000 0.000000 0.000000 0.082236
#
#
# Mechanical properties :
#
#
# Convention : Reuss Voigt Hill
#
# Bulk Modulus (GPa) = 27.28737 82.13071 54.70904
# Shear Modulus (GPa) = 36.88193 20.50908 28.69551
#
# Velocity S-wave (km/s) = 4.43184 3.30484 3.90917
# Velocity P-wave (km/s) = 6.38122 7.63549 7.03636
#
# Compressibility (1/GPa) = 0.03664699
#
# Stress axis : x y z
#
# Youngs Moduli (GPa) = 21.79718 79.94156 99.36455
#
# Poissons Ratio (x) = 0.10691 0.77583
# Poissons Ratio (y) = 0.02915 0.67137
# Poissons Ratio (z) = 0.17019 0.54013
#
# Static dielectric constant tensor:
#      x y z
#    x 1.643140 0.000000 0.000000 
#    y 0.000000 1.626990 0.000000 
#    z 0.000000 0.000000 1.637650 
# 
# From -- ./inp_files/21905.got.cif
#   From: 2010.05.17/outbox.cif.g08.bks.cpg/sg51_11_cif.got.tgz:21905.got - 2010.06.03 11:52:47.
