data_PCOD9405596
_publ_section_title
;
Structure prediction by ZEFSAII (Michael W. Deem and Ramdas Pophale) SiO2 
 PCOD9405596
Probable space group: P M M A
;
_chemical_formula_sum "Si O2"
_cell_formula_units_Z 40
_cell_length_a 8.403524
_cell_length_b 27.736762
_cell_length_c 9.170455
_cell_angle_alpha 90.000000
_cell_angle_beta 90.000000
_cell_angle_gamma 90.000000
_cell_volume 2137.509673
_symmetry_space_group_name_H-M "P M M A"
_symmetry_group_IT_number 51
_symmetry_cell_setting 'orthorhombic'
loop_
_space_group_symop_operation_xyz
x,y,z
1/2-x,-y,z
1/2+x,-y,-z
-x,y,-z
-x,-y,-z
1/2+x,y,-z
1/2-x,y,z
x,-y,z
loop_
_atom_site_type_symbol
_atom_site_label
_atom_site_fract_x
_atom_site_fract_y
_atom_site_fract_z
Si Si1 0.442477 0.095598 0.164703
Si Si2 0.559641 0.603962 0.331777
Si Si3 0.557612 0.809413 0.666539
Si Si4 0.557682 0.500000 0.331925
Si Si5 0.557755 0.000000 0.664901
Si Si6 0.440105 0.704083 0.332356
O O1 0.250000 0.095874 0.166552
O O2 0.498613 0.144972 0.240895
O O3 0.496586 0.048376 0.252949
O O4 0.500000 0.092981 0.000000
O O5 0.500000 0.603854 0.500000
O O6 0.750000 0.605286 0.333583
O O7 0.506344 0.551948 0.268290
O O8 0.500681 0.654145 0.263891
O O9 0.500000 0.813873 0.500000
O O10 0.750000 0.810005 0.664839
O O11 0.508170 0.756535 0.726326
O O12 0.750000 0.500000 0.332060
O O13 0.500000 0.500000 0.500000
O O14 0.500000 0.000000 0.500000
O O15 0.750000 0.000000 0.666024
O O16 0.500000 0.704357 0.500000
O O17 0.250000 0.702212 0.333251
#
# Coordination Sequence:
#
# PCOD9405596 Si02
#       6
#     8   8   8   4   4   8
#     4  10  21  36  52  74 101 129 159 194 233 277
#     4   9  14  20  29  43  65  95 132 173 214 260
#     4   9  18  31  47  67  92 120 155 194 233 276
#     4   8  14  20  26  38  60  92 129 168 211 256
#     4  10  21  36  56  80 104 128 161 198 232 272
#     4   9  15  23  35  52  74 102 136 178 221 262
#
# _framework density 18.713366000000001
#
# number of rings (size 3 to 8) (size 9 to 14) (size 15 to 20)
#    0.000    2.800    0.000    3.300    0.000    3.200 
#    0.000    0.000    0.000    0.000    0.000    0.000 
#    0.000    0.000    0.000    0.900    0.000   11.800 
#
# Total GULP energy -222696.495408 kJ/mol
# GULP energy per Si atom -5567.412385 kJ/mol
# Density = 1.867077 g / cm^3
# Si number density = 18.713366 Si / 1000 Ang^3
#
#
#
# Elastic Constant Matrix: (Units=GPa)
#
#
# Indices 1 2 3 4 5 6 
#
# 1 17.0022 32.9757 3.8903 0.0000 0.0000 0.0000
# 2 32.9757 262.6416 68.0851 0.0000 0.0000 0.0000
# 3 3.8903 68.0851 56.7405 0.0000 0.0000 0.0000
# 4 0.0000 0.0000 0.0000 -4.4449 0.0000 0.0000
# 5 0.0000 0.0000 0.0000 0.0000 16.0752 0.0000
# 6 0.0000 0.0000 0.0000 0.0000 0.0000 21.4970
#
#
#
# Elastic Compliance Matrix: (Units=1/GPa)
#
#
# Indices 1 2 3 4 5 6 
#
# 1 0.081255 -0.012712 0.009682 0.000000 0.000000 0.000000
# 2 -0.012712 0.007515 -0.008146 0.000000 0.000000 0.000000
# 3 0.009682 -0.008146 0.026735 0.000000 0.000000 0.000000
# 4 0.000000 0.000000 0.000000 -0.224978 0.000000 0.000000
# 5 0.000000 0.000000 0.000000 0.000000 0.062208 0.000000
# 6 0.000000 0.000000 0.000000 0.000000 0.000000 0.046518
#
#
# Mechanical properties :
#
#
# Convention : Reuss Voigt Hill
#
# Bulk Modulus (GPa) = 10.73489 60.69852 35.71670
# Shear Modulus (GPa) = 94.95481 22.05435 58.50458
#
# Velocity S-wave (km/s) = 7.13105 3.43670 5.59745
# Velocity P-wave (km/s) = 8.57621 6.94653 7.80403
#
# Compressibility (1/GPa) = 0.09315421
#
# Stress axis : x y z
#
# Youngs Moduli (GPa) = 12.30690 133.06208 37.40373
#
# Poissons Ratio (x) = 1.69148 -0.36216
# Poissons Ratio (y) = 0.15644 0.30470
# Poissons Ratio (z) = -0.11916 1.08397
#
# Static dielectric constant tensor:
#      x y z
#    x 1.688010 0.000000 0.000000 
#    y 0.000000 1.754920 0.000000 
#    z 0.000000 0.000000 1.579320 
# 
# From -- ./inp_files/5579.got.cif
#   From: 2010.05.17/outbox.cif.g08.bks.cpg/sg51_3_cif.got.tgz:5579.got - 2010.06.03 11:52:47.
