data_PCOD9405091
_publ_section_title
;
Structure prediction by ZEFSAII (Michael W. Deem and Ramdas Pophale) SiO2 
 PCOD9405091
Probable space group: P M M A
;
_chemical_formula_sum "Si O2"
_cell_formula_units_Z 48
_cell_length_a 16.860464
_cell_length_b 9.228601
_cell_length_c 16.576338
_cell_angle_alpha 90.000000
_cell_angle_beta 90.000000
_cell_angle_gamma 90.000000
_cell_volume 2579.253244
_symmetry_space_group_name_H-M "P M M A"
_symmetry_group_IT_number 51
_symmetry_cell_setting 'orthorhombic'
loop_
_space_group_symop_operation_xyz
x,y,z
1/2-x,-y,z
1/2+x,-y,-z
-x,y,-z
-x,-y,-z
1/2+x,y,-z
1/2-x,y,z
x,-y,z
loop_
_atom_site_type_symbol
_atom_site_label
_atom_site_fract_x
_atom_site_fract_y
_atom_site_fract_z
Si Si1 0.750000 0.824414 0.980334
Si Si2 0.250000 0.826381 0.207427
Si Si3 0.922004 0.824690 0.053571
Si Si4 0.113615 0.331692 0.304297
Si Si5 0.559087 0.332035 0.223896
Si Si6 0.408861 0.169380 0.471653
Si Si7 0.657035 0.166118 0.357438
O O1 0.750000 0.782972 0.886400
O O2 0.750000 0.000000 0.984701
O O3 0.834916 0.778904 0.019081
O O4 0.325293 0.761397 0.252787
O O5 0.250000 0.000000 0.211583
O O6 0.932539 0.757484 0.141835
O O7 0.921495 0.000000 0.057977
O O8 0.000000 0.784392 0.000000
O O9 0.137761 0.500000 0.308194
O O10 0.106422 0.265690 0.393683
O O11 0.029263 0.323223 0.259730
O O12 0.578229 0.500000 0.208802
O O13 0.614362 0.265790 0.293073
O O14 0.500000 0.180774 0.500000
O O15 0.358576 0.211514 0.550353
O O16 0.392457 0.000000 0.452488
O O17 0.750000 0.164530 0.341542
O O18 0.626075 0.000000 0.350603
#
# Coordination Sequence:
#
# PCOD9405091 Si02
#       7
#     4   4   8   8   8   8   8
#     4   9  20  39  63  92 117 148 197 253 308 361
#     4  11  23  41  67  92 119 154 201 253 300 359
#     4  10  21  39  64  90 119 155 201 254 308 364
#     4  11  24  40  59  88 126 164 200 245 304 363
#     4  11  24  40  60  88 124 163 203 244 298 369
#     4  10  20  37  61  87 115 156 209 256 298 351
#     4  10  22  39  60  87 120 157 203 256 302 348
#
# _framework density 18.610037999999999
#
# number of rings (size 3 to 8) (size 9 to 14) (size 15 to 20)
#    0.000    1.667    1.667    2.250    2.333    5.000 
#    0.000    1.667    0.000    0.000    0.000    0.000 
#    0.000    0.000    0.000    0.000    0.000    0.000 
#
# Total GULP energy -268065.951011 kJ/mol
# GULP energy per Si atom -5584.707313 kJ/mol
# Density = 1.856768 g / cm^3
# Si number density = 18.610038 Si / 1000 Ang^3
#
#
#
# Elastic Constant Matrix: (Units=GPa)
#
#
# Indices 1 2 3 4 5 6 
#
# 1 97.9972 45.2109 56.6031 0.0000 0.0000 0.0000
# 2 45.2109 71.5541 69.1880 0.0000 0.0000 0.0000
# 3 56.6031 69.1880 148.7025 0.0000 0.0000 0.0000
# 4 0.0000 0.0000 0.0000 -8.3350 0.0000 0.0000
# 5 0.0000 0.0000 0.0000 0.0000 -19.1927 0.0000
# 6 0.0000 0.0000 0.0000 0.0000 0.0000 40.8760
#
#
#
# Elastic Compliance Matrix: (Units=1/GPa)
#
#
# Indices 1 2 3 4 5 6 
#
# 1 0.014837 -0.007114 -0.002337 0.000000 0.000000 0.000000
# 2 -0.007114 0.028816 -0.010700 0.000000 0.000000 0.000000
# 3 -0.002337 -0.010700 0.012593 0.000000 0.000000 0.000000
# 4 0.000000 0.000000 0.000000 -0.119976 0.000000 0.000000
# 5 0.000000 0.000000 0.000000 0.000000 -0.052103 0.000000
# 6 0.000000 0.000000 0.000000 0.000000 0.000000 0.024464
#
#
# Mechanical properties :
#
#
# Convention : Reuss Voigt Hill
#
# Bulk Modulus (GPa) = 62.72242 73.36195 68.04218
# Shear Modulus (GPa) = -109.28460 12.48645 -48.39908
#
# Velocity S-wave (km/s) = -7.67144 2.59309 -5.10524
# Velocity P-wave (km/s) = 6.68515 6.96216 1.37485
#
# Compressibility (1/GPa) = 0.01594326
#
# Stress axis : x y z
#
# Youngs Moduli (GPa) = 67.40078 34.70253 79.41035
#
# Poissons Ratio (x) = 0.24689 0.18561
# Poissons Ratio (y) = 0.47951 0.84966
# Poissons Ratio (z) = 0.15754 0.37130
#
# Static dielectric constant tensor:
#      x y z
#    x 1.625980 0.000000 0.000000 
#    y 0.000000 1.626870 0.000000 
#    z 0.000000 0.000000 1.604900 
# 
# From -- ./inp_files/24914.got.cif
#   From: 2010.05.17/outbox.cif.g08.bks.cpg/sg51_13_cif.got.tgz:24914.got - 2010.06.03 11:52:47.
