data_PCOD9405439
_publ_section_title
;
Structure prediction by ZEFSAII (Michael W. Deem and Ramdas Pophale) SiO2 
 PCOD9405439
Probable space group: P M M A
;
_chemical_formula_sum "Si O2"
_cell_formula_units_Z 48
_cell_length_a 9.755215
_cell_length_b 7.489900
_cell_length_c 35.295329
_cell_angle_alpha 90.000000
_cell_angle_beta 90.000000
_cell_angle_gamma 90.000000
_cell_volume 2578.873855
_symmetry_space_group_name_H-M "P M M A"
_symmetry_group_IT_number 51
_symmetry_cell_setting 'orthorhombic'
loop_
_space_group_symop_operation_xyz
x,y,z
1/2-x,-y,z
1/2+x,-y,-z
-x,y,-z
-x,-y,-z
1/2+x,y,-z
1/2-x,y,z
x,-y,z
loop_
_atom_site_type_symbol
_atom_site_label
_atom_site_fract_x
_atom_site_fract_y
_atom_site_fract_z
Si Si1 0.912320 0.210388 0.101005
Si Si2 0.412144 0.000000 0.462153
Si Si3 0.094176 0.785333 0.256970
Si Si4 0.092107 0.217190 0.172088
Si Si5 0.595326 0.712228 0.328226
Si Si6 0.913657 0.500000 0.038171
Si Si7 0.589452 0.712975 0.601567
O O1 0.750000 0.229547 0.108305
O O2 0.945338 0.328572 0.064436
O O3 0.995491 0.273520 0.137856
O O4 0.940797 0.000000 0.094678
O O5 0.500000 0.000000 0.500000
O O6 0.440367 0.172333 0.435779
O O7 0.250000 0.000000 0.471078
O O8 0.250000 0.722096 0.265182
O O9 0.054301 0.723552 0.214638
O O10 0.988000 0.739411 0.289576
O O11 0.100368 0.000000 0.255504
O O12 0.250000 0.269022 0.165469
O O13 0.087593 0.000000 0.172377
O O14 0.750000 0.784870 0.326814
O O15 0.605441 0.500000 0.333461
O O16 0.505695 0.776009 0.363846
O O17 0.750000 0.500000 0.030350
O O18 0.000000 0.500000 0.000000
O O19 0.750000 0.742214 0.611404
O O20 0.571385 0.500000 0.595504
#
# Coordination Sequence:
#
# PCOD9405439 Si02
#       7
#     8   4   8   8   8   4   8
#     4   9  18  34  55  76 102 138 172 208 262 319
#     4  10  22  38  58  86 112 138 178 222 270 332
#     4   9  18  32  51  75 104 139 178 221 266 315
#     4   8  15  30  51  75 102 133 174 218 258 307
#     4  10  21  35  50  74 107 141 180 224 270 319
#     4  10  22  38  54  78 108 134 170 218 262 316
#     4   9  19  37  58  78 106 145 182 220 268 322
#
# _framework density 18.612776
#
# number of rings (size 3 to 8) (size 9 to 14) (size 15 to 20)
#    0.000    2.833    0.000    1.500    1.167    4.000 
#    1.500    1.667    0.000    0.000    0.000    0.000 
#    0.000    0.000    0.000    0.000    0.000    0.000 
#
# Total GULP energy -267741.954783 kJ/mol
# GULP energy per Si atom -5577.957391 kJ/mol
# Density = 1.857041 g / cm^3
# Si number density = 18.612776 Si / 1000 Ang^3
#
#
#
# Elastic Constant Matrix: (Units=GPa)
#
#
# Indices 1 2 3 4 5 6 
#
# 1 111.8395 42.2907 127.1658 0.0000 0.0000 0.0000
# 2 42.2907 68.8491 50.2989 0.0000 0.0000 0.0000
# 3 127.1658 50.2989 200.4151 0.0000 0.0000 0.0000
# 4 0.0000 0.0000 0.0000 32.2116 0.0000 0.0000
# 5 0.0000 0.0000 0.0000 0.0000 41.2599 0.0000
# 6 0.0000 0.0000 0.0000 0.0000 0.0000 14.5408
#
#
#
# Elastic Compliance Matrix: (Units=1/GPa)
#
#
# Indices 1 2 3 4 5 6 
#
# 1 0.034204 -0.006312 -0.020119 0.000000 0.000000 0.000000
# 2 -0.006312 0.018950 -0.000751 0.000000 0.000000 0.000000
# 3 -0.020119 -0.000751 0.017944 0.000000 0.000000 0.000000
# 4 0.000000 0.000000 0.000000 0.031045 0.000000 0.000000
# 5 0.000000 0.000000 0.000000 0.000000 0.024237 0.000000
# 6 0.000000 0.000000 0.000000 0.000000 0.000000 0.068772
#
#
# Mechanical properties :
#
#
# Convention : Reuss Voigt Hill
#
# Bulk Modulus (GPa) = 59.75603 91.17940 75.46772
# Shear Modulus (GPa) = 19.60077 28.35901 23.97989
#
# Velocity S-wave (km/s) = 3.24864 3.90761 3.59326
# Velocity P-wave (km/s) = 6.80045 8.33385 7.60589
#
# Compressibility (1/GPa) = 0.01673471
#
# Stress axis : x y z
#
# Youngs Moduli (GPa) = 29.23663 52.76966 55.72999
#
# Poissons Ratio (x) = 0.33307 1.12121
# Poissons Ratio (y) = 0.18453 0.04186
# Poissons Ratio (z) = 0.58820 0.03964
#
# Static dielectric constant tensor:
#      x y z
#    x 1.635790 0.000000 0.000000 
#    y 0.000000 1.686430 0.000000 
#    z 0.000000 0.000000 1.606020 
# 
# From -- ./inp_files/37171.got.cif
#   From: 2010.05.17/outbox.cif.g08.bks.cpg/sg51_19_cif.got.tgz:37171.got - 2010.06.03 11:52:47.
