data_PCOD9405176
_publ_section_title
;
Structure prediction by ZEFSAII (Michael W. Deem and Ramdas Pophale) SiO2 
 PCOD9405176
Probable space group: P M M A
;
_chemical_formula_sum "Si O2"
_cell_formula_units_Z 56
_cell_length_a 23.942638
_cell_length_b 8.045886
_cell_length_c 13.005541
_cell_angle_alpha 90.000000
_cell_angle_beta 90.000000
_cell_angle_gamma 90.000000
_cell_volume 2505.383983
_symmetry_space_group_name_H-M "P M M A"
_symmetry_group_IT_number 51
_symmetry_cell_setting 'orthorhombic'
loop_
_space_group_symop_operation_xyz
x,y,z
1/2-x,-y,z
1/2+x,-y,-z
-x,y,-z
-x,-y,-z
1/2+x,y,-z
1/2-x,y,z
x,-y,z
loop_
_atom_site_type_symbol
_atom_site_label
_atom_site_fract_x
_atom_site_fract_y
_atom_site_fract_z
Si Si1 0.162617 0.806239 0.645467
Si Si2 0.420294 0.699507 0.295204
Si Si3 0.810807 0.798652 0.581410
Si Si4 0.952969 0.803833 0.083027
Si Si5 0.250000 0.305376 0.810947
Si Si6 0.959292 0.691634 0.312168
Si Si7 0.371874 0.701500 0.083193
Si Si8 0.750000 0.703072 0.955862
O O1 0.184133 0.738988 0.536586
O O2 0.195654 0.735063 0.742671
O O3 0.096222 0.781678 0.650380
O O4 0.175730 0.000000 0.646719
O O5 0.426251 0.500000 0.289511
O O6 0.365064 0.738726 0.358666
O O7 0.479351 0.761169 0.340119
O O8 0.408832 0.761346 0.179234
O O9 0.750000 0.745938 0.623045
O O10 0.812214 0.000000 0.581487
O O11 0.957689 0.703936 0.188052
O O12 0.958476 0.000000 0.105785
O O13 0.895533 0.769398 0.023507
O O14 0.000000 0.754807 0.000000
O O15 0.250000 0.500000 0.827166
O O16 0.250000 0.233429 0.926044
O O17 0.955007 0.500000 0.345586
O O18 0.374600 0.500000 0.079759
O O19 0.307727 0.753409 0.096818
O O20 0.750000 0.500000 0.955682
#
# Coordination Sequence:
#
# PCOD9405176 Si02
#       8
#     8   8   8   8   4   8   8   4
#     4  11  23  42  66  91 122 160 204 256 313 374
#     4  10  23  39  61  91 123 161 206 257 307 361
#     4  10  23  44  66  88 119 160 203 251 311 374
#     4  11  22  36  58  88 122 162 206 247 293 358
#     4  11  21  37  62  95 124 158 203 253 310 367
#     4  11  23  40  61  92 127 162 205 253 312 369
#     4  10  20  38  60  85 121 163 201 247 302 355
#     4   9  20  35  56  85 118 152 195 243 290 353
#
# _framework density 22.351862000000001
#
# number of rings (size 3 to 8) (size 9 to 14) (size 15 to 20)
#    0.000    1.571    2.143    2.357    1.000    5.429 
#    0.000    3.929    0.000    0.000    0.000    0.000 
#    0.000    0.000    0.000    0.000    0.000    0.000 
#
# Total GULP energy -313008.342575 kJ/mol
# GULP energy per Si atom -5589.434689 kJ/mol
# Density = 2.230099 g / cm^3
# Si number density = 22.351862 Si / 1000 Ang^3
#
#
#
# Elastic Constant Matrix: (Units=GPa)
#
#
# Indices 1 2 3 4 5 6 
#
# 1 157.0592 -4.9673 10.1201 0.0000 0.0000 0.0000
# 2 -4.9673 15.5372 -6.4596 0.0000 0.0000 0.0000
# 3 10.1201 -6.4596 29.0998 0.0000 0.0000 0.0000
# 4 0.0000 0.0000 0.0000 23.2775 0.0000 0.0000
# 5 0.0000 0.0000 0.0000 0.0000 34.8415 0.0000
# 6 0.0000 0.0000 0.0000 0.0000 0.0000 274.9882
#
#
#
# Elastic Compliance Matrix: (Units=1/GPa)
#
#
# Indices 1 2 3 4 5 6 
#
# 1 0.006535 0.001261 -0.001993 0.000000 0.000000 0.000000
# 2 0.001261 0.071149 0.015355 0.000000 0.000000 0.000000
# 3 -0.001993 0.015355 0.038466 0.000000 0.000000 0.000000
# 4 0.000000 0.000000 0.000000 0.042960 0.000000 0.000000
# 5 0.000000 0.000000 0.000000 0.000000 0.028701 0.000000
# 6 0.000000 0.000000 0.000000 0.000000 0.000000 0.003637
#
#
# Mechanical properties :
#
#
# Convention : Reuss Voigt Hill
#
# Bulk Modulus (GPa) = 6.87775 22.12028 14.49902
# Shear Modulus (GPa) = 23.73410 80.15497 51.94454
#
# Velocity S-wave (km/s) = 3.26212 5.99486 4.82596
# Velocity P-wave (km/s) = 4.15600 7.60498 6.12813
#
# Compressibility (1/GPa) = 0.14539629
#
# Stress axis : x y z
#
# Youngs Moduli (GPa) = 153.01479 14.05508 25.99690
#
# Poissons Ratio (x) = -0.01772 0.05181
# Poissons Ratio (y) = -0.19292 -0.39919
# Poissons Ratio (z) = 0.30495 -0.21582
#
# Static dielectric constant tensor:
#      x y z
#    x 1.856190 0.000000 0.000000 
#    y 0.000000 1.789880 0.000000 
#    z 0.000000 0.000000 1.818180 
# 
# From -- ./inp_files/25823.got.cif
#   From: 2010.05.17/outbox.cif.g08.bks.cpg/sg51_13_cif.got.tgz:25823.got - 2010.06.03 11:52:47.
