data_PCOD9405753
_publ_section_title
;
Structure prediction by ZEFSAII (Michael W. Deem and Ramdas Pophale) SiO2 
 PCOD9405753
Probable space group: P M M A
;
_chemical_formula_sum "Si O2"
_cell_formula_units_Z 56
_cell_length_a 14.023877
_cell_length_b 9.208761
_cell_length_c 24.124664
_cell_angle_alpha 90.000000
_cell_angle_beta 90.000000
_cell_angle_gamma 90.000000
_cell_volume 3115.520183
_symmetry_space_group_name_H-M "P M M A"
_symmetry_group_IT_number 51
_symmetry_cell_setting 'orthorhombic'
loop_
_space_group_symop_operation_xyz
x,y,z
1/2-x,-y,z
1/2+x,-y,-z
-x,y,-z
-x,-y,-z
1/2+x,y,-z
1/2-x,y,z
x,-y,z
loop_
_atom_site_type_symbol
_atom_site_label
_atom_site_fract_x
_atom_site_fract_y
_atom_site_fract_z
Si Si1 0.049886 0.675606 0.086955
Si Si2 0.356362 0.323926 0.969578
Si Si3 0.454304 0.325717 0.300261
Si Si4 0.358961 0.673860 0.641135
Si Si5 0.633673 0.165706 0.471758
Si Si6 0.636787 0.173139 0.805560
Si Si7 0.365144 0.667637 0.418684
O O1 0.053083 0.500000 0.093714
O O2 0.089817 0.753184 0.140795
O O3 0.941447 0.719505 0.071550
O O4 0.112026 0.712604 0.032293
O O5 0.250000 0.270556 0.957145
O O6 0.354815 0.500000 0.967741
O O7 0.444083 0.500000 0.291967
O O8 0.565425 0.291262 0.311176
O O9 0.409399 0.241384 0.249360
O O10 0.403097 0.288596 0.358474
O O11 0.250000 0.718414 0.653006
O O12 0.360347 0.500000 0.633853
O O13 0.390648 0.744394 0.583156
O O14 0.750000 0.166974 0.473524
O O15 0.601988 0.236598 0.529483
O O16 0.602419 0.000000 0.466708
O O17 0.750000 0.202813 0.805591
O O18 0.623017 0.000000 0.806658
O O19 0.250000 0.672490 0.417119
O O20 0.393849 0.500000 0.428137
#
# Coordination Sequence:
#
# PCOD9405753 Si02
#       7
#     8   8   8   8   8   8   8
#     4   9  17  31  55  83 109 143 183 216 251 298
#     4   8  14  27  51  85 118 143 174 219 261 293
#     4  10  21  36  55  76  96 127 173 216 254 301
#     4   9  18  34  54  74  97 125 161 209 260 306
#     4   9  17  29  47  71  98 129 162 196 245 311
#     4  11  24  39  54  75 105 138 170 209 258 307
#     4   9  17  30  48  70  96 124 157 203 255 303
#
# _framework density 17.974526000000001
#
# number of rings (size 3 to 8) (size 9 to 14) (size 15 to 20)
#    0.000    2.714    0.000    2.571    0.000    5.714 
#    0.000    6.429    0.000    5.571    0.000    0.000 
#    0.000    0.000    0.000    0.000    0.000    0.000 
#
# Total GULP energy -312461.606076 kJ/mol
# GULP energy per Si atom -5579.671537 kJ/mol
# Density = 1.793362 g / cm^3
# Si number density = 17.974526 Si / 1000 Ang^3
#
#
#
# Elastic Constant Matrix: (Units=GPa)
#
#
# Indices 1 2 3 4 5 6 
#
# 1 127.3626 49.0976 83.5097 0.0000 0.0000 0.0000
# 2 49.0976 46.0914 66.2339 0.0000 0.0000 0.0000
# 3 83.5097 66.2339 146.0869 0.0000 0.0000 0.0000
# 4 0.0000 0.0000 0.0000 -18.9460 0.0000 0.0000
# 5 0.0000 0.0000 0.0000 0.0000 26.6075 0.0000
# 6 0.0000 0.0000 0.0000 0.0000 0.0000 15.8732
#
#
#
# Elastic Compliance Matrix: (Units=1/GPa)
#
#
# Indices 1 2 3 4 5 6 
#
# 1 0.013934 -0.009747 -0.003546 0.000000 0.000000 0.000000
# 2 -0.009747 0.069078 -0.025747 0.000000 0.000000 0.000000
# 3 -0.003546 -0.025747 0.020546 0.000000 0.000000 0.000000
# 4 0.000000 0.000000 0.000000 -0.052782 0.000000 0.000000
# 5 0.000000 0.000000 0.000000 0.000000 0.037583 0.000000
# 6 0.000000 0.000000 0.000000 0.000000 0.000000 0.062999
#
#
# Mechanical properties :
#
#
# Convention : Reuss Voigt Hill
#
# Bulk Modulus (GPa) = 39.25109 79.69146 59.47128
# Shear Modulus (GPa) = 21.01439 12.75359 16.88399
#
# Velocity S-wave (km/s) = 3.42295 2.66660 3.06817
# Velocity P-wave (km/s) = 6.12426 7.34255 6.76090
#
# Compressibility (1/GPa) = 0.02547700
#
# Stress axis : x y z
#
# Youngs Moduli (GPa) = 71.76561 14.47643 48.67175
#
# Poissons Ratio (x) = 0.14110 0.17260
# Poissons Ratio (y) = 0.69951 1.25316
# Poissons Ratio (z) = 0.25450 0.37273
#
# Static dielectric constant tensor:
#      x y z
#    x 1.669960 0.000000 0.000000 
#    y 0.000000 1.597590 0.000000 
#    z 0.000000 0.000000 1.568320 
# 
# From -- ./inp_files/33297.got.cif
#   From: 2010.05.17/outbox.cif.g08.bks.cpg/sg51_17_cif.got.tgz:33297.got - 2010.06.03 11:52:47.
