data_PCOD9405322
_publ_section_title
;
Structure prediction by ZEFSAII (Michael W. Deem and Ramdas Pophale) SiO2 
 PCOD9405322
Probable space group: P M M A
;
_chemical_formula_sum "Si O2"
_cell_formula_units_Z 40
_cell_length_a 7.452753
_cell_length_b 27.887735
_cell_length_c 9.326619
_cell_angle_alpha 90.000000
_cell_angle_beta 90.000000
_cell_angle_gamma 90.000000
_cell_volume 1938.448230
_symmetry_space_group_name_H-M "P M M A"
_symmetry_group_IT_number 51
_symmetry_cell_setting 'orthorhombic'
loop_
_space_group_symop_operation_xyz
x,y,z
1/2-x,-y,z
1/2+x,-y,-z
-x,y,-z
-x,-y,-z
1/2+x,y,-z
1/2-x,y,z
x,-y,z
loop_
_atom_site_type_symbol
_atom_site_label
_atom_site_fract_x
_atom_site_fract_y
_atom_site_fract_z
Si Si1 0.964939 0.093682 0.330954
Si Si2 0.534998 0.000000 0.168198
Si Si3 0.534846 0.707104 0.169560
Si Si4 0.535155 0.199506 0.331250
Si Si5 0.464821 0.603140 0.828661
Si Si6 0.034895 0.500000 0.828363
O O1 0.750000 0.094950 0.312337
O O2 0.035132 0.048459 0.242546
O O3 0.033839 0.146615 0.288490
O O4 0.000000 0.087005 0.500000
O O5 0.750000 0.000000 0.189925
O O6 0.500000 0.000000 0.000000
O O7 0.750000 0.706288 0.189381
O O8 0.463681 0.754309 0.247827
O O9 0.466555 0.654959 0.222807
O O10 0.500000 0.710607 0.000000
O O11 0.500000 0.204901 0.500000
O O12 0.750000 0.198640 0.310010
O O13 0.250000 0.602890 0.808371
O O14 0.533896 0.551593 0.773290
O O15 0.500000 0.603253 0.000000
O O16 0.250000 0.500000 0.809103
O O17 0.000000 0.500000 0.000000
#
# Coordination Sequence:
#
# PCOD9405322 Si02
#       6
#     8   4   8   8   8   4
#     4   9  18  33  51  69  89 115 148 183 216 252
#     4  10  21  34  48  70  98 122 145 176 214 256
#     4   9  17  28  42  62  88 114 140 174 216 259
#     4   9  18  32  48  66  88 114 146 182 216 252
#     4   8  13  21  33  51  76 104 133 166 205 248
#     4   8  12  18  30  48  71 100 132 164 200 244
#
# _framework density 20.635062000000001
#
# number of rings (size 3 to 8) (size 9 to 14) (size 15 to 20)
#    0.000    3.200    0.000    0.300    0.000    2.400 
#    0.000    0.000    0.000    0.000    0.000    0.700 
#    0.000    0.000    0.000    0.000    0.000    0.000 
#
# Total GULP energy -222782.228795 kJ/mol
# GULP energy per Si atom -5569.555720 kJ/mol
# Density = 2.058810 g / cm^3
# Si number density = 20.635062 Si / 1000 Ang^3
#
#
#
# Elastic Constant Matrix: (Units=GPa)
#
#
# Indices 1 2 3 4 5 6 
#
# 1 68.2332 15.4612 -4.9601 0.0000 0.0000 0.0000
# 2 15.4612 309.6019 88.8729 0.0000 0.0000 0.0000
# 3 -4.9601 88.8729 38.1182 0.0000 0.0000 0.0000
# 4 0.0000 0.0000 0.0000 -21.2532 0.0000 0.0000
# 5 0.0000 0.0000 0.0000 0.0000 15.2147 0.0000
# 6 0.0000 0.0000 0.0000 0.0000 0.0000 10.4628
#
#
#
# Elastic Compliance Matrix: (Units=1/GPa)
#
#
# Indices 1 2 3 4 5 6 
#
# 1 0.016541 -0.004366 0.012331 0.000000 0.000000 0.000000
# 2 -0.004366 0.010918 -0.026025 0.000000 0.000000 0.000000
# 3 0.012331 -0.026025 0.088515 0.000000 0.000000 0.000000
# 4 0.000000 0.000000 0.000000 -0.047052 0.000000 0.000000
# 5 0.000000 0.000000 0.000000 0.000000 0.065726 0.000000
# 6 0.000000 0.000000 0.000000 0.000000 0.000000 0.095577
#
#
# Mechanical properties :
#
#
# Convention : Reuss Voigt Hill
#
# Bulk Modulus (GPa) = 12.52240 68.30015 40.41127
# Shear Modulus (GPa) = 17.06702 21.99015 19.52858
#
# Velocity S-wave (km/s) = 2.87903 3.26800 3.07966
# Velocity P-wave (km/s) = 4.13926 6.88554 5.68085
#
# Compressibility (1/GPa) = 0.07985692
#
# Stress axis : x y z
#
# Youngs Moduli (GPa) = 60.45471 91.58791 11.29750
#
# Poissons Ratio (x) = 0.39986 -0.13931
# Poissons Ratio (y) = 0.26394 0.29401
# Poissons Ratio (z) = -0.74549 2.38354
#
# Static dielectric constant tensor:
#      x y z
#    x 1.771060 0.000000 0.000000 
#    y 0.000000 1.837100 0.000000 
#    z 0.000000 0.000000 1.688710 
# 
# From -- ./inp_files/5546.got.cif
#   From: 2010.05.17/outbox.cif.g08.bks.cpg/sg51_3_cif.got.tgz:5546.got - 2010.06.03 11:52:47.
