data_PCOD9405201
_publ_section_title
;
Structure prediction by ZEFSAII (Michael W. Deem and Ramdas Pophale) SiO2 
 PCOD9405201
Probable space group: P M M A
;
_chemical_formula_sum "Si O2"
_cell_formula_units_Z 40
_cell_length_a 15.931812
_cell_length_b 8.528968
_cell_length_c 14.975282
_cell_angle_alpha 90.000000
_cell_angle_beta 90.000000
_cell_angle_gamma 90.000000
_cell_volume 2034.869992
_symmetry_space_group_name_H-M "P M M A"
_symmetry_group_IT_number 51
_symmetry_cell_setting 'orthorhombic'
loop_
_space_group_symop_operation_xyz
x,y,z
1/2-x,-y,z
1/2+x,-y,-z
-x,y,-z
-x,-y,-z
1/2+x,y,-z
1/2-x,y,z
x,-y,z
loop_
_atom_site_type_symbol
_atom_site_label
_atom_site_fract_x
_atom_site_fract_y
_atom_site_fract_z
Si Si1 0.412381 0.689702 0.714224
Si Si2 0.651701 0.811531 0.905755
Si Si3 0.250000 0.308861 0.601653
Si Si4 0.651873 0.688597 0.094795
Si Si5 0.250000 0.688166 0.395916
Si Si6 0.591434 0.812142 0.713508
O O1 0.414466 0.500000 0.713549
O O2 0.333597 0.740617 0.654210
O O3 0.395636 0.742132 0.816410
O O4 0.501146 0.753459 0.681961
O O5 0.750000 0.764074 0.898186
O O6 0.605523 0.757683 0.816220
O O7 0.649158 0.000000 0.908308
O O8 0.618825 0.748748 0.000034
O O9 0.250000 0.500000 0.603102
O O10 0.250000 0.258917 0.498966
O O11 0.750000 0.737271 0.102332
O O12 0.650449 0.500000 0.093737
O O13 0.250000 0.500000 0.394320
O O14 0.332327 0.748780 0.345313
O O15 0.594443 0.000000 0.712874
#
# Coordination Sequence:
#
# PCOD9405201 Si02
#       6
#     8   8   4   8   4   8
#     4  10  20  38  62  88 118 153 193 237 288 345
#     4   9  18  34  54  76 111 159 196 226 277 342
#     4   9  20  41  66  87 114 148 189 243 296 347
#     4   9  17  31  55  85 115 149 191 240 284 326
#     4  11  23  41  66  89 108 146 197 243 294 349
#     4  11  23  40  59  85 122 157 191 237 290 344
#
# _framework density 19.657276
#
# number of rings (size 3 to 8) (size 9 to 14) (size 15 to 20)
#    0.000    2.200    2.000    0.900    0.000    4.000 
#    0.000   10.500    0.000    0.000    0.000    0.000 
#    0.000    0.000    0.000    0.000    0.000    0.000 
#
# Total GULP energy -223367.329596 kJ/mol
# GULP energy per Si atom -5584.183240 kJ/mol
# Density = 1.961253 g / cm^3
# Si number density = 19.657276 Si / 1000 Ang^3
#
#
#
# Elastic Constant Matrix: (Units=GPa)
#
#
# Indices 1 2 3 4 5 6 
#
# 1 158.8633 27.9578 88.4215 0.0000 0.0000 0.0000
# 2 27.9578 19.7649 28.2444 0.0000 0.0000 0.0000
# 3 88.4215 28.2444 155.6672 0.0000 0.0000 0.0000
# 4 0.0000 0.0000 0.0000 58.6892 0.0000 0.0000
# 5 0.0000 0.0000 0.0000 0.0000 -3.1332 0.0000
# 6 0.0000 0.0000 0.0000 0.0000 0.0000 17.5392
#
#
#
# Elastic Compliance Matrix: (Units=1/GPa)
#
#
# Indices 1 2 3 4 5 6 
#
# 1 0.010107 -0.008225 -0.004248 0.000000 0.000000 0.000000
# 2 -0.008225 0.074999 -0.008936 0.000000 0.000000 0.000000
# 3 -0.004248 -0.008936 0.010458 0.000000 0.000000 0.000000
# 4 0.000000 0.000000 0.000000 0.017039 0.000000 0.000000
# 5 0.000000 0.000000 0.000000 0.000000 -0.319165 0.000000
# 6 0.000000 0.000000 0.000000 0.000000 0.000000 0.057015
#
#
# Mechanical properties :
#
#
# Convention : Reuss Voigt Hill
#
# Bulk Modulus (GPa) = 18.95908 69.28253 44.12080
# Shear Modulus (GPa) = -56.08762 27.26383 -14.41189
#
# Velocity S-wave (km/s) = -5.34740 3.72823 -2.71063
# Velocity P-wave (km/s) = 5.33484 7.33857 3.56330
#
# Compressibility (1/GPa) = 0.05274517
#
# Stress axis : x y z
#
# Youngs Moduli (GPa) = 98.94216 13.33355 95.61605
#
# Poissons Ratio (x) = 0.10967 0.40622
# Poissons Ratio (y) = 0.81382 0.85441
# Poissons Ratio (z) = 0.42036 0.11915
#
# Static dielectric constant tensor:
#      x y z
#    x 1.682550 0.000000 0.000000 
#    y 0.000000 1.670410 0.000000 
#    z 0.000000 0.000000 1.689460 
# 
# From -- ./inp_files/23795.got.cif
#   From: 2010.05.17/outbox.cif.g08.bks.cpg/sg51_12_cif.got.tgz:23795.got - 2010.06.03 11:52:47.
