data_PCOD9405480
_publ_section_title
;
Structure prediction by ZEFSAII (Michael W. Deem and Ramdas Pophale) SiO2 
 PCOD9405480
Probable space group: P M M A
;
_chemical_formula_sum "Si O2"
_cell_formula_units_Z 56
_cell_length_a 21.292535
_cell_length_b 8.725573
_cell_length_c 14.261018
_cell_angle_alpha 90.000000
_cell_angle_beta 90.000000
_cell_angle_gamma 90.000000
_cell_volume 2649.548381
_symmetry_space_group_name_H-M "P M M A"
_symmetry_group_IT_number 51
_symmetry_cell_setting 'orthorhombic'
loop_
_space_group_symop_operation_xyz
x,y,z
1/2-x,-y,z
1/2+x,-y,-z
-x,y,-z
-x,-y,-z
1/2+x,y,-z
1/2-x,y,z
x,-y,z
loop_
_atom_site_type_symbol
_atom_site_label
_atom_site_fract_x
_atom_site_fract_y
_atom_site_fract_z
Si Si1 0.321711 0.316957 0.847977
Si Si2 0.141067 0.827174 0.651986
Si Si3 0.951243 0.818253 0.080111
Si Si4 0.047360 0.321373 0.216554
Si Si5 0.675982 0.671185 0.540774
Si Si6 0.496130 0.174275 0.390797
Si Si7 0.180563 0.687251 0.246751
O O1 0.250000 0.266951 0.873715
O O2 0.323845 0.500000 0.856517
O O3 0.333573 0.271337 0.738883
O O4 0.381438 0.251086 0.906285
O O5 0.155578 0.768252 0.547942
O O6 0.065957 0.829235 0.650556
O O7 0.164757 0.000000 0.664697
O O8 0.993280 0.778018 0.170175
O O9 0.943816 0.000000 0.068979
O O10 0.000000 0.760290 0.000000
O O11 0.038511 0.500000 0.193911
O O12 0.118145 0.270775 0.189797
O O13 0.041031 0.293719 0.327680
O O14 0.750000 0.653252 0.528182
O O15 0.647138 0.500000 0.537751
O O16 0.671363 0.738907 0.645434
O O17 0.500000 0.215180 0.500000
O O18 0.469918 0.000000 0.384796
O O19 0.250000 0.735273 0.213834
O O20 0.180890 0.500000 0.250347
#
# Coordination Sequence:
#
# PCOD9405480 Si02
#       7
#     8   8   8   8   8   8   8
#     4  11  24  42  66  96 127 158 198 253 312 370
#     4  11  21  32  50  79 118 165 208 250 305 363
#     4  11  25  46  70  94 123 162 202 248 311 381
#     4  11  21  35  61  91 118 155 203 257 310 365
#     4   9  17  30  48  71 107 156 205 251 295 346
#     4  10  21  35  51  77 120 169 212 257 306 361
#     4   8  16  32  53  80 115 156 202 251 304 358
#
# _framework density 21.135679
#
# number of rings (size 3 to 8) (size 9 to 14) (size 15 to 20)
#    0.000    1.857    1.429    3.857    0.000    5.143 
#    0.000    1.429    0.000    6.000    0.000    0.000 
#    0.000    0.000    0.000    0.000    0.000    0.000 
#
# Total GULP energy -312198.625619 kJ/mol
# GULP energy per Si atom -5574.975457 kJ/mol
# Density = 2.108757 g / cm^3
# Si number density = 21.135679 Si / 1000 Ang^3
#
#
#
# Elastic Constant Matrix: (Units=GPa)
#
#
# Indices 1 2 3 4 5 6 
#
# 1 157.9691 27.2726 28.2422 0.0000 0.0000 0.0000
# 2 27.2726 23.6991 0.9044 0.0000 0.0000 0.0000
# 3 28.2422 0.9044 31.4464 0.0000 0.0000 0.0000
# 4 0.0000 0.0000 0.0000 21.3556 0.0000 0.0000
# 5 0.0000 0.0000 0.0000 0.0000 22.7785 0.0000
# 6 0.0000 0.0000 0.0000 0.0000 0.0000 -1.8054
#
#
#
# Elastic Compliance Matrix: (Units=1/GPa)
#
#
# Indices 1 2 3 4 5 6 
#
# 1 0.009706 -0.010849 -0.008405 0.000000 0.000000 0.000000
# 2 -0.010849 0.054368 0.008180 0.000000 0.000000 0.000000
# 3 -0.008405 0.008180 0.039113 0.000000 0.000000 0.000000
# 4 0.000000 0.000000 0.000000 0.046826 0.000000 0.000000
# 5 0.000000 0.000000 0.000000 0.000000 0.043901 0.000000
# 6 0.000000 0.000000 0.000000 0.000000 0.000000 -0.553887
#
#
# Mechanical properties :
#
#
# Convention : Reuss Voigt Hill
#
# Bulk Modulus (GPa) = 12.33969 36.21702 24.27835
# Shear Modulus (GPa) = -16.08696 18.91209 1.41257
#
# Velocity S-wave (km/s) = -2.76185 2.99456 0.81840
# Velocity P-wave (km/s) = 2.07832 5.39715 3.52206
#
# Compressibility (1/GPa) = 0.08103931
#
# Stress axis : x y z
#
# Youngs Moduli (GPa) = 103.02897 18.39312 25.56669
#
# Poissons Ratio (x) = 0.19954 0.21489
# Poissons Ratio (y) = 1.11774 -0.20913
# Poissons Ratio (z) = 0.86596 -0.15045
#
# Static dielectric constant tensor:
#      x y z
#    x 1.818970 0.000000 0.000000 
#    y 0.000000 2.773820 0.000000 
#    z 0.000000 0.000000 1.849080 
# 
# From -- ./inp_files/25741.got.cif
#   From: 2010.05.17/outbox.cif.g08.bks.cpg/sg51_13_cif.got.tgz:25741.got - 2010.06.03 11:52:47.
