data_PCOD9405192
_publ_section_title
;
Structure prediction by ZEFSAII (Michael W. Deem and Ramdas Pophale) SiO2 
 PCOD9405192
Probable space group: P M M A
;
_chemical_formula_sum "Si O2"
_cell_formula_units_Z 32
_cell_length_a 7.795835
_cell_length_b 7.510057
_cell_length_c 25.509231
_cell_angle_alpha 90.000000
_cell_angle_beta 90.000000
_cell_angle_gamma 90.000000
_cell_volume 1493.493162
_symmetry_space_group_name_H-M "P M M A"
_symmetry_group_IT_number 51
_symmetry_cell_setting 'orthorhombic'
loop_
_space_group_symop_operation_xyz
x,y,z
1/2-x,-y,z
1/2+x,-y,-z
-x,y,-z
-x,-y,-z
1/2+x,y,-z
1/2-x,y,z
x,-y,z
loop_
_atom_site_type_symbol
_atom_site_label
_atom_site_fract_x
_atom_site_fract_y
_atom_site_fract_z
Si Si1 0.750000 0.210011 0.634623
Si Si2 0.455823 0.203704 0.944080
Si Si3 0.750000 0.218074 0.753112
Si Si4 0.559469 0.287050 0.443032
Si Si5 0.947866 0.218044 0.170272
O O1 0.750000 0.284140 0.693464
O O2 0.582609 0.255036 0.600756
O O3 0.750000 0.000000 0.640657
O O4 0.250000 0.195523 0.941275
O O5 0.507859 0.279490 0.887697
O O6 0.524851 0.000000 0.946012
O O7 0.500000 0.288293 0.000000
O O8 0.580727 0.272559 0.785210
O O9 0.750000 0.000000 0.752984
O O10 0.500000 0.217696 0.500000
O O11 0.750000 0.219578 0.430175
O O12 0.571038 0.500000 0.448263
O O13 0.750000 0.272296 0.179366
O O14 0.947201 0.000000 0.168206
#
# Coordination Sequence:
#
# PCOD9405192 Si02
#       5
#     4   8   4   8   8
#     4  11  23  35  51  83 117 141 176 221 262 308
#     4   8  13  18  26  43  63  87 131 196 253 283
#     4   9  18  29  41  57  85 129 164 191 240 302
#     4  10  20  38  62  82 105 141 179 214 258 315
#     4   8  14  24  35  47  69 107 153 196 240 291
#
# _framework density 21.426276999999999
#
# number of rings (size 3 to 8) (size 9 to 14) (size 15 to 20)
#    0.000    3.000    1.250    1.875    1.750    2.000 
#    0.000    2.500    0.000    0.000    0.000    0.000 
#    0.000    0.000    0.000    0.000    0.000    5.000 
#
# Total GULP energy -178484.270016 kJ/mol
# GULP energy per Si atom -5577.633438 kJ/mol
# Density = 2.137751 g / cm^3
# Si number density = 21.426277 Si / 1000 Ang^3
#
#
#
# Elastic Constant Matrix: (Units=GPa)
#
#
# Indices 1 2 3 4 5 6 
#
# 1 163.5349 5.5602 125.0819 0.0000 0.0000 0.0000
# 2 5.5602 55.9919 7.4082 0.0000 0.0000 0.0000
# 3 125.0819 7.4082 248.8879 0.0000 0.0000 0.0000
# 4 0.0000 0.0000 0.0000 37.7802 0.0000 0.0000
# 5 0.0000 0.0000 0.0000 0.0000 37.3899 0.0000
# 6 0.0000 0.0000 0.0000 0.0000 0.0000 -12.6151
#
#
#
# Elastic Compliance Matrix: (Units=1/GPa)
#
#
# Indices 1 2 3 4 5 6 
#
# 1 0.009939 -0.000327 -0.004985 0.000000 0.000000 0.000000
# 2 -0.000327 0.017941 -0.000369 0.000000 0.000000 0.000000
# 3 -0.004985 -0.000369 0.006534 0.000000 0.000000 0.000000
# 4 0.000000 0.000000 0.000000 0.026469 0.000000 0.000000
# 5 0.000000 0.000000 0.000000 0.000000 0.026745 0.000000
# 6 0.000000 0.000000 0.000000 0.000000 0.000000 -0.079270
#
#
# Mechanical properties :
#
#
# Convention : Reuss Voigt Hill
#
# Bulk Modulus (GPa) = 43.38361 82.72393 63.05377
# Shear Modulus (GPa) = 182.43904 34.53529 108.48716
#
# Velocity S-wave (km/s) = 9.23754 4.01910 7.12339
# Velocity P-wave (km/s) = 11.57878 7.76080 9.85642
#
# Compressibility (1/GPa) = 0.02305018
#
# Stress axis : x y z
#
# Youngs Moduli (GPa) = 100.61286 55.73790 153.03893
#
# Poissons Ratio (x) = 0.01825 0.76294
# Poissons Ratio (y) = 0.03294 0.05655
# Poissons Ratio (z) = 0.50158 0.02059
#
# Static dielectric constant tensor:
#      x y z
#    x 1.729890 0.000000 0.000000 
#    y 0.000000 1.826440 0.000000 
#    z 0.000000 0.000000 1.787440 
# 
# From -- ./inp_files/34263.got.cif
#   From: 2010.05.17/outbox.cif.g08.bks.cpg/sg51_18_cif.got.tgz:34263.got - 2010.06.03 11:52:47.
