data_PCOD9405156
_publ_section_title
;
Structure prediction by ZEFSAII (Michael W. Deem and Ramdas Pophale) SiO2 
 PCOD9405156
Probable space group: P M M A
;
_chemical_formula_sum "Si O2"
_cell_formula_units_Z 48
_cell_length_a 14.019843
_cell_length_b 18.094365
_cell_length_c 7.867572
_cell_angle_alpha 90.000000
_cell_angle_beta 90.000000
_cell_angle_gamma 90.000000
_cell_volume 1995.846896
_symmetry_space_group_name_H-M "P M M A"
_symmetry_group_IT_number 51
_symmetry_cell_setting 'orthorhombic'
loop_
_space_group_symop_operation_xyz
x,y,z
1/2-x,-y,z
1/2+x,-y,-z
-x,y,-z
-x,-y,-z
1/2+x,y,-z
1/2-x,y,z
x,-y,z
loop_
_atom_site_type_symbol
_atom_site_label
_atom_site_fract_x
_atom_site_fract_y
_atom_site_fract_z
Si Si1 0.855229 0.000000 0.987345
Si Si2 0.367173 0.584725 0.110766
Si Si3 0.134907 0.689558 0.415242
Si Si4 0.084369 0.152614 0.863826
Si Si5 0.362139 0.318308 0.800212
Si Si6 0.859496 0.151481 0.504176
Si Si7 0.916543 0.000000 0.638605
O O1 0.935734 0.000000 0.839657
O O2 0.750000 0.000000 0.905163
O O3 0.861473 0.923569 0.090565
O O4 0.250000 0.585314 0.110616
O O5 0.397186 0.500000 0.126669
O O6 0.398769 0.635377 0.268568
O O7 0.398770 0.622809 0.935518
O O8 0.250000 0.680884 0.417890
O O9 0.099012 0.677049 0.607861
O O10 0.117655 0.776596 0.383768
O O11 0.128282 0.235100 0.873072
O O12 0.072099 0.145710 0.659660
O O13 0.000000 0.154301 0.000000
O O14 0.250000 0.332998 0.783437
O O15 0.750000 0.162994 0.439215
O O16 0.862127 0.075828 0.604161
O O17 0.000000 0.000000 0.500000
#
# Coordination Sequence:
#
# PCOD9405156 Si02
#       7
#     4   8   8   8   8   8   4
#     4  12  24  36  56  86 112 148 194 242 288 340
#     4   9  17  29  50  82 115 144 181 241 301 344
#     4   8  16  30  50  76 105 143 190 232 278 341
#     4  11  22  38  58  82 112 146 191 244 297 345
#     4   9  18  33  54  80 111 149 191 235 288 358
#     4  10  20  38  58  76 107 157 197 230 284 352
#     4  12  25  38  53  84 122 150 190 238 287 336
#
# _framework density 24.049941
#
# number of rings (size 3 to 8) (size 9 to 14) (size 15 to 20)
#    0.000    2.167    0.000    5.000    2.333    0.667 
#    0.000    3.333    0.000    0.500    0.000    4.667 
#    0.000    0.000    0.000    0.000    0.000    0.000 
#
# Total GULP energy -268362.819148 kJ/mol
# GULP energy per Si atom -5590.892066 kJ/mol
# Density = 2.399520 g / cm^3
# Si number density = 24.049941 Si / 1000 Ang^3
#
#
#
# Elastic Constant Matrix: (Units=GPa)
#
#
# Indices 1 2 3 4 5 6 
#
# 1 62.5306 16.6254 19.0992 0.0000 0.0000 0.0000
# 2 16.6254 227.9525 121.8367 0.0000 0.0000 0.0000
# 3 19.0992 121.8367 142.1594 0.0000 0.0000 0.0000
# 4 0.0000 0.0000 0.0000 40.5307 0.0000 0.0000
# 5 0.0000 0.0000 0.0000 0.0000 26.7537 0.0000
# 6 0.0000 0.0000 0.0000 0.0000 0.0000 19.6809
#
#
#
# Elastic Compliance Matrix: (Units=1/GPa)
#
#
# Indices 1 2 3 4 5 6 
#
# 1 0.016677 -0.000035 -0.002211 0.000000 0.000000 0.000000
# 2 -0.000035 0.008095 -0.006933 0.000000 0.000000 0.000000
# 3 -0.002211 -0.006933 0.013273 0.000000 0.000000 0.000000
# 4 0.000000 0.000000 0.000000 0.024673 0.000000 0.000000
# 5 0.000000 0.000000 0.000000 0.000000 0.037378 0.000000
# 6 0.000000 0.000000 0.000000 0.000000 0.000000 0.050811
#
#
# Mechanical properties :
#
#
# Convention : Reuss Voigt Hill
#
# Bulk Modulus (GPa) = 50.79274 83.08501 66.93887
# Shear Modulus (GPa) = 28.43718 35.73182 32.08450
#
# Velocity S-wave (km/s) = 3.44237 3.85870 3.65647
# Velocity P-wave (km/s) = 6.07992 7.38070 6.76166
#
# Compressibility (1/GPa) = 0.01968785
#
# Stress axis : x y z
#
# Youngs Moduli (GPa) = 59.96408 123.53219 75.33872
#
# Poissons Ratio (x) = 0.00428 0.16656
# Poissons Ratio (y) = 0.00208 0.52233
# Poissons Ratio (z) = 0.13257 0.85647
#
# Static dielectric constant tensor:
#      x y z
#    x 2.041230 0.000000 0.000000 
#    y 0.000000 1.858830 0.000000 
#    z 0.000000 0.000000 1.882000 
# 
# From -- ./inp_files/9677.got.cif
#   From: 2010.05.17/outbox.cif.g08.bks.cpg/sg51_5_cif.got.tgz:9677.got - 2010.06.03 11:52:47.
