data_PCOD9405064
_publ_section_title
;
Structure prediction by ZEFSAII (Michael W. Deem and Ramdas Pophale) SiO2 
 PCOD9405064
Probable space group: P M M A
;
_chemical_formula_sum "Si O2"
_cell_formula_units_Z 48
_cell_length_a 16.269354
_cell_length_b 7.752429
_cell_length_c 17.738678
_cell_angle_alpha 90.000000
_cell_angle_beta 90.000000
_cell_angle_gamma 90.000000
_cell_volume 2237.326449
_symmetry_space_group_name_H-M "P M M A"
_symmetry_group_IT_number 51
_symmetry_cell_setting 'orthorhombic'
loop_
_space_group_symop_operation_xyz
x,y,z
1/2-x,-y,z
1/2+x,-y,-z
-x,y,-z
-x,-y,-z
1/2+x,y,-z
1/2-x,y,z
x,-y,z
loop_
_atom_site_type_symbol
_atom_site_label
_atom_site_fract_x
_atom_site_fract_y
_atom_site_fract_z
Si Si1 0.417689 0.697036 0.843721
Si Si2 0.153183 0.294802 0.998021
Si Si3 0.155423 0.710846 0.689318
Si Si4 0.750000 0.293796 0.734297
Si Si5 0.096736 0.805749 0.162229
Si Si6 0.750000 0.711058 0.561182
Si Si7 0.087867 0.711034 0.531542
O O1 0.386136 0.500000 0.848933
O O2 0.375320 0.775302 0.770170
O O3 0.514826 0.694666 0.830740
O O4 0.396186 0.773051 0.925472
O O5 0.250000 0.273343 0.983555
O O6 0.136246 0.500000 0.007827
O O7 0.129907 0.211448 0.077199
O O8 0.250000 0.757329 0.676583
O O9 0.151163 0.500000 0.690859
O O10 0.102277 0.766306 0.617709
O O11 0.750000 0.500000 0.732309
O O12 0.669588 0.238572 0.780618
O O13 0.750000 0.231219 0.648099
O O14 0.069670 0.000000 0.176174
O O15 0.750000 0.500000 0.560732
O O16 0.833083 0.764712 0.517902
O O17 0.087668 0.500000 0.530474
O O18 0.000000 0.768388 0.500000
#
# Coordination Sequence:
#
# PCOD9405064 Si02
#       7
#     8   8   8   4   8   4   8
#     4  10  21  35  57  87 115 148 191 234 279 333
#     4  10  20  37  60  84 114 152 193 234 279 333
#     4   9  16  29  50  79 118 153 184 228 281 333
#     4  11  23  39  61  84 111 146 190 239 287 337
#     4  12  25  40  57  81 113 150 190 235 290 342
#     4   9  18  31  49  80 117 148 182 227 287 347
#     4   9  16  26  44  75 118 155 178 220 289 350
#
# _framework density 21.454180000000001
#
# number of rings (size 3 to 8) (size 9 to 14) (size 15 to 20)
#    0.000    2.000    1.667    2.750    2.333    4.667 
#    0.000    0.000    0.000    1.500    0.000    3.500 
#    0.000    0.000    0.000    0.000    0.000    0.000 
#
# Total GULP energy -268158.403052 kJ/mol
# GULP energy per Si atom -5586.633397 kJ/mol
# Density = 2.140535 g / cm^3
# Si number density = 21.454180 Si / 1000 Ang^3
#
#
#
# Elastic Constant Matrix: (Units=GPa)
#
#
# Indices 1 2 3 4 5 6 
#
# 1 83.3714 -2.9781 27.7033 0.0000 0.0000 0.0000
# 2 -2.9781 39.5498 5.4280 0.0000 0.0000 0.0000
# 3 27.7033 5.4280 129.1498 0.0000 0.0000 0.0000
# 4 0.0000 0.0000 0.0000 52.8810 0.0000 0.0000
# 5 0.0000 0.0000 0.0000 0.0000 13.2483 0.0000
# 6 0.0000 0.0000 0.0000 0.0000 0.0000 -27.4132
#
#
#
# Elastic Compliance Matrix: (Units=1/GPa)
#
#
# Indices 1 2 3 4 5 6 
#
# 1 0.012988 0.001368 -0.002844 0.000000 0.000000 0.000000
# 2 0.001368 0.025575 -0.001368 0.000000 0.000000 0.000000
# 3 -0.002844 -0.001368 0.008410 0.000000 0.000000 0.000000
# 4 0.000000 0.000000 0.000000 0.018910 0.000000 0.000000
# 5 0.000000 0.000000 0.000000 0.000000 0.075481 0.000000
# 6 0.000000 0.000000 0.000000 0.000000 0.000000 -0.036479
#
#
# Mechanical properties :
#
#
# Convention : Reuss Voigt Hill
#
# Bulk Modulus (GPa) = 24.22086 34.70860 29.46473
# Shear Modulus (GPa) = 40.21346 22.53774 31.37560
#
# Velocity S-wave (km/s) = 4.33412 3.24467 3.82834
# Velocity P-wave (km/s) = 6.02994 5.50003 5.77107
#
# Compressibility (1/GPa) = 0.04128672
#
# Stress axis : x y z
#
# Youngs Moduli (GPa) = 76.99245 39.10006 118.90012
#
# Poissons Ratio (x) = -0.05350 0.33810
# Poissons Ratio (y) = -0.10535 0.16270
# Poissons Ratio (z) = 0.21893 0.05350
#
# Static dielectric constant tensor:
#      x y z
#    x 1.633320 0.000000 0.000000 
#    y 0.000000 1.785640 0.000000 
#    z 0.000000 0.000000 1.764590 
# 
# From -- ./inp_files/29555.got.cif
#   From: 2010.05.17/outbox.cif.g08.bks.cpg/sg51_15_cif.got.tgz:29555.got - 2010.06.03 11:52:47.
