data_PCOD9405171
_publ_section_title
;
Structure prediction by ZEFSAII (Michael W. Deem and Ramdas Pophale) SiO2 
 PCOD9405171
Probable space group: P M M A
;
_chemical_formula_sum "Si O2"
_cell_formula_units_Z 40
_cell_length_a 15.928685
_cell_length_b 14.167446
_cell_length_c 7.593695
_cell_angle_alpha 90.000000
_cell_angle_beta 90.000000
_cell_angle_gamma 90.000000
_cell_volume 1713.659921
_symmetry_space_group_name_H-M "P M M A"
_symmetry_group_IT_number 51
_symmetry_cell_setting 'orthorhombic'
loop_
_space_group_symop_operation_xyz
x,y,z
1/2-x,-y,z
1/2+x,-y,-z
-x,y,-z
-x,-y,-z
1/2+x,y,-z
1/2-x,y,z
x,-y,z
loop_
_atom_site_type_symbol
_atom_site_label
_atom_site_fract_x
_atom_site_fract_y
_atom_site_fract_z
Si Si1 0.844977 0.801355 0.630430
Si Si2 0.345326 0.000000 0.443044
Si Si3 0.849812 0.396999 0.993484
Si Si4 0.589579 0.398521 0.594999
Si Si5 0.401019 0.795420 0.976155
Si Si6 0.343076 0.000000 0.857542
O O1 0.750000 0.814134 0.568061
O O2 0.875244 0.704277 0.546904
O O3 0.851067 0.791156 0.839844
O O4 0.890076 0.901669 0.601186
O O5 0.336145 0.000000 0.649706
O O6 0.250000 0.000000 0.361227
O O7 0.750000 0.393526 0.948651
O O8 0.865710 0.500000 0.077418
O O9 0.903756 0.396093 0.810541
O O10 0.872100 0.304503 0.107595
O O11 0.500000 0.401656 0.500000
O O12 0.632046 0.500000 0.550201
O O13 0.500000 0.787436 0.000000
O O14 0.384161 0.899548 0.902794
O O15 0.250000 0.000000 0.938846
#
# Coordination Sequence:
#
# PCOD9405171 Si02
#       6
#     8   4   8   8   8   4
#     4  10  20  38  60  80 108 150 193 226 270 341
#     4   9  21  37  56  80 104 137 182 231 276 323
#     4   9  18  35  58  82 110 150 195 230 270 336
#     4   9  17  29  49  80 112 139 175 226 275 315
#     4  11  22  35  55  86 116 144 185 236 287 335
#     4  11  22  39  59  80 111 149 190 237 287 335
#
# _framework density 23.341854000000001
#
# number of rings (size 3 to 8) (size 9 to 14) (size 15 to 20)
#    0.000    2.200    0.000    4.500    0.000    5.600 
#    0.000    1.500    0.000    1.200    0.000    2.800 
#    0.000    0.000    0.000    0.000    0.000    0.000 
#
# Total GULP energy -222726.279687 kJ/mol
# GULP energy per Si atom -5568.156992 kJ/mol
# Density = 2.328873 g / cm^3
# Si number density = 23.341854 Si / 1000 Ang^3
#
#
#
# Elastic Constant Matrix: (Units=GPa)
#
#
# Indices 1 2 3 4 5 6 
#
# 1 30.8761 23.3860 -21.4438 0.0000 0.0000 0.0000
# 2 23.3860 303.8115 6.9844 0.0000 0.0000 0.0000
# 3 -21.4438 6.9844 37.3865 0.0000 0.0000 0.0000
# 4 0.0000 0.0000 0.0000 -28.2578 0.0000 0.0000
# 5 0.0000 0.0000 0.0000 0.0000 -28.5266 0.0000
# 6 0.0000 0.0000 0.0000 0.0000 0.0000 27.7019
#
#
#
# Elastic Compliance Matrix: (Units=1/GPa)
#
#
# Indices 1 2 3 4 5 6 
#
# 1 0.062127 -0.005626 0.036685 0.000000 0.000000 0.000000
# 2 -0.005626 0.003815 -0.003939 0.000000 0.000000 0.000000
# 3 0.036685 -0.003939 0.048525 0.000000 0.000000 0.000000
# 4 0.000000 0.000000 0.000000 -0.035389 0.000000 0.000000
# 5 0.000000 0.000000 0.000000 0.000000 -0.035055 0.000000
# 6 0.000000 0.000000 0.000000 0.000000 0.000000 0.036099
#
#
# Mechanical properties :
#
#
# Convention : Reuss Voigt Hill
#
# Bulk Modulus (GPa) = 5.92744 43.32527 24.62636
# Shear Modulus (GPa) = 60.88839 18.39334 39.64086
#
# Velocity S-wave (km/s) = 5.11294 2.81018 4.12548
# Velocity P-wave (km/s) = 6.11564 5.39731 5.76767
#
# Compressibility (1/GPa) = 0.16870683
#
# Stress axis : x y z
#
# Youngs Moduli (GPa) = 16.09617 262.11555 20.60790
#
# Poissons Ratio (x) = 1.47455 -0.75600
# Poissons Ratio (y) = 0.09055 0.08118
# Poissons Ratio (z) = -0.59049 1.03258
#
# Static dielectric constant tensor:
#      x y z
#    x 1.866910 0.000000 0.000000 
#    y 0.000000 2.108420 0.000000 
#    z 0.000000 0.000000 1.854020 
# 
# From -- ./inp_files/7984.got.cif
#   From: 2010.05.17/outbox.cif.g08.bks.cpg/sg51_4_cif.got.tgz:7984.got - 2010.06.03 11:52:47.
