data_PCOD9405470
_publ_section_title
;
Structure prediction by ZEFSAII (Michael W. Deem and Ramdas Pophale) SiO2 
 PCOD9405470
Probable space group: P M M A
;
_chemical_formula_sum "Si O2"
_cell_formula_units_Z 56
_cell_length_a 9.160873
_cell_length_b 15.157289
_cell_length_c 20.478351
_cell_angle_alpha 90.000000
_cell_angle_beta 90.000000
_cell_angle_gamma 90.000000
_cell_volume 2843.500941
_symmetry_space_group_name_H-M "P M M A"
_symmetry_group_IT_number 51
_symmetry_cell_setting 'orthorhombic'
loop_
_space_group_symop_operation_xyz
x,y,z
1/2-x,-y,z
1/2+x,-y,-z
-x,y,-z
-x,-y,-z
1/2+x,y,-z
1/2-x,y,z
x,-y,z
loop_
_atom_site_type_symbol
_atom_site_label
_atom_site_fract_x
_atom_site_fract_y
_atom_site_fract_z
Si Si1 0.586691 0.645793 0.562888
Si Si2 0.584123 0.105855 0.302967
Si Si3 0.577218 0.106223 0.829483
Si Si4 0.415345 0.857010 0.436433
Si Si5 0.427378 0.601169 0.837586
Si Si6 0.573702 0.763400 0.070622
Si Si7 0.084445 0.394005 0.694234
O O1 0.500000 0.611151 0.500000
O O2 0.750000 0.609938 0.563896
O O3 0.594898 0.751486 0.555573
O O4 0.508055 0.629249 0.631267
O O5 0.750000 0.140637 0.300887
O O6 0.490969 0.134255 0.240204
O O7 0.504924 0.127225 0.370550
O O8 0.592075 0.000000 0.299270
O O9 0.750000 0.125490 0.831915
O O10 0.490531 0.157765 0.885419
O O11 0.559906 0.000000 0.836030
O O12 0.500000 0.891898 0.500000
O O13 0.250000 0.891601 0.431750
O O14 0.250000 0.598626 0.833962
O O15 0.476243 0.500000 0.849667
O O16 0.465762 0.671891 0.892391
O O17 0.475602 0.632829 0.765339
O O18 0.750000 0.769342 0.066469
O O19 0.500000 0.765557 0.000000
O O20 0.250000 0.360280 0.686005
O O21 0.091871 0.500000 0.698071
#
# Coordination Sequence:
#
# PCOD9405470 Si02
#       7
#     8   8   8   8   8   8   8
#     4  10  21  35  51  75 106 143 186 234 285 337
#     4  10  21  37  58  84 112 146 189 234 284 345
#     4  10  22  41  63  88 121 158 196 244 296 348
#     4  10  21  36  53  77 109 148 191 238 289 341
#     4   8  17  36  60  87 119 155 196 239 288 347
#     4  11  23  39  62  93 123 158 198 239 289 349
#     4   9  18  34  56  80 106 141 185 232 284 341
#
# _framework density 19.694030999999999
#
# number of rings (size 3 to 8) (size 9 to 14) (size 15 to 20)
#    0.000    2.286    0.000    3.000    2.000    4.857 
#    0.000    0.714    0.000    3.000    0.000    0.000 
#    0.000    0.000    0.000    0.000    0.000    0.000 
#
# Total GULP energy -312655.929675 kJ/mol
# GULP energy per Si atom -5583.141601 kJ/mol
# Density = 1.964921 g / cm^3
# Si number density = 19.694031 Si / 1000 Ang^3
#
#
#
# Elastic Constant Matrix: (Units=GPa)
#
#
# Indices 1 2 3 4 5 6 
#
# 1 141.7496 37.8440 100.3394 0.0000 0.0000 0.0000
# 2 37.8440 60.8271 44.1111 0.0000 0.0000 0.0000
# 3 100.3394 44.1111 208.0854 0.0000 0.0000 0.0000
# 4 0.0000 0.0000 0.0000 42.7585 0.0000 0.0000
# 5 0.0000 0.0000 0.0000 0.0000 34.0575 0.0000
# 6 0.0000 0.0000 0.0000 0.0000 0.0000 12.4436
#
#
#
# Elastic Compliance Matrix: (Units=1/GPa)
#
#
# Indices 1 2 3 4 5 6 
#
# 1 0.011360 -0.003657 -0.004702 0.000000 0.000000 0.000000
# 2 -0.003657 0.020604 -0.002604 0.000000 0.000000 0.000000
# 3 -0.004702 -0.002604 0.007625 0.000000 0.000000 0.000000
# 4 0.000000 0.000000 0.000000 0.023387 0.000000 0.000000
# 5 0.000000 0.000000 0.000000 0.000000 0.029362 0.000000
# 6 0.000000 0.000000 0.000000 0.000000 0.000000 0.080363
#
#
# Mechanical properties :
#
#
# Convention : Reuss Voigt Hill
#
# Bulk Modulus (GPa) = 56.62149 86.13901 71.38025
# Shear Modulus (GPa) = 24.93566 33.07643 29.00604
#
# Velocity S-wave (km/s) = 3.56216 4.10264 3.84192
# Velocity P-wave (km/s) = 6.76252 8.14099 7.48356
#
# Compressibility (1/GPa) = 0.01766114
#
# Stress axis : x y z
#
# Youngs Moduli (GPa) = 88.02953 48.53425 131.14291
#
# Poissons Ratio (x) = 0.17751 0.61669
# Poissons Ratio (y) = 0.32196 0.34151
# Poissons Ratio (z) = 0.41395 0.12639
#
# Static dielectric constant tensor:
#      x y z
#    x 1.179720 0.000000 0.000000 
#    y 0.000000 1.719160 0.000000 
#    z 0.000000 0.000000 1.664100 
# 
# From -- ./inp_files/31964.got.cif
#   From: 2010.05.17/outbox.cif.g08.bks.cpg/sg51_16_cif.got.tgz:31964.got - 2010.06.03 11:52:47.
