data_PCOD9405576
_publ_section_title
;
Structure prediction by ZEFSAII (Michael W. Deem and Ramdas Pophale) SiO2 
 PCOD9405576
Probable space group: P M M A
;
_chemical_formula_sum "Si O2"
_cell_formula_units_Z 52
_cell_length_a 7.803047
_cell_length_b 15.544960
_cell_length_c 18.844507
_cell_angle_alpha 90.000000
_cell_angle_beta 90.000000
_cell_angle_gamma 90.000000
_cell_volume 2285.802018
_symmetry_space_group_name_H-M "P M M A"
_symmetry_group_IT_number 51
_symmetry_cell_setting 'orthorhombic'
loop_
_space_group_symop_operation_xyz
x,y,z
1/2-x,-y,z
1/2+x,-y,-z
-x,y,-z
-x,-y,-z
1/2+x,y,-z
1/2-x,y,z
x,-y,z
loop_
_atom_site_type_symbol
_atom_site_label
_atom_site_fract_x
_atom_site_fract_y
_atom_site_fract_z
Si Si1 0.058278 0.396201 0.077132
Si Si2 0.250000 0.633337 0.317299
Si Si3 0.559362 0.181245 0.775491
Si Si4 0.454307 0.101034 0.920900
Si Si5 0.457541 0.279854 0.581359
Si Si6 0.044475 0.907154 0.639032
Si Si7 0.069881 0.637090 0.772131
O O1 0.250000 0.364223 0.090694
O O2 0.059772 0.500000 0.074262
O O3 0.943609 0.370725 0.143004
O O4 0.000000 0.365069 0.000000
O O5 0.406238 0.667691 0.371035
O O6 0.401419 0.600050 0.262573
O O7 0.750000 0.217769 0.761345
O O8 0.540661 0.149872 0.855605
O O9 0.524601 0.107114 0.718923
O O10 0.436918 0.260193 0.758855
O O11 0.250000 0.106700 0.911250
O O12 0.504466 0.000000 0.917465
O O13 0.500000 0.131998 0.000000
O O14 0.500000 0.299559 0.500000
O O15 0.250000 0.292545 0.594315
O O16 0.499528 0.178781 0.596273
O O17 0.250000 0.909164 0.643041
O O18 0.984502 0.000000 0.611261
O O19 0.250000 0.601297 0.747062
#
# Coordination Sequence:
#
# PCOD9405576 Si02
#       7
#     8   4   8   8   8   8   8
#     4  10  21  40  65  98 140 180 218 257 301 361
#     4  12  22  42  60  92 124 162 208 268 316 382
#     4  12  22  36  53  78 108 145 194 248 306 367
#     4  10  21  36  51  69  95 132 184 245 305 363
#     4  11  22  39  61  86 120 164 209 266 329 392
#     4  10  21  36  53  76 109 151 200 253 315 379
#     4  12  23  39  64  90 126 167 209 259 307 360
#
# _framework density 22.749124999999999
#
# number of rings (size 3 to 8) (size 9 to 14) (size 15 to 20)
#    0.000    1.077    3.846    3.231    0.000    4.923 
#    0.000    3.077    0.000    0.000    0.000    0.000 
#    0.000    2.462    0.000    0.154    0.000    0.000 
#
# Total GULP energy -289708.483160 kJ/mol
# GULP energy per Si atom -5571.316984 kJ/mol
# Density = 2.269735 g / cm^3
# Si number density = 22.749125 Si / 1000 Ang^3
#
#
#
# Elastic Constant Matrix: (Units=GPa)
#
#
# Indices 1 2 3 4 5 6 
#
# 1 171.4447 16.2990 44.5877 0.0000 0.0000 0.0000
# 2 16.2990 40.4235 6.8021 0.0000 0.0000 0.0000
# 3 44.5877 6.8021 118.3481 0.0000 0.0000 0.0000
# 4 0.0000 0.0000 0.0000 -35.8835 0.0000 0.0000
# 5 0.0000 0.0000 0.0000 0.0000 38.4261 0.0000
# 6 0.0000 0.0000 0.0000 0.0000 0.0000 718.1026
#
#
#
# Elastic Compliance Matrix: (Units=1/GPa)
#
#
# Indices 1 2 3 4 5 6 
#
# 1 0.006670 -0.002289 -0.002381 0.000000 0.000000 0.000000
# 2 -0.002289 0.025765 -0.000619 0.000000 0.000000 0.000000
# 3 -0.002381 -0.000619 0.009382 0.000000 0.000000 0.000000
# 4 0.000000 0.000000 0.000000 -0.027868 0.000000 0.000000
# 5 0.000000 0.000000 0.000000 0.000000 0.026024 0.000000
# 6 0.000000 0.000000 0.000000 0.000000 0.000000 0.001393
#
#
# Mechanical properties :
#
#
# Convention : Reuss Voigt Hill
#
# Bulk Modulus (GPa) = 32.01016 51.73263 41.87140
# Shear Modulus (GPa) = 80.18506 161.63087 120.90797
#
# Velocity S-wave (km/s) = 5.94340 8.43822 7.29820
# Velocity P-wave (km/s) = 7.82306 10.85025 9.45854
#
# Compressibility (1/GPa) = 0.03124008
#
# Stress axis : x y z
#
# Youngs Moduli (GPa) = 149.93290 38.81239 106.58315
#
# Poissons Ratio (x) = 0.08882 0.25380
# Poissons Ratio (y) = 0.34313 0.06594
# Poissons Ratio (z) = 0.35703 0.02401
#
# Static dielectric constant tensor:
#      x y z
#    x 1.824600 0.000000 0.000000 
#    y 0.000000 2.061730 0.000000 
#    z 0.000000 0.000000 1.852760 
# 
# From -- ./inp_files/27961.got.cif
#   From: 2010.05.17/outbox.cif.g08.bks.cpg/sg51_14_cif.got.tgz:27961.got - 2010.06.03 11:52:47.
