data_PCOD9405981
_publ_section_title
;
Structure prediction by ZEFSAII (Michael W. Deem and Ramdas Pophale) SiO2 
 PCOD9405981
Probable space group: P M M A
;
_chemical_formula_sum "Si O2"
_cell_formula_units_Z 48
_cell_length_a 18.340605
_cell_length_b 8.647281
_cell_length_c 15.865251
_cell_angle_alpha 90.000000
_cell_angle_beta 90.000000
_cell_angle_gamma 90.000000
_cell_volume 2516.171141
_symmetry_space_group_name_H-M "P M M A"
_symmetry_group_IT_number 51
_symmetry_cell_setting 'orthorhombic'
loop_
_space_group_symop_operation_xyz
x,y,z
1/2-x,-y,z
1/2+x,-y,-z
-x,y,-z
-x,-y,-z
1/2+x,y,-z
1/2-x,y,z
x,-y,z
loop_
_atom_site_type_symbol
_atom_site_label
_atom_site_fract_x
_atom_site_fract_y
_atom_site_fract_z
Si Si1 0.165664 0.313202 0.831662
Si Si2 0.084041 0.313005 0.660509
Si Si3 0.665270 0.814555 0.503301
Si Si4 0.834793 0.186970 0.832853
Si Si5 0.915609 0.813185 0.004587
Si Si6 0.914456 0.685472 0.668135
O O1 0.250000 0.262815 0.832122
O O2 0.164433 0.500000 0.833961
O O3 0.125751 0.264424 0.745548
O O4 0.123568 0.250931 0.912810
O O5 0.087032 0.500000 0.655481
O O6 0.122972 0.245366 0.578601
O O7 0.999317 0.266913 0.664715
O O8 0.750000 0.766142 0.499809
O O9 0.627635 0.749678 0.587105
O O10 0.662645 0.000000 0.505579
O O11 0.750000 0.233430 0.831966
O O12 0.873195 0.235017 0.919968
O O13 0.876869 0.254005 0.752904
O O14 0.837568 0.000000 0.828441
O O15 0.913948 0.000000 0.008326
O O16 0.000000 0.764167 0.000000
O O17 0.911737 0.500000 0.666911
#
# Coordination Sequence:
#
# PCOD9405981 Si02
#       6
#     8   8   8   8   8   8
#     4  10  21  37  58  84 114 149 187 230 282 334
#     4  10  22  40  60  84 115 149 186 230 280 333
#     4  11  24  40  59  85 115 148 187 230 278 333
#     4  10  21  37  56  80 113 151 189 232 282 333
#     4  10  21  37  58  84 114 150 190 232 281 334
#     4  11  23  38  59  86 113 146 189 233 279 333
#
# _framework density 19.076605000000001
#
# number of rings (size 3 to 8) (size 9 to 14) (size 15 to 20)
#    0.000    1.667    0.000    4.000    0.000   10.333 
#    0.000    0.000    0.000    0.000    0.000    0.000 
#    0.000    0.000    0.000    0.000    0.000    0.000 
#
# Total GULP energy -268392.405701 kJ/mol
# GULP energy per Si atom -5591.508452 kJ/mol
# Density = 1.903319 g / cm^3
# Si number density = 19.076605 Si / 1000 Ang^3
#
#
#
# Elastic Constant Matrix: (Units=GPa)
#
#
# Indices 1 2 3 4 5 6 
#
# 1 170.0385 37.7682 77.7719 0.0000 0.0000 0.0000
# 2 37.7682 14.6282 32.2151 0.0000 0.0000 0.0000
# 3 77.7719 32.2151 168.5995 0.0000 0.0000 0.0000
# 4 0.0000 0.0000 0.0000 36.1317 0.0000 0.0000
# 5 0.0000 0.0000 0.0000 0.0000 46.4382 0.0000
# 6 0.0000 0.0000 0.0000 0.0000 0.0000 25.9932
#
#
#
# Elastic Compliance Matrix: (Units=1/GPa)
#
#
# Indices 1 2 3 4 5 6 
#
# 1 0.013845 -0.037434 0.000766 0.000000 0.000000 0.000000
# 2 -0.037434 0.219236 -0.024623 0.000000 0.000000 0.000000
# 3 0.000766 -0.024623 0.010283 0.000000 0.000000 0.000000
# 4 0.000000 0.000000 0.000000 0.027677 0.000000 0.000000
# 5 0.000000 0.000000 0.000000 0.000000 0.021534 0.000000
# 6 0.000000 0.000000 0.000000 0.000000 0.000000 0.038472
#
#
# Mechanical properties :
#
#
# Convention : Reuss Voigt Hill
#
# Bulk Modulus (GPa) = 8.27933 72.08630 40.18281
# Shear Modulus (GPa) = 10.12375 35.41336 22.76855
#
# Velocity S-wave (km/s) = 2.30617 4.31324 3.45850
# Velocity P-wave (km/s) = 3.38241 7.91677 6.08753
#
# Compressibility (1/GPa) = 0.12078271
#
# Stress axis : x y z
#
# Youngs Moduli (GPa) = 72.22695 4.56129 97.25100
#
# Poissons Ratio (x) = 0.17075 -0.07450
# Poissons Ratio (y) = 2.70372 2.39461
# Poissons Ratio (z) = -0.05533 0.11231
#
# Static dielectric constant tensor:
#      x y z
#    x 1.648360 0.000000 0.000000 
#    y 0.000000 1.651800 0.000000 
#    z 0.000000 0.000000 1.607820 
# 
# From -- ./inp_files/24787.got.cif
#   From: 2010.05.17/outbox.cif.g08.bks.cpg/sg51_13_cif.got.tgz:24787.got - 2010.06.03 11:52:47.
