data_PCOD9405860
_publ_section_title
;
Structure prediction by ZEFSAII (Michael W. Deem and Ramdas Pophale) SiO2 
 PCOD9405860
Probable space group: P M M A
;
_chemical_formula_sum "Si O2"
_cell_formula_units_Z 56
_cell_length_a 15.629285
_cell_length_b 19.780554
_cell_length_c 8.110915
_cell_angle_alpha 90.000000
_cell_angle_beta 90.000000
_cell_angle_gamma 90.000000
_cell_volume 2507.537356
_symmetry_space_group_name_H-M "P M M A"
_symmetry_group_IT_number 51
_symmetry_cell_setting 'orthorhombic'
loop_
_space_group_symop_operation_xyz
x,y,z
1/2-x,-y,z
1/2+x,-y,-z
-x,y,-z
-x,-y,-z
1/2+x,y,-z
1/2-x,y,z
x,-y,z
loop_
_atom_site_type_symbol
_atom_site_label
_atom_site_fract_x
_atom_site_fract_y
_atom_site_fract_z
Si Si1 0.098598 0.426992 0.563529
Si Si2 0.079250 0.284826 0.593860
Si Si3 0.343896 0.838557 0.786928
Si Si4 0.654720 0.177291 0.819916
Si Si5 0.555459 0.304633 0.858202
Si Si6 0.851781 0.424994 0.048855
Si Si7 0.991746 0.077073 0.696946
O O1 0.135664 0.500000 0.502157
O O2 0.125670 0.350010 0.512990
O O3 0.120096 0.428172 0.759463
O O4 0.000000 0.429741 0.500000
O O5 0.136916 0.229406 0.681784
O O6 0.000000 0.248459 0.500000
O O7 0.018286 0.321034 0.729716
O O8 0.250000 0.864697 0.739022
O O9 0.420564 0.890202 0.760054
O O10 0.341949 0.823598 0.981485
O O11 0.750000 0.165006 0.754940
O O12 0.621910 0.252500 0.780611
O O13 0.586996 0.123410 0.754329
O O14 0.500000 0.266811 0.000000
O O15 0.599448 0.368440 0.943383
O O16 0.750000 0.411556 0.045333
O O17 0.868645 0.500000 0.978961
O O18 0.000000 0.076661 0.500000
O O19 0.980827 0.000000 0.755025
#
# Coordination Sequence:
#
# PCOD9405860 Si02
#       7
#     8   8   8   8   8   8   8
#     4   9  18  33  55  84 117 164 217 266 323 386
#     4  11  22  38  59  90 131 169 218 274 328 388
#     4  11  23  41  66  97 130 168 216 264 317 381
#     4  11  23  40  66  96 128 167 213 265 319 377
#     4  12  20  36  61  92 126 167 219 270 320 385
#     4  10  21  36  57  90 128 168 221 282 340 397
#     4  11  25  46  69  96 133 170 208 258 316 384
#
# _framework density 22.332668000000002
#
# number of rings (size 3 to 8) (size 9 to 14) (size 15 to 20)
#    0.000    1.286    4.286    1.286    0.000    4.857 
#    0.000    3.571    0.000    1.714    0.000    8.000 
#    0.000    0.000    0.000    0.000    0.000    0.000 
#
# Total GULP energy -312338.944216 kJ/mol
# GULP energy per Si atom -5577.481147 kJ/mol
# Density = 2.228184 g / cm^3
# Si number density = 22.332668 Si / 1000 Ang^3
#
#
#
# Elastic Constant Matrix: (Units=GPa)
#
#
# Indices 1 2 3 4 5 6 
#
# 1 157.7374 72.0809 16.2484 0.0000 0.0000 0.0000
# 2 72.0809 157.1738 12.7306 0.0000 0.0000 0.0000
# 3 16.2484 12.7306 23.1077 0.0000 0.0000 0.0000
# 4 0.0000 0.0000 0.0000 29.0621 0.0000 0.0000
# 5 0.0000 0.0000 0.0000 0.0000 15.1204 0.0000
# 6 0.0000 0.0000 0.0000 0.0000 0.0000 4.1810
#
#
#
# Elastic Compliance Matrix: (Units=1/GPa)
#
#
# Indices 1 2 3 4 5 6 
#
# 1 0.008349 -0.003510 -0.003937 0.000000 0.000000 0.000000
# 2 -0.003510 0.008135 -0.002014 0.000000 0.000000 0.000000
# 3 -0.003937 -0.002014 0.047153 0.000000 0.000000 0.000000
# 4 0.000000 0.000000 0.000000 0.034409 0.000000 0.000000
# 5 0.000000 0.000000 0.000000 0.000000 0.066136 0.000000
# 6 0.000000 0.000000 0.000000 0.000000 0.000000 0.239175
#
#
# Mechanical properties :
#
#
# Convention : Reuss Voigt Hill
#
# Bulk Modulus (GPa) = 22.36334 60.01539 41.18937
# Shear Modulus (GPa) = 11.43682 25.47000 18.45341
#
# Velocity S-wave (km/s) = 2.26544 3.38077 2.87766
# Velocity P-wave (km/s) = 4.10834 6.49393 5.43367
#
# Compressibility (1/GPa) = 0.04471603
#
# Stress axis : x y z
#
# Youngs Moduli (GPa) = 119.77194 122.92191 21.20744
#
# Poissons Ratio (x) = 0.43147 0.08349
# Poissons Ratio (y) = 0.42041 0.04271
# Poissons Ratio (z) = 0.47154 0.24753
#
# Static dielectric constant tensor:
#      x y z
#    x 1.818400 0.000000 0.000000 
#    y 0.000000 1.843150 0.000000 
#    z 0.000000 0.000000 2.050710 
# 
# From -- ./inp_files/8549.got.cif
#   From: 2010.05.17/outbox.cif.g08.bks.cpg/sg51_5_cif.got.tgz:8549.got - 2010.06.03 11:52:47.
