data_PCOD9405527
_publ_section_title
;
Structure prediction by ZEFSAII (Michael W. Deem and Ramdas Pophale) SiO2 
 PCOD9405527
Probable space group: P M M A
;
_chemical_formula_sum "Si O2"
_cell_formula_units_Z 48
_cell_length_a 15.995256
_cell_length_b 9.485112
_cell_length_c 18.281705
_cell_angle_alpha 90.000000
_cell_angle_beta 90.000000
_cell_angle_gamma 90.000000
_cell_volume 2773.641683
_symmetry_space_group_name_H-M "P M M A"
_symmetry_group_IT_number 51
_symmetry_cell_setting 'orthorhombic'
loop_
_space_group_symop_operation_xyz
x,y,z
1/2-x,-y,z
1/2+x,-y,-z
-x,y,-z
-x,-y,-z
1/2+x,y,-z
1/2-x,y,z
x,-y,z
loop_
_atom_site_type_symbol
_atom_site_label
_atom_site_fract_x
_atom_site_fract_y
_atom_site_fract_z
Si Si1 0.905839 0.832486 0.474092
Si Si2 0.153249 0.336266 0.828443
Si Si3 0.250000 0.668073 0.455654
Si Si4 0.750000 0.666420 0.719414
Si Si5 0.982408 0.832166 0.083968
Si Si6 0.407674 0.165170 0.222492
Si Si7 0.416310 0.836003 0.698972
O O1 0.832817 0.742267 0.511483
O O2 0.903430 0.812973 0.386625
O O3 0.000000 0.796158 0.500000
O O4 0.893150 0.000000 0.489761
O O5 0.250000 0.325654 0.848245
O O6 0.129090 0.500000 0.825638
O O7 0.095619 0.253052 0.884952
O O8 0.137833 0.265000 0.749767
O O9 0.250000 0.500000 0.471007
O O10 0.250000 0.687740 0.368128
O O11 0.750000 0.500000 0.733665
O O12 0.831677 0.738736 0.753386
O O13 0.058005 0.804257 0.140831
O O14 0.965819 0.000000 0.088895
O O15 0.000000 0.797072 0.000000
O O16 0.487376 0.185219 0.276207
O O17 0.384076 0.000000 0.226055
O O18 0.396495 0.000000 0.715523
#
# Coordination Sequence:
#
# PCOD9405527 Si02
#       7
#     8   8   4   4   8   8   8
#     4  10  21  38  59  83 110 144 190 241 291 337
#     4  10  21  35  53  81 114 148 181 215 264 325
#     4  11  25  39  53  79 116 153 190 233 285 342
#     4  11  23  37  53  77 110 147 188 225 265 324
#     4   9  19  38  61  84 110 140 179 225 272 320
#     4   9  18  35  59  83 106 139 181 226 273 319
#     4   9  19  35  57  81 106 140 185 232 276 325
#
# _framework density 17.305768
#
# number of rings (size 3 to 8) (size 9 to 14) (size 15 to 20)
#    0.000    2.333    0.000    3.000    1.167    8.000 
#    1.500    0.000    0.000    0.000    0.000    0.000 
#    0.000    0.000    0.000    0.000    0.000    0.000 
#
# Total GULP energy -267884.871362 kJ/mol
# GULP energy per Si atom -5580.934820 kJ/mol
# Density = 1.726638 g / cm^3
# Si number density = 17.305768 Si / 1000 Ang^3
#
#
#
# Elastic Constant Matrix: (Units=GPa)
#
#
# Indices 1 2 3 4 5 6 
#
# 1 109.2420 84.3474 70.4698 0.0000 0.0000 0.0000
# 2 84.3474 91.8776 79.4742 0.0000 0.0000 0.0000
# 3 70.4698 79.4742 116.1594 0.0000 0.0000 0.0000
# 4 0.0000 0.0000 0.0000 15.1948 0.0000 0.0000
# 5 0.0000 0.0000 0.0000 0.0000 8.6009 0.0000
# 6 0.0000 0.0000 0.0000 0.0000 0.0000 39.8816
#
#
#
# Elastic Compliance Matrix: (Units=1/GPa)
#
#
# Indices 1 2 3 4 5 6 
#
# 1 0.031569 -0.030416 0.001658 0.000000 0.000000 0.000000
# 2 -0.030416 0.055970 -0.019841 0.000000 0.000000 0.000000
# 3 0.001658 -0.019841 0.021178 0.000000 0.000000 0.000000
# 4 0.000000 0.000000 0.000000 0.065812 0.000000 0.000000
# 5 0.000000 0.000000 0.000000 0.000000 0.116267 0.000000
# 6 0.000000 0.000000 0.000000 0.000000 0.000000 0.025074
#
#
# Mechanical properties :
#
#
# Convention : Reuss Voigt Hill
#
# Bulk Modulus (GPa) = 86.81489 87.31799 87.06644
# Shear Modulus (GPa) = 11.99310 18.26798 15.13054
#
# Velocity S-wave (km/s) = 2.63537 3.25253 2.96007
# Velocity P-wave (km/s) = 7.71585 8.04181 7.88052
#
# Compressibility (1/GPa) = 0.01151876
#
# Stress axis : x y z
#
# Youngs Moduli (GPa) = 31.67688 17.86682 47.21922
#
# Poissons Ratio (x) = 0.54343 -0.07830
# Poissons Ratio (y) = 0.96348 0.93689
# Poissons Ratio (z) = -0.05253 0.35450
#
# Static dielectric constant tensor:
#      x y z
#    x 1.568680 0.000000 0.000000 
#    y 0.000000 1.574350 0.000000 
#    z 0.000000 0.000000 1.575690 
# 
# From -- ./inp_files/29500.got.cif
#   From: 2010.05.17/outbox.cif.g08.bks.cpg/sg51_15_cif.got.tgz:29500.got - 2010.06.03 11:52:47.
