data_PCOD9405309
_publ_section_title
;
Structure prediction by ZEFSAII (Michael W. Deem and Ramdas Pophale) SiO2 
 PCOD9405309
Probable space group: P M M A
;
_chemical_formula_sum "Si O2"
_cell_formula_units_Z 48
_cell_length_a 7.530660
_cell_length_b 32.698448
_cell_length_c 9.313884
_cell_angle_alpha 90.000000
_cell_angle_beta 90.000000
_cell_angle_gamma 90.000000
_cell_volume 2293.459127
_symmetry_space_group_name_H-M "P M M A"
_symmetry_group_IT_number 51
_symmetry_cell_setting 'orthorhombic'
loop_
_space_group_symop_operation_xyz
x,y,z
1/2-x,-y,z
1/2+x,-y,-z
-x,y,-z
-x,-y,-z
1/2+x,y,-z
1/2-x,y,z
x,-y,z
loop_
_atom_site_type_symbol
_atom_site_label
_atom_site_fract_x
_atom_site_fract_y
_atom_site_fract_z
Si Si1 0.536928 0.339653 0.831776
Si Si2 0.037031 0.248640 0.168025
Si Si3 0.963102 0.500000 0.831108
Si Si4 0.036879 0.169012 0.332024
Si Si5 0.537408 0.000000 0.829249
Si Si6 0.963144 0.419323 0.668372
Si Si7 0.963345 0.911190 0.830220
O O1 0.750000 0.338389 0.815116
O O2 0.468418 0.294136 0.795154
O O3 0.468084 0.377011 0.736484
O O4 0.500000 0.347162 0.000000
O O5 0.250000 0.249893 0.185875
O O6 0.967746 0.210780 0.260360
O O7 0.000000 0.241514 0.000000
O O8 0.750000 0.500000 0.813643
O O9 0.031136 0.458989 0.753839
O O10 0.000000 0.500000 0.000000
O O11 0.250000 0.169123 0.311581
O O12 0.967752 0.128160 0.254230
O O13 0.000000 0.168032 0.500000
O O14 0.469103 0.955792 0.778126
O O15 0.750000 0.000000 0.808480
O O16 0.500000 0.000000 0.000000
O O17 0.750000 0.418811 0.686436
O O18 0.000000 0.422387 0.500000
O O19 0.750000 0.912043 0.813958
O O20 0.000000 0.907045 0.000000
#
# Coordination Sequence:
#
# PCOD9405309 Si02
#       7
#     8   8   4   8   4   8   8
#     4   9  18  33  52  74  99 126 159 198 238 283
#     4   9  18  33  52  73  96 123 158 199 239 280
#     4  10  21  36  54  76 100 128 165 206 244 284
#     4  10  21  34  47  67  96 127 158 193 234 280
#     4   8  14  26  45  68  92 116 146 188 233 274
#     4  10  21  35  51  74 103 132 163 199 239 285
#     4   9  17  30  49  71  93 119 153 192 233 278
#
# _framework density 20.929084
#
# number of rings (size 3 to 8) (size 9 to 14) (size 15 to 20)
#    0.000    2.667    0.000    1.250    0.000    3.333 
#    0.000    0.417    0.000    0.000    0.000    0.000 
#    0.000    0.000    0.000    0.000    0.000    0.000 
#
# Total GULP energy -267859.047399 kJ/mol
# GULP energy per Si atom -5580.396821 kJ/mol
# Density = 2.088145 g / cm^3
# Si number density = 20.929084 Si / 1000 Ang^3
#
#
#
# Elastic Constant Matrix: (Units=GPa)
#
#
# Indices 1 2 3 4 5 6 
#
# 1 55.4107 12.9978 -8.3706 0.0000 0.0000 0.0000
# 2 12.9978 266.8350 140.4602 0.0000 0.0000 0.0000
# 3 -8.3706 140.4602 124.3326 0.0000 0.0000 0.0000
# 4 0.0000 0.0000 0.0000 -9.4562 0.0000 0.0000
# 5 0.0000 0.0000 0.0000 0.0000 26.0462 0.0000
# 6 0.0000 0.0000 0.0000 0.0000 0.0000 -7.6070
#
#
#
# Elastic Compliance Matrix: (Units=1/GPa)
#
#
# Indices 1 2 3 4 5 6 
#
# 1 0.019926 -0.004137 0.006015 0.000000 0.000000 0.000000
# 2 -0.004137 0.010105 -0.011694 0.000000 0.000000 0.000000
# 3 0.006015 -0.011694 0.021659 0.000000 0.000000 0.000000
# 4 0.000000 0.000000 0.000000 -0.105751 0.000000 0.000000
# 5 0.000000 0.000000 0.000000 0.000000 0.038393 0.000000
# 6 0.000000 0.000000 0.000000 0.000000 0.000000 -0.131459
#
#
# Mechanical properties :
#
#
# Convention : Reuss Voigt Hill
#
# Bulk Modulus (GPa) = 31.19356 81.86144 56.52750
# Shear Modulus (GPa) = -42.80512 21.89600 -10.45456
#
# Velocity S-wave (km/s) = -4.52735 3.23801 -2.23743
# Velocity P-wave (km/s) = 3.52028 7.29234 4.51585
#
# Compressibility (1/GPa) = 0.03205790
#
# Stress axis : x y z
#
# Youngs Moduli (GPa) = 50.18540 98.96243 46.17043
#
# Poissons Ratio (x) = 0.40940 -0.27772
# Poissons Ratio (y) = 0.20761 0.53992
# Poissons Ratio (z) = -0.30187 1.15728
#
# Static dielectric constant tensor:
#      x y z
#    x 1.760590 0.000000 0.000000 
#    y 0.000000 1.801770 0.000000 
#    z 0.000000 0.000000 1.666140 
# 
# From -- ./inp_files/6192.got.cif
#   From: 2010.05.17/outbox.cif.g08.bks.cpg/sg51_4_cif.got.tgz:6192.got - 2010.06.03 11:52:47.
