data_PCOD9405167
_publ_section_title
;
Structure prediction by ZEFSAII (Michael W. Deem and Ramdas Pophale) SiO2 
 PCOD9405167
Probable space group: P M M A
;
_chemical_formula_sum "Si O2"
_cell_formula_units_Z 52
_cell_length_a 19.072201
_cell_length_b 7.317210
_cell_length_c 19.495289
_cell_angle_alpha 90.000000
_cell_angle_beta 90.000000
_cell_angle_gamma 90.000000
_cell_volume 2720.670903
_symmetry_space_group_name_H-M "P M M A"
_symmetry_group_IT_number 51
_symmetry_cell_setting 'orthorhombic'
loop_
_space_group_symop_operation_xyz
x,y,z
1/2-x,-y,z
1/2+x,-y,-z
-x,y,-z
-x,-y,-z
1/2+x,y,-z
1/2-x,y,z
x,-y,z
loop_
_atom_site_type_symbol
_atom_site_label
_atom_site_fract_x
_atom_site_fract_y
_atom_site_fract_z
Si Si1 0.451705 0.278637 0.644084
Si Si2 0.829912 0.277499 0.456219
Si Si3 0.667718 0.000000 0.979430
Si Si4 0.458264 0.719176 0.803011
Si Si5 0.332311 0.000000 0.289367
Si Si6 0.607472 0.280264 0.604016
Si Si7 0.072808 0.000000 0.154540
Si Si8 0.329983 0.716878 0.901264
O O1 0.448858 0.500000 0.644197
O O2 0.384635 0.215042 0.601381
O O3 0.453311 0.222718 0.723474
O O4 0.525258 0.230237 0.608387
O O5 0.750000 0.216758 0.446485
O O6 0.829400 0.500000 0.454313
O O7 0.858834 0.228489 0.531331
O O8 0.617021 0.000000 0.914876
O O9 0.750000 0.000000 0.958893
O O10 0.655655 0.172863 0.029307
O O11 0.468775 0.500000 0.804916
O O12 0.386827 0.762244 0.843519
O O13 0.521910 0.825435 0.838197
O O14 0.354072 0.174659 0.335092
O O15 0.375401 0.000000 0.219327
O O16 0.250000 0.000000 0.276475
O O17 0.613151 0.500000 0.611945
O O18 0.250000 0.761101 0.879957
O O19 0.333792 0.500000 0.913470
#
# Coordination Sequence:
#
# PCOD9405167 Si02
#       8
#     8   8   4   8   4   8   4   8
#     4   9  17  32  54  80 114 153 189 231 284 338
#     4   9  17  30  53  84 114 148 193 240 287 339
#     4  10  22  41  62  84 115 153 188 232 289 340
#     4  10  21  37  59  87 119 154 191 231 280 336
#     4  12  25  39  59  84 108 144 193 238 283 340
#     4  10  20  38  59  80 110 150 190 238 290 339
#     4  12  24  40  59  83 116 150 189 238 283 339
#     4   9  19  37  61  89 119 152 190 229 274 335
#
# _framework density 19.112933000000002
#
# number of rings (size 3 to 8) (size 9 to 14) (size 15 to 20)
#    0.000    2.154    1.538    1.615    0.000    5.231 
#    0.000    6.923    0.000    2.769    0.000    0.000 
#    0.000    0.000    0.000    0.000    0.000    0.000 
#
# Total GULP energy -290495.676280 kJ/mol
# GULP energy per Si atom -5586.455313 kJ/mol
# Density = 1.906943 g / cm^3
# Si number density = 19.112933 Si / 1000 Ang^3
#
#
#
# Elastic Constant Matrix: (Units=GPa)
#
#
# Indices 1 2 3 4 5 6 
#
# 1 168.3329 38.5648 70.6331 0.0000 0.0000 0.0000
# 2 38.5648 77.3472 21.3813 0.0000 0.0000 0.0000
# 3 70.6331 21.3813 60.2721 0.0000 0.0000 0.0000
# 4 0.0000 0.0000 0.0000 93.8697 0.0000 0.0000
# 5 0.0000 0.0000 0.0000 0.0000 -47.0459 0.0000
# 6 0.0000 0.0000 0.0000 0.0000 0.0000 11.7220
#
#
#
# Elastic Compliance Matrix: (Units=1/GPa)
#
#
# Indices 1 2 3 4 5 6 
#
# 1 0.012057 -0.002334 -0.013301 0.000000 0.000000 0.000000
# 2 -0.002334 0.014786 -0.002510 0.000000 0.000000 0.000000
# 3 -0.013301 -0.002510 0.033069 0.000000 0.000000 0.000000
# 4 0.000000 0.000000 0.000000 0.010653 0.000000 0.000000
# 5 0.000000 0.000000 0.000000 0.000000 -0.021256 0.000000
# 6 0.000000 0.000000 0.000000 0.000000 0.000000 0.085310
#
#
# Mechanical properties :
#
#
# Convention : Reuss Voigt Hill
#
# Bulk Modulus (GPa) = 42.33347 63.01229 52.67288
# Shear Modulus (GPa) = 27.96674 23.40067 25.68370
#
# Velocity S-wave (km/s) = 3.82938 3.50285 3.66975
# Velocity P-wave (km/s) = 6.46138 7.02851 6.75090
#
# Compressibility (1/GPa) = 0.02362197
#
# Stress axis : x y z
#
# Youngs Moduli (GPa) = 82.94209 67.62958 30.23956
#
# Poissons Ratio (x) = 0.15788 0.40222
# Poissons Ratio (y) = 0.19363 0.07589
# Poissons Ratio (z) = 1.10322 0.16973
#
# Static dielectric constant tensor:
#      x y z
#    x 1.645160 0.000000 0.000000 
#    y 0.000000 1.699740 0.000000 
#    z 0.000000 0.000000 1.612990 
# 
# From -- ./inp_files/30139.got.cif
#   From: 2010.05.17/outbox.cif.g08.bks.cpg/sg51_16_cif.got.tgz:30139.got - 2010.06.03 11:52:47.
