data_PCOD9405670
_publ_section_title
;
Structure prediction by ZEFSAII (Michael W. Deem and Ramdas Pophale) SiO2 
 PCOD9405670
Probable space group: P M M A
;
_chemical_formula_sum "Si O2"
_cell_formula_units_Z 56
_cell_length_a 20.016624
_cell_length_b 7.696062
_cell_length_c 18.280324
_cell_angle_alpha 90.000000
_cell_angle_beta 90.000000
_cell_angle_gamma 90.000000
_cell_volume 2816.068910
_symmetry_space_group_name_H-M "P M M A"
_symmetry_group_IT_number 51
_symmetry_cell_setting 'orthorhombic'
loop_
_space_group_symop_operation_xyz
x,y,z
1/2-x,-y,z
1/2+x,-y,-z
-x,y,-z
-x,-y,-z
1/2+x,y,-z
1/2-x,y,z
x,-y,z
loop_
_atom_site_type_symbol
_atom_site_label
_atom_site_fract_x
_atom_site_fract_y
_atom_site_fract_z
Si Si1 0.910843 0.797901 0.627395
Si Si2 0.172949 0.287726 0.075273
Si Si3 0.427097 0.712390 0.786601
Si Si4 0.673036 0.712158 0.088426
Si Si5 0.325276 0.702526 0.506319
Si Si6 0.578243 0.290864 0.795533
Si Si7 0.434408 0.289824 0.620311
O O1 0.858692 0.708467 0.573489
O O2 0.901715 0.752257 0.712579
O O3 0.988223 0.758834 0.607187
O O4 0.899782 0.000000 0.617816
O O5 0.250000 0.235731 0.085307
O O6 0.171860 0.500000 0.076123
O O7 0.126863 0.225121 0.141197
O O8 0.151456 0.234817 0.993419
O O9 0.426134 0.500000 0.787019
O O10 0.374147 0.772744 0.846322
O O11 0.502105 0.768919 0.806156
O O12 0.415226 0.765591 0.702690
O O13 0.750000 0.764779 0.098757
O O14 0.672107 0.500000 0.089263
O O15 0.250000 0.776689 0.508310
O O16 0.319206 0.500000 0.526706
O O17 0.380650 0.777807 0.562030
O O18 0.577531 0.500000 0.800326
O O19 0.434086 0.500000 0.618482
#
# Coordination Sequence:
#
# PCOD9405670 Si02
#       7
#     8   8   8   8   8   8   8
#     4  11  22  35  52  73  98 129 165 204 247 292
#     4   8  14  24  39  62  92 124 155 188 232 286
#     4   8  14  24  40  64  92 121 151 186 229 275
#     4   8  13  21  35  61  97 127 149 183 235 286
#     4  10  21  36  54  76 101 129 161 198 241 289
#     4   9  17  30  47  67  92 122 159 200 239 282
#     4   9  18  34  54  75 100 130 164 198 236 289
#
# _framework density 19.885877000000001
#
# number of rings (size 3 to 8) (size 9 to 14) (size 15 to 20)
#    0.000    3.000    0.000    3.429    0.000    4.286 
#    0.000    7.143    0.000    0.000    0.000    8.000 
#    0.000    4.571    0.000    0.000    0.000    0.000 
#
# Total GULP energy -312275.538094 kJ/mol
# GULP energy per Si atom -5576.348895 kJ/mol
# Density = 1.984062 g / cm^3
# Si number density = 19.885877 Si / 1000 Ang^3
#
#
#
# Elastic Constant Matrix: (Units=GPa)
#
#
# Indices 1 2 3 4 5 6 
#
# 1 70.1844 -5.5788 54.8508 0.0000 0.0000 0.0000
# 2 -5.5788 32.8531 -9.2377 0.0000 0.0000 0.0000
# 3 54.8508 -9.2377 82.0040 0.0000 0.0000 0.0000
# 4 0.0000 0.0000 0.0000 -14.5411 0.0000 0.0000
# 5 0.0000 0.0000 0.0000 0.0000 179.0207 0.0000
# 6 0.0000 0.0000 0.0000 0.0000 0.0000 -22.5363
#
#
#
# Elastic Compliance Matrix: (Units=1/GPa)
#
#
# Indices 1 2 3 4 5 6 
#
# 1 0.029865 -0.000563 -0.020039 0.000000 0.000000 0.000000
# 2 -0.000563 0.031445 0.003919 0.000000 0.000000 0.000000
# 3 -0.020039 0.003919 0.026040 0.000000 0.000000 0.000000
# 4 0.000000 0.000000 0.000000 -0.068771 0.000000 0.000000
# 5 0.000000 0.000000 0.000000 0.000000 0.005586 0.000000
# 6 0.000000 0.000000 0.000000 0.000000 0.000000 -0.044373
#
#
# Mechanical properties :
#
#
# Convention : Reuss Voigt Hill
#
# Bulk Modulus (GPa) = 18.52465 29.45669 23.99067
# Shear Modulus (GPa) = 160.49932 38.05581 99.27757
#
# Velocity S-wave (km/s) = 8.99363 4.37934 7.07333
# Velocity P-wave (km/s) = 10.82511 6.35740 8.87692
#
# Compressibility (1/GPa) = 0.05398214
#
# Stress axis : x y z
#
# Youngs Moduli (GPa) = 33.48453 31.80172 38.40272
#
# Poissons Ratio (x) = 0.01791 0.76956
# Poissons Ratio (y) = 0.01886 -0.15050
# Poissons Ratio (z) = 0.67100 -0.12463
#
# Static dielectric constant tensor:
#      x y z
#    x 1.685020 0.000000 0.000000 
#    y 0.000000 1.727850 0.000000 
#    z 0.000000 0.000000 1.703500 
# 
# From -- ./inp_files/30489.got.cif
#   From: 2010.05.17/outbox.cif.g08.bks.cpg/sg51_16_cif.got.tgz:30489.got - 2010.06.03 11:52:47.
