data_PCOD9405318
_publ_section_title
;
Structure prediction by ZEFSAII (Michael W. Deem and Ramdas Pophale) SiO2 
 PCOD9405318
Probable space group: P M M A
;
_chemical_formula_sum "Si O2"
_cell_formula_units_Z 44
_cell_length_a 7.578653
_cell_length_b 29.543011
_cell_length_c 9.439256
_cell_angle_alpha 90.000000
_cell_angle_beta 90.000000
_cell_angle_gamma 90.000000
_cell_volume 2113.413822
_symmetry_space_group_name_H-M "P M M A"
_symmetry_group_IT_number 51
_symmetry_cell_setting 'orthorhombic'
loop_
_space_group_symop_operation_xyz
x,y,z
1/2-x,-y,z
1/2+x,-y,-z
-x,y,-z
-x,-y,-z
1/2+x,y,-z
1/2-x,y,z
x,-y,z
loop_
_atom_site_type_symbol
_atom_site_label
_atom_site_fract_x
_atom_site_fract_y
_atom_site_fract_z
Si Si1 0.038127 0.449286 0.164727
Si Si2 0.961916 0.812179 0.665289
Si Si3 0.461815 0.913282 0.334951
Si Si4 0.961985 0.000000 0.834578
Si Si5 0.538012 0.637310 0.665918
Si Si6 0.962000 0.274669 0.834006
O O1 0.250000 0.450881 0.180099
O O2 0.969994 0.500000 0.195819
O O3 0.970204 0.409175 0.264069
O O4 0.000000 0.439224 0.000000
O O5 0.750000 0.813606 0.680480
O O6 0.029761 0.862742 0.699191
O O7 0.029832 0.771664 0.763023
O O8 0.000000 0.802942 0.500000
O O9 0.500000 0.922084 0.500000
O O10 0.250000 0.911838 0.318478
O O11 0.530333 0.954421 0.240362
O O12 0.750000 0.000000 0.815596
O O13 0.000000 0.000000 0.000000
O O14 0.500000 0.640190 0.500000
O O15 0.750000 0.636868 0.682515
O O16 0.470917 0.681241 0.750352
O O17 0.750000 0.274277 0.817427
O O18 0.000000 0.277221 0.000000
#
# Coordination Sequence:
#
# PCOD9405318 Si02
#       6
#     8   8   8   4   8   8
#     4   9  18  33  52  74 100 129 162 200 241 287
#     4   9  18  33  52  74  99 126 159 199 241 286
#     4   9  18  33  52  73  97 126 161 200 240 285
#     4  10  21  34  48  70 100 130 161 200 242 284
#     4  10  21  35  51  73 100 129 163 203 243 285
#     4  10  21  35  51  73 100 129 162 200 241 287
#
# _framework density 20.819396000000001
#
# number of rings (size 3 to 8) (size 9 to 14) (size 15 to 20)
#    0.000    2.545    0.000    1.364    0.000    4.000 
#    0.000    0.000    0.000    0.000    0.000    0.000 
#    0.000    0.000    0.000    0.000    0.000    0.000 
#
# Total GULP energy -245675.175023 kJ/mol
# GULP energy per Si atom -5583.526705 kJ/mol
# Density = 2.077201 g / cm^3
# Si number density = 20.819396 Si / 1000 Ang^3
#
#
#
# Elastic Constant Matrix: (Units=GPa)
#
#
# Indices 1 2 3 4 5 6 
#
# 1 47.3205 10.5274 -7.7090 0.0000 0.0000 0.0000
# 2 10.5274 231.3647 161.8239 0.0000 0.0000 0.0000
# 3 -7.7090 161.8239 164.2180 0.0000 0.0000 0.0000
# 4 0.0000 0.0000 0.0000 40.4249 0.0000 0.0000
# 5 0.0000 0.0000 0.0000 0.0000 28.9048 0.0000
# 6 0.0000 0.0000 0.0000 0.0000 0.0000 28.5812
#
#
#
# Elastic Compliance Matrix: (Units=1/GPa)
#
#
# Indices 1 2 3 4 5 6 
#
# 1 0.023590 -0.005947 0.006967 0.000000 0.000000 0.000000
# 2 -0.005947 0.015407 -0.015462 0.000000 0.000000 0.000000
# 3 0.006967 -0.015462 0.021653 0.000000 0.000000 0.000000
# 4 0.000000 0.000000 0.000000 0.024737 0.000000 0.000000
# 5 0.000000 0.000000 0.000000 0.000000 0.034596 0.000000
# 6 0.000000 0.000000 0.000000 0.000000 0.000000 0.034988
#
#
# Mechanical properties :
#
#
# Convention : Reuss Voigt Hill
#
# Bulk Modulus (GPa) = 31.47776 85.79866 58.63821
# Shear Modulus (GPa) = 25.71443 38.13290 31.92366
#
# Velocity S-wave (km/s) = 3.51824 4.28437 3.92006
# Velocity P-wave (km/s) = 5.62639 8.11017 6.97965
#
# Compressibility (1/GPa) = 0.03176846
#
# Stress axis : x y z
#
# Youngs Moduli (GPa) = 42.39008 64.90494 46.18342
#
# Poissons Ratio (x) = 0.38596 -0.32177
# Poissons Ratio (y) = 0.25207 0.71407
# Poissons Ratio (z) = -0.29534 1.00354
#
# Static dielectric constant tensor:
#      x y z
#    x 1.756770 0.000000 0.000000 
#    y 0.000000 1.776960 0.000000 
#    z 0.000000 0.000000 1.665230 
# 
# From -- ./inp_files/5749.got.cif
#   From: 2010.05.17/outbox.cif.g08.bks.cpg/sg51_3_cif.got.tgz:5749.got - 2010.06.03 11:52:47.
