data_PCOD9405720
_publ_section_title
;
Structure prediction by ZEFSAII (Michael W. Deem and Ramdas Pophale) SiO2 
 PCOD9405720
Probable space group: P M M A
;
_chemical_formula_sum "Si O2"
_cell_formula_units_Z 48
_cell_length_a 9.362569
_cell_length_b 7.693562
_cell_length_c 31.971739
_cell_angle_alpha 90.000000
_cell_angle_beta 90.000000
_cell_angle_gamma 90.000000
_cell_volume 2302.972480
_symmetry_space_group_name_H-M "P M M A"
_symmetry_group_IT_number 51
_symmetry_cell_setting 'orthorhombic'
loop_
_space_group_symop_operation_xyz
x,y,z
1/2-x,-y,z
1/2+x,-y,-z
-x,y,-z
-x,-y,-z
1/2+x,y,-z
1/2-x,y,z
x,-y,z
loop_
_atom_site_type_symbol
_atom_site_label
_atom_site_fract_x
_atom_site_fract_y
_atom_site_fract_z
Si Si1 0.412186 0.290570 0.287909
Si Si2 0.586308 0.291426 0.367893
Si Si3 0.087242 0.790991 0.795424
Si Si4 0.912640 0.209168 0.460195
Si Si5 0.086911 0.290843 0.959641
Si Si6 0.912945 0.209205 0.875965
O O1 0.250000 0.225256 0.283889
O O2 0.405388 0.500000 0.290879
O O3 0.489997 0.225509 0.329906
O O4 0.505661 0.248600 0.247381
O O5 0.750000 0.224681 0.365121
O O6 0.593215 0.500000 0.364169
O O7 0.528796 0.251674 0.414208
O O8 0.250000 0.724718 0.795117
O O9 0.997169 0.725222 0.835135
O O10 0.094475 0.000000 0.799211
O O11 0.750000 0.275378 0.461565
O O12 0.000000 0.274712 0.500000
O O13 0.907984 0.000000 0.463128
O O14 0.250000 0.225242 0.958326
O O15 0.094161 0.500000 0.963124
O O16 0.001165 0.250164 0.917574
O O17 0.000000 0.225376 0.000000
O O18 0.750000 0.274792 0.878035
O O19 0.905612 0.000000 0.872619
#
# Coordination Sequence:
#
# PCOD9405720 Si02
#       6
#     8   8   8   8   8   8
#     4  10  21  36  54  78 107 138 173 214 260 310
#     4   9  18  33  51  71  98 132 168 207 252 302
#     4  10  21  37  57  80 106 138 176 217 261 310
#     4   9  18  32  49  70  97 128 163 204 250 301
#     4  10  21  37  57  81 109 142 180 221 265 313
#     4  10  21  37  57  81 109 141 177 218 264 313
#
# _framework density 20.842627
#
# number of rings (size 3 to 8) (size 9 to 14) (size 15 to 20)
#    0.000    2.333    0.000    2.000    0.000    6.667 
#    0.000    1.667    0.000    0.000    0.000    0.000 
#    0.000    0.000    0.000    0.000    0.000    0.000 
#
# Total GULP energy -268099.819911 kJ/mol
# GULP energy per Si atom -5585.412915 kJ/mol
# Density = 2.079519 g / cm^3
# Si number density = 20.842627 Si / 1000 Ang^3
#
#
#
# Elastic Constant Matrix: (Units=GPa)
#
#
# Indices 1 2 3 4 5 6 
#
# 1 197.5782 8.4213 137.9829 0.0000 0.0000 0.0000
# 2 8.4213 34.3566 -2.3769 0.0000 0.0000 0.0000
# 3 137.9829 -2.3769 238.8628 0.0000 0.0000 0.0000
# 4 0.0000 0.0000 0.0000 30.4722 0.0000 0.0000
# 5 0.0000 0.0000 0.0000 0.0000 43.4129 0.0000
# 6 0.0000 0.0000 0.0000 0.0000 0.0000 18.9433
#
#
#
# Elastic Compliance Matrix: (Units=1/GPa)
#
#
# Indices 1 2 3 4 5 6 
#
# 1 0.008690 -0.002479 -0.005045 0.000000 0.000000 0.000000
# 2 -0.002479 0.029834 0.001729 0.000000 0.000000 0.000000
# 3 -0.005045 0.001729 0.007118 0.000000 0.000000 0.000000
# 4 0.000000 0.000000 0.000000 0.032817 0.000000 0.000000
# 5 0.000000 0.000000 0.000000 0.000000 0.023035 0.000000
# 6 0.000000 0.000000 0.000000 0.000000 0.000000 0.052789
#
#
# Mechanical properties :
#
#
# Convention : Reuss Voigt Hill
#
# Bulk Modulus (GPa) = 29.36672 84.31690 56.84181
# Shear Modulus (GPa) = 28.21321 40.35038 34.28179
#
# Velocity S-wave (km/s) = 3.68316 4.40472 4.06000
# Velocity P-wave (km/s) = 5.67520 8.14927 7.02206
#
# Compressibility (1/GPa) = 0.03405215
#
# Stress axis : x y z
#
# Youngs Moduli (GPa) = 115.07610 33.51910 140.49363
#
# Poissons Ratio (x) = 0.08309 0.70872
# Poissons Ratio (y) = 0.28528 -0.24290
# Poissons Ratio (z) = 0.58050 -0.05795
#
# Static dielectric constant tensor:
#      x y z
#    x 1.739240 0.000000 0.000000 
#    y 0.000000 1.779150 0.000000 
#    z 0.000000 0.000000 1.704970 
# 
# From -- ./inp_files/36895.got.cif
#   From: 2010.05.17/outbox.cif.g08.bks.cpg/sg51_19_cif.got.tgz:36895.got - 2010.06.03 11:52:47.
