data_PCOD9405228
_publ_section_title
;
Structure prediction by ZEFSAII (Michael W. Deem and Ramdas Pophale) SiO2 
 PCOD9405228
Probable space group: P M M A
;
_chemical_formula_sum "Si O2"
_cell_formula_units_Z 28
_cell_length_a 8.160303
_cell_length_b 8.254447
_cell_length_c 20.237776
_cell_angle_alpha 90.000000
_cell_angle_beta 90.000000
_cell_angle_gamma 90.000000
_cell_volume 1363.192076
_symmetry_space_group_name_H-M "P M M A"
_symmetry_group_IT_number 51
_symmetry_cell_setting 'orthorhombic'
loop_
_space_group_symop_operation_xyz
x,y,z
1/2-x,-y,z
1/2+x,-y,-z
-x,y,-z
-x,-y,-z
1/2+x,y,-z
1/2-x,y,z
x,-y,z
loop_
_atom_site_type_symbol
_atom_site_label
_atom_site_fract_x
_atom_site_fract_y
_atom_site_fract_z
Si Si1 0.552155 0.322574 0.152333
Si Si2 0.443854 0.000000 0.075663
Si Si3 0.052616 0.687447 0.570360
Si Si4 0.949850 0.816330 0.289069
O O1 0.750000 0.325077 0.152388
O O2 0.494920 0.500000 0.128417
O O3 0.497737 0.295673 0.228401
O O4 0.503073 0.164618 0.111179
O O5 0.250000 0.000000 0.078228
O O6 0.500000 0.000000 0.000000
O O7 0.250000 0.689074 0.571675
O O8 0.997307 0.500000 0.571716
O O9 0.993116 0.769381 0.637733
O O10 0.000000 0.759744 0.500000
O O11 0.750000 0.810010 0.290749
O O12 0.997541 0.000000 0.273570
#
# Coordination Sequence:
#
# PCOD9405228 Si02
#       4
#     8   4   8   8
#     4  10  20  38  66  95 122 156 200 248 297 352
#     4  12  26  44  66  92 127 162 195 238 289 350
#     4   9  17  29  45  68 100 141 188 237 289 343
#     4   9  16  29  53  81 109 143 190 242 290 346
#
# _framework density 20.540025
#
# number of rings (size 3 to 8) (size 9 to 14) (size 15 to 20)
#    0.000    2.286    1.429    2.143    0.000    5.143 
#    0.000    1.429    0.000    3.429    0.000    0.000 
#    0.000    0.000    0.000    0.000    0.000    0.000 
#
# Total GULP energy -156210.249635 kJ/mol
# GULP energy per Si atom -5578.937487 kJ/mol
# Density = 2.049328 g / cm^3
# Si number density = 20.540025 Si / 1000 Ang^3
#
#
#
# Elastic Constant Matrix: (Units=GPa)
#
#
# Indices 1 2 3 4 5 6 
#
# 1 21.2757 24.8432 16.2616 0.0000 0.0000 0.0000
# 2 24.8432 155.6323 80.1165 0.0000 0.0000 0.0000
# 3 16.2616 80.1165 147.6866 0.0000 0.0000 0.0000
# 4 0.0000 0.0000 0.0000 16.8235 0.0000 0.0000
# 5 0.0000 0.0000 0.0000 0.0000 26.9361 0.0000
# 6 0.0000 0.0000 0.0000 0.0000 0.0000 8.6951
#
#
#
# Elastic Compliance Matrix: (Units=1/GPa)
#
#
# Indices 1 2 3 4 5 6 
#
# 1 0.058151 -0.008306 -0.001897 0.000000 0.000000 0.000000
# 2 -0.008306 0.010101 -0.004565 0.000000 0.000000 0.000000
# 3 -0.001897 -0.004565 0.009456 0.000000 0.000000 0.000000
# 4 0.000000 0.000000 0.000000 0.059441 0.000000 0.000000
# 5 0.000000 0.000000 0.000000 0.000000 0.037125 0.000000
# 6 0.000000 0.000000 0.000000 0.000000 0.000000 0.115007
#
#
# Mechanical properties :
#
#
# Convention : Reuss Voigt Hill
#
# Bulk Modulus (GPa) = 20.75890 63.00412 41.88151
# Shear Modulus (GPa) = 14.93095 24.04917 19.49006
#
# Velocity S-wave (km/s) = 2.69907 3.42547 3.08373
# Velocity P-wave (km/s) = 4.45441 6.81069 5.75445
#
# Compressibility (1/GPa) = 0.04817211
#
# Stress axis : x y z
#
# Youngs Moduli (GPa) = 17.19671 98.99719 105.74745
#
# Poissons Ratio (x) = 0.82225 0.20063
# Poissons Ratio (y) = 0.14283 0.48276
# Poissons Ratio (z) = 0.03263 0.45194
#
# Static dielectric constant tensor:
#      x y z
#    x 1.729700 0.000000 0.000000 
#    y 0.000000 1.750550 0.000000 
#    z 0.000000 0.000000 1.725390 
# 
# From -- ./inp_files/28724.got.cif
#   From: 2010.05.17/outbox.cif.g08.bks.cpg/sg51_15_cif.got.tgz:28724.got - 2010.06.03 11:52:47.
