data_PCOD9405182
_publ_section_title
;
Structure prediction by ZEFSAII (Michael W. Deem and Ramdas Pophale) SiO2 
 PCOD9405182
Probable space group: P M M A
;
_chemical_formula_sum "Si O2"
_cell_formula_units_Z 48
_cell_length_a 9.552255
_cell_length_b 9.545425
_cell_length_c 29.722068
_cell_angle_alpha 90.000000
_cell_angle_beta 90.000000
_cell_angle_gamma 90.000000
_cell_volume 2710.068078
_symmetry_space_group_name_H-M "P M M A"
_symmetry_group_IT_number 51
_symmetry_cell_setting 'orthorhombic'
loop_
_space_group_symop_operation_xyz
x,y,z
1/2-x,-y,z
1/2+x,-y,-z
-x,y,-z
-x,-y,-z
1/2+x,y,-z
1/2-x,y,z
x,-y,z
loop_
_atom_site_type_symbol
_atom_site_label
_atom_site_fract_x
_atom_site_fract_y
_atom_site_fract_z
Si Si1 0.913801 0.832778 0.787505
Si Si2 0.525786 0.338851 0.399378
Si Si3 0.584299 0.667226 0.953755
Si Si4 0.915334 0.168503 0.122782
Si Si5 0.250000 0.653964 0.459527
Si Si6 0.250000 0.165841 0.547730
Si Si7 0.084411 0.334424 0.301901
O O1 0.750000 0.797784 0.797663
O O2 0.954845 0.753628 0.741910
O O3 0.014103 0.797545 0.829129
O O4 0.920523 0.000000 0.780487
O O5 0.579393 0.500000 0.400878
O O6 0.382038 0.339049 0.426986
O O7 0.620895 0.229303 0.424915
O O8 0.498209 0.301316 0.347483
O O9 0.750000 0.703631 0.957253
O O10 0.576390 0.500000 0.944816
O O11 0.505119 0.752349 0.914955
O O12 0.500000 0.693607 0.000000
O O13 0.750000 0.204775 0.121210
O O14 0.926597 0.000000 0.116566
O O15 0.250000 0.500000 0.482376
O O16 0.250000 0.769831 0.497798
O O17 0.250000 0.000000 0.546288
O O18 0.250000 0.309963 0.310461
O O19 0.067389 0.500000 0.292985
#
# Coordination Sequence:
#
# PCOD9405182 Si02
#       7
#     8   8   8   8   4   4   8
#     4   9  18  33  53  77 107 144 182 222 273 329
#     4  10  20  38  61  82 107 142 183 226 272 328
#     4  10  21  37  58  84 114 149 189 236 289 338
#     4  10  21  37  56  80 113 153 193 231 272 327
#     4  10  20  38  64  84 102 140 188 226 271 328
#     4  12  26  38  50  80 118 148 178 222 275 326
#     4   9  17  33  58  85 107 132 177 231 275 323
#
# _framework density 17.711732999999999
#
# number of rings (size 3 to 8) (size 9 to 14) (size 15 to 20)
#    0.000    2.167    0.833    2.250    0.000    6.333 
#    1.500    1.667    0.000    0.000    0.000    0.000 
#    0.000    0.000    0.000    0.000    0.000    0.000 
#
# Total GULP energy -267825.673566 kJ/mol
# GULP energy per Si atom -5579.701533 kJ/mol
# Density = 1.767142 g / cm^3
# Si number density = 17.711733 Si / 1000 Ang^3
#
#
#
# Elastic Constant Matrix: (Units=GPa)
#
#
# Indices 1 2 3 4 5 6 
#
# 1 121.1680 53.6725 74.4595 0.0000 0.0000 0.0000
# 2 53.6725 64.2838 68.7267 0.0000 0.0000 0.0000
# 3 74.4595 68.7267 154.2701 0.0000 0.0000 0.0000
# 4 0.0000 0.0000 0.0000 66.8569 0.0000 0.0000
# 5 0.0000 0.0000 0.0000 0.0000 -1.7484 0.0000
# 6 0.0000 0.0000 0.0000 0.0000 0.0000 18.9526
#
#
#
# Elastic Compliance Matrix: (Units=1/GPa)
#
#
# Indices 1 2 3 4 5 6 
#
# 1 0.013747 -0.008371 -0.002906 0.000000 0.000000 0.000000
# 2 -0.008371 0.034801 -0.011463 0.000000 0.000000 0.000000
# 3 -0.002906 -0.011463 0.012991 0.000000 0.000000 0.000000
# 4 0.000000 0.000000 0.000000 0.014957 0.000000 0.000000
# 5 0.000000 0.000000 0.000000 0.000000 -0.571945 0.000000
# 6 0.000000 0.000000 0.000000 0.000000 0.000000 0.052763
#
#
# Mechanical properties :
#
#
# Convention : Reuss Voigt Hill
#
# Bulk Modulus (GPa) = 62.27065 81.49327 71.88196
# Shear Modulus (GPa) = -12.75988 26.33643 6.78828
#
# Velocity S-wave (km/s) = -2.68698 3.86028 1.95984
# Velocity P-wave (km/s) = 5.06041 8.12280 6.76711
#
# Compressibility (1/GPa) = 0.01605893
#
# Stress axis : x y z
#
# Youngs Moduli (GPa) = 72.74541 28.73504 76.97398
#
# Poissons Ratio (x) = 0.24054 0.22366
# Poissons Ratio (y) = 0.60895 0.88237
# Poissons Ratio (z) = 0.21137 0.32940
#
# Static dielectric constant tensor:
#      x y z
#    x 1.609260 0.000000 0.000000 
#    y 0.000000 1.589490 0.000000 
#    z 0.000000 0.000000 1.573350 
# 
# From -- ./inp_files/37232.got.cif
#   From: 2010.05.17/outbox.cif.g08.bks.cpg/sg51_19_cif.got.tgz:37232.got - 2010.06.03 11:52:47.
