data_PCOD9405822
_publ_section_title
;
Structure prediction by ZEFSAII (Michael W. Deem and Ramdas Pophale) SiO2 
 PCOD9405822
Probable space group: P M M A
;
_chemical_formula_sum "Si O2"
_cell_formula_units_Z 38
_cell_length_a 9.470101
_cell_length_b 10.207504
_cell_length_c 21.987106
_cell_angle_alpha 90.000000
_cell_angle_beta 90.000000
_cell_angle_gamma 90.000000
_cell_volume 2125.407652
_symmetry_space_group_name_H-M "P M M A"
_symmetry_group_IT_number 51
_symmetry_cell_setting 'orthorhombic'
loop_
_space_group_symop_operation_xyz
x,y,z
1/2-x,-y,z
1/2+x,-y,-z
-x,y,-z
-x,-y,-z
1/2+x,y,-z
1/2-x,y,z
x,-y,z
loop_
_atom_site_type_symbol
_atom_site_label
_atom_site_fract_x
_atom_site_fract_y
_atom_site_fract_z
Si Si1 0.084198 0.152042 0.351126
Si Si2 0.000000 0.794209 0.000000
Si Si3 0.417269 0.346488 0.563242
Si Si4 0.917126 0.349166 0.122535
Si Si5 0.250000 0.000000 0.027066
Si Si6 0.417127 0.851461 0.205730
O O1 0.250000 0.178436 0.364219
O O2 0.065456 0.162937 0.278353
O O3 0.985495 0.251191 0.387150
O O4 0.055944 0.000000 0.367585
O O5 0.052802 0.705492 0.944472
O O6 0.126233 0.886061 0.023669
O O7 0.500000 0.325800 0.500000
O O8 0.250000 0.322389 0.555773
O O9 0.435405 0.500000 0.580039
O O10 0.750000 0.341844 0.134163
O O11 0.962466 0.500000 0.128076
O O12 0.997670 0.256098 0.169485
O O13 0.250000 0.841591 0.192403
O O14 0.461124 0.000000 0.188598
#
# Coordination Sequence:
#
# PCOD9405822 Si02
#       6
#     8   4   8   8   2   8
#     4   9  19  38  59  84 114 147 186 234 284 333
#     4  11  23  42  60  90 114 148 186 240 282 342
#     4  10  21  36  56  83 114 151 192 233 278 333
#     4  11  25  41  57  82 119 153 185 230 286 338
#     4  10  24  38  66  90 112 142 194 230 286 342
#     4   9  21  39  62  85 111 146 191 236 278 334
#
# _framework density 17.878923
#
# number of rings (size 3 to 8) (size 9 to 14) (size 15 to 20)
#    0.000    2.105    1.053    2.211    4.421    4.632 
#    0.000    6.316    0.000    0.000    0.000    0.000 
#    0.000    0.000    0.000    0.000    0.000    0.000 
#
# Total GULP energy -211664.968016 kJ/mol
# GULP energy per Si atom -5570.130737 kJ/mol
# Density = 1.783823 g / cm^3
# Si number density = 17.878923 Si / 1000 Ang^3
#
#
#
# Elastic Constant Matrix: (Units=GPa)
#
#
# Indices 1 2 3 4 5 6 
#
# 1 89.6055 83.9618 44.7793 0.0000 0.0000 0.0000
# 2 83.9618 163.0748 74.6515 0.0000 0.0000 0.0000
# 3 44.7793 74.6515 58.1180 0.0000 0.0000 0.0000
# 4 0.0000 0.0000 0.0000 -9.3340 0.0000 0.0000
# 5 0.0000 0.0000 0.0000 0.0000 21.2313 0.0000
# 6 0.0000 0.0000 0.0000 0.0000 0.0000 35.8347
#
#
#
# Elastic Compliance Matrix: (Units=1/GPa)
#
#
# Indices 1 2 3 4 5 6 
#
# 1 0.022374 -0.008806 -0.005928 0.000000 0.000000 0.000000
# 2 -0.008806 0.018350 -0.016785 0.000000 0.000000 0.000000
# 3 -0.005928 -0.016785 0.043334 0.000000 0.000000 0.000000
# 4 0.000000 0.000000 0.000000 -0.107135 0.000000 0.000000
# 5 0.000000 0.000000 0.000000 0.000000 0.047100 0.000000
# 6 0.000000 0.000000 0.000000 0.000000 0.000000 0.027906
#
#
# Mechanical properties :
#
#
# Convention : Reuss Voigt Hill
#
# Bulk Modulus (GPa) = 47.57403 79.73150 63.65277
# Shear Modulus (GPa) = 40.99277 16.70677 28.84977
#
# Velocity S-wave (km/s) = 4.79351 3.06018 4.02135
# Velocity P-wave (km/s) = 7.56993 7.56163 7.56578
#
# Compressibility (1/GPa) = 0.02101987
#
# Stress axis : x y z
#
# Youngs Moduli (GPa) = 44.69563 54.49627 23.07664
#
# Poissons Ratio (x) = 0.47989 0.13679
# Poissons Ratio (y) = 0.39359 0.38735
# Poissons Ratio (z) = 0.26494 0.91473
#
# Static dielectric constant tensor:
#      x y z
#    x 1.589520 0.000000 0.000000 
#    y 0.000000 1.589850 0.000000 
#    z 0.000000 0.000000 1.603150 
# 
# From -- ./inp_files/34383.got.cif
#   From: 2010.05.17/outbox.cif.g08.bks.cpg/sg51_18_cif.got.tgz:34383.got - 2010.06.03 11:52:47.
