data_PCOD9405835
_publ_section_title
;
Structure prediction by ZEFSAII (Michael W. Deem and Ramdas Pophale) SiO2 
 PCOD9405835
Probable space group: P M M A
;
_chemical_formula_sum "Si O2"
_cell_formula_units_Z 48
_cell_length_a 9.711763
_cell_length_b 20.327922
_cell_length_c 11.345588
_cell_angle_alpha 90.000000
_cell_angle_beta 90.000000
_cell_angle_gamma 90.000000
_cell_volume 2239.845538
_symmetry_space_group_name_H-M "P M M A"
_symmetry_group_IT_number 51
_symmetry_cell_setting 'orthorhombic'
loop_
_space_group_symop_operation_xyz
x,y,z
1/2-x,-y,z
1/2+x,-y,-z
-x,y,-z
-x,-y,-z
1/2+x,y,-z
1/2-x,y,z
x,-y,z
loop_
_atom_site_type_symbol
_atom_site_label
_atom_site_fract_x
_atom_site_fract_y
_atom_site_fract_z
Si Si1 0.589687 0.391867 0.888239
Si Si2 0.902565 0.238835 0.857141
Si Si3 0.593438 0.928239 0.677720
Si Si4 0.395863 0.215631 0.414088
Si Si5 0.414359 0.886220 0.890225
Si Si6 0.591018 0.420688 0.615311
O O1 0.750000 0.413828 0.896401
O O2 0.588592 0.312550 0.901275
O O3 0.543907 0.405098 0.751476
O O4 0.500000 0.417448 0.000000
O O5 0.750000 0.211114 0.891923
O O6 0.899696 0.243229 0.715961
O O7 0.028156 0.189295 0.882258
O O8 0.750000 0.924189 0.729842
O O9 0.582579 0.862738 0.601116
O O10 0.476257 0.920962 0.775277
O O11 0.584216 0.000000 0.620352
O O12 0.500000 0.247954 0.500000
O O13 0.250000 0.224360 0.471167
O O14 0.250000 0.890855 0.897979
O O15 0.500000 0.914511 0.000000
O O16 0.500000 0.400708 0.500000
O O17 0.750000 0.395896 0.604977
O O18 0.595310 0.500000 0.610774
#
# Coordination Sequence:
#
# PCOD9405835 Si02
#       6
#     8   8   8   8   8   8
#     4  10  21  36  56  84 117 152 191 238 288 339
#     4   9  19  36  53  72 103 139 175 217 266 319
#     4   9  19  36  53  69  94 128 165 207 257 313
#     4   9  18  32  50  72  98 129 165 209 261 316
#     4  11  21  33  51  73  97 127 163 205 256 314
#     4   9  19  37  59  84 117 157 199 241 286 337
#
# _framework density 21.430049
#
# number of rings (size 3 to 8) (size 9 to 14) (size 15 to 20)
#    0.000    2.500    0.000    3.000    0.000    7.333 
#    0.000    0.000    0.000    0.000    0.000    0.000 
#    0.000    0.000    0.000    0.000    0.000    0.000 
#
# Total GULP energy -267328.066829 kJ/mol
# GULP energy per Si atom -5569.334726 kJ/mol
# Density = 2.138127 g / cm^3
# Si number density = 21.430049 Si / 1000 Ang^3
#
#
#
# Elastic Constant Matrix: (Units=GPa)
#
#
# Indices 1 2 3 4 5 6 
#
# 1 157.4155 10.9324 93.7688 0.0000 0.0000 0.0000
# 2 10.9324 72.7363 0.5416 0.0000 0.0000 0.0000
# 3 93.7688 0.5416 119.7519 0.0000 0.0000 0.0000
# 4 0.0000 0.0000 0.0000 -40.7370 0.0000 0.0000
# 5 0.0000 0.0000 0.0000 0.0000 36.5915 0.0000
# 6 0.0000 0.0000 0.0000 0.0000 0.0000 5.3563
#
#
#
# Elastic Compliance Matrix: (Units=1/GPa)
#
#
# Indices 1 2 3 4 5 6 
#
# 1 0.012125 -0.001752 -0.009486 0.000000 0.000000 0.000000
# 2 -0.001752 0.014002 0.001308 0.000000 0.000000 0.000000
# 3 -0.009486 0.001308 0.015773 0.000000 0.000000 0.000000
# 4 0.000000 0.000000 0.000000 -0.024548 0.000000 0.000000
# 5 0.000000 0.000000 0.000000 0.000000 0.027329 0.000000
# 6 0.000000 0.000000 0.000000 0.000000 0.000000 0.186697
#
#
# Mechanical properties :
#
#
# Convention : Reuss Voigt Hill
#
# Bulk Modulus (GPa) = 45.37173 62.26549 53.81861
# Shear Modulus (GPa) = 19.33607 16.55288 17.94448
#
# Velocity S-wave (km/s) = 3.00707 2.78225 2.89684
# Velocity P-wave (km/s) = 5.76841 6.28009 6.02968
#
# Compressibility (1/GPa) = 0.02204016
#
# Stress axis : x y z
#
# Youngs Moduli (GPa) = 82.47391 71.41917 63.40071
#
# Poissons Ratio (x) = 0.12511 0.60144
# Poissons Ratio (y) = 0.14448 -0.08295
# Poissons Ratio (z) = 0.78237 -0.09344
#
# Static dielectric constant tensor:
#      x y z
#    x 1.786330 0.000000 0.000000 
#    y 0.000000 1.810020 0.000000 
#    z 0.000000 0.000000 1.817210 
# 
# From -- ./inp_files/14424.got.cif
#   From: 2010.05.17/outbox.cif.g08.bks.cpg/sg51_8_cif.got.tgz:14424.got - 2010.06.03 11:52:47.
