data_PCOD9405792
_publ_section_title
;
Structure prediction by ZEFSAII (Michael W. Deem and Ramdas Pophale) SiO2 
 PCOD9405792
Probable space group: P M M A
;
_chemical_formula_sum "Si O2"
_cell_formula_units_Z 44
_cell_length_a 9.556268
_cell_length_b 7.943958
_cell_length_c 30.558391
_cell_angle_alpha 90.000000
_cell_angle_beta 90.000000
_cell_angle_gamma 90.000000
_cell_volume 2319.827774
_symmetry_space_group_name_H-M "P M M A"
_symmetry_group_IT_number 51
_symmetry_cell_setting 'orthorhombic'
loop_
_space_group_symop_operation_xyz
x,y,z
1/2-x,-y,z
1/2+x,-y,-z
-x,y,-z
-x,-y,-z
1/2+x,y,-z
1/2-x,y,z
x,-y,z
loop_
_atom_site_type_symbol
_atom_site_label
_atom_site_fract_x
_atom_site_fract_y
_atom_site_fract_z
Si Si1 0.590542 0.199637 0.621808
Si Si2 0.082992 0.500000 0.045108
Si Si3 0.090967 0.299195 0.280548
Si Si4 0.916729 0.198453 0.888452
Si Si5 0.091272 0.797845 0.802603
Si Si6 0.407747 0.299086 0.540139
O O1 0.750000 0.266687 0.616536
O O2 0.546312 0.236366 0.671595
O O3 0.487438 0.270660 0.585537
O O4 0.595203 0.000000 0.615927
O O5 0.250000 0.500000 0.037086
O O6 0.050911 0.331626 0.073312
O O7 0.000000 0.500000 0.000000
O O8 0.250000 0.235121 0.272530
O O9 0.096464 0.500000 0.282470
O O10 0.989329 0.249870 0.241459
O O11 0.750000 0.209649 0.879555
O O12 0.002476 0.250857 0.845344
O O13 0.946747 0.000000 0.898614
O O14 0.250000 0.731656 0.803588
O O15 0.097927 0.000000 0.803745
O O16 0.500000 0.230048 0.500000
O O17 0.250000 0.230204 0.540501
O O18 0.397422 0.500000 0.533800
#
# Coordination Sequence:
#
# PCOD9405792 Si02
#       6
#     8   4   8   8   8   8
#     4  10  21  37  57  80 107 141 181 224 270 323
#     4  10  22  38  58  86 116 150 194 240 289 346
#     4  10  21  36  56  81 109 145 186 226 272 329
#     4   9  19  37  59  82 113 153 194 238 286 341
#     4  10  21  36  55  82 114 147 185 231 283 335
#     4  10  21  37  58  82 107 138 176 220 271 326
#
# _framework density 18.966926000000001
#
# number of rings (size 3 to 8) (size 9 to 14) (size 15 to 20)
#    0.000    2.182    0.000    2.182    1.273    6.545 
#    0.000    0.000    0.000    0.000    0.000    0.000 
#    0.000    0.000    0.000    0.000    0.000    0.000 
#
# Total GULP energy -245611.014702 kJ/mol
# GULP energy per Si atom -5582.068516 kJ/mol
# Density = 1.892376 g / cm^3
# Si number density = 18.966926 Si / 1000 Ang^3
#
#
#
# Elastic Constant Matrix: (Units=GPa)
#
#
# Indices 1 2 3 4 5 6 
#
# 1 115.8022 35.9536 111.1085 0.0000 0.0000 0.0000
# 2 35.9536 42.3595 34.9628 0.0000 0.0000 0.0000
# 3 111.1085 34.9628 164.7742 0.0000 0.0000 0.0000
# 4 0.0000 0.0000 0.0000 43.3690 0.0000 0.0000
# 5 0.0000 0.0000 0.0000 0.0000 37.6776 0.0000
# 6 0.0000 0.0000 0.0000 0.0000 0.0000 18.7924
#
#
#
# Elastic Compliance Matrix: (Units=1/GPa)
#
#
# Indices 1 2 3 4 5 6 
#
# 1 0.027400 -0.009707 -0.016417 0.000000 0.000000 0.000000
# 2 -0.009707 0.032058 -0.000257 0.000000 0.000000 0.000000
# 3 -0.016417 -0.000257 0.017193 0.000000 0.000000 0.000000
# 4 0.000000 0.000000 0.000000 0.023058 0.000000 0.000000
# 5 0.000000 0.000000 0.000000 0.000000 0.026541 0.000000
# 6 0.000000 0.000000 0.000000 0.000000 0.000000 0.053213
#
#
# Mechanical properties :
#
#
# Convention : Reuss Voigt Hill
#
# Bulk Modulus (GPa) = 41.85625 76.33175 59.09400
# Shear Modulus (GPa) = 20.81702 29.36187 25.08945
#
# Velocity S-wave (km/s) = 3.31651 3.93880 3.64098
# Velocity P-wave (km/s) = 6.06478 7.81138 6.99282
#
# Compressibility (1/GPa) = 0.02389129
#
# Stress axis : x y z
#
# Youngs Moduli (GPa) = 36.49607 31.19315 58.16222
#
# Poissons Ratio (x) = 0.30278 0.95482
# Poissons Ratio (y) = 0.35425 0.01496
# Poissons Ratio (z) = 0.59914 0.00802
#
# Static dielectric constant tensor:
#      x y z
#    x 1.669990 0.000000 0.000000 
#    y 0.000000 1.677050 0.000000 
#    z 0.000000 0.000000 1.619240 
# 
# From -- ./inp_files/36824.got.cif
#   From: 2010.05.17/outbox.cif.g08.bks.cpg/sg51_19_cif.got.tgz:36824.got - 2010.06.03 11:52:47.
