data_PCOD9405290
_publ_section_title
;
Structure prediction by ZEFSAII (Michael W. Deem and Ramdas Pophale) SiO2 
 PCOD9405290
Probable space group: P M M A
;
_chemical_formula_sum "Si O2"
_cell_formula_units_Z 64
_cell_length_a 30.460954
_cell_length_b 8.764521
_cell_length_c 15.303689
_cell_angle_alpha 90.000000
_cell_angle_beta 90.000000
_cell_angle_gamma 90.000000
_cell_volume 4085.712640
_symmetry_space_group_name_H-M "P M M A"
_symmetry_group_IT_number 51
_symmetry_cell_setting 'orthorhombic'
loop_
_space_group_symop_operation_xyz
x,y,z
1/2-x,-y,z
1/2+x,-y,-z
-x,y,-z
-x,-y,-z
1/2+x,y,-z
1/2-x,y,z
x,-y,z
loop_
_atom_site_type_symbol
_atom_site_label
_atom_site_fract_x
_atom_site_fract_y
_atom_site_fract_z
Si Si1 0.883711 0.681661 0.203895
Si Si2 0.391046 0.682759 0.457367
Si Si3 0.799476 0.817059 0.291726
Si Si4 0.537751 0.183576 0.671795
Si Si5 0.799539 0.816280 0.497701
Si Si6 0.970501 0.185151 0.871407
Si Si7 0.434596 0.183887 0.948927
Si Si8 0.556184 0.315777 0.366679
O O1 0.885478 0.500000 0.201098
O O2 0.836607 0.736139 0.236570
O O3 0.896720 0.748489 0.110495
O O4 0.918741 0.733210 0.278202
O O5 0.391267 0.500000 0.452204
O O6 0.421457 0.752192 0.382160
O O7 0.341201 0.742453 0.455600
O O8 0.414098 0.726367 0.549839
O O9 0.750000 0.776759 0.264626
O O10 0.803795 0.778291 0.394502
O O11 0.804327 0.000000 0.284839
O O12 0.539049 0.235904 0.773264
O O13 0.491971 0.243280 0.631494
O O14 0.537974 0.000000 0.669444
O O15 0.750000 0.770076 0.525322
O O16 0.801976 0.000000 0.505310
O O17 0.019388 0.229085 0.902526
O O18 0.969904 0.000000 0.870483
O O19 0.938248 0.233290 0.949982
O O20 0.432260 0.000000 0.947121
O O21 0.551891 0.500000 0.366232
#
# Coordination Sequence:
#
# PCOD9405290 Si02
#       8
#     8   8   8   8   8   8   8   8
#     4  11  20  30  46  72 101 130 161 195 237 287
#     4  11  22  35  48  67  98 136 166 195 239 291
#     4   9  18  32  50  71  95 125 161 200 240 283
#     4  11  21  33  50  71  93 126 170 211 243 279
#     4   9  18  33  52  73  95 120 158 207 245 277
#     4   8  16  30  49  70  92 119 158 203 244 279
#     4   9  16  31  51  69  91 123 159 197 238 285
#     4  10  21  34  44  63  99 137 167 195 232 282
#
# _framework density 15.664343000000001
#
# number of rings (size 3 to 8) (size 9 to 14) (size 15 to 20)
#    0.000    2.250    2.500    3.000    0.000    3.500 
#    0.000    3.750    0.000    0.000    0.000    0.875 
#    0.000    7.000    0.000    0.000    0.000    0.000 
#
# Total GULP energy -356910.518434 kJ/mol
# GULP energy per Si atom -5576.726851 kJ/mol
# Density = 1.562869 g / cm^3
# Si number density = 15.664343 Si / 1000 Ang^3
#
#
#
# Elastic Constant Matrix: (Units=GPa)
#
#
# Indices 1 2 3 4 5 6 
#
# 1 121.5014 32.2566 47.1768 0.0000 0.0000 0.0000
# 2 32.2566 20.3038 20.0766 0.0000 0.0000 0.0000
# 3 47.1768 20.0766 71.0943 0.0000 0.0000 0.0000
# 4 0.0000 0.0000 0.0000 13.6889 0.0000 0.0000
# 5 0.0000 0.0000 0.0000 0.0000 22.2855 0.0000
# 6 0.0000 0.0000 0.0000 0.0000 0.0000 -19.7112
#
#
#
# Elastic Compliance Matrix: (Units=1/GPa)
#
#
# Indices 1 2 3 4 5 6 
#
# 1 0.015221 -0.019693 -0.004539 0.000000 0.000000 0.000000
# 2 -0.019693 0.093812 -0.013424 0.000000 0.000000 0.000000
# 3 -0.004539 -0.013424 0.020869 0.000000 0.000000 0.000000
# 4 0.000000 0.000000 0.000000 0.073052 0.000000 0.000000
# 5 0.000000 0.000000 0.000000 0.000000 0.044872 0.000000
# 6 0.000000 0.000000 0.000000 0.000000 0.000000 -0.050732
#
#
# Mechanical properties :
#
#
# Convention : Reuss Voigt Hill
#
# Bulk Modulus (GPa) = 18.31861 45.76883 32.04372
# Shear Modulus (GPa) = 17.20565 10.81193 14.00879
#
# Velocity S-wave (km/s) = 3.31780 2.63006 2.99375
# Velocity P-wave (km/s) = 5.13779 6.20523 5.69657
#
# Compressibility (1/GPa) = 0.05458928
#
# Stress axis : x y z
#
# Youngs Moduli (GPa) = 65.69846 10.65963 47.91867
#
# Poissons Ratio (x) = 0.20992 0.21751
# Poissons Ratio (y) = 1.29382 0.64325
# Poissons Ratio (z) = 0.29822 0.14309
#
# Static dielectric constant tensor:
#      x y z
#    x 1.509240 0.000000 0.000000 
#    y 0.000000 1.525680 0.000000 
#    z 0.000000 0.000000 1.523130 
# 
# From -- ./inp_files/26723.got.cif
#   From: 2010.05.17/outbox.cif.g08.bks.cpg/sg51_14_cif.got.tgz:26723.got - 2010.06.03 11:52:47.
