data_PCOD9405255
_publ_section_title
;
Structure prediction by ZEFSAII (Michael W. Deem and Ramdas Pophale) SiO2 
 PCOD9405255
Probable space group: P M M A
;
_chemical_formula_sum "Si O2"
_cell_formula_units_Z 64
_cell_length_a 31.963901
_cell_length_b 9.604869
_cell_length_c 10.431005
_cell_angle_alpha 90.000000
_cell_angle_beta 90.000000
_cell_angle_gamma 90.000000
_cell_volume 3202.413268
_symmetry_space_group_name_H-M "P M M A"
_symmetry_group_IT_number 51
_symmetry_cell_setting 'orthorhombic'
loop_
_space_group_symop_operation_xyz
x,y,z
1/2-x,-y,z
1/2+x,-y,-z
-x,y,-z
-x,-y,-z
1/2+x,y,-z
1/2-x,y,z
x,-y,z
loop_
_atom_site_type_symbol
_atom_site_label
_atom_site_fract_x
_atom_site_fract_y
_atom_site_fract_z
Si Si1 0.998502 0.162297 0.753567
Si Si2 0.201737 0.163572 0.845552
Si Si3 0.332405 0.332618 0.621181
Si Si4 0.356749 0.666657 0.039760
Si Si5 0.953049 0.656101 0.941618
Si Si6 0.855526 0.662033 0.664958
Si Si7 0.049409 0.652256 0.423562
Si Si8 0.925711 0.344985 0.280277
O O1 0.962995 0.213902 0.850824
O O2 0.979831 0.225682 0.623830
O O3 0.042879 0.236012 0.783503
O O4 0.003913 0.000000 0.751262
O O5 0.250000 0.171855 0.887986
O O6 0.197792 0.240677 0.708025
O O7 0.190224 0.000000 0.834977
O O8 0.172206 0.244845 0.945509
O O9 0.323814 0.500000 0.623126
O O10 0.336188 0.285936 0.471336
O O11 0.377087 0.315575 0.695379
O O12 0.347816 0.500000 0.028787
O O13 0.406218 0.682765 0.004303
O O14 0.349051 0.712502 0.188884
O O15 0.947070 0.500000 0.883426
O O16 0.000000 0.643798 0.000000
O O17 0.843105 0.500000 0.668576
O O18 0.905228 0.667090 0.640593
O O19 0.031488 0.500000 0.388305
O O20 0.058291 0.650020 0.573265
O O21 0.931263 0.500000 0.222669
#
# Coordination Sequence:
#
# PCOD9405255 Si02
#       8
#     8   8   8   8   8   8   8   8
#     4  12  23  31  45  74 115 157 199 248 297 351
#     4  11  26  46  65  90 129 170 202 242 307 382
#     4   9  19  38  66  94 118 151 201 256 307 366
#     4  10  20  39  69  97 124 162 212 270 317 363
#     4  10  22  39  59  82 113 159 213 260 306 364
#     4   8  15  33  62  94 121 149 194 256 320 368
#     4   9  16  32  53  73 106 154 202 248 296 352
#     4   9  19  33  53  78 108 152 202 248 299 353
#
# _framework density 19.984926999999999
#
# number of rings (size 3 to 8) (size 9 to 14) (size 15 to 20)
#    0.000    2.250    1.250    3.375    1.750    4.250 
#    0.000    3.125    0.000    3.750    0.000    0.000 
#    0.000    0.000    0.000    0.000    0.000    0.000 
#
# Total GULP energy -356370.647519 kJ/mol
# GULP energy per Si atom -5568.291367 kJ/mol
# Density = 1.993944 g / cm^3
# Si number density = 19.984927 Si / 1000 Ang^3
#
#
#
# Elastic Constant Matrix: (Units=GPa)
#
#
# Indices 1 2 3 4 5 6 
#
# 1 83.8302 51.1394 50.5388 0.0000 0.0000 0.0000
# 2 51.1394 107.6718 41.0419 0.0000 0.0000 0.0000
# 3 50.5388 41.0419 109.6758 0.0000 0.0000 0.0000
# 4 0.0000 0.0000 0.0000 49.5872 0.0000 0.0000
# 5 0.0000 0.0000 0.0000 0.0000 26.9476 0.0000
# 6 0.0000 0.0000 0.0000 0.0000 0.0000 25.6246
#
#
#
# Elastic Compliance Matrix: (Units=1/GPa)
#
#
# Indices 1 2 3 4 5 6 
#
# 1 0.020288 -0.007083 -0.006698 0.000000 0.000000 0.000000
# 2 -0.007083 0.013305 -0.001715 0.000000 0.000000 0.000000
# 3 -0.006698 -0.001715 0.012846 0.000000 0.000000 0.000000
# 4 0.000000 0.000000 0.000000 0.020166 0.000000 0.000000
# 5 0.000000 0.000000 0.000000 0.000000 0.037109 0.000000
# 6 0.000000 0.000000 0.000000 0.000000 0.000000 0.039025
#
#
# Mechanical properties :
#
#
# Convention : Reuss Voigt Hill
#
# Bulk Modulus (GPa) = 64.73777 65.17980 64.95878
# Shear Modulus (GPa) = 27.95161 30.99575 29.47368
#
# Velocity S-wave (km/s) = 3.74389 3.94249 3.84447
# Velocity P-wave (km/s) = 7.15210 7.30819 7.23057
#
# Compressibility (1/GPa) = 0.01544693
#
# Stress axis : x y z
#
# Youngs Moduli (GPa) = 49.29116 75.15851 77.84400
#
# Poissons Ratio (x) = 0.53231 0.52141
# Poissons Ratio (y) = 0.34911 0.13353
# Poissons Ratio (z) = 0.33016 0.12892
#
# Static dielectric constant tensor:
#      x y z
#    x 1.713550 0.000000 0.000000 
#    y 0.000000 1.668310 0.000000 
#    z 0.000000 0.000000 1.863300 
# 
# From -- ./inp_files/19587.got.cif
#   From: 2010.05.17/outbox.cif.g08.bks.cpg/sg51_10_cif.got.tgz:19587.got - 2010.06.03 11:52:47.
