data_PCOD9405991
_publ_section_title
;
Structure prediction by ZEFSAII (Michael W. Deem and Ramdas Pophale) SiO2 
 PCOD9405991
Probable space group: P M M A
;
_chemical_formula_sum "Si O2"
_cell_formula_units_Z 56
_cell_length_a 9.037459
_cell_length_b 21.845059
_cell_length_c 15.087425
_cell_angle_alpha 90.000000
_cell_angle_beta 90.000000
_cell_angle_gamma 90.000000
_cell_volume 2978.617154
_symmetry_space_group_name_H-M "P M M A"
_symmetry_group_IT_number 51
_symmetry_cell_setting 'orthorhombic'
loop_
_space_group_symop_operation_xyz
x,y,z
1/2-x,-y,z
1/2+x,-y,-z
-x,y,-z
-x,-y,-z
1/2+x,y,-z
1/2-x,y,z
x,-y,z
loop_
_atom_site_type_symbol
_atom_site_label
_atom_site_fract_x
_atom_site_fract_y
_atom_site_fract_z
Si Si1 0.578948 0.160792 0.232449
Si Si2 0.080194 0.259478 0.920245
Si Si3 0.073989 0.623671 0.150989
Si Si4 0.577035 0.927168 0.905111
Si Si5 0.921172 0.500000 0.146029
Si Si6 0.071428 0.230853 0.592365
Si Si7 0.420444 0.500000 0.636762
Si Si8 0.069742 0.367327 0.655179
O O1 0.750000 0.140876 0.242907
O O2 0.578732 0.219629 0.168066
O O3 0.491315 0.109877 0.177283
O O4 0.523547 0.186743 0.326650
O O5 0.250000 0.273802 0.941271
O O6 0.984402 0.319580 0.904467
O O7 0.000000 0.224567 0.000000
O O8 0.250000 0.620655 0.154395
O O9 0.005127 0.560571 0.116619
O O10 0.005573 0.633537 0.248790
O O11 0.750000 0.911922 0.913353
O O12 0.561923 0.000000 0.889139
O O13 0.500000 0.914913 0.000000
O O14 0.750000 0.500000 0.119763
O O15 0.924131 0.500000 0.254902
O O16 0.250000 0.228198 0.588818
O O17 0.033125 0.302641 0.609987
O O18 0.000000 0.212090 0.500000
O O19 0.250000 0.500000 0.607366
O O20 0.480395 0.567538 0.611806
O O21 0.250000 0.370139 0.665202
#
# Coordination Sequence:
#
# PCOD9405991 Si02
#       8
#     8   8   8   8   4   8   4   8
#     4  10  21  38  60  84 116 155 195 237 283 336
#     4  11  22  37  54  78 111 145 184 228 279 337
#     4  11  20  31  50  77 104 135 180 231 281 338
#     4  10  21  37  60  93 130 163 195 231 275 331
#     4   9  17  31  50  69  96 138 179 223 283 341
#     4  10  21  37  56  81 113 150 195 246 295 346
#     4   7  12  23  48  73  91 128 176 221 279 345
#     4   9  16  32  52  73 103 141 185 233 291 354
#
# _framework density 18.80067
#
# number of rings (size 3 to 8) (size 9 to 14) (size 15 to 20)
#    0.000    2.143    1.429    3.643    0.000    4.286 
#    0.000    0.714    0.000    0.429    0.000    0.000 
#    0.000    0.000    0.000    0.000    0.000    0.000 
#
# Total GULP energy -312387.511423 kJ/mol
# GULP energy per Si atom -5578.348418 kJ/mol
# Density = 1.875788 g / cm^3
# Si number density = 18.800670 Si / 1000 Ang^3
#
#
#
# Elastic Constant Matrix: (Units=GPa)
#
#
# Indices 1 2 3 4 5 6 
#
# 1 80.6271 49.5160 42.5833 0.0000 0.0000 0.0000
# 2 49.5160 95.3484 46.8748 0.0000 0.0000 0.0000
# 3 42.5833 46.8748 118.9488 0.0000 0.0000 0.0000
# 4 0.0000 0.0000 0.0000 46.5136 0.0000 0.0000
# 5 0.0000 0.0000 0.0000 0.0000 24.9958 0.0000
# 6 0.0000 0.0000 0.0000 0.0000 0.0000 20.9320
#
#
#
# Elastic Compliance Matrix: (Units=1/GPa)
#
#
# Indices 1 2 3 4 5 6 
#
# 1 0.019439 -0.008277 -0.003697 0.000000 0.000000 0.000000
# 2 -0.008277 0.016533 -0.003552 0.000000 0.000000 0.000000
# 3 -0.003697 -0.003552 0.011130 0.000000 0.000000 0.000000
# 4 0.000000 0.000000 0.000000 0.021499 0.000000 0.000000
# 5 0.000000 0.000000 0.000000 0.000000 0.040007 0.000000
# 6 0.000000 0.000000 0.000000 0.000000 0.000000 0.047774
#
#
# Mechanical properties :
#
#
# Convention : Reuss Voigt Hill
#
# Bulk Modulus (GPa) = 62.30911 63.65252 62.98081
# Shear Modulus (GPa) = 25.93585 28.88497 27.41041
#
# Velocity S-wave (km/s) = 3.71822 3.92392 3.82245
# Velocity P-wave (km/s) = 7.18661 7.37967 7.28378
#
# Compressibility (1/GPa) = 0.01604902
#
# Stress axis : x y z
#
# Youngs Moduli (GPa) = 51.44345 60.48685 89.84545
#
# Poissons Ratio (x) = 0.50067 0.33217
# Poissons Ratio (y) = 0.42581 0.31911
# Poissons Ratio (z) = 0.19019 0.21484
#
# Static dielectric constant tensor:
#      x y z
#    x 1.630280 0.000000 0.000000 
#    y 0.000000 1.681290 0.000000 
#    z 0.000000 0.000000 1.695480 
# 
# From -- ./inp_files/21868.got.cif
#   From: 2010.05.17/outbox.cif.g08.bks.cpg/sg51_11_cif.got.tgz:21868.got - 2010.06.03 11:52:47.
