data_PCOD9405350
_publ_section_title
;
Structure prediction by ZEFSAII (Michael W. Deem and Ramdas Pophale) SiO2 
 PCOD9405350
Probable space group: P M M A
;
_chemical_formula_sum "Si O2"
_cell_formula_units_Z 48
_cell_length_a 9.072352
_cell_length_b 7.707798
_cell_length_c 35.663781
_cell_angle_alpha 90.000000
_cell_angle_beta 90.000000
_cell_angle_gamma 90.000000
_cell_volume 2493.891764
_symmetry_space_group_name_H-M "P M M A"
_symmetry_group_IT_number 51
_symmetry_cell_setting 'orthorhombic'
loop_
_space_group_symop_operation_xyz
x,y,z
1/2-x,-y,z
1/2+x,-y,-z
-x,y,-z
-x,-y,-z
1/2+x,y,-z
1/2-x,y,z
x,-y,z
loop_
_atom_site_type_symbol
_atom_site_label
_atom_site_fract_x
_atom_site_fract_y
_atom_site_fract_z
Si Si1 0.426941 0.297751 0.401686
Si Si2 0.914779 0.293013 0.326051
Si Si3 0.427610 0.000000 0.040980
Si Si4 0.072143 0.000000 0.459400
Si Si5 0.574498 0.707900 0.091538
Si Si6 0.581579 0.707345 0.831904
Si Si7 0.916451 0.794232 0.749403
O O1 0.250000 0.291896 0.398237
O O2 0.468373 0.500000 0.408327
O O3 0.494698 0.233648 0.362366
O O4 0.470504 0.169708 0.435187
O O5 0.750000 0.220336 0.326105
O O6 0.906309 0.500000 0.330221
O O7 0.991842 0.261896 0.286415
O O8 0.486897 0.170285 0.062835
O O9 0.250000 0.000000 0.039411
O O10 0.500000 0.000000 0.000000
O O11 0.000000 0.000000 0.500000
O O12 0.250000 0.000000 0.462945
O O13 0.750000 0.735302 0.088135
O O14 0.546716 0.500000 0.086294
O O15 0.517915 0.760016 0.133074
O O16 0.750000 0.777166 0.834995
O O17 0.590960 0.500000 0.833850
O O18 0.522652 0.750319 0.790564
O O19 0.750000 0.719854 0.747536
O O20 0.906205 0.000000 0.747549
#
# Coordination Sequence:
#
# PCOD9405350 Si02
#       7
#     8   8   4   4   8   8   8
#     4   9  19  37  59  81 109 146 185 226 274 332
#     4  10  21  36  54  78 108 144 188 237 288 337
#     4  12  26  44  68  95 126 161 202 250 303 364
#     4  10  22  38  58  85 112 141 178 220 273 336
#     4  10  22  41  65  94 128 164 203 249 304 364
#     4   9  18  34  56  82 113 153 200 245 290 342
#     4  10  21  34  51  79 114 152 195 238 283 337
#
# _framework density 19.247026999999999
#
# number of rings (size 3 to 8) (size 9 to 14) (size 15 to 20)
#    0.000    2.167    0.000    2.250    2.333    5.000 
#    0.000    1.667    0.000    0.000    0.000    0.000 
#    0.000    0.000    0.000    0.000    0.000    0.000 
#
# Total GULP energy -267879.391617 kJ/mol
# GULP energy per Si atom -5580.820659 kJ/mol
# Density = 1.920322 g / cm^3
# Si number density = 19.247027 Si / 1000 Ang^3
#
#
#
# Elastic Constant Matrix: (Units=GPa)
#
#
# Indices 1 2 3 4 5 6 
#
# 1 86.1332 47.4933 84.1018 0.0000 0.0000 0.0000
# 2 47.4933 76.0907 64.7864 0.0000 0.0000 0.0000
# 3 84.1018 64.7864 202.0910 0.0000 0.0000 0.0000
# 4 0.0000 0.0000 0.0000 34.7608 0.0000 0.0000
# 5 0.0000 0.0000 0.0000 0.0000 40.4481 0.0000
# 6 0.0000 0.0000 0.0000 0.0000 0.0000 17.8746
#
#
#
# Elastic Compliance Matrix: (Units=1/GPa)
#
#
# Indices 1 2 3 4 5 6 
#
# 1 0.022981 -0.008529 -0.006830 0.000000 0.000000 0.000000
# 2 -0.008529 0.021242 -0.003260 0.000000 0.000000 0.000000
# 3 -0.006830 -0.003260 0.008836 0.000000 0.000000 0.000000
# 4 0.000000 0.000000 0.000000 0.028768 0.000000 0.000000
# 5 0.000000 0.000000 0.000000 0.000000 0.024723 0.000000
# 6 0.000000 0.000000 0.000000 0.000000 0.000000 0.055945
#
#
# Mechanical properties :
#
#
# Convention : Reuss Voigt Hill
#
# Bulk Modulus (GPa) = 63.20828 84.11978 73.66403
# Shear Modulus (GPa) = 24.38945 29.81227 27.10086
#
# Velocity S-wave (km/s) = 3.56361 3.93991 3.75648
# Velocity P-wave (km/s) = 7.06005 8.03103 7.56114
#
# Compressibility (1/GPa) = 0.01582071
#
# Stress axis : x y z
#
# Youngs Moduli (GPa) = 43.51336 47.07714 113.17853
#
# Poissons Ratio (x) = 0.40153 0.77296
# Poissons Ratio (y) = 0.37114 0.36898
# Poissons Ratio (z) = 0.29718 0.15348
#
# Static dielectric constant tensor:
#      x y z
#    x 1.716060 0.000000 0.000000 
#    y 0.000000 1.688620 0.000000 
#    z 0.000000 0.000000 1.653600 
# 
# From -- ./inp_files/37196.got.cif
#   From: 2010.05.17/outbox.cif.g08.bks.cpg/sg51_19_cif.got.tgz:37196.got - 2010.06.03 11:52:47.
