data_PCOD9405733
_publ_section_title
;
Structure prediction by ZEFSAII (Michael W. Deem and Ramdas Pophale) SiO2 
 PCOD9405733
Probable space group: P M M A
;
_chemical_formula_sum "Si O2"
_cell_formula_units_Z 40
_cell_length_a 8.052197
_cell_length_b 9.443576
_cell_length_c 26.475919
_cell_angle_alpha 90.000000
_cell_angle_beta 90.000000
_cell_angle_gamma 90.000000
_cell_volume 2013.269504
_symmetry_space_group_name_H-M "P M M A"
_symmetry_group_IT_number 51
_symmetry_cell_setting 'orthorhombic'
loop_
_space_group_symop_operation_xyz
x,y,z
1/2-x,-y,z
1/2+x,-y,-z
-x,y,-z
-x,-y,-z
1/2+x,y,-z
1/2-x,y,z
x,-y,z
loop_
_atom_site_type_symbol
_atom_site_label
_atom_site_fract_x
_atom_site_fract_y
_atom_site_fract_z
Si Si1 0.449506 0.339199 0.347267
Si Si2 0.049162 0.338235 0.847482
Si Si3 0.049397 0.838106 0.250857
Si Si4 0.948356 0.838121 0.443729
Si Si5 0.450170 0.162547 0.944002
O O1 0.250000 0.345735 0.342587
O O2 0.513821 0.500000 0.345434
O O3 0.512041 0.245217 0.300407
O O4 0.488788 0.263262 0.399841
O O5 0.250000 0.341436 0.849182
O O6 0.989517 0.500000 0.843622
O O7 0.990007 0.261817 0.898726
O O8 0.998572 0.246857 0.799167
O O9 0.250000 0.842703 0.253347
O O10 0.988490 0.000000 0.249562
O O11 0.750000 0.841203 0.441556
O O12 0.000000 0.792985 0.500000
O O13 0.011030 0.000000 0.436219
O O14 0.250000 0.159686 0.941921
O O15 0.509741 0.000000 0.937438
O O16 0.500000 0.210550 0.000000
#
# Coordination Sequence:
#
# PCOD9405733 Si02
#       5
#     8   8   8   8   8
#     4  10  21  37  57  81 110 143 178 219 268 319
#     4  10  21  36  54  78 109 143 178 218 266 319
#     4  10  21  37  58  82 107 139 180 223 267 317
#     4  10  21  37  58  83 110 143 183 224 266 314
#     4   9  18  33  52  74 102 137 177 220 264 312
#
# _framework density 19.868179000000001
#
# number of rings (size 3 to 8) (size 9 to 14) (size 15 to 20)
#    0.000    2.200    0.000    2.400    0.000    7.200 
#    0.000    2.000    0.000    0.000    0.000    0.000 
#    0.000    0.000    0.000    0.000    0.000    0.000 
#
# Total GULP energy -223423.063595 kJ/mol
# GULP energy per Si atom -5585.576590 kJ/mol
# Density = 1.982296 g / cm^3
# Si number density = 19.868179 Si / 1000 Ang^3
#
#
#
# Elastic Constant Matrix: (Units=GPa)
#
#
# Indices 1 2 3 4 5 6 
#
# 1 10.4720 13.3512 3.7089 0.0000 0.0000 0.0000
# 2 13.3512 187.6477 144.1897 0.0000 0.0000 0.0000
# 3 3.7089 144.1897 204.6903 0.0000 0.0000 0.0000
# 4 0.0000 0.0000 0.0000 -10.9199 0.0000 0.0000
# 5 0.0000 0.0000 0.0000 0.0000 33.1337 0.0000
# 6 0.0000 0.0000 0.0000 0.0000 0.0000 20.2558
#
#
#
# Elastic Compliance Matrix: (Units=1/GPa)
#
#
# Indices 1 2 3 4 5 6 
#
# 1 0.110313 -0.013762 0.007696 0.000000 0.000000 0.000000
# 2 -0.013762 0.013335 -0.009144 0.000000 0.000000 0.000000
# 3 0.007696 -0.009144 0.011187 0.000000 0.000000 0.000000
# 4 0.000000 0.000000 0.000000 -0.091576 0.000000 0.000000
# 5 0.000000 0.000000 0.000000 0.000000 0.030181 0.000000
# 6 0.000000 0.000000 0.000000 0.000000 0.000000 0.049369
#
#
# Mechanical properties :
#
#
# Convention : Reuss Voigt Hill
#
# Bulk Modulus (GPa) = 9.57724 80.58996 45.08360
# Shear Modulus (GPa) = 26.59094 24.59793 25.59443
#
# Velocity S-wave (km/s) = 3.66234 3.52242 3.59306
# Velocity P-wave (km/s) = 4.76597 7.56265 6.32092
#
# Compressibility (1/GPa) = 0.10441421
#
# Stress axis : x y z
#
# Youngs Moduli (GPa) = 9.06509 74.99339 89.38809
#
# Poissons Ratio (x) = 1.03208 -0.68790
# Poissons Ratio (y) = 0.12476 0.81735
# Poissons Ratio (z) = -0.06976 0.68573
#
# Static dielectric constant tensor:
#      x y z
#    x 1.713570 0.000000 0.000000 
#    y 0.000000 1.697210 0.000000 
#    z 0.000000 0.000000 1.656720 
# 
# From -- ./inp_files/34292.got.cif
#   From: 2010.05.17/outbox.cif.g08.bks.cpg/sg51_18_cif.got.tgz:34292.got - 2010.06.03 11:52:47.
