data_PCOD9405215
_publ_section_title
;
Structure prediction by ZEFSAII (Michael W. Deem and Ramdas Pophale) SiO2 
 PCOD9405215
Probable space group: P M M A
;
_chemical_formula_sum "Si O2"
_cell_formula_units_Z 48
_cell_length_a 17.043574
_cell_length_b 7.771778
_cell_length_c 14.090559
_cell_angle_alpha 90.000000
_cell_angle_beta 90.000000
_cell_angle_gamma 90.000000
_cell_volume 1866.419571
_symmetry_space_group_name_H-M "P M M A"
_symmetry_group_IT_number 51
_symmetry_cell_setting 'orthorhombic'
loop_
_space_group_symop_operation_xyz
x,y,z
1/2-x,-y,z
1/2+x,-y,-z
-x,y,-z
-x,-y,-z
1/2+x,y,-z
1/2-x,y,z
x,-y,z
loop_
_atom_site_type_symbol
_atom_site_label
_atom_site_fract_x
_atom_site_fract_y
_atom_site_fract_z
Si Si1 0.250000 0.294137 0.720834
Si Si2 0.495875 0.297385 0.792710
Si Si3 0.417574 0.801034 0.968453
Si Si4 0.165425 0.700549 0.207862
Si Si5 0.839792 0.205368 0.574965
Si Si6 0.410410 0.201679 0.613656
Si Si7 0.750000 0.208005 0.055657
O O1 0.250000 0.500000 0.713371
O O2 0.327975 0.226796 0.668794
O O3 0.250000 0.248831 0.832421
O O4 0.492844 0.500000 0.812369
O O5 0.429599 0.206081 0.854612
O O6 0.581432 0.226156 0.822876
O O7 0.476860 0.274918 0.682237
O O8 0.331828 0.725251 0.988441
O O9 0.417237 0.000000 0.997671
O O10 0.500000 0.717524 0.000000
O O11 0.250000 0.781122 0.183099
O O12 0.166913 0.500000 0.181841
O O13 0.158425 0.709603 0.322366
O O14 0.750000 0.225753 0.539519
O O15 0.897044 0.270480 0.492589
O O16 0.852510 0.000000 0.589041
O O17 0.426384 0.000000 0.604241
O O18 0.750000 0.000000 0.046569
#
# Coordination Sequence:
#
# PCOD9405215 Si02
#       7
#     4   8   8   8   8   8   4
#     4  12  22  32  54  88 119 152 197 236 281 348
#     4  11  23  38  58  86 117 149 193 245 293 352
#     4  10  22  41  64  90 121 156 193 235 291 355
#     4   9  20  39  58  76 108 155 200 243 296 348
#     4   9  18  33  53  78 109 149 200 246 287 341
#     4  11  21  35  55  82 119 156 192 239 296 348
#     4  10  20  38  64  88 119 160 191 230 291 352
#
# _framework density 25.717687999999999
#
# number of rings (size 3 to 8) (size 9 to 14) (size 15 to 20)
#    0.000    1.833    2.500    1.750    0.000    3.667 
#    1.500    3.333    0.000    0.000    0.000    0.000 
#    0.000    0.000    0.000    0.000    0.000    0.000 
#
# Total GULP energy -268506.131337 kJ/mol
# GULP energy per Si atom -5593.877736 kJ/mol
# Density = 2.565915 g / cm^3
# Si number density = 25.717688 Si / 1000 Ang^3
#
#
#
# Elastic Constant Matrix: (Units=GPa)
#
#
# Indices 1 2 3 4 5 6 
#
# 1 198.2667 2.4100 29.7141 0.0000 0.0000 0.0000
# 2 2.4100 71.6164 17.8759 0.0000 0.0000 0.0000
# 3 29.7141 17.8759 88.1026 0.0000 0.0000 0.0000
# 4 0.0000 0.0000 0.0000 36.2253 0.0000 0.0000
# 5 0.0000 0.0000 0.0000 0.0000 56.6417 0.0000
# 6 0.0000 0.0000 0.0000 0.0000 0.0000 12.9748
#
#
#
# Elastic Compliance Matrix: (Units=1/GPa)
#
#
# Indices 1 2 3 4 5 6 
#
# 1 0.005318 0.000283 -0.001851 0.000000 0.000000 0.000000
# 2 0.000283 0.014723 -0.003083 0.000000 0.000000 0.000000
# 3 -0.001851 -0.003083 0.012600 0.000000 0.000000 0.000000
# 4 0.000000 0.000000 0.000000 0.027605 0.000000 0.000000
# 5 0.000000 0.000000 0.000000 0.000000 0.017655 0.000000
# 6 0.000000 0.000000 0.000000 0.000000 0.000000 0.077073
#
#
# Mechanical properties :
#
#
# Convention : Reuss Voigt Hill
#
# Bulk Modulus (GPa) = 42.84536 50.88731 46.86633
# Shear Modulus (GPa) = 29.06053 41.70073 35.38063
#
# Velocity S-wave (km/s) = 3.36517 4.03113 3.71311
# Velocity P-wave (km/s) = 5.63872 6.44178 6.05358
#
# Compressibility (1/GPa) = 0.02333975
#
# Stress axis : x y z
#
# Youngs Moduli (GPa) = 188.05253 67.91986 79.36414
#
# Poissons Ratio (x) = -0.01922 0.14690
# Poissons Ratio (y) = -0.05323 0.24466
# Poissons Ratio (z) = 0.34807 0.20938
#
# Static dielectric constant tensor:
#      x y z
#    x 2.076750 0.000000 0.000000 
#    y 0.000000 1.916840 0.000000 
#    z 0.000000 0.000000 2.079600 
# 
# From -- ./inp_files/25010.got.cif
#   From: 2010.05.17/outbox.cif.g08.bks.cpg/sg51_13_cif.got.tgz:25010.got - 2010.06.03 11:52:47.
