data_PCOD9405885
_publ_section_title
;
Structure prediction by ZEFSAII (Michael W. Deem and Ramdas Pophale) SiO2 
 PCOD9405885
Probable space group: P M M A
;
_chemical_formula_sum "Si O2"
_cell_formula_units_Z 64
_cell_length_a 8.014400
_cell_length_b 28.781768
_cell_length_c 11.823787
_cell_angle_alpha 90.000000
_cell_angle_beta 90.000000
_cell_angle_gamma 90.000000
_cell_volume 2727.376411
_symmetry_space_group_name_H-M "P M M A"
_symmetry_group_IT_number 51
_symmetry_cell_setting 'orthorhombic'
loop_
_space_group_symop_operation_xyz
x,y,z
1/2-x,-y,z
1/2+x,-y,-z
-x,y,-z
-x,-y,-z
1/2+x,y,-z
1/2-x,y,z
x,-y,z
loop_
_atom_site_type_symbol
_atom_site_label
_atom_site_fract_x
_atom_site_fract_y
_atom_site_fract_z
Si Si1 0.557487 0.191409 0.350317
Si Si2 0.940308 0.443922 0.626680
Si Si3 0.949769 0.673137 0.151715
Si Si4 0.051755 0.706639 0.614193
Si Si5 0.049765 0.910031 0.622576
Si Si6 0.552375 0.220432 0.881845
Si Si7 0.561790 0.574377 0.877931
Si Si8 0.949613 0.053438 0.874576
O O1 0.750000 0.191176 0.388578
O O2 0.477155 0.241037 0.382823
O O3 0.478050 0.142810 0.383052
O O4 0.547917 0.194963 0.215683
O O5 0.750000 0.426880 0.633883
O O6 0.942854 0.500000 0.622637
O O7 0.020213 0.433401 0.752446
O O8 0.000000 0.429133 0.500000
O O9 0.750000 0.666574 0.136531
O O10 0.998539 0.675541 0.282797
O O11 0.996516 0.725443 0.116331
O O12 0.052091 0.630121 0.106718
O O13 0.250000 0.712252 0.623873
O O14 0.000000 0.683689 0.500000
O O15 0.250000 0.908912 0.623119
O O16 0.000000 0.932450 0.500000
O O17 0.001270 0.927822 0.748966
O O18 0.750000 0.217872 0.862753
O O19 0.500000 0.199401 0.000000
O O20 0.750000 0.557523 0.867043
O O21 0.500000 0.555629 0.000000
O O22 0.750000 0.054446 0.873977
O O23 0.011551 0.000000 0.875985
O O24 0.000000 0.073469 0.000000
#
# Coordination Sequence:
#
# PCOD9405885 Si02
#       8
#     8   8   8   8   8   8   8   8
#     4   9  20  37  53  76 110 148 190 236 287 341
#     4   9  20  40  64  89 118 152 190 233 283 341
#     4  10  21  37  53  74 108 147 188 235 287 341
#     4   9  18  32  51  73 101 139 183 231 280 332
#     4  11  23  39  62  91 125 162 201 247 298 356
#     4  11  21  34  54  77 104 143 190 240 291 343
#     4  11  23  38  58  86 118 152 192 237 287 345
#     4  10  22  42  67  93 122 157 198 245 299 359
#
# _framework density 23.465774
#
# number of rings (size 3 to 8) (size 9 to 14) (size 15 to 20)
#    0.000    2.000    0.000    4.125    0.000    6.750 
#    0.000    2.500    0.000    0.000    0.000    0.000 
#    0.000    0.000    0.000    0.000    0.000    0.000 
#
# Total GULP energy -356427.010094 kJ/mol
# GULP energy per Si atom -5569.172033 kJ/mol
# Density = 2.341236 g / cm^3
# Si number density = 23.465774 Si / 1000 Ang^3
#
#
#
# Elastic Constant Matrix: (Units=GPa)
#
#
# Indices 1 2 3 4 5 6 
#
# 1 56.4722 4.4130 20.4271 0.0000 0.0000 0.0000
# 2 4.4130 63.5577 28.4418 0.0000 0.0000 0.0000
# 3 20.4271 28.4418 247.1854 0.0000 0.0000 0.0000
# 4 0.0000 0.0000 0.0000 -244.3283 0.0000 0.0000
# 5 0.0000 0.0000 0.0000 0.0000 40.0605 0.0000
# 6 0.0000 0.0000 0.0000 0.0000 0.0000 -25.0430
#
#
#
# Elastic Compliance Matrix: (Units=1/GPa)
#
#
# Indices 1 2 3 4 5 6 
#
# 1 0.018277 -0.000625 -0.001438 0.000000 0.000000 0.000000
# 2 -0.000625 0.016609 -0.001859 0.000000 0.000000 0.000000
# 3 -0.001438 -0.001859 0.004378 0.000000 0.000000 0.000000
# 4 0.000000 0.000000 0.000000 -0.004093 0.000000 0.000000
# 5 0.000000 0.000000 0.000000 0.000000 0.024962 0.000000
# 6 0.000000 0.000000 0.000000 0.000000 0.000000 -0.039931
#
#
# Mechanical properties :
#
#
# Convention : Reuss Voigt Hill
#
# Bulk Modulus (GPa) = 31.82869 52.64213 42.23541
# Shear Modulus (GPa) = 129.79644 -24.93327 52.43158
#
# Velocity S-wave (km/s) = 7.44535 -3.26320 4.73206
# Velocity P-wave (km/s) = 9.35437 2.87826 6.92057
#
# Compressibility (1/GPa) = 0.03141819
#
# Stress axis : x y z
#
# Youngs Moduli (GPa) = 54.71357 60.20750 228.39571
#
# Poissons Ratio (x) = 0.03765 0.32853
# Poissons Ratio (y) = 0.03421 0.42468
# Poissons Ratio (z) = 0.07870 0.11195
#
# Static dielectric constant tensor:
#      x y z
#    x 1.834340 0.000000 0.000000 
#    y 0.000000 1.901060 0.000000 
#    z 0.000000 0.000000 2.009450 
# 
# From -- ./inp_files/14851.got.cif
#   From: 2010.05.17/outbox.cif.g08.bks.cpg/sg51_8_cif.got.tgz:14851.got - 2010.06.03 11:52:47.
