data_PCOD9405144
_publ_section_title
;
Structure prediction by ZEFSAII (Michael W. Deem and Ramdas Pophale) SiO2 
 PCOD9405144
Probable space group: P M M A
;
_chemical_formula_sum "Si O2"
_cell_formula_units_Z 40
_cell_length_a 7.951966
_cell_length_b 11.289884
_cell_length_c 19.223006
_cell_angle_alpha 90.000000
_cell_angle_beta 90.000000
_cell_angle_gamma 90.000000
_cell_volume 1725.779460
_symmetry_space_group_name_H-M "P M M A"
_symmetry_group_IT_number 51
_symmetry_cell_setting 'orthorhombic'
loop_
_space_group_symop_operation_xyz
x,y,z
1/2-x,-y,z
1/2+x,-y,-z
-x,y,-z
-x,-y,-z
1/2+x,y,-z
1/2-x,y,z
x,-y,z
loop_
_atom_site_type_symbol
_atom_site_label
_atom_site_fract_x
_atom_site_fract_y
_atom_site_fract_z
Si Si1 0.053687 0.372872 0.284522
Si Si2 0.547215 0.240914 0.080128
Si Si3 0.451920 0.738175 0.580596
Si Si4 0.451576 0.126922 0.783887
Si Si5 0.047968 0.500000 0.918519
Si Si6 0.452294 0.000000 0.581394
O O1 0.250000 0.376071 0.269086
O O2 0.977818 0.500000 0.261790
O O3 0.026928 0.357011 0.367206
O O4 0.986544 0.250986 0.253148
O O5 0.750000 0.243896 0.082071
O O6 0.490046 0.145741 0.136397
O O7 0.484954 0.371512 0.105294
O O8 0.500000 0.221100 0.000000
O O9 0.500000 0.722686 0.500000
O O10 0.250000 0.735273 0.586038
O O11 0.511348 0.870355 0.605001
O O12 0.250000 0.118583 0.783066
O O13 0.516075 0.000000 0.756192
O O14 0.250000 0.500000 0.910870
O O15 0.000000 0.500000 0.000000
O O16 0.500000 0.000000 0.500000
O O17 0.250000 0.000000 0.589967
#
# Coordination Sequence:
#
# PCOD9405144 Si02
#       6
#     8   8   8   8   4   4
#     4  11  26  45  63  89 124 164 211 260 311 370
#     4   9  18  33  56  86 120 157 200 249 303 363
#     4  10  20  37  63  94 127 163 205 253 307 365
#     4  10  23  42  64  91 124 163 208 256 310 374
#     4   8  14  26  46  76 110 148 189 232 285 346
#     4   8  16  30  52  86 122 154 191 236 287 348
#
# _framework density 23.177931000000001
#
# number of rings (size 3 to 8) (size 9 to 14) (size 15 to 20)
#    0.000    2.400    0.000    1.200    2.800    4.400 
#    0.000    0.000    0.000    0.000    0.000    0.000 
#    0.000    0.000    0.000    0.000    0.000    0.000 
#
# Total GULP energy -223173.443306 kJ/mol
# GULP energy per Si atom -5579.336083 kJ/mol
# Density = 2.312518 g / cm^3
# Si number density = 23.177931 Si / 1000 Ang^3
#
#
#
# Elastic Constant Matrix: (Units=GPa)
#
#
# Indices 1 2 3 4 5 6 
#
# 1 31.2856 21.7864 -1.6858 0.0000 0.0000 0.0000
# 2 21.7864 198.6574 65.3972 0.0000 0.0000 0.0000
# 3 -1.6858 65.3972 85.8482 0.0000 0.0000 0.0000
# 4 0.0000 0.0000 0.0000 34.4085 0.0000 0.0000
# 5 0.0000 0.0000 0.0000 0.0000 26.3268 0.0000
# 6 0.0000 0.0000 0.0000 0.0000 0.0000 14.0499
#
#
#
# Elastic Compliance Matrix: (Units=1/GPa)
#
#
# Indices 1 2 3 4 5 6 
#
# 1 0.036132 -0.005601 0.004976 0.000000 0.000000 0.000000
# 2 -0.005601 0.007587 -0.005889 0.000000 0.000000 0.000000
# 3 0.004976 -0.005889 0.016233 0.000000 0.000000 0.000000
# 4 0.000000 0.000000 0.000000 0.029063 0.000000 0.000000
# 5 0.000000 0.000000 0.000000 0.000000 0.037984 0.000000
# 6 0.000000 0.000000 0.000000 0.000000 0.000000 0.071175
#
#
# Mechanical properties :
#
#
# Convention : Reuss Voigt Hill
#
# Bulk Modulus (GPa) = 21.31154 54.08745 37.69949
# Shear Modulus (GPa) = 22.04178 30.30992 26.17585
#
# Velocity S-wave (km/s) = 3.08714 3.62015 3.36422
# Velocity P-wave (km/s) = 4.68209 6.39221 5.60278
#
# Compressibility (1/GPa) = 0.04692294
#
# Stress axis : x y z
#
# Youngs Moduli (GPa) = 27.67651 131.80857 61.60444
#
# Poissons Ratio (x) = 0.73820 -0.30654
# Poissons Ratio (y) = 0.15500 0.36281
# Poissons Ratio (z) = -0.13771 0.77627
#
# Static dielectric constant tensor:
#      x y z
#    x 1.847790 0.000000 0.000000 
#    y 0.000000 1.976140 0.000000 
#    z 0.000000 0.000000 1.885300 
# 
# From -- ./inp_files/31387.got.cif
#   From: 2010.05.17/outbox.cif.g08.bks.cpg/sg51_16_cif.got.tgz:31387.got - 2010.06.03 11:52:47.
