data_PCOD9405285
_publ_section_title
;
Structure prediction by ZEFSAII (Michael W. Deem and Ramdas Pophale) SiO2 
 PCOD9405285
Probable space group: P M M A
;
_chemical_formula_sum "Si O2"
_cell_formula_units_Z 48
_cell_length_a 17.926904
_cell_length_b 7.502618
_cell_length_c 17.456243
_cell_angle_alpha 90.000000
_cell_angle_beta 90.000000
_cell_angle_gamma 90.000000
_cell_volume 2347.842211
_symmetry_space_group_name_H-M "P M M A"
_symmetry_group_IT_number 51
_symmetry_cell_setting 'orthorhombic'
loop_
_space_group_symop_operation_xyz
x,y,z
1/2-x,-y,z
1/2+x,-y,-z
-x,y,-z
-x,-y,-z
1/2+x,y,-z
1/2-x,y,z
x,-y,z
loop_
_atom_site_type_symbol
_atom_site_label
_atom_site_fract_x
_atom_site_fract_y
_atom_site_fract_z
Si Si1 0.835442 0.213823 0.060765
Si Si2 0.569531 0.794503 0.744413
Si Si3 0.665007 0.709391 0.889942
Si Si4 0.911465 0.500000 0.488353
Si Si5 0.838311 0.214919 0.596968
Si Si6 0.834336 0.500000 0.328585
Si Si7 0.403209 0.783171 0.778458
O O1 0.750000 0.280998 0.068531
O O2 0.883787 0.266340 0.133881
O O3 0.832390 0.000000 0.061635
O O4 0.863358 0.265579 0.976568
O O5 0.614128 0.787645 0.823879
O O6 0.619782 0.724342 0.674949
O O7 0.486769 0.721920 0.756942
O O8 0.557285 0.000000 0.724317
O O9 0.750000 0.781479 0.887364
O O10 0.668470 0.500000 0.874771
O O11 0.875055 0.327121 0.528884
O O12 0.890357 0.500000 0.399562
O O13 0.000000 0.500000 0.500000
O O14 0.750000 0.251417 0.602654
O O15 0.846453 0.000000 0.587187
O O16 0.750000 0.500000 0.358021
O O17 0.848714 0.325743 0.276665
O O18 0.396369 0.000000 0.771457
#
# Coordination Sequence:
#
# PCOD9405285 Si02
#       7
#     8   8   8   4   8   4   8
#     4   9  18  35  56  77 111 159 205 252 303 356
#     4  10  21  38  60  87 122 161 201 250 305 361
#     4  10  21  33  52  85 119 157 205 255 303 356
#     4  12  26  44  68  97 130 163 198 248 310 371
#     4  10  22  41  66  94 126 166 207 248 301 366
#     4  12  26  42  66  94 120 158 202 249 302 357
#     4  10  23  41  62  90 122 160 205 253 308 362
#
# _framework density 20.444303999999999
#
# number of rings (size 3 to 8) (size 9 to 14) (size 15 to 20)
#    0.000    1.833    0.000    3.250    3.500    4.333 
#    0.000    3.333    0.000    0.000    0.000    0.000 
#    0.000    0.000    0.000    0.000    0.000    0.000 
#
# Total GULP energy -268063.446896 kJ/mol
# GULP energy per Si atom -5584.655144 kJ/mol
# Density = 2.039777 g / cm^3
# Si number density = 20.444304 Si / 1000 Ang^3
#
#
#
# Elastic Constant Matrix: (Units=GPa)
#
#
# Indices 1 2 3 4 5 6 
#
# 1 62.9003 11.4214 1.6614 0.0000 0.0000 0.0000
# 2 11.4214 62.8137 4.5936 0.0000 0.0000 0.0000
# 3 1.6614 4.5936 71.9025 0.0000 0.0000 0.0000
# 4 0.0000 0.0000 0.0000 52.6855 0.0000 0.0000
# 5 0.0000 0.0000 0.0000 0.0000 13.2609 0.0000
# 6 0.0000 0.0000 0.0000 0.0000 0.0000 19.5176
#
#
#
# Elastic Compliance Matrix: (Units=1/GPa)
#
#
# Indices 1 2 3 4 5 6 
#
# 1 0.016444 -0.002976 -0.000190 0.000000 0.000000 0.000000
# 2 -0.002976 0.016533 -0.000987 0.000000 0.000000 0.000000
# 3 -0.000190 -0.000987 0.013975 0.000000 0.000000 0.000000
# 4 0.000000 0.000000 0.000000 0.018981 0.000000 0.000000
# 5 0.000000 0.000000 0.000000 0.000000 0.075409 0.000000
# 6 0.000000 0.000000 0.000000 0.000000 0.000000 0.051236
#
#
# Mechanical properties :
#
#
# Convention : Reuss Voigt Hill
#
# Bulk Modulus (GPa) = 25.87624 25.88547 25.88086
# Shear Modulus (GPa) = 23.38998 29.08880 26.23939
#
# Velocity S-wave (km/s) = 3.38610 3.77614 3.58642
# Velocity P-wave (km/s) = 5.28885 5.63038 5.46229
#
# Compressibility (1/GPa) = 0.03864549
#
# Stress axis : x y z
#
# Youngs Moduli (GPa) = 60.81396 60.48347 71.55531
#
# Poissons Ratio (x) = 0.18000 0.01358
# Poissons Ratio (y) = 0.18099 0.07066
# Poissons Ratio (z) = 0.01154 0.05973
#
# Static dielectric constant tensor:
#      x y z
#    x 1.726750 0.000000 0.000000 
#    y 0.000000 1.754850 0.000000 
#    z 0.000000 0.000000 1.694570 
# 
# From -- ./inp_files/24901.got.cif
#   From: 2010.05.17/outbox.cif.g08.bks.cpg/sg51_13_cif.got.tgz:24901.got - 2010.06.03 11:52:47.
