data_PCOD9405751
_publ_section_title
;
Structure prediction by ZEFSAII (Michael W. Deem and Ramdas Pophale) SiO2 
 PCOD9405751
Probable space group: P M M A
;
_chemical_formula_sum "Si O2"
_cell_formula_units_Z 64
_cell_length_a 9.021286
_cell_length_b 25.545403
_cell_length_c 15.208629
_cell_angle_alpha 90.000000
_cell_angle_beta 90.000000
_cell_angle_gamma 90.000000
_cell_volume 3504.864848
_symmetry_space_group_name_H-M "P M M A"
_symmetry_group_IT_number 51
_symmetry_cell_setting 'orthorhombic'
loop_
_space_group_symop_operation_xyz
x,y,z
1/2-x,-y,z
1/2+x,-y,-z
-x,y,-z
-x,-y,-z
1/2+x,y,-z
1/2-x,y,z
x,-y,z
loop_
_atom_site_type_symbol
_atom_site_label
_atom_site_fract_x
_atom_site_fract_y
_atom_site_fract_z
Si Si1 0.074482 0.765536 0.911242
Si Si2 0.427972 0.060896 0.907313
Si Si3 0.574792 0.411006 0.411054
Si Si4 0.420807 0.332855 0.160594
Si Si5 0.579268 0.694092 0.632804
Si Si6 0.928481 0.851767 0.232037
Si Si7 0.572150 0.441992 0.771520
Si Si8 0.926962 0.815088 0.591943
O O1 0.250000 0.767576 0.920657
O O2 0.032864 0.801618 0.828423
O O3 0.019906 0.706738 0.893825
O O4 0.000000 0.785722 0.000000
O O5 0.250000 0.064804 0.916324
O O6 0.471181 0.097990 0.826477
O O7 0.466430 0.000000 0.891634
O O8 0.500000 0.076875 0.000000
O O9 0.500000 0.431698 0.500000
O O10 0.750000 0.418160 0.413239
O O11 0.530867 0.349524 0.404235
O O12 0.505662 0.435512 0.322846
O O13 0.250000 0.330335 0.129983
O O14 0.423574 0.312930 0.261794
O O15 0.471227 0.393172 0.167124
O O16 0.750000 0.682932 0.604595
O O17 0.540375 0.753153 0.607427
O O18 0.750000 0.852197 0.244263
O O19 0.007069 0.846042 0.325271
O O20 0.750000 0.436569 0.757728
O O21 0.542074 0.500000 0.806632
O O22 0.750000 0.820594 0.588725
O O23 0.000000 0.830932 0.500000
#
# Coordination Sequence:
#
# PCOD9405751 Si02
#       8
#     8   8   8   8   8   8   8   8
#     4  11  22  34  53  81 113 146 177 214 265 325
#     4   9  18  34  57  85 117 153 192 234 279 329
#     4  11  21  31  46  68  96 129 167 214 265 318
#     4   9  17  33  54  76 103 132 167 210 260 321
#     4   9  18  33  51  72  99 135 176 217 265 318
#     4  10  21  36  54  81 116 151 188 229 275 326
#     4   9  19  36  55  72  93 126 167 212 265 323
#     4  11  22  35  53  77 108 148 190 233 277 325
#
# _framework density 18.260332999999999
#
# number of rings (size 3 to 8) (size 9 to 14) (size 15 to 20)
#    0.000    2.125    1.250    3.375    0.000    5.500 
#    0.000    0.000    0.000    0.750    0.000    0.000 
#    0.000    0.000    0.000    0.000    0.000    0.000 
#
# Total GULP energy -357307.204600 kJ/mol
# GULP energy per Si atom -5582.925072 kJ/mol
# Density = 1.821877 g / cm^3
# Si number density = 18.260333 Si / 1000 Ang^3
#
#
#
# Elastic Constant Matrix: (Units=GPa)
#
#
# Indices 1 2 3 4 5 6 
#
# 1 40.7885 31.5681 36.8078 0.0000 0.0000 0.0000
# 2 31.5681 100.2957 51.3277 0.0000 0.0000 0.0000
# 3 36.8078 51.3277 101.6839 0.0000 0.0000 0.0000
# 4 0.0000 0.0000 0.0000 8.2300 0.0000 0.0000
# 5 0.0000 0.0000 0.0000 0.0000 30.2249 0.0000
# 6 0.0000 0.0000 0.0000 0.0000 0.0000 19.1464
#
#
#
# Elastic Compliance Matrix: (Units=1/GPa)
#
#
# Indices 1 2 3 4 5 6 
#
# 1 0.039688 -0.006930 -0.010868 0.000000 0.000000 0.000000
# 2 -0.006930 0.014653 -0.004888 0.000000 0.000000 0.000000
# 3 -0.010868 -0.004888 0.016236 0.000000 0.000000 0.000000
# 4 0.000000 0.000000 0.000000 0.121507 0.000000 0.000000
# 5 0.000000 0.000000 0.000000 0.000000 0.033085 0.000000
# 6 0.000000 0.000000 0.000000 0.000000 0.000000 0.052229
#
#
# Mechanical properties :
#
#
# Convention : Reuss Voigt Hill
#
# Bulk Modulus (GPa) = 39.67551 53.57504 46.62527
# Shear Modulus (GPa) = 15.09791 19.72456 17.41123
#
# Velocity S-wave (km/s) = 2.87856 3.29018 3.09123
# Velocity P-wave (km/s) = 5.72914 6.62095 6.19112
#
# Compressibility (1/GPa) = 0.02520447
#
# Stress axis : x y z
#
# Youngs Moduli (GPa) = 25.19684 68.24428 61.59171
#
# Poissons Ratio (x) = 0.47291 0.66939
# Poissons Ratio (y) = 0.17461 0.30107
# Poissons Ratio (z) = 0.27385 0.33359
#
# Static dielectric constant tensor:
#      x y z
#    x 1.612120 0.000000 0.000000 
#    y 0.000000 1.648570 0.000000 
#    z 0.000000 0.000000 1.616480 
# 
# From -- ./inp_files/22351.got.cif
#   From: 2010.05.17/outbox.cif.g08.bks.cpg/sg51_12_cif.got.tgz:22351.got - 2010.06.03 11:52:47.
