data_PCOD9405437
_publ_section_title
;
Structure prediction by ZEFSAII (Michael W. Deem and Ramdas Pophale) SiO2 
 PCOD9405437
Probable space group: P M M A
;
_chemical_formula_sum "Si O2"
_cell_formula_units_Z 48
_cell_length_a 30.151165
_cell_length_b 9.058884
_cell_length_c 10.380328
_cell_angle_alpha 90.000000
_cell_angle_beta 90.000000
_cell_angle_gamma 90.000000
_cell_volume 2835.240295
_symmetry_space_group_name_H-M "P M M A"
_symmetry_group_IT_number 51
_symmetry_cell_setting 'orthorhombic'
loop_
_space_group_symop_operation_xyz
x,y,z
1/2-x,-y,z
1/2+x,-y,-z
-x,y,-z
-x,-y,-z
1/2+x,y,-z
1/2-x,y,z
x,-y,z
loop_
_atom_site_type_symbol
_atom_site_label
_atom_site_fract_x
_atom_site_fract_y
_atom_site_fract_z
Si Si1 0.698244 0.823845 0.605510
Si Si2 0.869836 0.677601 0.100870
Si Si3 0.801401 0.322720 0.877691
Si Si4 0.364055 0.675934 0.603882
Si Si5 0.535056 0.823269 0.111095
Si Si6 0.967668 0.322866 0.383393
O O1 0.750000 0.785435 0.580934
O O2 0.686247 0.754172 0.743693
O O3 0.667071 0.760447 0.494627
O O4 0.694647 0.000000 0.611915
O O5 0.876501 0.500000 0.096418
O O6 0.854472 0.712419 0.246521
O O7 0.916811 0.755840 0.079487
O O8 0.833887 0.718949 0.993832
O O9 0.750000 0.285684 0.906577
O O10 0.804034 0.500000 0.861415
O O11 0.358103 0.500000 0.586666
O O12 0.416239 0.709595 0.583835
O O13 0.521468 0.757029 0.249528
O O14 0.538052 0.000000 0.119957
O O15 0.500000 0.784828 0.000000
O O16 0.970845 0.500000 0.363847
O O17 0.000000 0.281388 0.500000
#
# Coordination Sequence:
#
# PCOD9405437 Si02
#       6
#     8   8   8   8   8   8
#     4  10  21  35  50  72 103 137 171 205 245 297
#     4   9  19  35  55  78 101 129 168 210 252 299
#     4   9  18  34  55  77 101 130 166 209 254 298
#     4   9  18  33  53  77 102 129 165 208 252 297
#     4  10  21  35  51  75 106 137 169 205 248 299
#     4   9  19  36  56  77 101 131 169 211 253 298
#
# _framework density 16.929781999999999
#
# number of rings (size 3 to 8) (size 9 to 14) (size 15 to 20)
#    0.000    2.667    0.000    2.000    0.000    8.000 
#    0.000    6.667    0.000    2.000    0.000    0.000 
#    0.000    0.000    0.000    0.000    0.000    0.000 
#
# Total GULP energy -267736.895510 kJ/mol
# GULP energy per Si atom -5577.851990 kJ/mol
# Density = 1.689125 g / cm^3
# Si number density = 16.929782 Si / 1000 Ang^3
#
#
#
# Elastic Constant Matrix: (Units=GPa)
#
#
# Indices 1 2 3 4 5 6 
#
# 1 104.4273 52.4474 127.5573 0.0000 0.0000 0.0000
# 2 52.4474 34.4420 67.5612 0.0000 0.0000 0.0000
# 3 127.5573 67.5612 183.1882 0.0000 0.0000 0.0000
# 4 0.0000 0.0000 0.0000 8.0025 0.0000 0.0000
# 5 0.0000 0.0000 0.0000 0.0000 40.5480 0.0000
# 6 0.0000 0.0000 0.0000 0.0000 0.0000 16.5612
#
#
#
# Elastic Compliance Matrix: (Units=1/GPa)
#
#
# Indices 1 2 3 4 5 6 
#
# 1 0.079735 -0.045232 -0.038839 0.000000 0.000000 0.000000
# 2 -0.045232 0.130648 -0.016688 0.000000 0.000000 0.000000
# 3 -0.038839 -0.016688 0.038657 0.000000 0.000000 0.000000
# 4 0.000000 0.000000 0.000000 0.124961 0.000000 0.000000
# 5 0.000000 0.000000 0.000000 0.000000 0.024662 0.000000
# 6 0.000000 0.000000 0.000000 0.000000 0.000000 0.060382
#
#
# Mechanical properties :
#
#
# Convention : Reuss Voigt Hill
#
# Bulk Modulus (GPa) = 21.04272 90.79882 55.92077
# Shear Modulus (GPa) = 7.39204 17.98844 12.69024
#
# Velocity S-wave (km/s) = 2.09183 3.26319 2.74082
# Velocity P-wave (km/s) = 4.27677 8.24299 6.56649
#
# Compressibility (1/GPa) = 0.04752238
#
# Stress axis : x y z
#
# Youngs Moduli (GPa) = 12.54161 7.65416 25.86820
#
# Poissons Ratio (x) = 0.34622 1.00469
# Poissons Ratio (y) = 0.56729 0.43168
# Poissons Ratio (z) = 0.48710 0.12773
#
# Static dielectric constant tensor:
#      x y z
#    x 1.555630 0.000000 0.000000 
#    y 0.000000 1.561780 0.000000 
#    z 0.000000 0.000000 1.548600 
# 
# From -- ./inp_files/12852.got.cif
#   From: 2010.05.17/outbox.cif.g08.bks.cpg/sg51_7_cif.got.tgz:12852.got - 2010.06.03 11:52:47.
