data_PCOD9405621
_publ_section_title
;
Structure prediction by ZEFSAII (Michael W. Deem and Ramdas Pophale) SiO2 
 PCOD9405621
Probable space group: P M M A
;
_chemical_formula_sum "Si O2"
_cell_formula_units_Z 48
_cell_length_a 9.698812
_cell_length_b 7.957662
_cell_length_c 32.384385
_cell_angle_alpha 90.000000
_cell_angle_beta 90.000000
_cell_angle_gamma 90.000000
_cell_volume 2499.422550
_symmetry_space_group_name_H-M "P M M A"
_symmetry_group_IT_number 51
_symmetry_cell_setting 'orthorhombic'
loop_
_space_group_symop_operation_xyz
x,y,z
1/2-x,-y,z
1/2+x,-y,-z
-x,y,-z
-x,-y,-z
1/2+x,y,-z
1/2-x,y,z
x,-y,z
loop_
_atom_site_type_symbol
_atom_site_label
_atom_site_fract_x
_atom_site_fract_y
_atom_site_fract_z
Si Si1 0.907945 0.301083 0.613176
Si Si2 0.406409 0.799568 0.537363
Si Si3 0.906652 0.200546 0.704823
Si Si4 0.409865 0.293932 0.961267
Si Si5 0.081998 0.304239 0.871372
Si Si6 0.407860 0.296913 0.781938
O O1 0.750000 0.234569 0.608500
O O2 0.903016 0.500000 0.606806
O O3 0.953073 0.266869 0.660192
O O4 0.012312 0.228268 0.579848
O O5 0.500000 0.730322 0.500000
O O6 0.250000 0.731780 0.537800
O O7 0.395724 0.000000 0.531141
O O8 0.750000 0.263062 0.711235
O O9 0.000384 0.249813 0.743181
O O10 0.903804 0.000000 0.702094
O O11 0.250000 0.246539 0.966550
O O12 0.413500 0.500000 0.960143
O O13 0.459177 0.233041 0.915982
O O14 0.500000 0.238671 0.000000
O O15 0.250000 0.302347 0.871205
O O16 0.038980 0.500000 0.871619
O O17 0.040424 0.232309 0.826822
O O18 0.250000 0.239362 0.776063
O O19 0.404659 0.500000 0.784807
#
# Coordination Sequence:
#
# PCOD9405621 Si02
#       6
#     8   8   8   8   8   8
#     4  10  21  37  57  79 103 134 171 208 247 292
#     4  10  21  37  58  83 110 141 175 209 246 288
#     4  10  21  36  53  73  99 131 164 200 246 297
#     4   8  12  18  29  46  72 107 144 180 219 267
#     4   7  11  21  36  54  79 113 149 184 227 278
#     4   9  17  30  49  71  94 123 161 202 242 287
#
# _framework density 19.204436000000001
#
# number of rings (size 3 to 8) (size 9 to 14) (size 15 to 20)
#    0.000    3.000    0.000    3.500    0.000    4.333 
#    0.000    0.833    0.000    3.000    0.000    0.000 
#    0.000    0.667    0.000    1.500    0.000    4.333 
#
# Total GULP energy -267452.994771 kJ/mol
# GULP energy per Si atom -5571.937391 kJ/mol
# Density = 1.916073 g / cm^3
# Si number density = 19.204436 Si / 1000 Ang^3
#
#
#
# Elastic Constant Matrix: (Units=GPa)
#
#
# Indices 1 2 3 4 5 6 
#
# 1 88.1710 6.8878 100.6676 0.0000 0.0000 0.0000
# 2 6.8878 16.8287 -0.3681 0.0000 0.0000 0.0000
# 3 100.6676 -0.3681 192.1583 0.0000 0.0000 0.0000
# 4 0.0000 0.0000 0.0000 26.6321 0.0000 0.0000
# 5 0.0000 0.0000 0.0000 0.0000 36.2051 0.0000
# 6 0.0000 0.0000 0.0000 0.0000 0.0000 12.4547
#
#
#
# Elastic Compliance Matrix: (Units=1/GPa)
#
#
# Indices 1 2 3 4 5 6 
#
# 1 0.030813 -0.012965 -0.016167 0.000000 0.000000 0.000000
# 2 -0.012965 0.064880 0.006916 0.000000 0.000000 0.000000
# 3 -0.016167 0.006916 0.013687 0.000000 0.000000 0.000000
# 4 0.000000 0.000000 0.000000 0.037549 0.000000 0.000000
# 5 0.000000 0.000000 0.000000 0.000000 0.027620 0.000000
# 6 0.000000 0.000000 0.000000 0.000000 0.000000 0.080291
#
#
# Mechanical properties :
#
#
# Convention : Reuss Voigt Hill
#
# Bulk Modulus (GPa) = 15.39685 56.83695 36.11690
# Shear Modulus (GPa) = 15.58020 27.72309 21.65165
#
# Velocity S-wave (km/s) = 2.85139 3.80357 3.36136
# Velocity P-wave (km/s) = 4.34457 6.99639 5.82343
#
# Compressibility (1/GPa) = 0.06494834
#
# Stress axis : x y z
#
# Youngs Moduli (GPa) = 32.45416 15.41311 73.06313
#
# Poissons Ratio (x) = 0.19983 1.18121
# Poissons Ratio (y) = 0.42076 -0.50532
# Poissons Ratio (z) = 0.52468 -0.10660
#
# Static dielectric constant tensor:
#      x y z
#    x 1.657870 0.000000 0.000000 
#    y 0.000000 1.700660 0.000000 
#    z 0.000000 0.000000 1.686930 
# 
# From -- ./inp_files/37682.got.cif
#   From: 2010.05.17/outbox.cif.g08.bks.cpg/sg51_19_cif.got.tgz:37682.got - 2010.06.03 11:52:47.
