data_PCOD9405839
_publ_section_title
;
Structure prediction by ZEFSAII (Michael W. Deem and Ramdas Pophale) SiO2 
 PCOD9405839
Probable space group: P M M A
;
_chemical_formula_sum "Si O2"
_cell_formula_units_Z 64
_cell_length_a 9.030919
_cell_length_b 18.378170
_cell_length_c 19.564544
_cell_angle_alpha 90.000000
_cell_angle_beta 90.000000
_cell_angle_gamma 90.000000
_cell_volume 3247.161892
_symmetry_space_group_name_H-M "P M M A"
_symmetry_group_IT_number 51
_symmetry_cell_setting 'orthorhombic'
loop_
_space_group_symop_operation_xyz
x,y,z
1/2-x,-y,z
1/2+x,-y,-z
-x,y,-z
-x,-y,-z
1/2+x,y,-z
1/2-x,y,z
x,-y,z
loop_
_atom_site_type_symbol
_atom_site_label
_atom_site_fract_x
_atom_site_fract_y
_atom_site_fract_z
Si Si1 0.420336 0.809126 0.818446
Si Si2 0.429431 0.917813 0.705588
Si Si3 0.573416 0.141299 0.572637
Si Si4 0.418089 0.080473 0.938595
Si Si5 0.425150 0.296765 0.073710
Si Si6 0.927984 0.414413 0.312167
Si Si7 0.078330 0.413011 0.845109
Si Si8 0.926428 0.313562 0.573205
O O1 0.250000 0.783280 0.808158
O O2 0.479427 0.847303 0.749969
O O3 0.416705 0.878205 0.868640
O O4 0.511669 0.752123 0.863479
O O5 0.250000 0.914480 0.704691
O O6 0.497735 0.905732 0.631410
O O7 0.467973 0.000000 0.730718
O O8 0.500000 0.124309 0.500000
O O9 0.750000 0.130325 0.570759
O O10 0.545435 0.227632 0.585999
O O11 0.250000 0.074404 0.961413
O O12 0.483094 0.000000 0.929547
O O13 0.500000 0.119728 0.000000
O O14 0.250000 0.287363 0.067567
O O15 0.472856 0.376454 0.099765
O O16 0.500000 0.283168 0.000000
O O17 0.750000 0.408830 0.319628
O O18 0.967082 0.500000 0.321439
O O19 0.961953 0.393271 0.233439
O O20 0.006394 0.363008 0.366861
O O21 0.250000 0.390808 0.857281
O O22 0.073099 0.500000 0.848477
O O23 0.750000 0.324080 0.568995
O O24 0.000000 0.331727 0.500000
#
# Coordination Sequence:
#
# PCOD9405839 Si02
#       8
#     8   8   8   8   8   8   8   8
#     4  10  21  38  59  84 117 154 191 237 290 346
#     4  10  22  40  63  91 121 157 199 242 296 360
#     4  10  22  40  61  87 119 156 202 251 303 357
#     4   9  17  30  50  75 104 141 184 228 275 330
#     4  12  26  42  62  89 122 158 201 247 296 354
#     4   9  19  36  59  87 120 159 201 245 297 358
#     4   9  20  41  66  91 120 156 199 246 299 358
#     4  10  21  36  56  84 119 160 206 253 300 354
#
# _framework density 19.709520000000001
#
# number of rings (size 3 to 8) (size 9 to 14) (size 15 to 20)
#    0.000    2.125    0.000    3.375    1.750    7.000 
#    0.000    1.250    0.000    2.250    0.000    0.000 
#    0.000    0.000    0.000    0.000    0.000    0.000 
#
# Total GULP energy -357001.970084 kJ/mol
# GULP energy per Si atom -5578.155783 kJ/mol
# Density = 1.966466 g / cm^3
# Si number density = 19.709520 Si / 1000 Ang^3
#
#
#
# Elastic Constant Matrix: (Units=GPa)
#
#
# Indices 1 2 3 4 5 6 
#
# 1 56.5035 27.6911 39.9688 0.0000 0.0000 0.0000
# 2 27.6911 55.1665 37.2549 0.0000 0.0000 0.0000
# 3 39.9688 37.2549 92.6831 0.0000 0.0000 0.0000
# 4 0.0000 0.0000 0.0000 29.7595 0.0000 0.0000
# 5 0.0000 0.0000 0.0000 0.0000 31.1717 0.0000
# 6 0.0000 0.0000 0.0000 0.0000 0.0000 26.0708
#
#
#
# Elastic Compliance Matrix: (Units=1/GPa)
#
#
# Indices 1 2 3 4 5 6 
#
# 1 0.027851 -0.008056 -0.008773 0.000000 0.000000 0.000000
# 2 -0.008056 0.027211 -0.007464 0.000000 0.000000 0.000000
# 3 -0.008773 -0.007464 0.017573 0.000000 0.000000 0.000000
# 4 0.000000 0.000000 0.000000 0.033603 0.000000 0.000000
# 5 0.000000 0.000000 0.000000 0.000000 0.032080 0.000000
# 6 0.000000 0.000000 0.000000 0.000000 0.000000 0.038357
#
#
# Mechanical properties :
#
#
# Convention : Reuss Voigt Hill
#
# Bulk Modulus (GPa) = 41.57865 46.02030 43.79948
# Shear Modulus (GPa) = 21.43379 24.02962 22.73171
#
# Velocity S-wave (km/s) = 3.30128 3.49548 3.39976
# Velocity P-wave (km/s) = 5.97267 6.30009 6.13856
#
# Compressibility (1/GPa) = 0.02405080
#
# Stress axis : x y z
#
# Youngs Moduli (GPa) = 35.90472 36.74987 56.90669
#
# Poissons Ratio (x) = 0.29605 0.49922
# Poissons Ratio (y) = 0.28925 0.42473
# Poissons Ratio (z) = 0.31498 0.27429
#
# Static dielectric constant tensor:
#      x y z
#    x 1.671850 0.000000 0.000000 
#    y 0.000000 1.745510 0.000000 
#    z 0.000000 0.000000 1.699880 
# 
# From -- ./inp_files/32414.got.cif
#   From: 2010.05.17/outbox.cif.g08.bks.cpg/sg51_17_cif.got.tgz:32414.got - 2010.06.03 11:52:47.
