data_PCOD9405425
_publ_section_title
;
Structure prediction by ZEFSAII (Michael W. Deem and Ramdas Pophale) SiO2 
 PCOD9405425
Probable space group: P M M A
;
_chemical_formula_sum "Si O2"
_cell_formula_units_Z 48
_cell_length_a 9.769250
_cell_length_b 7.497264
_cell_length_c 31.578629
_cell_angle_alpha 90.000000
_cell_angle_beta 90.000000
_cell_angle_gamma 90.000000
_cell_volume 2312.902355
_symmetry_space_group_name_H-M "P M M A"
_symmetry_group_IT_number 51
_symmetry_cell_setting 'orthorhombic'
loop_
_space_group_symop_operation_xyz
x,y,z
1/2-x,-y,z
1/2+x,-y,-z
-x,y,-z
-x,-y,-z
1/2+x,y,-z
1/2-x,y,z
x,-y,z
loop_
_atom_site_type_symbol
_atom_site_label
_atom_site_fract_x
_atom_site_fract_y
_atom_site_fract_z
Si Si1 0.096152 0.788307 0.792013
Si Si2 0.592330 0.718056 0.460118
Si Si3 0.405701 0.714188 0.037916
Si Si4 0.094144 0.786707 0.133021
Si Si5 0.906386 0.282569 0.617379
Si Si6 0.595683 0.714775 0.713596
O O1 0.250000 0.715236 0.790134
O O2 0.004938 0.715103 0.830612
O O3 0.014217 0.766013 0.748419
O O4 0.107463 0.000000 0.799259
O O5 0.500000 0.772997 0.500000
O O6 0.750000 0.775997 0.462893
O O7 0.593936 0.500000 0.460171
O O8 0.515879 0.775959 0.417247
O O9 0.250000 0.782519 0.034869
O O10 0.400036 0.500000 0.034081
O O11 0.456402 0.753301 0.085319
O O12 0.500000 0.782154 0.000000
O O13 0.250000 0.716355 0.136505
O O14 0.102489 0.000000 0.138298
O O15 0.750000 0.229960 0.606599
O O16 0.907707 0.500000 0.617174
O O17 0.935147 0.225272 0.665604
O O18 0.750000 0.776259 0.724848
O O19 0.599391 0.500000 0.712513
#
# Coordination Sequence:
#
# PCOD9405425 Si02
#       6
#     8   8   8   8   8   8
#     4  10  21  35  50  71  99 128 159 198 242 285
#     4   9  15  21  31  49  75 110 149 185 224 272
#     4   9  18  32  49  70  96 124 153 187 228 274
#     4   9  18  33  51  69  91 122 158 193 231 276
#     4   8  14  25  39  56  81 111 144 185 230 275
#     4   9  18  32  50  71  94 123 159 197 239 288
#
# _framework density 20.753145
#
# number of rings (size 3 to 8) (size 9 to 14) (size 15 to 20)
#    0.000    3.000    0.000    2.000    0.000    5.667 
#    0.000    3.333    0.000    0.000    0.000    0.000 
#    0.000    0.667    0.000    2.167    0.000    4.833 
#
# Total GULP energy -267876.804016 kJ/mol
# GULP energy per Si atom -5580.766750 kJ/mol
# Density = 2.070591 g / cm^3
# Si number density = 20.753145 Si / 1000 Ang^3
#
#
#
# Elastic Constant Matrix: (Units=GPa)
#
#
# Indices 1 2 3 4 5 6 
#
# 1 175.6415 5.0318 143.9639 0.0000 0.0000 0.0000
# 2 5.0318 55.6883 -1.1072 0.0000 0.0000 0.0000
# 3 143.9639 -1.1072 181.0304 0.0000 0.0000 0.0000
# 4 0.0000 0.0000 0.0000 16.6112 0.0000 0.0000
# 5 0.0000 0.0000 0.0000 0.0000 35.2678 0.0000
# 6 0.0000 0.0000 0.0000 0.0000 0.0000 0.7551
#
#
#
# Elastic Compliance Matrix: (Units=1/GPa)
#
#
# Indices 1 2 3 4 5 6 
#
# 1 0.016522 -0.001754 -0.013150 0.000000 0.000000 0.000000
# 2 -0.001754 0.018146 0.001506 0.000000 0.000000 0.000000
# 3 -0.013150 0.001506 0.015990 0.000000 0.000000 0.000000
# 4 0.000000 0.000000 0.000000 0.060200 0.000000 0.000000
# 5 0.000000 0.000000 0.000000 0.000000 0.028354 0.000000
# 6 0.000000 0.000000 0.000000 0.000000 0.000000 1.324399
#
#
# Mechanical properties :
#
#
# Convention : Reuss Voigt Hill
#
# Bulk Modulus (GPa) = 41.90764 78.68191 60.29478
# Shear Modulus (GPa) = 3.33698 28.15825 15.74761
#
# Velocity S-wave (km/s) = 1.26942 3.68750 2.75763
# Velocity P-wave (km/s) = 4.73136 7.49171 6.26544
#
# Compressibility (1/GPa) = 0.02386200
#
# Stress axis : x y z
#
# Youngs Moduli (GPa) = 60.52674 55.10991 62.53808
#
# Poissons Ratio (x) = 0.09668 0.82234
# Poissons Ratio (y) = 0.10618 -0.09419
# Poissons Ratio (z) = 0.79590 -0.08300
#
# Static dielectric constant tensor:
#      x y z
#    x 1.727980 0.000000 0.000000 
#    y 0.000000 1.795870 0.000000 
#    z 0.000000 0.000000 1.712390 
# 
# From -- ./inp_files/36124.got.cif
#   From: 2010.05.17/outbox.cif.g08.bks.cpg/sg51_19_cif.got.tgz:36124.got - 2010.06.03 11:52:47.
