data_PCOD9405891
_publ_section_title
;
Structure prediction by ZEFSAII (Michael W. Deem and Ramdas Pophale) SiO2 
 PCOD9405891
Probable space group: P M M A
;
_chemical_formula_sum "Si O2"
_cell_formula_units_Z 64
_cell_length_a 22.032989
_cell_length_b 9.167130
_cell_length_c 19.580463
_cell_angle_alpha 90.000000
_cell_angle_beta 90.000000
_cell_angle_gamma 90.000000
_cell_volume 3954.847710
_symmetry_space_group_name_H-M "P M M A"
_symmetry_group_IT_number 51
_symmetry_cell_setting 'orthorhombic'
loop_
_space_group_symop_operation_xyz
x,y,z
1/2-x,-y,z
1/2+x,-y,-z
-x,y,-z
-x,-y,-z
1/2+x,y,-z
1/2-x,y,z
x,-y,z
loop_
_atom_site_type_symbol
_atom_site_label
_atom_site_fract_x
_atom_site_fract_y
_atom_site_fract_z
Si Si1 0.438118 0.677258 0.462550
Si Si2 0.318750 0.674135 0.979782
Si Si3 0.438085 0.825191 0.040610
Si Si4 0.122545 0.328560 0.837107
Si Si5 0.178996 0.836130 0.712236
Si Si6 0.120824 0.672195 0.597074
Si Si7 0.001668 0.826508 0.180057
Si Si8 0.009614 0.672940 0.325551
O O1 0.500000 0.725373 0.500000
O O2 0.439937 0.500000 0.460977
O O3 0.387125 0.715327 0.517739
O O4 0.442383 0.723287 0.383832
O O5 0.250000 0.723489 0.997311
O O6 0.321862 0.500000 0.992456
O O7 0.330974 0.695848 0.898931
O O8 0.376147 0.750269 0.015689
O O9 0.449468 0.795658 0.120872
O O10 0.432929 0.000000 0.030545
O O11 0.500000 0.779273 0.000000
O O12 0.108759 0.500000 0.833119
O O13 0.149079 0.271549 0.766378
O O14 0.061137 0.239377 0.848188
O O15 0.250000 0.841350 0.725971
O O16 0.166794 0.772299 0.637689
O O17 0.153503 0.000000 0.718978
O O18 0.135958 0.500000 0.600618
O O19 0.056253 0.688922 0.637483
O O20 0.012855 0.756335 0.254198
O O21 0.996185 0.000000 0.186943
O O22 0.017409 0.500000 0.312815
#
# Coordination Sequence:
#
# PCOD9405891 Si02
#       8
#     8   8   8   8   8   8   8   8
#     4   7  12  24  43  67  93 119 150 189 232 281
#     4  10  22  38  56  79 103 129 170 222 266 305
#     4  10  21  37  54  75 105 140 174 208 254 313
#     4  11  21  34  52  72  98 133 172 210 251 299
#     4  11  23  34  44  64  97 135 171 207 247 291
#     4   9  16  28  47  68  91 124 163 201 240 287
#     4  11  21  32  49  74 106 136 168 208 250 300
#     4   9  16  28  47  71  97 126 159 194 243 298
#
# _framework density 16.182670999999999
#
# number of rings (size 3 to 8) (size 9 to 14) (size 15 to 20)
#    0.000    2.250    2.500    3.000    0.000    3.500 
#    0.000    0.625    0.000    2.250    0.000    0.875 
#    0.000    1.000    0.000    0.000    0.000    0.000 
#
# Total GULP energy -356485.274883 kJ/mol
# GULP energy per Si atom -5570.082420 kJ/mol
# Density = 1.614584 g / cm^3
# Si number density = 16.182671 Si / 1000 Ang^3
#
#
#
# Elastic Constant Matrix: (Units=GPa)
#
#
# Indices 1 2 3 4 5 6 
#
# 1 70.7973 24.1911 37.4436 0.0000 0.0000 0.0000
# 2 24.1911 35.9081 38.0159 0.0000 0.0000 0.0000
# 3 37.4436 38.0159 88.0921 0.0000 0.0000 0.0000
# 4 0.0000 0.0000 0.0000 6.4604 0.0000 0.0000
# 5 0.0000 0.0000 0.0000 0.0000 16.7865 0.0000
# 6 0.0000 0.0000 0.0000 0.0000 0.0000 21.2415
#
#
#
# Elastic Compliance Matrix: (Units=1/GPa)
#
#
# Indices 1 2 3 4 5 6 
#
# 1 0.019390 -0.007986 -0.004795 0.000000 0.000000 0.000000
# 2 -0.007986 0.054565 -0.020153 0.000000 0.000000 0.000000
# 3 -0.004795 -0.020153 0.022087 0.000000 0.000000 0.000000
# 4 0.000000 0.000000 0.000000 0.154788 0.000000 0.000000
# 5 0.000000 0.000000 0.000000 0.000000 0.059572 0.000000
# 6 0.000000 0.000000 0.000000 0.000000 0.000000 0.047078
#
#
# Mechanical properties :
#
#
# Convention : Reuss Voigt Hill
#
# Bulk Modulus (GPa) = 33.14198 43.78876 38.46537
# Shear Modulus (GPa) = 11.53654 15.24081 13.38867
#
# Velocity S-wave (km/s) = 2.67291 3.07220 2.87948
# Velocity P-wave (km/s) = 5.48181 6.30098 5.90562
#
# Compressibility (1/GPa) = 0.03017321
#
# Stress axis : x y z
#
# Youngs Moduli (GPa) = 51.57354 18.32679 45.27569
#
# Poissons Ratio (x) = 0.14636 0.21711
# Poissons Ratio (y) = 0.41187 0.91244
# Poissons Ratio (z) = 0.24731 0.36934
#
# Static dielectric constant tensor:
#      x y z
#    x 1.548560 0.000000 0.000000 
#    y 0.000000 1.544570 0.000000 
#    z 0.000000 0.000000 1.570460 
# 
# From -- ./inp_files/34104.got.cif
#   From: 2010.05.17/outbox.cif.g08.bks.cpg/sg51_18_cif.got.tgz:34104.got - 2010.06.03 11:52:47.
