data_PCOD9405013
_publ_section_title
;
Structure prediction by ZEFSAII (Michael W. Deem and Ramdas Pophale) SiO2 
 PCOD9405013
Probable space group: P M M A
;
_chemical_formula_sum "Si O2"
_cell_formula_units_Z 48
_cell_length_a 8.491318
_cell_length_b 31.831440
_cell_length_c 9.539503
_cell_angle_alpha 90.000000
_cell_angle_beta 90.000000
_cell_angle_gamma 90.000000
_cell_volume 2578.440655
_symmetry_space_group_name_H-M "P M M A"
_symmetry_group_IT_number 51
_symmetry_cell_setting 'orthorhombic'
loop_
_space_group_symop_operation_xyz
x,y,z
1/2-x,-y,z
1/2+x,-y,-z
-x,y,-z
-x,-y,-z
1/2+x,y,-z
1/2-x,y,z
x,-y,z
loop_
_atom_site_type_symbol
_atom_site_label
_atom_site_fract_x
_atom_site_fract_y
_atom_site_fract_z
Si Si1 0.560077 0.249874 0.156598
Si Si2 0.937918 0.000000 0.159516
Si Si3 0.059793 0.579036 0.658465
Si Si4 0.560416 0.845285 0.158928
Si Si5 0.937781 0.078175 0.659019
Si Si6 0.559735 0.327377 0.342345
Si Si7 0.940646 0.500000 0.157864
O O1 0.750000 0.250642 0.156626
O O2 0.513447 0.202491 0.199022
O O3 0.502235 0.288030 0.252149
O O4 0.500000 0.256289 0.000000
O O5 0.996589 0.959471 0.245105
O O6 0.750000 0.000000 0.155301
O O7 0.000000 0.000000 0.000000
O O8 0.250000 0.578177 0.654808
O O9 0.010768 0.625880 0.706873
O O10 0.005853 0.541558 0.758592
O O11 0.000000 0.572887 0.500000
O O12 0.750000 0.848269 0.158375
O O13 0.491530 0.878853 0.266378
O O14 0.500000 0.853012 0.000000
O O15 0.750000 0.075716 0.656451
O O16 0.000000 0.075259 0.500000
O O17 0.500000 0.323015 0.500000
O O18 0.750000 0.326559 0.341912
O O19 0.750000 0.500000 0.157246
O O20 0.000000 0.500000 0.000000
#
# Coordination Sequence:
#
# PCOD9405013 Si02
#       7
#     8   4   8   8   8   8   4
#     4   9  19  34  53  77 107 140 178 220 266 316
#     4  12  25  44  67  92 120 154 192 230 273 326
#     4   9  18  33  52  72  98 131 171 213 259 312
#     4  10  20  37  58  82 111 147 187 228 272 325
#     4  12  25  42  62  88 119 152 188 231 279 327
#     4   9  18  33  51  74 102 134 171 216 263 314
#     4  10  21  34  48  72 102 132 165 210 260 312
#
# _framework density 18.615902999999999
#
# number of rings (size 3 to 8) (size 9 to 14) (size 15 to 20)
#    0.000    2.000    0.000    3.750    0.000    3.333 
#    0.000    1.667    0.000    0.000    0.000    0.000 
#    0.000    0.000    0.000    0.000    0.000    0.000 
#
# Total GULP energy -268003.953749 kJ/mol
# GULP energy per Si atom -5583.415703 kJ/mol
# Density = 1.857353 g / cm^3
# Si number density = 18.615903 Si / 1000 Ang^3
#
#
#
# Elastic Constant Matrix: (Units=GPa)
#
#
# Indices 1 2 3 4 5 6 
#
# 1 66.9033 49.3459 41.5334 0.0000 0.0000 0.0000
# 2 49.3459 205.7597 129.9471 0.0000 0.0000 0.0000
# 3 41.5334 129.9471 138.8429 0.0000 0.0000 0.0000
# 4 0.0000 0.0000 0.0000 36.8590 0.0000 0.0000
# 5 0.0000 0.0000 0.0000 0.0000 35.0671 0.0000
# 6 0.0000 0.0000 0.0000 0.0000 0.0000 34.4794
#
#
#
# Elastic Compliance Matrix: (Units=1/GPa)
#
#
# Indices 1 2 3 4 5 6 
#
# 1 0.018806 -0.002341 -0.003435 0.000000 0.000000 0.000000
# 2 -0.002341 0.012177 -0.010696 0.000000 0.000000 0.000000
# 3 -0.003435 -0.010696 0.018241 0.000000 0.000000 0.000000
# 4 0.000000 0.000000 0.000000 0.027130 0.000000 0.000000
# 5 0.000000 0.000000 0.000000 0.000000 0.028517 0.000000
# 6 0.000000 0.000000 0.000000 0.000000 0.000000 0.029003
#
#
# Mechanical properties :
#
#
# Convention : Reuss Voigt Hill
#
# Bulk Modulus (GPa) = 61.42652 94.79540 78.11096
# Shear Modulus (GPa) = 29.02878 33.99305 31.51091
#
# Velocity S-wave (km/s) = 3.95315 4.27783 4.11869
# Velocity P-wave (km/s) = 7.34200 8.68517 8.04167
#
# Compressibility (1/GPa) = 0.01627961
#
# Stress axis : x y z
#
# Youngs Moduli (GPa) = 53.17526 82.12494 54.82272
#
# Poissons Ratio (x) = 0.19225 0.18829
# Poissons Ratio (y) = 0.12448 0.58639
# Poissons Ratio (z) = 0.18263 0.87842
#
# Static dielectric constant tensor:
#      x y z
#    x 1.629000 0.000000 0.000000 
#    y 0.000000 1.669600 0.000000 
#    z 0.000000 0.000000 1.594910 
# 
# From -- ./inp_files/6117.got.cif
#   From: 2010.05.17/outbox.cif.g08.bks.cpg/sg51_4_cif.got.tgz:6117.got - 2010.06.03 11:52:47.
