data_PCOD9405195
_publ_section_title
;
Structure prediction by ZEFSAII (Michael W. Deem and Ramdas Pophale) SiO2 
 PCOD9405195
Probable space group: P M M A
;
_chemical_formula_sum "Si O2"
_cell_formula_units_Z 48
_cell_length_a 16.680157
_cell_length_b 15.069708
_cell_length_c 9.800629
_cell_angle_alpha 90.000000
_cell_angle_beta 90.000000
_cell_angle_gamma 90.000000
_cell_volume 2463.536043
_symmetry_space_group_name_H-M "P M M A"
_symmetry_group_IT_number 51
_symmetry_cell_setting 'orthorhombic'
loop_
_space_group_symop_operation_xyz
x,y,z
1/2-x,-y,z
1/2+x,-y,-z
-x,y,-z
-x,-y,-z
1/2+x,y,-z
1/2-x,y,z
x,-y,z
loop_
_atom_site_type_symbol
_atom_site_label
_atom_site_fract_x
_atom_site_fract_y
_atom_site_fract_z
Si Si1 0.839156 0.759196 0.731362
Si Si2 0.343340 0.722261 0.572070
Si Si3 0.884761 0.398821 0.902736
Si Si4 0.425209 0.099412 0.600204
Si Si5 0.964187 0.102164 0.856464
Si Si6 0.434239 0.601814 0.788526
O O1 0.750000 0.796490 0.707638
O O2 0.865660 0.715036 0.587866
O O3 0.835429 0.679605 0.838158
O O4 0.898046 0.833685 0.790859
O O5 0.250000 0.697480 0.591269
O O6 0.357905 0.826675 0.595716
O O7 0.400184 0.667774 0.674575
O O8 0.858674 0.500000 0.874834
O O9 0.973025 0.387753 0.833462
O O10 0.890040 0.387981 0.065792
O O11 0.500000 0.121987 0.500000
O O12 0.463308 0.099074 0.749650
O O13 0.398608 0.000000 0.562627
O O14 0.935121 0.000000 0.874150
O O15 0.000000 0.134826 0.000000
O O16 0.423394 0.500000 0.741777
#
# Coordination Sequence:
#
# PCOD9405195 Si02
#       6
#     8   8   8   8   8   8
#     4  11  24  38  57  88 123 159 194 238 298 356
#     4  11  24  38  56  88 126 159 192 239 298 355
#     4   9  20  39  62  87 114 151 201 247 289 345
#     4  10  20  38  62  85 113 153 200 242 284 344
#     4  10  22  40  62  87 114 151 198 245 292 347
#     4   9  20  39  63  88 114 152 199 245 293 346
#
# _framework density 19.484188
#
# number of rings (size 3 to 8) (size 9 to 14) (size 15 to 20)
#    0.000    2.000    1.667    2.000    4.667    2.667 
#    0.000    6.667    0.000    3.000    0.000    0.000 
#    0.000    0.000    0.000    0.000    0.000    0.000 
#
# Total GULP energy -267753.904732 kJ/mol
# GULP energy per Si atom -5578.206349 kJ/mol
# Density = 1.943984 g / cm^3
# Si number density = 19.484188 Si / 1000 Ang^3
#
#
#
# Elastic Constant Matrix: (Units=GPa)
#
#
# Indices 1 2 3 4 5 6 
#
# 1 34.9909 33.5738 27.8430 0.0000 0.0000 0.0000
# 2 33.5738 80.0063 27.2848 0.0000 0.0000 0.0000
# 3 27.8430 27.2848 89.9985 0.0000 0.0000 0.0000
# 4 0.0000 0.0000 0.0000 31.8891 0.0000 0.0000
# 5 0.0000 0.0000 0.0000 0.0000 20.9961 0.0000
# 6 0.0000 0.0000 0.0000 0.0000 0.0000 16.4337
#
#
#
# Elastic Compliance Matrix: (Units=1/GPa)
#
#
# Indices 1 2 3 4 5 6 
#
# 1 0.056910 -0.019939 -0.011561 0.000000 0.000000 0.000000
# 2 -0.019939 0.020926 -0.000176 0.000000 0.000000 0.000000
# 3 -0.011561 -0.000176 0.014741 0.000000 0.000000 0.000000
# 4 0.000000 0.000000 0.000000 0.031359 0.000000 0.000000
# 5 0.000000 0.000000 0.000000 0.000000 0.047628 0.000000
# 6 0.000000 0.000000 0.000000 0.000000 0.000000 0.060850
#
#
# Mechanical properties :
#
#
# Convention : Reuss Voigt Hill
#
# Bulk Modulus (GPa) = 34.21679 42.48877 38.35278
# Shear Modulus (GPa) = 16.36620 21.61673 18.99146
#
# Velocity S-wave (km/s) = 2.90137 3.33445 3.12542
# Velocity P-wave (km/s) = 5.36874 6.05631 5.72286
#
# Compressibility (1/GPa) = 0.02922542
#
# Stress axis : x y z
#
# Youngs Moduli (GPa) = 17.57166 47.78739 67.83654
#
# Poissons Ratio (x) = 0.95282 0.78429
# Poissons Ratio (y) = 0.35036 0.01191
# Poissons Ratio (z) = 0.20315 0.00839
#
# Static dielectric constant tensor:
#      x y z
#    x 1.743860 0.000000 0.000000 
#    y 0.000000 1.699280 0.000000 
#    z 0.000000 0.000000 1.706130 
# 
# From -- ./inp_files/9607.got.cif
#   From: 2010.05.17/outbox.cif.g08.bks.cpg/sg51_5_cif.got.tgz:9607.got - 2010.06.03 11:52:47.
