data_PCOD9405609
_publ_section_title
;
Structure prediction by ZEFSAII (Michael W. Deem and Ramdas Pophale) SiO2 
 PCOD9405609
Probable space group: P M M A
;
_chemical_formula_sum "Si O2"
_cell_formula_units_Z 56
_cell_length_a 21.609439
_cell_length_b 14.586304
_cell_length_c 10.452411
_cell_angle_alpha 90.000000
_cell_angle_beta 90.000000
_cell_angle_gamma 90.000000
_cell_volume 3294.619248
_symmetry_space_group_name_H-M "P M M A"
_symmetry_group_IT_number 51
_symmetry_cell_setting 'orthorhombic'
loop_
_space_group_symop_operation_xyz
x,y,z
1/2-x,-y,z
1/2+x,-y,-z
-x,y,-z
-x,-y,-z
1/2+x,y,-z
1/2-x,y,z
x,-y,z
loop_
_atom_site_type_symbol
_atom_site_label
_atom_site_fract_x
_atom_site_fract_y
_atom_site_fract_z
Si Si1 0.929106 0.251131 0.512410
Si Si2 0.250000 0.110445 0.376224
Si Si3 0.820891 0.400036 0.220899
Si Si4 0.114394 0.888858 0.283121
Si Si5 0.126369 0.209983 0.764786
Si Si6 0.320381 0.605787 0.469066
Si Si7 0.250000 0.889083 0.674203
Si Si8 0.426440 0.102870 0.000812
O O1 0.924703 0.166548 0.611541
O O2 0.908361 0.218172 0.370996
O O3 0.877766 0.326339 0.558393
O O4 0.000000 0.285089 0.500000
O O5 0.313952 0.136473 0.309437
O O6 0.250000 0.139241 0.524460
O O7 0.250000 0.000000 0.378460
O O8 0.750000 0.391623 0.176490
O O9 0.844990 0.500000 0.182322
O O10 0.859360 0.311917 0.184925
O O11 0.818735 0.397404 0.375876
O O12 0.107006 0.000000 0.296998
O O13 0.095778 0.862635 0.139219
O O14 0.189800 0.155942 0.736187
O O15 0.092042 0.158554 0.876935
O O16 0.250000 0.634504 0.428732
O O17 0.330064 0.500000 0.425896
O O18 0.250000 0.000000 0.683204
O O19 0.400318 0.000000 0.988307
O O20 0.500000 0.098116 0.000000
#
# Coordination Sequence:
#
# PCOD9405609 Si02
#       8
#     8   4   8   8   8   8   4   8
#     4  11  22  32  53  84 110 142 184 227 272 326
#     4   9  18  33  51  74 105 140 174 219 275 324
#     4   8  14  27  48  76 105 131 165 211 267 326
#     4  10  21  36  53  73 106 148 183 218 271 333
#     4  11  20  33  56  80 108 138 181 230 275 317
#     4   8  16  31  53  78 106 140 175 218 275 331
#     4  11  20  31  52  86 113 132 173 239 286 306
#     4  10  22  39  54  71 104 148 187 225 270 326
#
# _framework density 16.997412000000001
#
# number of rings (size 3 to 8) (size 9 to 14) (size 15 to 20)
#    0.000    2.286    2.143    2.143    2.000    1.714 
#    0.000    1.429    0.000    1.286    0.000    2.000 
#    0.000    0.000    0.000    0.000    0.000    0.000 
#
# Total GULP energy -311970.730503 kJ/mol
# GULP energy per Si atom -5570.905902 kJ/mol
# Density = 1.695873 g / cm^3
# Si number density = 16.997412 Si / 1000 Ang^3
#
#
#
# Elastic Constant Matrix: (Units=GPa)
#
#
# Indices 1 2 3 4 5 6 
#
# 1 84.5803 29.6084 22.8654 0.0000 0.0000 0.0000
# 2 29.6084 78.7436 37.9651 0.0000 0.0000 0.0000
# 3 22.8654 37.9651 72.1435 0.0000 0.0000 0.0000
# 4 0.0000 0.0000 0.0000 -63.6621 0.0000 0.0000
# 5 0.0000 0.0000 0.0000 0.0000 22.7528 0.0000
# 6 0.0000 0.0000 0.0000 0.0000 0.0000 -5.7547
#
#
#
# Elastic Compliance Matrix: (Units=1/GPa)
#
#
# Indices 1 2 3 4 5 6 
#
# 1 0.013874 -0.004150 -0.002214 0.000000 0.000000 0.000000
# 2 -0.004150 0.018258 -0.008293 0.000000 0.000000 0.000000
# 3 -0.002214 -0.008293 0.018927 0.000000 0.000000 0.000000
# 4 0.000000 0.000000 0.000000 -0.015708 0.000000 0.000000
# 5 0.000000 0.000000 0.000000 0.000000 0.043951 0.000000
# 6 0.000000 0.000000 0.000000 0.000000 0.000000 -0.173770
#
#
# Mechanical properties :
#
#
# Convention : Reuss Voigt Hill
#
# Bulk Modulus (GPa) = 45.98381 46.26059 46.12220
# Shear Modulus (GPa) = -86.34582 0.33577 -43.00503
#
# Velocity S-wave (km/s) = -7.13510 0.44494 -5.03546
# Velocity P-wave (km/s) = 6.38494 5.24779 2.57178
#
# Compressibility (1/GPa) = 0.02174678
#
# Stress axis : x y z
#
# Youngs Moduli (GPa) = 72.07666 54.77026 52.83450
#
# Poissons Ratio (x) = 0.22727 0.11696
# Poissons Ratio (y) = 0.29909 0.43816
# Poissons Ratio (z) = 0.15955 0.45421
#
# Static dielectric constant tensor:
#      x y z
#    x 1.584490 0.000000 0.000000 
#    y 0.000000 1.616080 0.000000 
#    z 0.000000 0.000000 1.537700 
# 
# From -- ./inp_files/11047.got.cif
#   From: 2010.05.17/outbox.cif.g08.bks.cpg/sg51_6_cif.got.tgz:11047.got - 2010.06.03 11:52:47.
