data_PCOD9405377
_publ_section_title
;
Structure prediction by ZEFSAII (Michael W. Deem and Ramdas Pophale) SiO2 
 PCOD9405377
Probable space group: P M M A
;
_chemical_formula_sum "Si O2"
_cell_formula_units_Z 48
_cell_length_a 14.368950
_cell_length_b 7.949041
_cell_length_c 21.267096
_cell_angle_alpha 90.000000
_cell_angle_beta 90.000000
_cell_angle_gamma 90.000000
_cell_volume 2429.114364
_symmetry_space_group_name_H-M "P M M A"
_symmetry_group_IT_number 51
_symmetry_cell_setting 'orthorhombic'
loop_
_space_group_symop_operation_xyz
x,y,z
1/2-x,-y,z
1/2+x,-y,-z
-x,y,-z
-x,-y,-z
1/2+x,y,-z
1/2-x,y,z
x,-y,z
loop_
_atom_site_type_symbol
_atom_site_label
_atom_site_fract_x
_atom_site_fract_y
_atom_site_fract_z
Si Si1 0.555339 0.203275 0.351729
Si Si2 0.144798 0.294464 0.030091
Si Si3 0.855285 0.202128 0.221838
Si Si4 0.539968 0.297336 0.096343
Si Si5 0.150891 0.195597 0.381516
Si Si6 0.890206 0.690198 0.485007
O O1 0.601584 0.264155 0.287471
O O2 0.448517 0.267878 0.359181
O O3 0.615016 0.249510 0.413447
O O4 0.550564 0.000000 0.350916
O O5 0.250000 0.236347 0.041626
O O6 0.146216 0.500000 0.030773
O O7 0.064723 0.240494 0.078992
O O8 0.107285 0.243458 0.961107
O O9 0.750000 0.266016 0.212270
O O10 0.919756 0.242607 0.162668
O O11 0.850499 0.000000 0.226768
O O12 0.538998 0.500000 0.095163
O O13 0.250000 0.271353 0.360154
O O14 0.149950 0.204693 0.457490
O O15 0.150881 0.000000 0.362797
O O16 0.855976 0.500000 0.490189
O O17 0.000000 0.690681 0.500000
#
# Coordination Sequence:
#
# PCOD9405377 Si02
#       6
#     8   8   8   8   8   8
#     4   9  18  33  49  65  90 124 160 194 229 278
#     4   8  14  27  49  76 103 128 156 193 235 276
#     4  10  21  35  49  67  95 129 160 195 242 286
#     4   9  17  30  51  76  98 125 162 198 230 273
#     4   9  17  30  49  69  88 117 157 195 233 281
#     4   9  17  29  46  69  95 119 146 188 238 279
#
# _framework density 19.760287000000002
#
# number of rings (size 3 to 8) (size 9 to 14) (size 15 to 20)
#    0.000    3.000    0.000    2.000    0.000    4.667 
#    0.000    4.167    0.000    2.500    0.000    0.000 
#    0.000    0.000    0.000    0.000    0.000    0.000 
#
# Total GULP energy -267447.080650 kJ/mol
# GULP energy per Si atom -5571.814180 kJ/mol
# Density = 1.971531 g / cm^3
# Si number density = 19.760287 Si / 1000 Ang^3
#
#
#
# Elastic Constant Matrix: (Units=GPa)
#
#
# Indices 1 2 3 4 5 6 
#
# 1 145.6218 4.9098 60.5501 0.0000 0.0000 0.0000
# 2 4.9098 17.5407 -0.3205 0.0000 0.0000 0.0000
# 3 60.5501 -0.3205 133.3072 0.0000 0.0000 0.0000
# 4 0.0000 0.0000 0.0000 25.5008 0.0000 0.0000
# 5 0.0000 0.0000 0.0000 0.0000 -2.8876 0.0000
# 6 0.0000 0.0000 0.0000 0.0000 0.0000 5.0402
#
#
#
# Elastic Compliance Matrix: (Units=1/GPa)
#
#
# Indices 1 2 3 4 5 6 
#
# 1 0.008572 -0.002471 -0.003899 0.000000 0.000000 0.000000
# 2 -0.002471 0.057725 0.001261 0.000000 0.000000 0.000000
# 3 -0.003899 0.001261 0.009276 0.000000 0.000000 0.000000
# 4 0.000000 0.000000 0.000000 0.039214 0.000000 0.000000
# 5 0.000000 0.000000 0.000000 0.000000 -0.346305 0.000000
# 6 0.000000 0.000000 0.000000 0.000000 0.000000 0.198405
#
#
# Mechanical properties :
#
#
# Convention : Reuss Voigt Hill
#
# Bulk Modulus (GPa) = 15.30124 47.41650 31.35887
# Shear Modulus (GPa) = -4500.40315 20.95270 -2239.72523
#
# Velocity S-wave (km/s) = -47.77492 3.25983 -33.70324
# Velocity P-wave (km/s) = 55.09535 6.18195 38.71228
#
# Compressibility (1/GPa) = 0.06535418
#
# Stress axis : x y z
#
# Youngs Moduli (GPa) = 116.66206 17.32361 107.80922
#
# Poissons Ratio (x) = 0.04280 0.42039
# Poissons Ratio (y) = 0.28822 -0.13594
# Poissons Ratio (z) = 0.45491 -0.02184
#
# Static dielectric constant tensor:
#      x y z
#    x 1.756650 0.000000 0.000000 
#    y 0.000000 1.722490 0.000000 
#    z 0.000000 0.000000 1.661640 
# 
# From -- ./inp_files/29427.got.cif
#   From: 2010.05.17/outbox.cif.g08.bks.cpg/sg51_15_cif.got.tgz:29427.got - 2010.06.03 11:52:47.
