data_PCOD9405041
_publ_section_title
;
Structure prediction by ZEFSAII (Michael W. Deem and Ramdas Pophale) SiO2 
 PCOD9405041
Probable space group: P M M A
;
_chemical_formula_sum "Si O2"
_cell_formula_units_Z 48
_cell_length_a 8.738060
_cell_length_b 30.533480
_cell_length_c 9.818346
_cell_angle_alpha 90.000000
_cell_angle_beta 90.000000
_cell_angle_gamma 90.000000
_cell_volume 2619.567901
_symmetry_space_group_name_H-M "P M M A"
_symmetry_group_IT_number 51
_symmetry_cell_setting 'orthorhombic'
loop_
_space_group_symop_operation_xyz
x,y,z
1/2-x,-y,z
1/2+x,-y,-z
-x,y,-z
-x,-y,-z
1/2+x,y,-z
1/2-x,y,z
x,-y,z
loop_
_atom_site_type_symbol
_atom_site_label
_atom_site_fract_x
_atom_site_fract_y
_atom_site_fract_z
Si Si1 0.433743 0.622617 0.651060
Si Si2 0.067341 0.448435 0.147778
Si Si3 0.434279 0.949738 0.147099
Si Si4 0.566211 0.698995 0.146606
Si Si5 0.433981 0.199449 0.851615
Si Si6 0.934027 0.872598 0.651403
O O1 0.500000 0.622905 0.500000
O O2 0.250000 0.621721 0.645523
O O3 0.493369 0.581224 0.736395
O O4 0.482800 0.665778 0.735786
O O5 0.250000 0.442533 0.146307
O O6 0.034505 0.500000 0.169561
O O7 0.000000 0.436273 0.000000
O O8 0.250000 0.948998 0.138517
O O9 0.480738 0.916029 0.264127
O O10 0.482500 0.000000 0.174095
O O11 0.500000 0.936671 0.000000
O O12 0.750000 0.697348 0.137807
O O13 0.523148 0.749593 0.172473
O O14 0.500000 0.685862 0.000000
O O15 0.250000 0.195947 0.853684
O O16 0.502916 0.168386 0.736847
O O17 0.500000 0.187129 0.000000
O O18 0.750000 0.870830 0.646662
O O19 0.000000 0.873143 0.500000
#
# Coordination Sequence:
#
# PCOD9405041 Si02
#       6
#     8   8   8   8   8   8
#     4  11  23  38  56  81 113 148 185 225 273 325
#     4  10  21  38  60  85 112 144 183 226 272 323
#     4   9  19  36  57  80 106 138 178 223 270 321
#     4   9  20  37  58  83 109 141 181 225 271 322
#     4  10  20  37  59  83 111 143 182 225 271 322
#     4  11  23  37  54  79 111 146 183 224 273 326
#
# _framework density 18.323633999999998
#
# number of rings (size 3 to 8) (size 9 to 14) (size 15 to 20)
#    0.000    2.000    0.000    3.000    0.000    8.333 
#    0.000    1.667    0.000    0.000    0.000    0.000 
#    0.000    0.000    0.000    0.000    0.000    0.000 
#
# Total GULP energy -268163.345381 kJ/mol
# GULP energy per Si atom -5586.736362 kJ/mol
# Density = 1.828193 g / cm^3
# Si number density = 18.323634 Si / 1000 Ang^3
#
#
#
# Elastic Constant Matrix: (Units=GPa)
#
#
# Indices 1 2 3 4 5 6 
#
# 1 48.5463 49.2738 60.0234 0.0000 0.0000 0.0000
# 2 49.2738 112.0457 118.3779 0.0000 0.0000 0.0000
# 3 60.0234 118.3779 210.2999 0.0000 0.0000 0.0000
# 4 0.0000 0.0000 0.0000 -14.8620 0.0000 0.0000
# 5 0.0000 0.0000 0.0000 0.0000 37.9940 0.0000
# 6 0.0000 0.0000 0.0000 0.0000 0.0000 21.0386
#
#
#
# Elastic Compliance Matrix: (Units=1/GPa)
#
#
# Indices 1 2 3 4 5 6 
#
# 1 0.038266 -0.013050 -0.003576 0.000000 0.000000 0.000000
# 2 -0.013050 0.026472 -0.011176 0.000000 0.000000 0.000000
# 3 -0.003576 -0.011176 0.012067 0.000000 0.000000 0.000000
# 4 0.000000 0.000000 0.000000 -0.067286 0.000000 0.000000
# 5 0.000000 0.000000 0.000000 0.000000 0.026320 0.000000
# 6 0.000000 0.000000 0.000000 0.000000 0.000000 0.047532
#
#
# Mechanical properties :
#
#
# Convention : Reuss Voigt Hill
#
# Bulk Modulus (GPa) = 47.16958 91.80470 69.48714
# Shear Modulus (GPa) = 34.23685 18.38187 26.30936
#
# Velocity S-wave (km/s) = 4.32725 3.17074 3.79333
# Velocity P-wave (km/s) = 7.12497 7.97592 7.56242
#
# Compressibility (1/GPa) = 0.02120010
#
# Stress axis : x y z
#
# Youngs Moduli (GPa) = 26.13303 37.77617 82.87147
#
# Poissons Ratio (x) = 0.49298 0.29634
# Poissons Ratio (y) = 0.34103 0.92619
# Poissons Ratio (z) = 0.09345 0.42220
#
# Static dielectric constant tensor:
#      x y z
#    x 1.616440 0.000000 0.000000 
#    y 0.000000 1.641750 0.000000 
#    z 0.000000 0.000000 1.581230 
# 
# From -- ./inp_files/6038.got.cif
#   From: 2010.05.17/outbox.cif.g08.bks.cpg/sg51_4_cif.got.tgz:6038.got - 2010.06.03 11:52:47.
