data_PCOD9405105
_publ_section_title
;
Structure prediction by ZEFSAII (Michael W. Deem and Ramdas Pophale) SiO2 
 PCOD9405105
Probable space group: P M M A
;
_chemical_formula_sum "Si O2"
_cell_formula_units_Z 26
_cell_length_a 10.025118
_cell_length_b 8.431982
_cell_length_c 13.494201
_cell_angle_alpha 90.000000
_cell_angle_beta 90.000000
_cell_angle_gamma 90.000000
_cell_volume 1140.686597
_symmetry_space_group_name_H-M "P M M A"
_symmetry_group_IT_number 51
_symmetry_cell_setting 'orthorhombic'
loop_
_space_group_symop_operation_xyz
x,y,z
1/2-x,-y,z
1/2+x,-y,-z
-x,y,-z
-x,-y,-z
1/2+x,y,-z
1/2-x,y,z
x,-y,z
loop_
_atom_site_type_symbol
_atom_site_label
_atom_site_fract_x
_atom_site_fract_y
_atom_site_fract_z
Si Si1 0.250000 0.333628 0.759614
Si Si2 0.750000 0.000000 0.251363
Si Si3 0.044981 0.326311 0.300861
Si Si4 0.096097 0.185874 0.089326
Si Si5 0.520742 0.000000 0.616371
O O1 0.250000 0.500000 0.817966
O O2 0.116394 0.333327 0.694367
O O3 0.250000 0.161949 0.811383
O O4 0.881406 0.000000 0.320795
O O5 0.095039 0.500000 0.331703
O O6 0.090018 0.166375 0.355174
O O7 0.074318 0.293562 0.185386
O O8 0.250000 0.195457 0.060035
O O9 0.067944 0.000000 0.116099
O O10 0.000000 0.230621 0.000000
O O11 0.500000 0.000000 0.500000
#
# Coordination Sequence:
#
# PCOD9405105 Si02
#       5
#     4   2   8   8   4
#     4   8  16  30  54  84 111 143 190 241 293 348
#     4   8  16  32  52  78 106 148 188 244 296 352
#     4  10  20  37  61  89 122 158 200 253 308 365
#     4  10  22  40  61  93 128 165 208 254 307 372
#     4  10  20  38  59  87 117 159 204 253 309 367
#
# _framework density 22.793291
#
# number of rings (size 3 to 8) (size 9 to 14) (size 15 to 20)
#    0.000    2.462    1.538    0.000    2.154    1.846 
#    2.769    0.000    0.000    0.000    0.000    0.000 
#    0.000    0.000    0.000    0.000    0.000    0.000 
#
# Total GULP energy -145066.056247 kJ/mol
# GULP energy per Si atom -5579.463702 kJ/mol
# Density = 2.274141 g / cm^3
# Si number density = 22.793291 Si / 1000 Ang^3
#
#
#
# Elastic Constant Matrix: (Units=GPa)
#
#
# Indices 1 2 3 4 5 6 
#
# 1 102.2154 14.8286 12.5416 0.0000 0.0000 0.0000
# 2 14.8286 261.7112 57.6458 0.0000 0.0000 0.0000
# 3 12.5416 57.6458 93.5348 0.0000 0.0000 0.0000
# 4 0.0000 0.0000 0.0000 4.7340 0.0000 0.0000
# 5 0.0000 0.0000 0.0000 0.0000 2.4957 0.0000
# 6 0.0000 0.0000 0.0000 0.0000 0.0000 -9.7731
#
#
#
# Elastic Compliance Matrix: (Units=1/GPa)
#
#
# Indices 1 2 3 4 5 6 
#
# 1 0.009969 -0.000313 -0.001144 0.000000 0.000000 0.000000
# 2 -0.000313 0.004431 -0.002689 0.000000 0.000000 0.000000
# 3 -0.001144 -0.002689 0.012502 0.000000 0.000000 0.000000
# 4 0.000000 0.000000 0.000000 0.211237 0.000000 0.000000
# 5 0.000000 0.000000 0.000000 0.000000 0.400688 0.000000
# 6 0.000000 0.000000 0.000000 0.000000 0.000000 -0.102322
#
#
# Mechanical properties :
#
#
# Convention : Reuss Voigt Hill
#
# Bulk Modulus (GPa) = 53.73315 69.72148 61.72731
# Shear Modulus (GPa) = 9.07441 24.32103 16.69772
#
# Velocity S-wave (km/s) = 1.99745 3.27008 2.70954
# Velocity P-wave (km/s) = 5.38006 6.70171 6.07692
#
# Compressibility (1/GPa) = 0.01861049
#
# Stress axis : x y z
#
# Youngs Moduli (GPa) = 100.31099 225.68270 79.98883
#
# Poissons Ratio (x) = 0.07061 0.09150
# Poissons Ratio (y) = 0.03139 0.21508
# Poissons Ratio (z) = 0.11474 0.60683
#
# Static dielectric constant tensor:
#      x y z
#    x 1.875640 0.000000 0.000000 
#    y 0.000000 1.956120 0.000000 
#    z 0.000000 0.000000 1.747220 
# 
# From -- ./inp_files/22689.got.cif
#   From: 2010.05.17/outbox.cif.g08.bks.cpg/sg51_12_cif.got.tgz:22689.got - 2010.06.03 11:52:47.
