data_PCOD9405853
_publ_section_title
;
Structure prediction by ZEFSAII (Michael W. Deem and Ramdas Pophale) SiO2 
 PCOD9405853
Probable space group: P M M A
;
_chemical_formula_sum "Si O2"
_cell_formula_units_Z 64
_cell_length_a 15.223337
_cell_length_b 7.681320
_cell_length_c 24.709211
_cell_angle_alpha 90.000000
_cell_angle_beta 90.000000
_cell_angle_gamma 90.000000
_cell_volume 2889.379568
_symmetry_space_group_name_H-M "P M M A"
_symmetry_group_IT_number 51
_symmetry_cell_setting 'orthorhombic'
loop_
_space_group_symop_operation_xyz
x,y,z
1/2-x,-y,z
1/2+x,-y,-z
-x,y,-z
-x,-y,-z
1/2+x,y,-z
1/2-x,y,z
x,-y,z
loop_
_atom_site_type_symbol
_atom_site_label
_atom_site_fract_x
_atom_site_fract_y
_atom_site_fract_z
Si Si1 0.012306 0.289903 0.061308
Si Si2 0.469268 0.293004 0.368125
Si Si3 0.349539 0.792577 0.469814
Si Si4 0.344257 0.201225 0.748126
Si Si5 0.152000 0.703771 0.592648
Si Si6 0.463090 0.794791 0.253834
Si Si7 0.844281 0.710051 0.127803
Si Si8 0.850108 0.208748 0.848241
O O1 0.009545 0.500000 0.059424
O O2 0.098225 0.243562 0.095993
O O3 0.928036 0.228674 0.095150
O O4 0.000000 0.226514 0.000000
O O5 0.474425 0.500000 0.363032
O O6 0.415250 0.254187 0.422196
O O7 0.568388 0.219488 0.376285
O O8 0.423493 0.223366 0.313695
O O9 0.250000 0.738436 0.455491
O O10 0.369255 0.715030 0.528722
O O11 0.351092 0.000000 0.476772
O O12 0.250000 0.279239 0.729733
O O13 0.439322 0.285044 0.738309
O O14 0.342490 0.206690 0.813300
O O15 0.344630 0.000000 0.729981
O O16 0.250000 0.780048 0.600524
O O17 0.156915 0.500000 0.606929
O O18 0.407293 0.724363 0.203294
O O19 0.475841 0.000000 0.242511
O O20 0.750000 0.745420 0.100729
O O21 0.850618 0.500000 0.134902
O O22 0.750000 0.275509 0.848342
O O23 0.845318 0.000000 0.842012
#
# Coordination Sequence:
#
# PCOD9405853 Si02
#       8
#     8   8   8   8   8   8   8   8
#     4  10  21  36  57  86 117 148 183 228 280 335
#     4  11  23  36  55  84 115 149 191 236 282 336
#     4  10  21  37  58  83 111 146 189 237 289 341
#     4   9  17  31  53  78 102 133 175 221 272 328
#     4   9  19  37  58  81 114 153 188 227 280 340
#     4  10  21  37  55  78 111 149 188 235 286 334
#     4   9  17  30  50  76 106 138 173 216 267 324
#     4  10  22  41  62  83 111 151 196 238 283 334
#
# _framework density 22.150085000000001
#
# number of rings (size 3 to 8) (size 9 to 14) (size 15 to 20)
#    0.000    2.250    1.250    1.125    0.000    6.250 
#    0.000    2.500    0.000    1.500    0.000    0.000 
#    0.000    0.000    0.000    0.000    0.000    0.000 
#
# Total GULP energy -357167.386609 kJ/mol
# GULP energy per Si atom -5580.740416 kJ/mol
# Density = 2.209967 g / cm^3
# Si number density = 22.150085 Si / 1000 Ang^3
#
#
#
# Elastic Constant Matrix: (Units=GPa)
#
#
# Indices 1 2 3 4 5 6 
#
# 1 137.4919 8.3059 72.6441 0.0000 0.0000 0.0000
# 2 8.3059 48.6162 -3.4612 0.0000 0.0000 0.0000
# 3 72.6441 -3.4612 138.5842 0.0000 0.0000 0.0000
# 4 0.0000 0.0000 0.0000 21.8892 0.0000 0.0000
# 5 0.0000 0.0000 0.0000 0.0000 -5.4885 0.0000
# 6 0.0000 0.0000 0.0000 0.0000 0.0000 5.0322
#
#
#
# Elastic Compliance Matrix: (Units=1/GPa)
#
#
# Indices 1 2 3 4 5 6 
#
# 1 0.010277 -0.002143 -0.005441 0.000000 0.000000 0.000000
# 2 -0.002143 0.021053 0.001649 0.000000 0.000000 0.000000
# 3 -0.005441 0.001649 0.010109 0.000000 0.000000 0.000000
# 4 0.000000 0.000000 0.000000 0.045685 0.000000 0.000000
# 5 0.000000 0.000000 0.000000 0.000000 -0.182198 0.000000
# 6 0.000000 0.000000 0.000000 0.000000 0.000000 0.198719
#
#
# Mechanical properties :
#
#
# Convention : Reuss Voigt Hill
#
# Bulk Modulus (GPa) = 33.81838 53.29665 43.55751
# Shear Modulus (GPa) = 39.88180 20.76681 30.32431
#
# Velocity S-wave (km/s) = 4.24786 3.06527 3.70407
# Velocity P-wave (km/s) = 6.27376 6.05323 6.16448
#
# Compressibility (1/GPa) = 0.02956972
#
# Stress axis : x y z
#
# Youngs Moduli (GPa) = 97.30228 47.49951 98.92185
#
# Poissons Ratio (x) = 0.10180 0.53821
# Poissons Ratio (y) = 0.20854 -0.16314
# Poissons Ratio (z) = 0.52940 -0.07834
#
# Static dielectric constant tensor:
#      x y z
#    x 1.870880 0.000000 0.000000 
#    y 0.000000 1.818060 0.000000 
#    z 0.000000 0.000000 1.797290 
# 
# From -- ./inp_files/35666.got.cif
#   From: 2010.05.17/outbox.cif.g08.bks.cpg/sg51_18_cif.got.tgz:35666.got - 2010.06.03 11:52:47.
