data_PCOD9405210
_publ_section_title
;
Structure prediction by ZEFSAII (Michael W. Deem and Ramdas Pophale) SiO2 
 PCOD9405210
Probable space group: P M M A
;
_chemical_formula_sum "Si O2"
_cell_formula_units_Z 64
_cell_length_a 19.326402
_cell_length_b 8.688765
_cell_length_c 19.751209
_cell_angle_alpha 90.000000
_cell_angle_beta 90.000000
_cell_angle_gamma 90.000000
_cell_volume 3316.673683
_symmetry_space_group_name_H-M "P M M A"
_symmetry_group_IT_number 51
_symmetry_cell_setting 'orthorhombic'
loop_
_space_group_symop_operation_xyz
x,y,z
1/2-x,-y,z
1/2+x,-y,-z
-x,y,-z
-x,-y,-z
1/2+x,y,-z
1/2-x,y,z
x,-y,z
loop_
_atom_site_type_symbol
_atom_site_label
_atom_site_fract_x
_atom_site_fract_y
_atom_site_fract_z
Si Si1 0.086790 0.185119 0.646685
Si Si2 0.170925 0.812916 0.780328
Si Si3 0.669071 0.316018 0.479745
Si Si4 0.591677 0.813974 0.082631
Si Si5 0.668586 0.817532 0.627941
Si Si6 0.946154 0.184485 0.860723
Si Si7 0.452583 0.317595 0.288698
Si Si8 0.830182 0.684341 0.952134
O O1 0.132854 0.234375 0.711619
O O2 0.120904 0.251009 0.579141
O O3 0.010615 0.247536 0.661899
O O4 0.085842 0.000000 0.643832
O O5 0.250000 0.759027 0.782374
O O6 0.129547 0.767695 0.847531
O O7 0.171639 0.000000 0.780106
O O8 0.750000 0.280603 0.464303
O O9 0.662083 0.500000 0.484710
O O10 0.652719 0.240683 0.552127
O O11 0.511052 0.771950 0.091192
O O12 0.595263 0.000000 0.076233
O O13 0.631375 0.741459 0.019813
O O14 0.750000 0.789631 0.639607
O O15 0.621317 0.729205 0.681060
O O16 0.655741 0.000000 0.632736
O O17 0.960805 0.245544 0.785680
O O18 0.875304 0.250291 0.890416
O O19 0.943327 0.000000 0.858845
O O20 0.460162 0.500000 0.284995
O O21 0.750000 0.735469 0.951322
O O22 0.831277 0.500000 0.949912
#
# Coordination Sequence:
#
# PCOD9405210 Si02
#       8
#     8   8   8   8   8   8   8   8
#     4  11  21  37  59  87 124 164 210 254 295 357
#     4   9  17  31  55  86 119 156 198 245 294 345
#     4  10  21  38  60  90 128 165 203 252 311 369
#     4  10  20  38  63  90 120 157 201 249 298 356
#     4  10  22  42  67  92 118 155 205 256 305 363
#     4  11  23  42  66  91 119 158 206 252 301 361
#     4  12  25  41  63  91 125 162 199 248 311 369
#     4  11  25  42  60  89 126 161 200 249 305 362
#
# _framework density 19.296443
#
# number of rings (size 3 to 8) (size 9 to 14) (size 15 to 20)
#    0.000    1.500    1.250    4.125    0.000    7.000 
#    0.000    2.500    0.000    2.250    0.000    0.000 
#    0.000    0.000    0.000    0.000    0.000    0.000 
#
# Total GULP energy -357815.722786 kJ/mol
# GULP energy per Si atom -5590.870669 kJ/mol
# Density = 1.925252 g / cm^3
# Si number density = 19.296443 Si / 1000 Ang^3
#
#
#
# Elastic Constant Matrix: (Units=GPa)
#
#
# Indices 1 2 3 4 5 6 
#
# 1 96.0947 34.6345 26.0847 0.0000 0.0000 0.0000
# 2 34.6345 49.0115 13.0556 0.0000 0.0000 0.0000
# 3 26.0847 13.0556 30.6395 0.0000 0.0000 0.0000
# 4 0.0000 0.0000 0.0000 93.2813 0.0000 0.0000
# 5 0.0000 0.0000 0.0000 0.0000 36.8195 0.0000
# 6 0.0000 0.0000 0.0000 0.0000 0.0000 24.6823
#
#
#
# Elastic Compliance Matrix: (Units=1/GPa)
#
#
# Indices 1 2 3 4 5 6 
#
# 1 0.016352 -0.008852 -0.010149 0.000000 0.000000 0.000000
# 2 -0.008852 0.027807 -0.004313 0.000000 0.000000 0.000000
# 3 -0.010149 -0.004313 0.043116 0.000000 0.000000 0.000000
# 4 0.000000 0.000000 0.000000 0.010720 0.000000 0.000000
# 5 0.000000 0.000000 0.000000 0.000000 0.027160 0.000000
# 6 0.000000 0.000000 0.000000 0.000000 0.000000 0.040515
#
#
# Mechanical properties :
#
#
# Convention : Reuss Voigt Hill
#
# Bulk Modulus (GPa) = 24.60197 35.92171 30.26184
# Shear Modulus (GPa) = 22.13894 37.75467 29.94681
#
# Velocity S-wave (km/s) = 3.39087 4.42810 3.94373
# Velocity P-wave (km/s) = 5.30168 6.69330 6.03772
#
# Compressibility (1/GPa) = 0.04064715
#
# Stress axis : x y z
#
# Youngs Moduli (GPa) = 61.15586 35.96170 23.19330
#
# Poissons Ratio (x) = 0.31832 0.23539
# Poissons Ratio (y) = 0.54132 0.10004
# Poissons Ratio (z) = 0.62068 0.15511
#
# Static dielectric constant tensor:
#      x y z
#    x 1.672270 0.000000 0.000000 
#    y 0.000000 1.648440 0.000000 
#    z 0.000000 0.000000 1.639360 
# 
# From -- ./inp_files/33890.got.cif
#   From: 2010.05.17/outbox.cif.g08.bks.cpg/sg51_17_cif.got.tgz:33890.got - 2010.06.03 11:52:47.
