data_PCOD9405254
_publ_section_title
;
Structure prediction by ZEFSAII (Michael W. Deem and Ramdas Pophale) SiO2 
 PCOD9405254
Probable space group: P M M A
;
_chemical_formula_sum "Si O2"
_cell_formula_units_Z 38
_cell_length_a 7.768682
_cell_length_b 10.195123
_cell_length_c 23.772150
_cell_angle_alpha 90.000000
_cell_angle_beta 90.000000
_cell_angle_gamma 90.000000
_cell_volume 1882.817717
_symmetry_space_group_name_H-M "P M M A"
_symmetry_group_IT_number 51
_symmetry_cell_setting 'orthorhombic'
loop_
_space_group_symop_operation_xyz
x,y,z
1/2-x,-y,z
1/2+x,-y,-z
-x,y,-z
-x,-y,-z
1/2+x,y,-z
1/2-x,y,z
x,-y,z
loop_
_atom_site_type_symbol
_atom_site_label
_atom_site_fract_x
_atom_site_fract_y
_atom_site_fract_z
Si Si1 0.544977 0.727741 0.375496
Si Si2 0.545812 0.000000 0.065292
Si Si3 0.948492 0.751259 0.862663
Si Si4 0.250000 0.500000 0.390717
Si Si5 0.449749 0.500000 0.934478
Si Si6 0.460354 0.154189 0.257445
Si Si7 0.454866 0.000000 0.565351
O O1 0.750000 0.699124 0.388707
O O2 0.405514 0.615046 0.389240
O O3 0.531246 0.763323 0.309446
O O4 0.488653 0.863585 0.406288
O O5 0.473272 0.874317 0.096792
O O6 0.750000 0.000000 0.071067
O O7 0.500000 0.000000 0.000000
O O8 0.750000 0.732157 0.850073
O O9 0.025719 0.786233 0.801802
O O10 0.000468 0.626174 0.898426
O O11 0.250000 0.500000 0.937157
O O12 0.500000 0.500000 0.000000
O O13 0.250000 0.158424 0.259716
O O14 0.508249 0.000000 0.261062
O O15 0.500000 0.000000 0.500000
O O16 0.250000 0.000000 0.572217
#
# Coordination Sequence:
#
# PCOD9405254 Si02
#       7
#     8   4   8   2   4   8   4
#     4  11  24  44  71 107 143 189 244 295 349 425
#     4  12  24  39  60  87 119 155 205 263 323 389
#     4  11  23  42  65  92 124 162 212 264 330 408
#     4  12  26  44  70  98 152 196 228 276 372 412
#     4  12  26  45  64  88 123 169 217 269 336 407
#     4  10  20  39  69 100 133 174 219 278 349 409
#     4  10  24  43  76 111 141 189 257 306 346 411
#
# _framework density 20.182517000000001
#
# number of rings (size 3 to 8) (size 9 to 14) (size 15 to 20)
#    0.000    1.053    3.158    3.474    1.474    2.526 
#    0.000    0.526    0.000    0.000    0.000    0.000 
#    0.000    0.000    0.000    0.000    0.000    0.000 
#
# Total GULP energy -211592.667171 kJ/mol
# GULP energy per Si atom -5568.228083 kJ/mol
# Density = 2.013658 g / cm^3
# Si number density = 20.182517 Si / 1000 Ang^3
#
#
#
# Elastic Constant Matrix: (Units=GPa)
#
#
# Indices 1 2 3 4 5 6 
#
# 1 99.5072 51.3116 3.1665 0.0000 0.0000 0.0000
# 2 51.3116 195.3952 54.8890 0.0000 0.0000 0.0000
# 3 3.1665 54.8890 102.5180 0.0000 0.0000 0.0000
# 4 0.0000 0.0000 0.0000 24.8318 0.0000 0.0000
# 5 0.0000 0.0000 0.0000 0.0000 26.7297 0.0000
# 6 0.0000 0.0000 0.0000 0.0000 0.0000 44.0714
#
#
#
# Elastic Compliance Matrix: (Units=1/GPa)
#
#
# Indices 1 2 3 4 5 6 
#
# 1 0.011823 -0.003534 0.001527 0.000000 0.000000 0.000000
# 2 -0.003534 0.007080 -0.003682 0.000000 0.000000 0.000000
# 3 0.001527 -0.003682 0.011678 0.000000 0.000000 0.000000
# 4 0.000000 0.000000 0.000000 0.040271 0.000000 0.000000
# 5 0.000000 0.000000 0.000000 0.000000 0.037412 0.000000
# 6 0.000000 0.000000 0.000000 0.000000 0.000000 0.022690
#
#
# Mechanical properties :
#
#
# Convention : Reuss Voigt Hill
#
# Bulk Modulus (GPa) = 52.07096 68.46163 60.26630
# Shear Modulus (GPa) = 33.61732 38.33013 35.97373
#
# Velocity S-wave (km/s) = 4.08568 4.36268 4.22645
# Velocity P-wave (km/s) = 6.93636 7.70534 7.33094
#
# Compressibility (1/GPa) = 0.01920456
#
# Stress axis : x y z
#
# Youngs Moduli (GPa) = 84.58007 141.24322 85.62850
#
# Poissons Ratio (x) = 0.49911 -0.13074
# Poissons Ratio (y) = 0.29888 0.31524
# Poissons Ratio (z) = -0.12914 0.51999
#
# Static dielectric constant tensor:
#      x y z
#    x 1.735210 0.000000 0.000000 
#    y 0.000000 1.635820 0.000000 
#    z 0.000000 0.000000 1.633730 
# 
# From -- ./inp_files/34425.got.cif
#   From: 2010.05.17/outbox.cif.g08.bks.cpg/sg51_18_cif.got.tgz:34425.got - 2010.06.03 11:52:47.
