data_PCOD9405547
_publ_section_title
;
Structure prediction by ZEFSAII (Michael W. Deem and Ramdas Pophale) SiO2 
 PCOD9405547
Probable space group: P M M A
;
_chemical_formula_sum "Si O2"
_cell_formula_units_Z 56
_cell_length_a 21.990958
_cell_length_b 9.316596
_cell_length_c 14.882552
_cell_angle_alpha 90.000000
_cell_angle_beta 90.000000
_cell_angle_gamma 90.000000
_cell_volume 3049.150222
_symmetry_space_group_name_H-M "P M M A"
_symmetry_group_IT_number 51
_symmetry_cell_setting 'orthorhombic'
loop_
_space_group_symop_operation_xyz
x,y,z
1/2-x,-y,z
1/2+x,-y,-z
-x,y,-z
-x,-y,-z
1/2+x,y,-z
1/2-x,y,z
x,-y,z
loop_
_atom_site_type_symbol
_atom_site_label
_atom_site_fract_x
_atom_site_fract_y
_atom_site_fract_z
Si Si1 0.568028 0.172251 0.260860
Si Si2 0.179503 0.841724 0.254266
Si Si3 0.938480 0.174880 0.052923
Si Si4 0.679627 0.171031 0.388626
Si Si5 0.653611 0.337894 0.573275
Si Si6 0.179212 0.175402 0.060165
Si Si7 0.011270 0.336585 0.402022
O O1 0.562059 0.218149 0.157515
O O2 0.632745 0.205804 0.308608
O O3 0.517912 0.247014 0.322897
O O4 0.560740 0.000000 0.263892
O O5 0.250000 0.860585 0.231246
O O6 0.179576 0.749436 0.343414
O O7 0.156124 0.779192 0.160079
O O8 0.152040 0.000000 0.271375
O O9 0.938868 0.000000 0.050769
O O10 0.874256 0.219789 0.007877
O O11 0.000000 0.220878 0.000000
O O12 0.750000 0.200000 0.365367
O O13 0.663037 0.256958 0.479123
O O14 0.674168 0.000000 0.407028
O O15 0.677075 0.500000 0.565920
O O16 0.583198 0.345410 0.600592
O O17 0.250000 0.220603 0.041708
O O18 0.180164 0.000000 0.061196
O O19 0.985592 0.500000 0.401856
O O20 0.000000 0.269744 0.500000
#
# Coordination Sequence:
#
# PCOD9405547 Si02
#       7
#     8   8   8   8   8   8   8
#     4  10  21  35  55  82 105 136 178 216 262 315
#     4   9  18  32  51  77 107 139 173 210 257 310
#     4   9  18  31  49  78 108 131 168 222 267 306
#     4  10  21  36  52  75 109 141 172 215 261 308
#     4  11  22  34  52  77 104 139 179 215 259 312
#     4   8  15  29  49  73 104 141 174 209 265 327
#     4  10  21  38  55  73 104 140 172 213 262 309
#
# _framework density 18.365772
#
# number of rings (size 3 to 8) (size 9 to 14) (size 15 to 20)
#    0.000    2.429    1.429    1.714    2.000    4.286 
#    0.000    2.857    0.000    1.286    0.000    0.000 
#    0.000    0.000    0.000    0.000    0.000    0.000 
#
# Total GULP energy -311798.334526 kJ/mol
# GULP energy per Si atom -5567.827402 kJ/mol
# Density = 1.832397 g / cm^3
# Si number density = 18.365772 Si / 1000 Ang^3
#
#
#
# Elastic Constant Matrix: (Units=GPa)
#
#
# Indices 1 2 3 4 5 6 
#
# 1 109.3657 25.7734 68.5964 0.0000 0.0000 0.0000
# 2 25.7734 25.1187 41.1162 0.0000 0.0000 0.0000
# 3 68.5964 41.1162 177.2518 0.0000 0.0000 0.0000
# 4 0.0000 0.0000 0.0000 1.0023 0.0000 0.0000
# 5 0.0000 0.0000 0.0000 0.0000 32.9580 0.0000
# 6 0.0000 0.0000 0.0000 0.0000 0.0000 2.4459
#
#
#
# Elastic Compliance Matrix: (Units=1/GPa)
#
#
# Indices 1 2 3 4 5 6 
#
# 1 0.013059 -0.008265 -0.003137 0.000000 0.000000 0.000000
# 2 -0.008265 0.069411 -0.012902 0.000000 0.000000 0.000000
# 3 -0.003137 -0.012902 0.009848 0.000000 0.000000 0.000000
# 4 0.000000 0.000000 0.000000 0.997733 0.000000 0.000000
# 5 0.000000 0.000000 0.000000 0.000000 0.030342 0.000000
# 6 0.000000 0.000000 0.000000 0.000000 0.000000 0.408849
#
#
# Mechanical properties :
#
#
# Convention : Reuss Voigt Hill
#
# Bulk Modulus (GPa) = 22.87793 64.74535 43.81164
# Shear Modulus (GPa) = 3.13988 19.03126 11.08557
#
# Velocity S-wave (km/s) = 1.30895 3.22255 2.45949
# Velocity P-wave (km/s) = 3.84296 7.01258 5.65441
#
# Compressibility (1/GPa) = 0.04371025
#
# Stress axis : x y z
#
# Youngs Moduli (GPa) = 76.57758 14.40700 101.53930
#
# Poissons Ratio (x) = 0.11907 0.31848
# Poissons Ratio (y) = 0.63291 1.31009
# Poissons Ratio (z) = 0.24019 0.18588
#
# Static dielectric constant tensor:
#      x y z
#    x 1.655720 0.000000 0.000000 
#    y 0.000000 1.640650 0.000000 
#    z 0.000000 0.000000 1.648040 
# 
# From -- ./inp_files/25707.got.cif
#   From: 2010.05.17/outbox.cif.g08.bks.cpg/sg51_13_cif.got.tgz:25707.got - 2010.06.03 11:52:47.
