data_PCOD9405920
_publ_section_title
;
Structure prediction by ZEFSAII (Michael W. Deem and Ramdas Pophale) SiO2 
 PCOD9405920
Probable space group: P M M A
;
_chemical_formula_sum "Si O2"
_cell_formula_units_Z 52
_cell_length_a 8.097987
_cell_length_b 16.225808
_cell_length_c 20.208346
_cell_angle_alpha 90.000000
_cell_angle_beta 90.000000
_cell_angle_gamma 90.000000
_cell_volume 2655.303556
_symmetry_space_group_name_H-M "P M M A"
_symmetry_group_IT_number 51
_symmetry_cell_setting 'orthorhombic'
loop_
_space_group_symop_operation_xyz
x,y,z
1/2-x,-y,z
1/2+x,-y,-z
-x,y,-z
-x,-y,-z
1/2+x,y,-z
1/2-x,y,z
x,-y,z
loop_
_atom_site_type_symbol
_atom_site_label
_atom_site_fract_x
_atom_site_fract_y
_atom_site_fract_z
Si Si1 0.949595 0.679999 0.575916
Si Si2 0.448507 0.356904 0.928303
Si Si3 0.448561 0.500000 0.423078
Si Si4 0.050013 0.410000 0.784016
Si Si5 0.448869 0.166211 0.928656
Si Si6 0.946587 0.245368 0.706607
Si Si7 0.448431 0.909168 0.792303
O O1 0.750000 0.678434 0.576384
O O2 0.009139 0.589086 0.600283
O O3 0.007526 0.744004 0.631096
O O4 0.000000 0.693675 0.500000
O O5 0.250000 0.356485 0.927357
O O6 0.502199 0.401398 0.861137
O O7 0.507142 0.261485 0.924249
O O8 0.500000 0.390459 0.000000
O O9 0.250000 0.500000 0.416927
O O10 0.500000 0.500000 0.500000
O O11 0.250000 0.408676 0.782238
O O12 0.994333 0.500000 0.758328
O O13 0.990393 0.329316 0.745638
O O14 0.250000 0.168198 0.926170
O O15 0.509827 0.115993 0.865468
O O16 0.500000 0.132792 0.000000
O O17 0.750000 0.239169 0.705262
O O18 0.011785 0.165106 0.743286
O O19 0.250000 0.913179 0.796277
O O20 0.509966 0.000000 0.773101
#
# Coordination Sequence:
#
# PCOD9405920 Si02
#       7
#     8   8   4   8   8   8   8
#     4   9  19  34  54  80 110 146 181 219 265 316
#     4   9  17  31  50  72 102 139 182 231 277 321
#     4   8  14  28  48  72 106 140 173 208 247 300
#     4  10  21  37  55  77 108 149 194 232 270 324
#     4   9  17  31  51  76 106 138 176 223 275 329
#     4  11  23  37  57  84 116 146 178 226 280 327
#     4  10  21  39  61  82 108 145 186 226 274 334
#
# _framework density 19.583447
#
# number of rings (size 3 to 8) (size 9 to 14) (size 15 to 20)
#    0.000    2.462    1.538    0.462    1.077    3.692 
#    0.000    0.000    0.000    0.462    0.000    0.000 
#    0.000    0.000    0.000    0.000    0.000    0.000 
#
# Total GULP energy -290013.576568 kJ/mol
# GULP energy per Si atom -5577.184165 kJ/mol
# Density = 1.953887 g / cm^3
# Si number density = 19.583447 Si / 1000 Ang^3
#
#
#
# Elastic Constant Matrix: (Units=GPa)
#
#
# Indices 1 2 3 4 5 6 
#
# 1 8.8409 11.3753 4.4549 0.0000 0.0000 0.0000
# 2 11.3753 138.4117 77.6874 0.0000 0.0000 0.0000
# 3 4.4549 77.6874 131.2688 0.0000 0.0000 0.0000
# 4 0.0000 0.0000 0.0000 10.9220 0.0000 0.0000
# 5 0.0000 0.0000 0.0000 0.0000 23.2210 0.0000
# 6 0.0000 0.0000 0.0000 0.0000 0.0000 7.9302
#
#
#
# Elastic Compliance Matrix: (Units=1/GPa)
#
#
# Indices 1 2 3 4 5 6 
#
# 1 0.127169 -0.012023 0.002800 0.000000 0.000000 0.000000
# 2 -0.012023 0.011955 -0.006667 0.000000 0.000000 0.000000
# 3 0.002800 -0.006667 0.011469 0.000000 0.000000 0.000000
# 4 0.000000 0.000000 0.000000 0.091559 0.000000 0.000000
# 5 0.000000 0.000000 0.000000 0.000000 0.043064 0.000000
# 6 0.000000 0.000000 0.000000 0.000000 0.000000 0.126101
#
#
# Mechanical properties :
#
#
# Convention : Reuss Voigt Hill
#
# Bulk Modulus (GPa) = 8.41666 51.72850 30.07258
# Shear Modulus (GPa) = 10.35838 20.74822 15.55330
#
# Velocity S-wave (km/s) = 2.30235 3.25849 2.82122
# Velocity P-wave (km/s) = 3.37268 6.37407 5.09920
#
# Compressibility (1/GPa) = 0.11881204
#
# Stress axis : x y z
#
# Youngs Moduli (GPa) = 7.86356 83.64660 87.19351
#
# Poissons Ratio (x) = 1.00565 -0.24410
# Poissons Ratio (y) = 0.09454 0.58134
# Poissons Ratio (z) = -0.02201 0.55769
#
# Static dielectric constant tensor:
#      x y z
#    x 1.691750 0.000000 0.000000 
#    y 0.000000 1.715840 0.000000 
#    z 0.000000 0.000000 1.700960 
# 
# From -- ./inp_files/31784.got.cif
#   From: 2010.05.17/outbox.cif.g08.bks.cpg/sg51_16_cif.got.tgz:31784.got - 2010.06.03 11:52:47.
