data_PCOD9405998
_publ_section_title
;
Structure prediction by ZEFSAII (Michael W. Deem and Ramdas Pophale) SiO2 
 PCOD9405998
Probable space group: P M M A
;
_chemical_formula_sum "Si O2"
_cell_formula_units_Z 56
_cell_length_a 16.860649
_cell_length_b 7.592518
_cell_length_c 19.186001
_cell_angle_alpha 90.000000
_cell_angle_beta 90.000000
_cell_angle_gamma 90.000000
_cell_volume 2456.091717
_symmetry_space_group_name_H-M "P M M A"
_symmetry_group_IT_number 51
_symmetry_cell_setting 'orthorhombic'
loop_
_space_group_symop_operation_xyz
x,y,z
1/2-x,-y,z
1/2+x,-y,-z
-x,y,-z
-x,-y,-z
1/2+x,y,-z
1/2-x,y,z
x,-y,z
loop_
_atom_site_type_symbol
_atom_site_label
_atom_site_fract_x
_atom_site_fract_y
_atom_site_fract_z
Si Si1 0.750000 0.782086 0.054438
Si Si2 0.661407 0.212781 0.660493
Si Si3 0.582670 0.199375 0.021335
Si Si4 0.997552 0.707621 0.577709
Si Si5 0.008181 0.293950 0.845085
Si Si6 0.250000 0.791583 0.784511
Si Si7 0.586006 0.710198 0.291531
Si Si8 0.837096 0.787617 0.822578
O O1 0.830094 0.724500 0.015746
O O2 0.750000 0.722138 0.135553
O O3 0.750000 0.000000 0.053326
O O4 0.750000 0.265944 0.636291
O O5 0.588729 0.275901 0.613636
O O6 0.654808 0.269942 0.741534
O O7 0.659040 0.000000 0.660793
O O8 0.566851 0.192146 0.104301
O O9 0.582969 0.000000 0.992008
O O10 0.500000 0.289858 0.000000
O O11 0.015481 0.500000 0.570392
O O12 0.061026 0.782500 0.633308
O O13 0.000000 0.784386 0.500000
O O14 0.028596 0.500000 0.849012
O O15 0.915540 0.272550 0.862371
O O16 0.024010 0.227081 0.767131
O O17 0.327635 0.742064 0.740231
O O18 0.250000 0.000000 0.791856
O O19 0.576092 0.500000 0.295998
O O20 0.750000 0.730233 0.847387
O O21 0.837564 0.000000 0.823764
#
# Coordination Sequence:
#
# PCOD9405998 Si02
#       8
#     4   8   8   8   8   4   8   8
#     4   9  18  35  59  87 113 144 193 240 282 340
#     4   9  18  33  54  79 107 138 175 224 275 325
#     4  10  21  39  61  83 114 155 196 241 289 342
#     4  10  21  38  57  78 108 149 192 232 281 343
#     4  11  21  34  57  85 115 146 184 236 289 340
#     4  11  21  35  61  89 113 144 189 244 290 340
#     4  10  21  37  56  82 114 147 186 236 291 345
#     4   9  18  33  54  80 109 143 182 222 270 329
#
# _framework density 22.800453000000001
#
# number of rings (size 3 to 8) (size 9 to 14) (size 15 to 20)
#    0.000    2.143    2.857    1.500    0.000    2.286 
#    2.571    1.786    0.000    0.000    0.000    0.000 
#    0.000    0.000    0.000    0.000    0.000    0.000 
#
# Total GULP energy -312689.613442 kJ/mol
# GULP energy per Si atom -5583.743097 kJ/mol
# Density = 2.274856 g / cm^3
# Si number density = 22.800453 Si / 1000 Ang^3
#
#
#
# Elastic Constant Matrix: (Units=GPa)
#
#
# Indices 1 2 3 4 5 6 
#
# 1 187.3350 -17.4014 44.3087 0.0000 0.0000 0.0000
# 2 -17.4014 53.0645 4.5654 0.0000 0.0000 0.0000
# 3 44.3087 4.5654 78.6674 0.0000 0.0000 0.0000
# 4 0.0000 0.0000 0.0000 9.8465 0.0000 0.0000
# 5 0.0000 0.0000 0.0000 0.0000 195.1626 0.0000
# 6 0.0000 0.0000 0.0000 0.0000 0.0000 20.4408
#
#
#
# Elastic Compliance Matrix: (Units=1/GPa)
#
#
# Indices 1 2 3 4 5 6 
#
# 1 0.006459 0.002443 -0.003780 0.000000 0.000000 0.000000
# 2 0.002443 0.019864 -0.002529 0.000000 0.000000 0.000000
# 3 -0.003780 -0.002529 0.014987 0.000000 0.000000 0.000000
# 4 0.000000 0.000000 0.000000 0.101559 0.000000 0.000000
# 5 0.000000 0.000000 0.000000 0.000000 0.005124 0.000000
# 6 0.000000 0.000000 0.000000 0.000000 0.000000 0.048922
#
#
# Mechanical properties :
#
#
# Convention : Reuss Voigt Hill
#
# Bulk Modulus (GPa) = 29.78021 42.44583 36.11302
# Shear Modulus (GPa) = 23.16544 64.26293 43.71419
#
# Velocity S-wave (km/s) = 3.19095 5.31471 4.38339
# Velocity P-wave (km/s) = 5.16389 7.50454 6.44142
#
# Compressibility (1/GPa) = 0.03357935
#
# Stress axis : x y z
#
# Youngs Moduli (GPa) = 154.82327 50.34286 66.72261
#
# Poissons Ratio (x) = -0.12300 0.25220
# Poissons Ratio (y) = -0.37828 0.16874
# Poissons Ratio (z) = 0.58519 0.12731
#
# Static dielectric constant tensor:
#      x y z
#    x 1.816110 0.000000 0.000000 
#    y 0.000000 1.837900 0.000000 
#    z 0.000000 0.000000 1.910590 
# 
# From -- ./inp_files/33536.got.cif
#   From: 2010.05.17/outbox.cif.g08.bks.cpg/sg51_17_cif.got.tgz:33536.got - 2010.06.03 11:52:47.
