data_PCOD9405730
_publ_section_title
;
Structure prediction by ZEFSAII (Michael W. Deem and Ramdas Pophale) SiO2 
 PCOD9405730
Probable space group: P M M A
;
_chemical_formula_sum "Si O2"
_cell_formula_units_Z 40
_cell_length_a 15.473686
_cell_length_b 7.912212
_cell_length_c 14.908954
_cell_angle_alpha 90.000000
_cell_angle_beta 90.000000
_cell_angle_gamma 90.000000
_cell_volume 1825.319400
_symmetry_space_group_name_H-M "P M M A"
_symmetry_group_IT_number 51
_symmetry_cell_setting 'orthorhombic'
loop_
_space_group_symop_operation_xyz
x,y,z
1/2-x,-y,z
1/2+x,-y,-z
-x,y,-z
-x,-y,-z
1/2+x,y,-z
1/2-x,y,z
x,-y,z
loop_
_atom_site_type_symbol
_atom_site_label
_atom_site_fract_x
_atom_site_fract_y
_atom_site_fract_z
Si Si1 0.151022 0.807719 0.080164
Si Si2 0.005143 0.792874 0.603043
Si Si3 0.067503 0.689883 0.924068
Si Si4 0.349265 0.201056 0.739649
Si Si5 0.349367 0.793312 0.270944
O O1 0.250000 0.820135 0.108062
O O2 0.111391 0.742025 0.173198
O O3 0.123446 0.000000 0.060360
O O4 0.147662 0.697348 0.991947
O O5 0.089608 0.734902 0.658851
O O6 0.000000 0.739076 0.500000
O O7 0.918022 0.740639 0.654772
O O8 0.006960 0.000000 0.604106
O O9 0.040118 0.500000 0.904763
O O10 0.098241 0.773296 0.832661
O O11 0.000000 0.760789 0.000000
O O12 0.250000 0.268200 0.743690
O O13 0.341878 0.000000 0.727601
O O14 0.250000 0.736578 0.287120
O O15 0.348137 0.000000 0.268893
#
# Coordination Sequence:
#
# PCOD9405730 Si02
#       5
#     8   8   8   8   8
#     4   9  17  30  49  72  97 128 166 204 246 302
#     4   9  17  29  47  72 101 132 167 212 264 311
#     4  11  23  35  49  73 104 138 176 216 260 310
#     4  10  21  36  54  78 108 143 182 220 263 321
#     4   8  14  25  43  68  96 126 162 204 252 306
#
# _framework density 21.913974
#
# number of rings (size 3 to 8) (size 9 to 14) (size 15 to 20)
#    0.000    2.600    0.000    3.600    0.000    7.200 
#    0.000    4.000    0.000    0.600    0.000    0.000 
#    0.000    3.200    0.000    0.000    0.000    0.000 
#
# Total GULP energy -222681.522812 kJ/mol
# GULP energy per Si atom -5567.038070 kJ/mol
# Density = 2.186410 g / cm^3
# Si number density = 21.913974 Si / 1000 Ang^3
#
#
#
# Elastic Constant Matrix: (Units=GPa)
#
#
# Indices 1 2 3 4 5 6 
#
# 1 128.9435 19.1650 60.9078 0.0000 0.0000 0.0000
# 2 19.1650 28.4699 12.8008 0.0000 0.0000 0.0000
# 3 60.9078 12.8008 177.0848 0.0000 0.0000 0.0000
# 4 0.0000 0.0000 0.0000 -18.4774 0.0000 0.0000
# 5 0.0000 0.0000 0.0000 0.0000 29.2543 0.0000
# 6 0.0000 0.0000 0.0000 0.0000 0.0000 2.8023
#
#
#
# Elastic Compliance Matrix: (Units=1/GPa)
#
#
# Indices 1 2 3 4 5 6 
#
# 1 0.009992 -0.005355 -0.003050 0.000000 0.000000 0.000000
# 2 -0.005355 0.039175 -0.000990 0.000000 0.000000 0.000000
# 3 -0.003050 -0.000990 0.006767 0.000000 0.000000 0.000000
# 4 0.000000 0.000000 0.000000 -0.054120 0.000000 0.000000
# 5 0.000000 0.000000 0.000000 0.000000 0.034183 0.000000
# 6 0.000000 0.000000 0.000000 0.000000 0.000000 0.356852
#
#
# Mechanical properties :
#
#
# Convention : Reuss Voigt Hill
#
# Bulk Modulus (GPa) = 26.92158 57.80506 42.36332
# Shear Modulus (GPa) = 11.79193 18.82414 15.30803
#
# Velocity S-wave (km/s) = 2.32222 2.93405 2.64588
# Velocity P-wave (km/s) = 4.41611 6.15741 5.35797
#
# Compressibility (1/GPa) = 0.03714492
#
# Stress axis : x y z
#
# Youngs Moduli (GPa) = 100.08272 25.52670 147.76603
#
# Poissons Ratio (x) = 0.13669 0.45062
# Poissons Ratio (y) = 0.53594 0.14628
# Poissons Ratio (z) = 0.30521 0.02527
#
# Static dielectric constant tensor:
#      x y z
#    x 3.256080 0.000000 0.000000 
#    y 0.000000 1.819880 0.000000 
#    z 0.000000 0.000000 1.872840 
# 
# From -- ./inp_files/23705.got.cif
#   From: 2010.05.17/outbox.cif.g08.bks.cpg/sg51_12_cif.got.tgz:23705.got - 2010.06.03 11:52:47.
