data_PCOD9405222
_publ_section_title
;
Structure prediction by ZEFSAII (Michael W. Deem and Ramdas Pophale) SiO2 
 PCOD9405222
Probable space group: P M M A
;
_chemical_formula_sum "Si O2"
_cell_formula_units_Z 36
_cell_length_a 14.977269
_cell_length_b 14.301530
_cell_length_c 9.028675
_cell_angle_alpha 90.000000
_cell_angle_beta 90.000000
_cell_angle_gamma 90.000000
_cell_volume 1933.922881
_symmetry_space_group_name_H-M "P M M A"
_symmetry_group_IT_number 51
_symmetry_cell_setting 'orthorhombic'
loop_
_space_group_symop_operation_xyz
x,y,z
1/2-x,-y,z
1/2+x,-y,-z
-x,y,-z
-x,-y,-z
1/2+x,y,-z
1/2-x,y,z
x,-y,z
loop_
_atom_site_type_symbol
_atom_site_label
_atom_site_fract_x
_atom_site_fract_y
_atom_site_fract_z
Si Si1 0.590824 0.695388 0.094910
Si Si2 0.250000 0.709228 0.413017
Si Si3 0.606428 0.896670 0.027029
Si Si4 0.250000 0.610692 0.095339
Si Si5 0.250000 0.107059 0.231917
Si Si6 0.093944 0.608225 0.584248
O O1 0.580890 0.640663 0.247394
O O2 0.500000 0.696584 0.000000
O O3 0.620277 0.803280 0.122143
O O4 0.664794 0.646562 0.994503
O O5 0.250000 0.653685 0.258136
O O6 0.250000 0.816916 0.361244
O O7 0.164409 0.675970 0.505352
O O8 0.663822 0.881287 0.876556
O O9 0.633275 0.000000 0.084190
O O10 0.500000 0.900756 0.000000
O O11 0.250000 0.500000 0.104420
O O12 0.250000 0.000000 0.285011
O O13 0.125347 0.500000 0.579296
O O14 0.000000 0.613056 0.500000
#
# Coordination Sequence:
#
# PCOD9405222 Si02
#       6
#     8   4   8   4   4   8
#     4  11  22  39  63  90 119 158 209 256 298 361
#     4  12  23  42  62  87 123 166 202 248 323 372
#     4   9  18  34  61  94 124 156 201 256 312 362
#     4  12  23  36  60  89 113 153 213 261 296 356
#     4  10  20  38  64  94 126 163 207 255 309 370
#     4  11  25  41  59  87 128 170 203 253 318 373
#
# _framework density 18.615013999999999
#
# number of rings (size 3 to 8) (size 9 to 14) (size 15 to 20)
#    0.000    1.333    2.222    3.667    3.111    3.556 
#    0.000    1.111    0.000    1.333    0.000    0.000 
#    0.000    0.000    0.000    0.000    0.000    0.000 
#
# Total GULP energy -200990.933818 kJ/mol
# GULP energy per Si atom -5583.081495 kJ/mol
# Density = 1.857265 g / cm^3
# Si number density = 18.615014 Si / 1000 Ang^3
#
#
#
# Elastic Constant Matrix: (Units=GPa)
#
#
# Indices 1 2 3 4 5 6 
#
# 1 99.7295 40.6902 49.8660 0.0000 0.0000 0.0000
# 2 40.6902 140.4708 33.4428 0.0000 0.0000 0.0000
# 3 49.8660 33.4428 99.7995 0.0000 0.0000 0.0000
# 4 0.0000 0.0000 0.0000 -7.4528 0.0000 0.0000
# 5 0.0000 0.0000 0.0000 0.0000 32.2097 0.0000
# 6 0.0000 0.0000 0.0000 0.0000 0.0000 19.6155
#
#
#
# Elastic Compliance Matrix: (Units=1/GPa)
#
#
# Indices 1 2 3 4 5 6 
#
# 1 0.014212 -0.002636 -0.006218 0.000000 0.000000 0.000000
# 2 -0.002636 0.008225 -0.001439 0.000000 0.000000 0.000000
# 3 -0.006218 -0.001439 0.013609 0.000000 0.000000 0.000000
# 4 0.000000 0.000000 0.000000 -0.134178 0.000000 0.000000
# 5 0.000000 0.000000 0.000000 0.000000 0.031047 0.000000
# 6 0.000000 0.000000 0.000000 0.000000 0.000000 0.050980
#
#
# Mechanical properties :
#
#
# Convention : Reuss Voigt Hill
#
# Bulk Modulus (GPa) = 64.68327 65.33310 65.00819
# Shear Modulus (GPa) = 519.00031 23.27452 271.13742
#
# Velocity S-wave (km/s) = 16.71564 3.53981 12.08186
# Velocity P-wave (km/s) = 20.18350 7.20279 15.15344
#
# Compressibility (1/GPa) = 0.01545995
#
# Stress axis : x y z
#
# Youngs Moduli (GPa) = 70.36471 121.57772 73.48103
#
# Poissons Ratio (x) = 0.32053 0.45687
# Poissons Ratio (y) = 0.18551 0.10573
# Poissons Ratio (z) = 0.43750 0.17494
#
# Static dielectric constant tensor:
#      x y z
#    x 1.653410 0.000000 0.000000 
#    y 0.000000 1.677680 0.000000 
#    z 0.000000 0.000000 1.594200 
# 
# From -- ./inp_files/7845.got.cif
#   From: 2010.05.17/outbox.cif.g08.bks.cpg/sg51_4_cif.got.tgz:7845.got - 2010.06.03 11:52:47.
