data_PCOD9405355
_publ_section_title
;
Structure prediction by ZEFSAII (Michael W. Deem and Ramdas Pophale) SiO2 
 PCOD9405355
Probable space group: P M M A
;
_chemical_formula_sum "Si O2"
_cell_formula_units_Z 56
_cell_length_a 19.392063
_cell_length_b 13.908811
_cell_length_c 10.470170
_cell_angle_alpha 90.000000
_cell_angle_beta 90.000000
_cell_angle_gamma 90.000000
_cell_volume 2824.019898
_symmetry_space_group_name_H-M "P M M A"
_symmetry_group_IT_number 51
_symmetry_cell_setting 'orthorhombic'
loop_
_space_group_symop_operation_xyz
x,y,z
1/2-x,-y,z
1/2+x,-y,-z
-x,y,-z
-x,-y,-z
1/2+x,y,-z
1/2-x,y,z
x,-y,z
loop_
_atom_site_type_symbol
_atom_site_label
_atom_site_fract_x
_atom_site_fract_y
_atom_site_fract_z
Si Si1 0.081226 0.276742 0.492777
Si Si2 0.412680 0.615055 0.757094
Si Si3 0.672063 0.883403 0.121094
Si Si4 0.829258 0.616201 0.996237
Si Si5 0.434730 0.110239 0.094814
Si Si6 0.666853 0.112332 0.405231
Si Si7 0.064606 0.308526 0.214538
O O1 0.098156 0.340193 0.617194
O O2 0.128528 0.182795 0.499615
O O3 0.089588 0.329864 0.357975
O O4 0.000000 0.251465 0.500000
O O5 0.410652 0.500000 0.747694
O O6 0.488838 0.646754 0.803550
O O7 0.357601 0.646491 0.864209
O O8 0.750000 0.848203 0.111096
O O9 0.643281 0.859305 0.261128
O O10 0.674403 0.000000 0.123467
O O11 0.627879 0.859827 0.997994
O O12 0.750000 0.645456 0.975563
O O13 0.831437 0.500000 0.993885
O O14 0.881683 0.653539 0.889166
O O15 0.442588 0.193023 0.198729
O O16 0.425804 0.000000 0.140939
O O17 0.500000 0.110673 0.000000
O O18 0.750000 0.122421 0.409119
O O19 0.651258 0.000000 0.426329
#
# Coordination Sequence:
#
# PCOD9405355 Si02
#       7
#     8   8   8   8   8   8   8
#     4  10  24  38  57  91 122 158 204 246 293 357
#     4  10  22  43  66  87 116 157 202 249 302 365
#     4   8  16  32  54  79 105 144 200 247 285 335
#     4  10  22  40  64  93 118 146 193 250 305 360
#     4  10  21  34  52  82 121 157 194 241 292 346
#     4   9  19  37  60  84 115 158 203 245 291 346
#     4  11  23  38  59  89 123 158 198 240 303 361
#
# _framework density 19.829889000000001
#
# number of rings (size 3 to 8) (size 9 to 14) (size 15 to 20)
#    0.000    2.286    0.000    2.571    6.000    6.857 
#    0.000    0.000    0.000    3.429    0.000    0.000 
#    0.000    0.000    0.000    0.000    0.000    0.000 
#
# Total GULP energy -312713.184232 kJ/mol
# GULP energy per Si atom -5584.164004 kJ/mol
# Density = 1.978476 g / cm^3
# Si number density = 19.829889 Si / 1000 Ang^3
#
#
#
# Elastic Constant Matrix: (Units=GPa)
#
#
# Indices 1 2 3 4 5 6 
#
# 1 52.4520 17.9492 34.6782 0.0000 0.0000 0.0000
# 2 17.9492 66.4224 17.5927 0.0000 0.0000 0.0000
# 3 34.6782 17.5927 81.0071 0.0000 0.0000 0.0000
# 4 0.0000 0.0000 0.0000 20.9779 0.0000 0.0000
# 5 0.0000 0.0000 0.0000 0.0000 22.2127 0.0000
# 6 0.0000 0.0000 0.0000 0.0000 0.0000 9.4062
#
#
#
# Elastic Compliance Matrix: (Units=1/GPa)
#
#
# Indices 1 2 3 4 5 6 
#
# 1 0.027876 -0.004639 -0.010926 0.000000 0.000000 0.000000
# 2 -0.004639 0.016746 -0.001651 0.000000 0.000000 0.000000
# 3 -0.010926 -0.001651 0.017380 0.000000 0.000000 0.000000
# 4 0.000000 0.000000 0.000000 0.047669 0.000000 0.000000
# 5 0.000000 0.000000 0.000000 0.000000 0.045019 0.000000
# 6 0.000000 0.000000 0.000000 0.000000 0.000000 0.106313
#
#
# Mechanical properties :
#
#
# Convention : Reuss Voigt Hill
#
# Bulk Modulus (GPa) = 36.27030 37.81351 37.04191
# Shear Modulus (GPa) = 16.41358 19.16347 17.78853
#
# Velocity S-wave (km/s) = 2.88013 3.11206 2.99834
# Velocity P-wave (km/s) = 5.42131 5.65894 5.54140
#
# Compressibility (1/GPa) = 0.02757077
#
# Stress axis : x y z
#
# Youngs Moduli (GPa) = 35.87292 59.71573 57.53604
#
# Poissons Ratio (x) = 0.27702 0.62864
# Poissons Ratio (y) = 0.16642 0.09499
# Poissons Ratio (z) = 0.39195 0.09858
#
# Static dielectric constant tensor:
#      x y z
#    x 1.657050 0.000000 0.000000 
#    y 0.000000 1.718730 0.000000 
#    z 0.000000 0.000000 1.694450 
# 
# From -- ./inp_files/11017.got.cif
#   From: 2010.05.17/outbox.cif.g08.bks.cpg/sg51_6_cif.got.tgz:11017.got - 2010.06.03 11:52:47.
