data_PCOD9405134
_publ_section_title
;
Structure prediction by ZEFSAII (Michael W. Deem and Ramdas Pophale) SiO2 
 PCOD9405134
Probable space group: P M M A
;
_chemical_formula_sum "Si O2"
_cell_formula_units_Z 32
_cell_length_a 13.588530
_cell_length_b 8.820233
_cell_length_c 13.409370
_cell_angle_alpha 90.000000
_cell_angle_beta 90.000000
_cell_angle_gamma 90.000000
_cell_volume 1607.166642
_symmetry_space_group_name_H-M "P M M A"
_symmetry_group_IT_number 51
_symmetry_cell_setting 'orthorhombic'
loop_
_space_group_symop_operation_xyz
x,y,z
1/2-x,-y,z
1/2+x,-y,-z
-x,y,-z
-x,-y,-z
1/2+x,y,-z
1/2-x,y,z
x,-y,z
loop_
_atom_site_type_symbol
_atom_site_label
_atom_site_fract_x
_atom_site_fract_y
_atom_site_fract_z
Si Si1 0.112935 0.174284 0.473647
Si Si2 0.038787 0.679047 0.887699
Si Si3 0.250000 0.821179 0.836279
Si Si4 0.639266 0.817409 0.759134
Si Si5 0.250000 0.673162 0.624605
O O1 0.131792 0.216736 0.358960
O O2 0.160701 0.287045 0.552058
O O3 0.000000 0.172665 0.500000
O O4 0.147628 0.000000 0.486800
O O5 0.047982 0.500000 0.867348
O O6 0.147048 0.752267 0.876189
O O7 0.953770 0.746721 0.816054
O O8 0.000000 0.700760 0.000000
O O9 0.250000 0.782555 0.718953
O O10 0.250000 0.000000 0.854381
O O11 0.750000 0.770537 0.793626
O O12 0.633293 0.000000 0.769364
O O13 0.250000 0.500000 0.658544
#
# Coordination Sequence:
#
# PCOD9405134 Si02
#       5
#     8   8   4   8   4
#     4  10  20  37  62  91 127 172 216 258 308 371
#     4  11  26  46  69  98 133 170 213 273 341 395
#     4  12  26  46  71  96 129 172 223 274 322 388
#     4  10  21  39  64  98 136 175 223 270 317 385
#     4  12  24  38  61  94 131 168 209 258 318 382
#
# _framework density 19.910814999999999
#
# number of rings (size 3 to 8) (size 9 to 14) (size 15 to 20)
#    0.000    1.250    1.250    4.500    1.750    6.000 
#    0.000    0.000    0.000    0.000    0.000    0.000 
#    0.000    0.000    0.000    0.000    0.000    0.000 
#
# Total GULP energy -178734.816849 kJ/mol
# GULP energy per Si atom -5585.463027 kJ/mol
# Density = 1.986550 g / cm^3
# Si number density = 19.910815 Si / 1000 Ang^3
#
#
#
# Elastic Constant Matrix: (Units=GPa)
#
#
# Indices 1 2 3 4 5 6 
#
# 1 224.2714 72.9200 60.4723 0.0000 0.0000 0.0000
# 2 72.9200 80.4038 49.3320 0.0000 0.0000 0.0000
# 3 60.4723 49.3320 68.6408 0.0000 0.0000 0.0000
# 4 0.0000 0.0000 0.0000 33.0230 0.0000 0.0000
# 5 0.0000 0.0000 0.0000 0.0000 24.2725 0.0000
# 6 0.0000 0.0000 0.0000 0.0000 0.0000 36.3342
#
#
#
# Elastic Compliance Matrix: (Units=1/GPa)
#
#
# Indices 1 2 3 4 5 6 
#
# 1 0.006592 -0.004321 -0.002703 0.000000 0.000000 0.000000
# 2 -0.004321 0.025079 -0.014218 0.000000 0.000000 0.000000
# 3 -0.002703 -0.014218 0.027168 0.000000 0.000000 0.000000
# 4 0.000000 0.000000 0.000000 0.030282 0.000000 0.000000
# 5 0.000000 0.000000 0.000000 0.000000 0.041199 0.000000
# 6 0.000000 0.000000 0.000000 0.000000 0.000000 0.027522
#
#
# Mechanical properties :
#
#
# Convention : Reuss Voigt Hill
#
# Bulk Modulus (GPa) = 61.13512 82.08496 71.61004
# Shear Modulus (GPa) = 24.29809 31.43205 27.86507
#
# Velocity S-wave (km/s) = 3.49714 3.97752 3.74504
# Velocity P-wave (km/s) = 6.86132 7.90000 7.39891
#
# Compressibility (1/GPa) = 0.01635721
#
# Stress axis : x y z
#
# Youngs Moduli (GPa) = 151.68886 39.87388 36.80791
#
# Poissons Ratio (x) = 0.17228 0.09948
# Poissons Ratio (y) = 0.65538 0.52333
# Poissons Ratio (z) = 0.40998 0.56692
#
# Static dielectric constant tensor:
#      x y z
#    x 1.702610 0.000000 0.000000 
#    y 0.000000 1.682780 0.000000 
#    z 0.000000 0.000000 1.672930 
# 
# From -- ./inp_files/15963.got.cif
#   From: 2010.05.17/outbox.cif.g08.bks.cpg/sg51_8_cif.got.tgz:15963.got - 2010.06.03 11:52:47.
