data_PCOD9405469
_publ_section_title
;
Structure prediction by ZEFSAII (Michael W. Deem and Ramdas Pophale) SiO2 
 PCOD9405469
Probable space group: P M M A
;
_chemical_formula_sum "Si O2"
_cell_formula_units_Z 56
_cell_length_a 9.564883
_cell_length_b 14.064478
_cell_length_c 21.660520
_cell_angle_alpha 90.000000
_cell_angle_beta 90.000000
_cell_angle_gamma 90.000000
_cell_volume 2913.883327
_symmetry_space_group_name_H-M "P M M A"
_symmetry_group_IT_number 51
_symmetry_cell_setting 'orthorhombic'
loop_
_space_group_symop_operation_xyz
x,y,z
1/2-x,-y,z
1/2+x,-y,-z
-x,y,-z
-x,-y,-z
1/2+x,y,-z
1/2-x,y,z
x,-y,z
loop_
_atom_site_type_symbol
_atom_site_label
_atom_site_fract_x
_atom_site_fract_y
_atom_site_fract_z
Si Si1 0.081702 0.799209 0.940322
Si Si2 0.588629 0.114791 0.691061
Si Si3 0.409481 0.615502 0.742665
Si Si4 0.083629 0.391328 0.377480
Si Si5 0.916773 0.799455 0.559613
Si Si6 0.588864 0.885429 0.191158
Si Si7 0.919614 0.392546 0.119911
O O1 0.250000 0.807782 0.948082
O O2 0.042498 0.850745 0.876280
O O3 0.044035 0.688463 0.928509
O O4 0.000000 0.835169 0.000000
O O5 0.750000 0.145261 0.698707
O O6 0.541435 0.150574 0.623916
O O7 0.498767 0.147698 0.749665
O O8 0.585113 0.000000 0.690471
O O9 0.250000 0.648790 0.733441
O O10 0.404503 0.500000 0.744403
O O11 0.506508 0.639461 0.685263
O O12 0.461689 0.640775 0.811152
O O13 0.250000 0.390671 0.366634
O O14 0.042022 0.500000 0.392774
O O15 0.054803 0.312555 0.428886
O O16 0.750000 0.813119 0.551574
O O17 0.000000 0.833525 0.500000
O O18 0.750000 0.854790 0.198242
O O19 0.584982 0.000000 0.191098
O O20 0.750000 0.396330 0.122429
O O21 0.969856 0.500000 0.107646
#
# Coordination Sequence:
#
# PCOD9405469 Si02
#       7
#     8   8   8   8   8   8   8
#     4  10  21  35  51  75 106 140 175 213 257 304
#     4   9  19  37  59  81 105 133 167 210 260 310
#     4   8  14  26  46  71  94 122 167 214 252 295
#     4   9  18  32  48  69 102 138 168 206 255 299
#     4  10  22  37  52  76 107 139 174 211 253 303
#     4   9  19  36  57  81 106 132 168 213 258 307
#     4   8  15  29  48  70  99 134 171 212 255 299
#
# _framework density 19.218337999999999
#
# number of rings (size 3 to 8) (size 9 to 14) (size 15 to 20)
#    0.000    3.000    0.000    0.857    2.000    2.857 
#    0.000    0.714    0.000    0.857    0.000    0.000 
#    0.000    0.000    0.000    0.000    0.000    0.000 
#
# Total GULP energy -312238.609878 kJ/mol
# GULP energy per Si atom -5575.689462 kJ/mol
# Density = 1.917460 g / cm^3
# Si number density = 19.218338 Si / 1000 Ang^3
#
#
#
# Elastic Constant Matrix: (Units=GPa)
#
#
# Indices 1 2 3 4 5 6 
#
# 1 34.1619 15.3937 66.0973 0.0000 0.0000 0.0000
# 2 15.3937 37.0060 29.5933 0.0000 0.0000 0.0000
# 3 66.0973 29.5933 169.0378 0.0000 0.0000 0.0000
# 4 0.0000 0.0000 0.0000 20.6463 0.0000 0.0000
# 5 0.0000 0.0000 0.0000 0.0000 33.4032 0.0000
# 6 0.0000 0.0000 0.0000 0.0000 0.0000 13.2507
#
#
#
# Elastic Compliance Matrix: (Units=1/GPa)
#
#
# Indices 1 2 3 4 5 6 
#
# 1 0.127267 -0.015284 -0.047088 0.000000 0.000000 0.000000
# 2 -0.015284 0.033257 0.000154 0.000000 0.000000 0.000000
# 3 -0.047088 0.000154 0.024301 0.000000 0.000000 0.000000
# 4 0.000000 0.000000 0.000000 0.048435 0.000000 0.000000
# 5 0.000000 0.000000 0.000000 0.000000 0.029937 0.000000
# 6 0.000000 0.000000 0.000000 0.000000 0.000000 0.075468
#
#
# Mechanical properties :
#
#
# Convention : Reuss Voigt Hill
#
# Bulk Modulus (GPa) = 16.55940 51.37493 33.96716
# Shear Modulus (GPa) = 10.34700 22.06815 16.20757
#
# Velocity S-wave (km/s) = 2.32285 3.39231 2.90718
# Velocity P-wave (km/s) = 3.97861 6.49107 5.38346
#
# Compressibility (1/GPa) = 0.06038868
#
# Stress axis : x y z
#
# Youngs Moduli (GPa) = 7.85750 30.06857 41.15010
#
# Poissons Ratio (x) = 0.45958 1.93768
# Poissons Ratio (y) = 0.12010 -0.00635
# Poissons Ratio (z) = 0.37000 -0.00464
#
# Static dielectric constant tensor:
#      x y z
#    x 1.647280 0.000000 0.000000 
#    y 0.000000 1.730050 0.000000 
#    z 0.000000 0.000000 1.651930 
# 
# From -- ./inp_files/31974.got.cif
#   From: 2010.05.17/outbox.cif.g08.bks.cpg/sg51_16_cif.got.tgz:31974.got - 2010.06.03 11:52:47.
