data_PCOD9405358
_publ_section_title
;
Structure prediction by ZEFSAII (Michael W. Deem and Ramdas Pophale) SiO2 
 PCOD9405358
Probable space group: P M M A
;
_chemical_formula_sum "Si O2"
_cell_formula_units_Z 64
_cell_length_a 17.258641
_cell_length_b 14.404336
_cell_length_c 14.033062
_cell_angle_alpha 90.000000
_cell_angle_beta 90.000000
_cell_angle_gamma 90.000000
_cell_volume 3488.608883
_symmetry_space_group_name_H-M "P M M A"
_symmetry_group_IT_number 51
_symmetry_cell_setting 'orthorhombic'
loop_
_space_group_symop_operation_xyz
x,y,z
1/2-x,-y,z
1/2+x,-y,-z
-x,y,-z
-x,-y,-z
1/2+x,y,-z
1/2-x,y,z
x,-y,z
loop_
_atom_site_type_symbol
_atom_site_label
_atom_site_fract_x
_atom_site_fract_y
_atom_site_fract_z
Si Si1 0.926470 0.754147 0.565525
Si Si2 0.841555 0.891812 0.247450
Si Si3 0.839565 0.283999 0.380037
Si Si4 0.083059 0.110489 0.951782
Si Si5 0.983300 0.392098 0.305424
Si Si6 0.156967 0.891078 0.295205
Si Si7 0.547307 0.606065 0.902886
Si Si8 0.160631 0.223541 0.107775
O O1 0.862076 0.719906 0.490951
O O2 0.891423 0.838469 0.624729
O O3 0.000000 0.780589 0.500000
O O4 0.957109 0.673711 0.636588
O O5 0.750000 0.884368 0.217847
O O6 0.853401 0.817022 0.330964
O O7 0.899585 0.870604 0.159458
O O8 0.853377 0.000000 0.275581
O O9 0.750000 0.307485 0.366203
O O10 0.898352 0.355781 0.332056
O O11 0.092721 0.000000 0.963904
O O12 0.145526 0.166273 0.012187
O O13 0.000000 0.135113 0.000000
O O14 0.993718 0.500000 0.332011
O O15 0.996349 0.383641 0.192424
O O16 0.250000 0.880446 0.310589
O O17 0.136463 0.842268 0.195385
O O18 0.139947 0.000000 0.291383
O O19 0.576834 0.500000 0.904241
O O20 0.612875 0.682586 0.895384
O O21 0.500000 0.620816 0.000000
O O22 0.250000 0.244959 0.120305
#
# Coordination Sequence:
#
# PCOD9405358 Si02
#       8
#     8   8   8   8   8   8   8   8
#     4  10  21  38  61  85 115 154 197 246 294 348
#     4   9  19  36  55  80 119 161 198 240 294 352
#     4  10  22  37  59  89 118 150 198 248 294 351
#     4  10  21  34  53  82 116 156 198 239 283 342
#     4  10  22  42  64  86 117 153 189 240 300 352
#     4  10  21  37  57  84 120 157 194 240 294 348
#     4  10  22  41  65  89 116 152 192 235 288 352
#     4  11  22  36  59  86 118 154 191 238 289 345
#
# _framework density 18.345421999999999
#
# number of rings (size 3 to 8) (size 9 to 14) (size 15 to 20)
#    0.000    2.000    1.250    1.500    3.500    4.750 
#    0.000    4.375    0.000    3.375    0.000    0.000 
#    0.000    0.000    0.000    0.000    0.000    0.000 
#
# Total GULP energy -357199.396832 kJ/mol
# GULP energy per Si atom -5581.240576 kJ/mol
# Density = 1.830367 g / cm^3
# Si number density = 18.345422 Si / 1000 Ang^3
#
#
#
# Elastic Constant Matrix: (Units=GPa)
#
#
# Indices 1 2 3 4 5 6 
#
# 1 55.3160 58.7544 42.3255 0.0000 0.0000 0.0000
# 2 58.7544 119.7693 70.4058 0.0000 0.0000 0.0000
# 3 42.3255 70.4058 108.9823 0.0000 0.0000 0.0000
# 4 0.0000 0.0000 0.0000 12.9913 0.0000 0.0000
# 5 0.0000 0.0000 0.0000 0.0000 23.0717 0.0000
# 6 0.0000 0.0000 0.0000 0.0000 0.0000 19.3713
#
#
#
# Elastic Compliance Matrix: (Units=1/GPa)
#
#
# Indices 1 2 3 4 5 6 
#
# 1 0.039068 -0.016520 -0.004501 0.000000 0.000000 0.000000
# 2 -0.016520 0.020447 -0.006794 0.000000 0.000000 0.000000
# 3 -0.004501 -0.006794 0.015313 0.000000 0.000000 0.000000
# 4 0.000000 0.000000 0.000000 0.076974 0.000000 0.000000
# 5 0.000000 0.000000 0.000000 0.000000 0.043343 0.000000
# 6 0.000000 0.000000 0.000000 0.000000 0.000000 0.051623
#
#
# Mechanical properties :
#
#
# Convention : Reuss Voigt Hill
#
# Bulk Modulus (GPa) = 52.08393 69.67100 60.87746
# Shear Modulus (GPa) = 16.19193 18.59233 17.39213
#
# Velocity S-wave (km/s) = 2.97411 3.18694 3.08236
# Velocity P-wave (km/s) = 6.34398 7.18345 6.77672
#
# Compressibility (1/GPa) = 0.01919978
#
# Stress axis : x y z
#
# Youngs Moduli (GPa) = 25.59621 48.90727 65.30580
#
# Poissons Ratio (x) = 0.80793 0.29393
# Poissons Ratio (y) = 0.42284 0.44366
# Poissons Ratio (z) = 0.11520 0.33225
#
# Static dielectric constant tensor:
#      x y z
#    x 1.639770 0.000000 0.000000 
#    y 0.000000 1.606570 0.000000 
#    z 0.000000 0.000000 1.634480 
# 
# From -- ./inp_files/17520.got.cif
#   From: 2010.05.17/outbox.cif.g08.bks.cpg/sg51_9_cif.got.tgz:17520.got - 2010.06.03 11:52:47.
