data_PCOD9405510
_publ_section_title
;
Structure prediction by ZEFSAII (Michael W. Deem and Ramdas Pophale) SiO2 
 PCOD9405510
Probable space group: P M M A
;
_chemical_formula_sum "Si O2"
_cell_formula_units_Z 64
_cell_length_a 14.776684
_cell_length_b 9.356765
_cell_length_c 24.506506
_cell_angle_alpha 90.000000
_cell_angle_beta 90.000000
_cell_angle_gamma 90.000000
_cell_volume 3388.317544
_symmetry_space_group_name_H-M "P M M A"
_symmetry_group_IT_number 51
_symmetry_cell_setting 'orthorhombic'
loop_
_space_group_symop_operation_xyz
x,y,z
1/2-x,-y,z
1/2+x,-y,-z
-x,y,-z
-x,-y,-z
1/2+x,y,-z
1/2-x,y,z
x,-y,z
loop_
_atom_site_type_symbol
_atom_site_label
_atom_site_fract_x
_atom_site_fract_y
_atom_site_fract_z
Si Si1 0.355143 0.669477 0.233389
Si Si2 0.355666 0.841135 0.909615
Si Si3 0.640686 0.836547 0.876203
Si Si4 0.527748 0.670420 0.301649
Si Si5 0.471758 0.827552 0.586121
Si Si6 0.146562 0.826549 0.481409
Si Si7 0.859085 0.332321 0.194538
Si Si8 0.604193 0.339610 0.984729
O O1 0.250000 0.700788 0.246457
O O2 0.361699 0.500000 0.220803
O O3 0.382960 0.758416 0.180121
O O4 0.425237 0.699616 0.281597
O O5 0.250000 0.856398 0.896520
O O6 0.393878 0.756914 0.857506
O O7 0.394634 0.000000 0.917196
O O8 0.357935 0.751310 0.965023
O O9 0.750000 0.839985 0.877807
O O10 0.612065 0.745612 0.928517
O O11 0.608223 0.000000 0.878238
O O12 0.537151 0.500000 0.310532
O O13 0.547905 0.754927 0.356500
O O14 0.592318 0.709307 0.250718
O O15 0.571370 0.783836 0.563430
O O16 0.398099 0.788392 0.539765
O O17 0.471148 0.000000 0.590970
O O18 0.250000 0.775495 0.474472
O O19 0.149078 0.000000 0.479935
O O20 0.750000 0.318816 0.199898
O O21 0.878638 0.500000 0.184443
O O22 0.642808 0.500000 0.980456
O O23 0.500000 0.352821 0.000000
#
# Coordination Sequence:
#
# PCOD9405510 Si02
#       8
#     8   8   8   8   8   8   8   8
#     4   9  19  36  55  74 101 140 180 216 260 318
#     4  10  21  37  56  78 103 130 166 218 274 322
#     4  10  21  37  56  78 103 130 166 218 274 322
#     4  10  21  35  53  77 109 144 177 218 264 312
#     4   9  18  32  52  80 107 137 181 220 257 307
#     4   8  15  31  54  78 108 144 178 216 260 306
#     4   9  19  36  55  74 101 140 180 216 260 318
#     4  11  24  37  52  76 104 135 172 211 258 326
#
# _framework density 18.888428999999999
#
# number of rings (size 3 to 8) (size 9 to 14) (size 15 to 20)
#    0.000    2.500    0.000    2.250    1.750    6.000 
#    0.000    1.250    0.000    0.750    0.000    0.000 
#    0.000    0.000    0.000    0.000    0.000    0.000 
#
# Total GULP energy -357004.948300 kJ/mol
# GULP energy per Si atom -5578.202317 kJ/mol
# Density = 1.884544 g / cm^3
# Si number density = 18.888429 Si / 1000 Ang^3
#
#
#
# Elastic Constant Matrix: (Units=GPa)
#
#
# Indices 1 2 3 4 5 6 
#
# 1 38.1026 -2.9639 -23.6273 0.0000 0.0000 0.0000
# 2 -2.9639 57.7469 25.7039 0.0000 0.0000 0.0000
# 3 -23.6273 25.7039 58.7164 0.0000 0.0000 0.0000
# 4 0.0000 0.0000 0.0000 34.7775 0.0000 0.0000
# 5 0.0000 0.0000 0.0000 0.0000 8.3380 0.0000
# 6 0.0000 0.0000 0.0000 0.0000 0.0000 20.3573
#
#
#
# Elastic Compliance Matrix: (Units=1/GPa)
#
#
# Indices 1 2 3 4 5 6 
#
# 1 0.036465 -0.005787 0.017207 0.000000 0.000000 0.000000
# 2 -0.005787 0.022426 -0.012146 0.000000 0.000000 0.000000
# 3 0.017207 -0.012146 0.029272 0.000000 0.000000 0.000000
# 4 0.000000 0.000000 0.000000 0.028754 0.000000 0.000000
# 5 0.000000 0.000000 0.000000 0.000000 0.119933 0.000000
# 6 0.000000 0.000000 0.000000 0.000000 0.000000 0.049122
#
#
# Mechanical properties :
#
#
# Convention : Reuss Voigt Hill
#
# Bulk Modulus (GPa) = 11.53278 16.97680 14.25479
# Shear Modulus (GPa) = 15.80631 23.05810 19.43221
#
# Velocity S-wave (km/s) = 2.89593 3.49772 3.21095
# Velocity P-wave (km/s) = 4.15943 5.03185 4.61630
#
# Compressibility (1/GPa) = 0.08670940
#
# Stress axis : x y z
#
# Youngs Moduli (GPa) = 27.42383 44.59036 34.16218
#
# Poissons Ratio (x) = 0.25806 -0.58782
# Poissons Ratio (y) = 0.15871 0.41494
# Poissons Ratio (z) = -0.47188 0.54161
#
# Static dielectric constant tensor:
#      x y z
#    x 1.694550 0.000000 0.000000 
#    y 0.000000 1.663160 0.000000 
#    z 0.000000 0.000000 1.620350 
# 
# From -- ./inp_files/35779.got.cif
#   From: 2010.05.17/outbox.cif.g08.bks.cpg/sg51_18_cif.got.tgz:35779.got - 2010.06.03 11:52:47.
