data_PCOD9405639
_publ_section_title
;
Structure prediction by ZEFSAII (Michael W. Deem and Ramdas Pophale) SiO2 
 PCOD9405639
Probable space group: P M M A
;
_chemical_formula_sum "Si O2"
_cell_formula_units_Z 56
_cell_length_a 18.691111
_cell_length_b 8.996118
_cell_length_c 19.671188
_cell_angle_alpha 90.000000
_cell_angle_beta 90.000000
_cell_angle_gamma 90.000000
_cell_volume 3307.659906
_symmetry_space_group_name_H-M "P M M A"
_symmetry_group_IT_number 51
_symmetry_cell_setting 'orthorhombic'
loop_
_space_group_symop_operation_xyz
x,y,z
1/2-x,-y,z
1/2+x,-y,-z
-x,y,-z
-x,-y,-z
1/2+x,y,-z
1/2-x,y,z
x,-y,z
loop_
_atom_site_type_symbol
_atom_site_label
_atom_site_fract_x
_atom_site_fract_y
_atom_site_fract_z
Si Si1 0.664603 0.177617 0.580469
Si Si2 0.029047 0.322046 0.074586
Si Si3 0.542123 0.820900 0.203026
Si Si4 0.332639 0.821096 0.699530
Si Si5 0.831130 0.820284 0.864951
Si Si6 0.837073 0.328648 0.440878
Si Si7 0.603080 0.179539 0.722640
O O1 0.750000 0.202317 0.587676
O O2 0.639066 0.252991 0.510914
O O3 0.627036 0.234703 0.649047
O O4 0.654048 0.000000 0.574516
O O5 0.032892 0.500000 0.080436
O O6 0.106957 0.252771 0.090073
O O7 0.976790 0.257169 0.132513
O O8 0.000000 0.283576 0.000000
O O9 0.615997 0.777581 0.238682
O O10 0.477298 0.783610 0.254724
O O11 0.540937 0.000000 0.193179
O O12 0.250000 0.776404 0.710272
O O13 0.358796 0.754352 0.628027
O O14 0.334783 0.000000 0.694045
O O15 0.750000 0.780487 0.883498
O O16 0.847212 0.776373 0.786412
O O17 0.838150 0.000000 0.868654
O O18 0.750000 0.321526 0.441796
O O19 0.858416 0.500000 0.438583
O O20 0.608025 0.000000 0.718964
#
# Coordination Sequence:
#
# PCOD9405639 Si02
#       7
#     8   8   8   8   8   8   8
#     4   9  15  24  41  63  87 118 155 193 232 276
#     4  10  21  36  53  74 103 137 166 193 233 288
#     4   9  18  33  53  74  95 121 156 199 244 291
#     4   9  17  31  51  72  92 117 155 203 250 293
#     4   9  17  31  53  79 103 129 165 206 243 282
#     4   9  17  28  42  62  89 121 157 196 237 282
#     4   8  14  26  45  69  95 122 154 193 237 283
#
# _framework density 16.930398
#
# number of rings (size 3 to 8) (size 9 to 14) (size 15 to 20)
#    0.000    3.000    0.000    2.143    0.000    5.429 
#    0.000    4.286    0.000   10.286    0.000    0.000 
#    0.000    0.000    0.000    0.000    0.000    0.000 
#
# Total GULP energy -311976.810486 kJ/mol
# GULP energy per Si atom -5571.014473 kJ/mol
# Density = 1.689186 g / cm^3
# Si number density = 16.930398 Si / 1000 Ang^3
#
#
#
# Elastic Constant Matrix: (Units=GPa)
#
#
# Indices 1 2 3 4 5 6 
#
# 1 87.4858 36.7175 87.0012 0.0000 0.0000 0.0000
# 2 36.7175 26.4866 50.0119 0.0000 0.0000 0.0000
# 3 87.0012 50.0119 157.7657 0.0000 0.0000 0.0000
# 4 0.0000 0.0000 0.0000 -143.4992 0.0000 0.0000
# 5 0.0000 0.0000 0.0000 0.0000 21.5505 0.0000
# 6 0.0000 0.0000 0.0000 0.0000 0.0000 11.8846
#
#
#
# Elastic Compliance Matrix: (Units=1/GPa)
#
#
# Indices 1 2 3 4 5 6 
#
# 1 0.031591 -0.027150 -0.008814 0.000000 0.000000 0.000000
# 2 -0.027150 0.117382 -0.022238 0.000000 0.000000 0.000000
# 3 -0.008814 -0.022238 0.018249 0.000000 0.000000 0.000000
# 4 0.000000 0.000000 0.000000 -0.006969 0.000000 0.000000
# 5 0.000000 0.000000 0.000000 0.000000 0.046403 0.000000
# 6 0.000000 0.000000 0.000000 0.000000 0.000000 0.084143
#
#
# Mechanical properties :
#
#
# Convention : Reuss Voigt Hill
#
# Bulk Modulus (GPa) = 19.67863 68.79993 44.23928
# Shear Modulus (GPa) = 11.78851 -15.47899 -1.84524
#
# Velocity S-wave (km/s) = 2.64160 -3.02697 -1.04512
# Velocity P-wave (km/s) = 4.57739 5.33932 4.97297
#
# Compressibility (1/GPa) = 0.05081654
#
# Stress axis : x y z
#
# Youngs Moduli (GPa) = 31.65487 8.51920 54.79792
#
# Poissons Ratio (x) = 0.23129 0.48301
# Poissons Ratio (y) = 0.85942 1.21861
# Poissons Ratio (z) = 0.27902 0.18945
#
# Static dielectric constant tensor:
#      x y z
#    x 1.576040 0.000000 0.000000 
#    y 0.000000 1.565770 0.000000 
#    z 0.000000 0.000000 1.558170 
# 
# From -- ./inp_files/30357.got.cif
#   From: 2010.05.17/outbox.cif.g08.bks.cpg/sg51_16_cif.got.tgz:30357.got - 2010.06.03 11:52:47.
