data_PCOD9405806
_publ_section_title
;
Structure prediction by ZEFSAII (Michael W. Deem and Ramdas Pophale) SiO2 
 PCOD9405806
Probable space group: P M M A
;
_chemical_formula_sum "Si O2"
_cell_formula_units_Z 64
_cell_length_a 17.522262
_cell_length_b 20.915616
_cell_length_c 9.422542
_cell_angle_alpha 90.000000
_cell_angle_beta 90.000000
_cell_angle_gamma 90.000000
_cell_volume 3453.257085
_symmetry_space_group_name_H-M "P M M A"
_symmetry_group_IT_number 51
_symmetry_cell_setting 'orthorhombic'
loop_
_space_group_symop_operation_xyz
x,y,z
1/2-x,-y,z
1/2+x,-y,-z
-x,y,-z
-x,-y,-z
1/2+x,y,-z
1/2-x,y,z
x,-y,z
loop_
_atom_site_type_symbol
_atom_site_label
_atom_site_fract_x
_atom_site_fract_y
_atom_site_fract_z
Si Si1 0.419019 0.571246 0.922512
Si Si2 0.660072 0.821593 0.846467
Si Si3 0.340033 0.926603 0.656609
Si Si4 0.078092 0.574024 0.586458
Si Si5 0.912255 0.925621 0.037169
Si Si6 0.159799 0.684028 0.434630
Si Si7 0.340793 0.320835 0.106964
Si Si8 0.411378 0.180653 0.459805
O O1 0.383131 0.500000 0.939568
O O2 0.430982 0.582084 0.755145
O O3 0.500000 0.569003 0.000000
O O4 0.374997 0.628482 0.998824
O O5 0.750000 0.819368 0.806711
O O6 0.641342 0.753768 0.921151
O O7 0.608840 0.827942 0.706007
O O8 0.642291 0.879774 0.948812
O O9 0.250000 0.919721 0.691040
O O10 0.390795 0.918786 0.797854
O O11 0.365320 0.873212 0.545423
O O12 0.351038 0.000000 0.604788
O O13 0.098933 0.500000 0.559771
O O14 0.139768 0.623362 0.528951
O O15 0.000000 0.586599 0.500000
O O16 0.900489 0.000000 0.999255
O O17 0.000000 0.909581 0.000000
O O18 0.250000 0.697016 0.432423
O O19 0.135234 0.669601 0.271709
O O20 0.117475 0.747293 0.490491
O O21 0.250000 0.328031 0.102254
O O22 0.500000 0.174920 0.500000
#
# Coordination Sequence:
#
# PCOD9405806 Si02
#       8
#     8   8   8   8   8   8   8   8
#     4  10  21  36  56  82 110 143 183 226 274 330
#     4  10  21  38  58  82 113 148 190 235 281 339
#     4  10  21  37  56  81 115 151 186 229 284 341
#     4  10  21  37  57  82 113 147 187 235 282 334
#     4  10  21  37  57  83 114 148 189 235 282 335
#     4  10  21  38  58  81 112 148 187 230 282 343
#     4   9  20  37  55  78 110 145 181 228 279 328
#     4  11  22  37  59  85 113 146 187 235 284 336
#
# _framework density 18.533228000000001
#
# number of rings (size 3 to 8) (size 9 to 14) (size 15 to 20)
#    0.000    2.000    0.000    4.125    0.000    6.500 
#    0.000    3.750    0.000    0.000    0.000    0.000 
#    0.000    0.000    0.000    0.000    0.000    0.000 
#
# Total GULP energy -357159.303472 kJ/mol
# GULP energy per Si atom -5580.614117 kJ/mol
# Density = 1.849105 g / cm^3
# Si number density = 18.533228 Si / 1000 Ang^3
#
#
#
# Elastic Constant Matrix: (Units=GPa)
#
#
# Indices 1 2 3 4 5 6 
#
# 1 61.5753 48.4219 31.2742 0.0000 0.0000 0.0000
# 2 48.4219 102.2699 70.9439 0.0000 0.0000 0.0000
# 3 31.2742 70.9439 77.3878 0.0000 0.0000 0.0000
# 4 0.0000 0.0000 0.0000 39.9509 0.0000 0.0000
# 5 0.0000 0.0000 0.0000 0.0000 30.0352 0.0000
# 6 0.0000 0.0000 0.0000 0.0000 0.0000 32.7853
#
#
#
# Elastic Compliance Matrix: (Units=1/GPa)
#
#
# Indices 1 2 3 4 5 6 
#
# 1 0.026002 -0.013794 0.002137 0.000000 0.000000 0.000000
# 2 -0.013794 0.034175 -0.025755 0.000000 0.000000 0.000000
# 3 0.002137 -0.025755 0.035669 0.000000 0.000000 0.000000
# 4 0.000000 0.000000 0.000000 0.025031 0.000000 0.000000
# 5 0.000000 0.000000 0.000000 0.000000 0.033294 0.000000
# 6 0.000000 0.000000 0.000000 0.000000 0.000000 0.030501
#
#
# Mechanical properties :
#
#
# Convention : Reuss Voigt Hill
#
# Bulk Modulus (GPa) = 47.56790 60.27923 53.92357
# Shear Modulus (GPa) = 18.76150 26.59380 22.67765
#
# Velocity S-wave (km/s) = 3.18514 3.79215 3.50182
# Velocity P-wave (km/s) = 6.26489 7.19510 6.74605
#
# Compressibility (1/GPa) = 0.02102258
#
# Stress axis : x y z
#
# Youngs Moduli (GPa) = 38.45856 29.26106 28.03576
#
# Poissons Ratio (x) = 0.40362 -0.05992
# Poissons Ratio (y) = 0.53049 0.72206
# Poissons Ratio (z) = -0.08219 0.75362
#
# Static dielectric constant tensor:
#      x y z
#    x 1.631270 0.000000 0.000000 
#    y 0.000000 1.641960 0.000000 
#    z 0.000000 0.000000 1.620330 
# 
# From -- ./inp_files/10067.got.cif
#   From: 2010.05.17/outbox.cif.g08.bks.cpg/sg51_6_cif.got.tgz:10067.got - 2010.06.03 11:52:47.
