data_PCOD9405790
_publ_section_title
;
Structure prediction by ZEFSAII (Michael W. Deem and Ramdas Pophale) SiO2 
 PCOD9405790
Probable space group: P M M A
;
_chemical_formula_sum "Si O2"
_cell_formula_units_Z 56
_cell_length_a 8.408432
_cell_length_b 23.910193
_cell_length_c 14.569119
_cell_angle_alpha 90.000000
_cell_angle_beta 90.000000
_cell_angle_gamma 90.000000
_cell_volume 2929.081047
_symmetry_space_group_name_H-M "P M M A"
_symmetry_group_IT_number 51
_symmetry_cell_setting 'orthorhombic'
loop_
_space_group_symop_operation_xyz
x,y,z
1/2-x,-y,z
1/2+x,-y,-z
-x,y,-z
-x,-y,-z
1/2+x,y,-z
1/2-x,y,z
x,-y,z
loop_
_atom_site_type_symbol
_atom_site_label
_atom_site_fract_x
_atom_site_fract_y
_atom_site_fract_z
Si Si1 0.058187 0.329232 0.711742
Si Si2 0.058438 0.064798 0.099501
Si Si3 0.440444 0.780331 0.604295
Si Si4 0.940059 0.000000 0.395918
Si Si5 0.557781 0.376848 0.103880
Si Si6 0.558477 0.500000 0.104943
Si Si7 0.058986 0.437858 0.395026
Si Si8 0.440954 0.889828 0.291458
O O1 0.250000 0.326879 0.712277
O O2 0.999277 0.275294 0.656437
O O3 0.004992 0.333694 0.817883
O O4 0.009083 0.386138 0.661169
O O5 0.250000 0.064241 0.099099
O O6 0.005587 0.101486 0.185973
O O7 0.005084 0.000000 0.112465
O O8 0.000000 0.083779 0.000000
O O9 0.500000 0.782229 0.500000
O O10 0.250000 0.778466 0.602099
O O11 0.492827 0.835040 0.659749
O O12 0.000000 0.000000 0.500000
O O13 0.004425 0.944930 0.345629
O O14 0.750000 0.000000 0.393891
O O15 0.750000 0.377040 0.100651
O O16 0.504430 0.439024 0.138302
O O17 0.500000 0.367548 0.000000
O O18 0.750000 0.500000 0.109728
O O19 0.500000 0.500000 0.000000
O O20 0.250000 0.435474 0.393733
O O21 0.009152 0.500000 0.360952
O O22 0.000000 0.433398 0.500000
O O23 0.250000 0.887536 0.293072
#
# Coordination Sequence:
#
# PCOD9405790 Si02
#       8
#     8   8   8   4   8   4   8   8
#     4  10  22  38  59  83 112 150 194 240 289 347
#     4   9  18  34  57  87 122 157 194 236 282 336
#     4  11  24  42  61  85 114 152 199 245 292 350
#     4  12  24  38  59  88 121 156 191 240 298 350
#     4   9  18  33  53  80 110 147 186 232 285 342
#     4   8  14  26  46  72 103 136 175 218 273 334
#     4  10  21  36  55  82 113 144 183 234 291 351
#     4  11  22  40  62  88 121 157 197 243 290 344
#
# _framework density 19.118625999999999
#
# number of rings (size 3 to 8) (size 9 to 14) (size 15 to 20)
#    0.000    2.000    0.714    2.786    1.000    4.857 
#    0.000    0.714    0.000    3.429    0.000    0.000 
#    0.000    0.000    0.000    0.000    0.000    0.000 
#
# Total GULP energy -312584.116136 kJ/mol
# GULP energy per Si atom -5581.859217 kJ/mol
# Density = 1.907511 g / cm^3
# Si number density = 19.118626 Si / 1000 Ang^3
#
#
#
# Elastic Constant Matrix: (Units=GPa)
#
#
# Indices 1 2 3 4 5 6 
#
# 1 24.1041 21.0637 22.6887 0.0000 0.0000 0.0000
# 2 21.0637 146.0666 102.1666 0.0000 0.0000 0.0000
# 3 22.6887 102.1666 179.1506 0.0000 0.0000 0.0000
# 4 0.0000 0.0000 0.0000 53.6043 0.0000 0.0000
# 5 0.0000 0.0000 0.0000 0.0000 26.9097 0.0000
# 6 0.0000 0.0000 0.0000 0.0000 0.0000 16.0338
#
#
#
# Elastic Compliance Matrix: (Units=1/GPa)
#
#
# Indices 1 2 3 4 5 6 
#
# 1 0.048831 -0.004518 -0.003607 0.000000 0.000000 0.000000
# 2 -0.004518 0.011807 -0.006161 0.000000 0.000000 0.000000
# 3 -0.003607 -0.006161 0.009552 0.000000 0.000000 0.000000
# 4 0.000000 0.000000 0.000000 0.018655 0.000000 0.000000
# 5 0.000000 0.000000 0.000000 0.000000 0.037161 0.000000
# 6 0.000000 0.000000 0.000000 0.000000 0.000000 0.062368
#
#
# Mechanical properties :
#
#
# Convention : Reuss Voigt Hill
#
# Bulk Modulus (GPa) = 24.02903 71.23992 47.63448
# Shear Modulus (GPa) = 21.66171 32.86971 27.26571
#
# Velocity S-wave (km/s) = 3.36968 4.15088 3.78051
# Velocity P-wave (km/s) = 5.26644 7.76634 6.63519
#
# Compressibility (1/GPa) = 0.04161632
#
# Stress axis : x y z
#
# Youngs Moduli (GPa) = 20.47881 84.69341 104.68545
#
# Poissons Ratio (x) = 0.38269 0.37765
# Poissons Ratio (y) = 0.09253 0.64499
# Poissons Ratio (z) = 0.07388 0.52182
#
# Static dielectric constant tensor:
#      x y z
#    x 1.663070 0.000000 0.000000 
#    y 0.000000 1.672210 0.000000 
#    z 0.000000 0.000000 1.663220 
# 
# From -- ./inp_files/21928.got.cif
#   From: 2010.05.17/outbox.cif.g08.bks.cpg/sg51_11_cif.got.tgz:21928.got - 2010.06.03 11:52:47.
