data_PCOD9405948
_publ_section_title
;
Structure prediction by ZEFSAII (Michael W. Deem and Ramdas Pophale) SiO2 
 PCOD9405948
Probable space group: P M M A
;
_chemical_formula_sum "Si O2"
_cell_formula_units_Z 64
_cell_length_a 9.358613
_cell_length_b 24.072677
_cell_length_c 15.747675
_cell_angle_alpha 90.000000
_cell_angle_beta 90.000000
_cell_angle_gamma 90.000000
_cell_volume 3547.744378
_symmetry_space_group_name_H-M "P M M A"
_symmetry_group_IT_number 51
_symmetry_cell_setting 'orthorhombic'
loop_
_space_group_symop_operation_xyz
x,y,z
1/2-x,-y,z
1/2+x,-y,-z
-x,y,-z
-x,-y,-z
1/2+x,y,-z
1/2-x,y,z
x,-y,z
loop_
_atom_site_type_symbol
_atom_site_label
_atom_site_fract_x
_atom_site_fract_y
_atom_site_fract_z
Si Si1 0.420343 0.858261 0.756351
Si Si2 0.593428 0.265159 0.575322
Si Si3 0.421223 0.566776 0.410039
Si Si4 0.088078 0.131796 0.419127
Si Si5 0.920844 0.065077 0.086501
Si Si6 0.418642 0.608512 0.758523
Si Si7 0.912543 0.566231 0.918678
Si Si8 0.586721 0.732482 0.258659
O O1 0.250000 0.865424 0.741496
O O2 0.503841 0.872675 0.669766
O O3 0.463956 0.897558 0.833679
O O4 0.443260 0.793127 0.780343
O O5 0.500000 0.288363 0.500000
O O6 0.750000 0.288828 0.572657
O O7 0.601131 0.198287 0.565652
O O8 0.519124 0.273736 0.663714
O O9 0.500000 0.578854 0.500000
O O10 0.250000 0.578732 0.412671
O O11 0.435045 0.500000 0.396134
O O12 0.501236 0.596763 0.331024
O O13 0.250000 0.109702 0.414301
O O14 0.000000 0.109292 0.500000
O O15 0.750000 0.070817 0.075346
O O16 0.951423 0.000000 0.102940
O O17 0.000000 0.081138 0.000000
O O18 0.250000 0.593907 0.750751
O O19 0.500387 0.576482 0.832645
O O20 0.424311 0.673602 0.787096
O O21 0.750000 0.588405 0.913949
O O22 0.901454 0.500000 0.929707
O O23 0.000000 0.588410 0.000000
O O24 0.750000 0.736243 0.291444
#
# Coordination Sequence:
#
# PCOD9405948 Si02
#       8
#     8   8   8   8   8   8   8   8
#     4   9  17  32  52  72 101 138 172 210 255 301
#     4   9  16  26  42  63  89 124 166 210 250 287
#     4  10  21  37  56  78 105 139 180 224 270 319
#     4   9  16  26  43  69  98 129 168 208 246 291
#     4   9  18  33  55  82 107 132 166 210 259 308
#     4  11  22  35  53  77 106 139 174 212 256 308
#     4  10  21  38  60  83 103 125 159 205 256 307
#     4   9  19  33  47  67  98 136 173 206 246 300
#
# _framework density 18.039631
#
# number of rings (size 3 to 8) (size 9 to 14) (size 15 to 20)
#    0.000    2.500    0.000    2.250    0.000    8.000 
#    0.000    0.625    0.000    1.875    0.000    0.000 
#    0.000    0.000    0.000    0.000    0.000    0.000 
#
# Total GULP energy -356560.655533 kJ/mol
# GULP energy per Si atom -5571.260243 kJ/mol
# Density = 1.799857 g / cm^3
# Si number density = 18.039631 Si / 1000 Ang^3
#
#
#
# Elastic Constant Matrix: (Units=GPa)
#
#
# Indices 1 2 3 4 5 6 
#
# 1 102.5830 40.4470 60.8924 0.0000 0.0000 0.0000
# 2 40.4470 55.7549 49.6507 0.0000 0.0000 0.0000
# 3 60.8924 49.6507 112.0808 0.0000 0.0000 0.0000
# 4 0.0000 0.0000 0.0000 -9.4331 0.0000 0.0000
# 5 0.0000 0.0000 0.0000 0.0000 25.8094 0.0000
# 6 0.0000 0.0000 0.0000 0.0000 0.0000 10.6679
#
#
#
# Elastic Compliance Matrix: (Units=1/GPa)
#
#
# Indices 1 2 3 4 5 6 
#
# 1 0.015595 -0.006223 -0.005716 0.000000 0.000000 0.000000
# 2 -0.006223 0.032104 -0.010841 0.000000 0.000000 0.000000
# 3 -0.005716 -0.010841 0.016830 0.000000 0.000000 0.000000
# 4 0.000000 0.000000 0.000000 -0.106010 0.000000 0.000000
# 5 0.000000 0.000000 0.000000 0.000000 0.038746 0.000000
# 6 0.000000 0.000000 0.000000 0.000000 0.000000 0.093739
#
#
# Mechanical properties :
#
#
# Convention : Reuss Voigt Hill
#
# Bulk Modulus (GPa) = 52.71671 63.59988 58.15829
# Shear Modulus (GPa) = 34.99303 13.37076 24.18189
#
# Velocity S-wave (km/s) = 4.40908 2.72543 3.66524
# Velocity P-wave (km/s) = 7.43008 6.72578 7.08669
#
# Compressibility (1/GPa) = 0.01896932
#
# Stress axis : x y z
#
# Youngs Moduli (GPa) = 64.12463 31.14855 59.41856
#
# Poissons Ratio (x) = 0.19384 0.33961
# Poissons Ratio (y) = 0.39906 0.64415
# Poissons Ratio (z) = 0.36651 0.33768
#
# Static dielectric constant tensor:
#      x y z
#    x 1.631240 0.000000 0.000000 
#    y 0.000000 1.649390 0.000000 
#    z 0.000000 0.000000 1.574760 
# 
# From -- ./inp_files/22221.got.cif
#   From: 2010.05.17/outbox.cif.g08.bks.cpg/sg51_12_cif.got.tgz:22221.got - 2010.06.03 11:52:47.
