data_PCOD9405590
_publ_section_title
;
Structure prediction by ZEFSAII (Michael W. Deem and Ramdas Pophale) SiO2 
 PCOD9405590
Probable space group: P M M A
;
_chemical_formula_sum "Si O2"
_cell_formula_units_Z 48
_cell_length_a 13.709484
_cell_length_b 8.870145
_cell_length_c 18.968328
_cell_angle_alpha 90.000000
_cell_angle_beta 90.000000
_cell_angle_gamma 90.000000
_cell_volume 2306.645631
_symmetry_space_group_name_H-M "P M M A"
_symmetry_group_IT_number 51
_symmetry_cell_setting 'orthorhombic'
loop_
_space_group_symop_operation_xyz
x,y,z
1/2-x,-y,z
1/2+x,-y,-z
-x,y,-z
-x,-y,-z
1/2+x,y,-z
1/2-x,y,z
x,-y,z
loop_
_atom_site_type_symbol
_atom_site_label
_atom_site_fract_x
_atom_site_fract_y
_atom_site_fract_z
Si Si1 0.360258 0.316127 0.689127
Si Si2 0.942768 0.679377 0.752154
Si Si3 0.434589 0.181403 0.104049
Si Si4 0.856649 0.183310 0.047829
Si Si5 0.867512 0.829353 0.611590
Si Si6 0.631451 0.674460 0.467666
O O1 0.250000 0.265423 0.704402
O O2 0.358339 0.500000 0.686046
O O3 0.443631 0.272206 0.743516
O O4 0.391639 0.264921 0.610427
O O5 0.937984 0.500000 0.757167
O O6 0.899759 0.751852 0.822392
O O7 0.894107 0.732288 0.679693
O O8 0.546476 0.232546 0.089040
O O9 0.433599 0.000000 0.108310
O O10 0.373943 0.223419 0.034353
O O11 0.750000 0.236432 0.072056
O O12 0.856961 0.000000 0.050876
O O13 0.750000 0.833594 0.607464
O O14 0.902152 0.759881 0.537421
O O15 0.903489 0.000000 0.620199
O O16 0.750000 0.675451 0.468757
O O17 0.601603 0.500000 0.471611
#
# Coordination Sequence:
#
# PCOD9405590 Si02
#       6
#     8   8   8   8   8   8
#     4   8  16  32  52  73  99 135 176 212 252 306
#     4  11  22  34  51  76 107 140 171 207 251 301
#     4   9  18  33  52  76 104 130 164 207 245 293
#     4   8  15  31  56  79  98 128 167 203 244 296
#     4  10  21  36  52  71  99 135 173 215 263 310
#     4   8  14  29  53  74  93 124 171 222 261 299
#
# _framework density 20.809439000000001
#
# number of rings (size 3 to 8) (size 9 to 14) (size 15 to 20)
#    0.000    3.000    0.000    3.000    0.000    3.000 
#    0.000    8.333    0.000    4.500    0.000    0.000 
#    0.000    0.000    0.000    0.000    0.000    0.000 
#
# Total GULP energy -267774.746687 kJ/mol
# GULP energy per Si atom -5578.640556 kJ/mol
# Density = 2.076208 g / cm^3
# Si number density = 20.809439 Si / 1000 Ang^3
#
#
#
# Elastic Constant Matrix: (Units=GPa)
#
#
# Indices 1 2 3 4 5 6 
#
# 1 40.3148 -3.1307 -15.7511 0.0000 0.0000 0.0000
# 2 -3.1307 25.6540 13.6919 0.0000 0.0000 0.0000
# 3 -15.7511 13.6919 80.5043 0.0000 0.0000 0.0000
# 4 0.0000 0.0000 0.0000 23.9497 0.0000 0.0000
# 5 0.0000 0.0000 0.0000 0.0000 10.3841 0.0000
# 6 0.0000 0.0000 0.0000 0.0000 0.0000 11.8801
#
#
#
# Elastic Compliance Matrix: (Units=1/GPa)
#
#
# Indices 1 2 3 4 5 6 
#
# 1 0.026864 0.000520 0.005168 0.000000 0.000000 0.000000
# 2 0.000520 0.042882 -0.007191 0.000000 0.000000 0.000000
# 3 0.005168 -0.007191 0.014656 0.000000 0.000000 0.000000
# 4 0.000000 0.000000 0.000000 0.041754 0.000000 0.000000
# 5 0.000000 0.000000 0.000000 0.000000 0.096301 0.000000
# 6 0.000000 0.000000 0.000000 0.000000 0.000000 0.084174
#
#
# Mechanical properties :
#
#
# Convention : Reuss Voigt Hill
#
# Bulk Modulus (GPa) = 12.28576 15.12148 13.70362
# Shear Modulus (GPa) = 14.84693 19.35366 17.10029
#
# Velocity S-wave (km/s) = 2.67399 3.05297 2.86974
# Velocity P-wave (km/s) = 3.93069 4.43958 4.19287
#
# Compressibility (1/GPa) = 0.08139507
#
# Stress axis : x y z
#
# Youngs Moduli (GPa) = 37.22423 23.31984 68.23201
#
# Poissons Ratio (x) = -0.01213 -0.35260
# Poissons Ratio (y) = -0.01937 0.49069
# Poissons Ratio (z) = -0.19236 0.16770
#
# Static dielectric constant tensor:
#      x y z
#    x 1.811850 0.000000 0.000000 
#    y 0.000000 1.700260 0.000000 
#    z 0.000000 0.000000 1.717590 
# 
# From -- ./inp_files/29488.got.cif
#   From: 2010.05.17/outbox.cif.g08.bks.cpg/sg51_15_cif.got.tgz:29488.got - 2010.06.03 11:52:47.
