data_PCOD9405865
_publ_section_title
;
Structure prediction by ZEFSAII (Michael W. Deem and Ramdas Pophale) SiO2 
 PCOD9405865
Probable space group: P M M A
;
_chemical_formula_sum "Si O2"
_cell_formula_units_Z 64
_cell_length_a 16.090533
_cell_length_b 15.344375
_cell_length_c 12.064313
_cell_angle_alpha 90.000000
_cell_angle_beta 90.000000
_cell_angle_gamma 90.000000
_cell_volume 2978.668894
_symmetry_space_group_name_H-M "P M M A"
_symmetry_group_IT_number 51
_symmetry_cell_setting 'orthorhombic'
loop_
_space_group_symop_operation_xyz
x,y,z
1/2-x,-y,z
1/2+x,-y,-z
-x,y,-z
-x,-y,-z
1/2+x,y,-z
1/2-x,y,z
x,-y,z
loop_
_atom_site_type_symbol
_atom_site_label
_atom_site_fract_x
_atom_site_fract_y
_atom_site_fract_z
Si Si1 0.425443 0.900137 0.148654
Si Si2 0.587966 0.168901 0.439772
Si Si3 0.149071 0.595117 0.883805
Si Si4 0.844333 0.777184 0.031505
Si Si5 0.150367 0.654378 0.637566
Si Si6 0.350265 0.594038 0.391297
Si Si7 0.655167 0.216086 0.666454
Si Si8 0.617553 0.905972 0.210847
O O1 0.396125 0.839535 0.048353
O O2 0.392230 0.851382 0.257207
O O3 0.523841 0.904198 0.164234
O O4 0.394995 0.000000 0.136936
O O5 0.500000 0.152580 0.500000
O O6 0.592493 0.261318 0.376488
O O7 0.651122 0.181073 0.540952
O O8 0.612098 0.102845 0.343365
O O9 0.250000 0.596463 0.893050
O O10 0.119724 0.500000 0.921414
O O11 0.131785 0.607520 0.752940
O O12 0.120108 0.680473 0.950040
O O13 0.750000 0.770877 0.988020
O O14 0.840479 0.824741 0.150799
O O15 0.250000 0.676969 0.638889
O O16 0.136634 0.601526 0.523866
O O17 0.250000 0.594633 0.375933
O O18 0.382272 0.500000 0.351455
O O19 0.380395 0.684885 0.337640
O O20 0.750000 0.220863 0.703929
O O21 0.654033 0.000000 0.180705
#
# Coordination Sequence:
#
# PCOD9405865 Si02
#       8
#     8   8   8   8   8   8   8   8
#     4  11  24  43  63  83 114 161 206 241 291 362
#     4  11  20  35  57  85 118 157 193 240 297 354
#     4   9  17  31  56  89 120 150 187 233 292 354
#     4  11  23  40  64  93 120 147 194 255 300 337
#     4   9  16  29  53  83 115 151 192 236 284 340
#     4   8  14  26  48  80 115 150 190 235 286 343
#     4  10  21  36  58  87 118 155 201 246 291 345
#     4  11  24  41  63  87 115 156 199 242 300 365
#
# _framework density 21.486107000000001
#
# number of rings (size 3 to 8) (size 9 to 14) (size 15 to 20)
#    0.000    2.000    2.500    2.625    0.000    5.500 
#    0.000    0.625    0.000   17.625    0.000    0.000 
#    0.000    0.000    0.000    0.000    0.000    0.000 
#
# Total GULP energy -357129.299490 kJ/mol
# GULP energy per Si atom -5580.145305 kJ/mol
# Density = 2.143720 g / cm^3
# Si number density = 21.486107 Si / 1000 Ang^3
#
#
#
# Elastic Constant Matrix: (Units=GPa)
#
#
# Indices 1 2 3 4 5 6 
#
# 1 37.7840 22.9687 10.6091 0.0000 0.0000 0.0000
# 2 22.9687 178.5655 56.9048 0.0000 0.0000 0.0000
# 3 10.6091 56.9048 80.2818 0.0000 0.0000 0.0000
# 4 0.0000 0.0000 0.0000 3.8761 0.0000 0.0000
# 5 0.0000 0.0000 0.0000 0.0000 35.4180 0.0000
# 6 0.0000 0.0000 0.0000 0.0000 0.0000 10.5108
#
#
#
# Elastic Compliance Matrix: (Units=1/GPa)
#
#
# Indices 1 2 3 4 5 6 
#
# 1 0.028855 -0.003225 -0.001527 0.000000 0.000000 0.000000
# 2 -0.003225 0.007595 -0.004957 0.000000 0.000000 0.000000
# 3 -0.001527 -0.004957 0.016172 0.000000 0.000000 0.000000
# 4 0.000000 0.000000 0.000000 0.257993 0.000000 0.000000
# 5 0.000000 0.000000 0.000000 0.000000 0.028234 0.000000
# 6 0.000000 0.000000 0.000000 0.000000 0.000000 0.095140
#
#
# Mechanical properties :
#
#
# Convention : Reuss Voigt Hill
#
# Bulk Modulus (GPa) = 30.11764 53.06627 41.59196
# Shear Modulus (GPa) = 10.76482 23.70423 17.23453
#
# Velocity S-wave (km/s) = 2.24076 3.32510 2.83525
# Velocity P-wave (km/s) = 4.55438 6.28437 5.48797
#
# Compressibility (1/GPa) = 0.03320314
#
# Stress axis : x y z
#
# Youngs Moduli (GPa) = 34.65545 131.67062 61.83680
#
# Poissons Ratio (x) = 0.42463 0.09445
# Poissons Ratio (y) = 0.11176 0.30653
# Poissons Ratio (z) = 0.05293 0.65270
#
# Static dielectric constant tensor:
#      x y z
#    x 1.775500 0.000000 0.000000 
#    y 0.000000 1.812090 0.000000 
#    z 0.000000 0.000000 1.793170 
# 
# From -- ./inp_files/17515.got.cif
#   From: 2010.05.17/outbox.cif.g08.bks.cpg/sg51_9_cif.got.tgz:17515.got - 2010.06.03 11:52:47.
