data_PCOD9405284
_publ_section_title
;
Structure prediction by ZEFSAII (Michael W. Deem and Ramdas Pophale) SiO2 
 PCOD9405284
Probable space group: P M M A
;
_chemical_formula_sum "Si O2"
_cell_formula_units_Z 64
_cell_length_a 17.141956
_cell_length_b 15.478680
_cell_length_c 13.437354
_cell_angle_alpha 90.000000
_cell_angle_beta 90.000000
_cell_angle_gamma 90.000000
_cell_volume 3565.398328
_symmetry_space_group_name_H-M "P M M A"
_symmetry_group_IT_number 51
_symmetry_cell_setting 'orthorhombic'
loop_
_space_group_symop_operation_xyz
x,y,z
1/2-x,-y,z
1/2+x,-y,-z
-x,y,-z
-x,-y,-z
1/2+x,y,-z
1/2-x,y,z
x,-y,z
loop_
_atom_site_type_symbol
_atom_site_label
_atom_site_fract_x
_atom_site_fract_y
_atom_site_fract_z
Si Si1 0.398144 0.398713 0.899010
Si Si2 0.584671 0.399170 0.880929
Si Si3 0.341371 0.398181 0.688532
Si Si4 0.447929 0.099301 0.098454
Si Si5 0.921642 0.747448 0.439502
Si Si6 0.162810 0.851181 0.395084
Si Si7 0.337018 0.239853 0.181455
Si Si8 0.496445 0.905553 0.675823
O O1 0.378247 0.500000 0.905121
O O2 0.491090 0.392773 0.881524
O O3 0.354608 0.365804 0.802156
O O4 0.384850 0.367108 0.010768
O O5 0.604425 0.500000 0.865971
O O6 0.619595 0.330757 0.806392
O O7 0.250000 0.394322 0.664808
O O8 0.365533 0.500000 0.683511
O O9 0.389624 0.335237 0.618107
O O10 0.383208 0.172982 0.111295
O O11 0.493015 0.103693 0.204758
O O12 0.417440 0.000000 0.092407
O O13 0.500000 0.113881 0.000000
O O14 0.857924 0.786583 0.515226
O O15 0.000000 0.724827 0.500000
O O16 0.947873 0.825796 0.366957
O O17 0.250000 0.890404 0.410228
O O18 0.166816 0.802081 0.290032
O O19 0.082360 0.904273 0.376936
O O20 0.250000 0.254071 0.143926
O O21 0.461191 0.000000 0.655295
#
# Coordination Sequence:
#
# PCOD9405284 Si02
#       8
#     8   8   8   8   8   8   8   8
#     4   8  17  32  51  75 100 135 176 211 254 306
#     4   9  18  32  51  76 108 140 171 210 256 312
#     4  10  21  36  54  77 105 137 177 222 264 311
#     4   9  19  35  56  79 104 139 174 207 255 313
#     4  10  21  34  55  78 105 137 174 220 270 311
#     4   9  19  35  51  73 106 139 174 216 263 310
#     4  10  21  33  51  78 105 137 176 218 262 307
#     4   9  19  35  55  81 107 132 170 217 260 308
#
# _framework density 17.950308
#
# number of rings (size 3 to 8) (size 9 to 14) (size 15 to 20)
#    0.000    2.750    0.000    1.125    7.000    3.750 
#    0.000    4.375    0.000    2.625    0.000    3.500 
#    0.000    0.000    0.000    0.000    0.000    0.000 
#
# Total GULP energy -356271.981862 kJ/mol
# GULP energy per Si atom -5566.749717 kJ/mol
# Density = 1.790945 g / cm^3
# Si number density = 17.950308 Si / 1000 Ang^3
#
#
#
# Elastic Constant Matrix: (Units=GPa)
#
#
# Indices 1 2 3 4 5 6 
#
# 1 35.5130 26.5053 9.9626 0.0000 0.0000 0.0000
# 2 26.5053 79.2283 9.8919 0.0000 0.0000 0.0000
# 3 9.9626 9.8919 38.8276 0.0000 0.0000 0.0000
# 4 0.0000 0.0000 0.0000 -14.6622 0.0000 0.0000
# 5 0.0000 0.0000 0.0000 0.0000 19.9491 0.0000
# 6 0.0000 0.0000 0.0000 0.0000 0.0000 4.1605
#
#
#
# Elastic Compliance Matrix: (Units=1/GPa)
#
#
# Indices 1 2 3 4 5 6 
#
# 1 0.039264 -0.012268 -0.006949 0.000000 0.000000 0.000000
# 2 -0.012268 0.016870 -0.001150 0.000000 0.000000 0.000000
# 3 -0.006949 -0.001150 0.027831 0.000000 0.000000 0.000000
# 4 0.000000 0.000000 0.000000 -0.068203 0.000000 0.000000
# 5 0.000000 0.000000 0.000000 0.000000 0.050127 0.000000
# 6 0.000000 0.000000 0.000000 0.000000 0.000000 0.240358
#
#
# Mechanical properties :
#
#
# Convention : Reuss Voigt Hill
#
# Bulk Modulus (GPa) = 23.13184 27.36538 25.24861
# Shear Modulus (GPa) = 13.83539 9.03676 11.43608
#
# Velocity S-wave (km/s) = 2.77927 2.24616 2.52681
# Velocity P-wave (km/s) = 4.81806 4.69097 4.75494
#
# Compressibility (1/GPa) = 0.04323046
#
# Stress axis : x y z
#
# Youngs Moduli (GPa) = 25.46830 59.27850 35.93129
#
# Poissons Ratio (x) = 0.72723 0.24970
# Poissons Ratio (y) = 0.31245 0.04132
# Poissons Ratio (z) = 0.17699 0.06817
#
# Static dielectric constant tensor:
#      x y z
#    x 1.618830 0.000000 0.000000 
#    y 0.000000 1.618140 0.000000 
#    z 0.000000 0.000000 1.638900 
# 
# From -- ./inp_files/17555.got.cif
#   From: 2010.05.17/outbox.cif.g08.bks.cpg/sg51_9_cif.got.tgz:17555.got - 2010.06.03 11:52:47.
