data_PCOD9405000
_publ_section_title
;
Structure prediction by ZEFSAII (Michael W. Deem and Ramdas Pophale) SiO2 
 PCOD9405000
Probable space group: P M M A
;
_chemical_formula_sum "Si O2"
_cell_formula_units_Z 40
_cell_length_a 8.481091
_cell_length_b 26.097577
_cell_length_c 9.919640
_cell_angle_alpha 90.000000
_cell_angle_beta 90.000000
_cell_angle_gamma 90.000000
_cell_volume 2195.572699
_symmetry_space_group_name_H-M "P M M A"
_symmetry_group_IT_number 51
_symmetry_cell_setting 'orthorhombic'
loop_
_space_group_symop_operation_xyz
x,y,z
1/2-x,-y,z
1/2+x,-y,-z
-x,y,-z
-x,-y,-z
1/2+x,y,-z
1/2-x,y,z
x,-y,z
loop_
_atom_site_type_symbol
_atom_site_label
_atom_site_fract_x
_atom_site_fract_y
_atom_site_fract_z
Si Si1 0.437614 0.500000 0.152847
Si Si2 0.059558 0.090905 0.849101
Si Si3 0.440225 0.295181 0.649123
Si Si4 0.940468 0.792813 0.149878
Si Si5 0.940793 0.000000 0.347270
Si Si6 0.439422 0.412339 0.650924
O O1 0.250000 0.500000 0.149409
O O2 0.496423 0.451014 0.237789
O O3 0.500000 0.500000 0.000000
O O4 0.250000 0.089788 0.853247
O O5 0.009301 0.149096 0.814605
O O6 0.007163 0.049701 0.738630
O O7 0.000000 0.078802 0.000000
O O8 0.500000 0.283646 0.500000
O O9 0.250000 0.294652 0.649368
O O10 0.497133 0.251602 0.750838
O O11 0.488798 0.353604 0.681530
O O12 0.750000 0.792338 0.150487
O O13 0.000000 0.782514 0.000000
O O14 0.000000 0.000000 0.500000
O O15 0.750000 0.000000 0.350175
O O16 0.500000 0.424997 0.500000
O O17 0.250000 0.415064 0.649334
#
# Coordination Sequence:
#
# PCOD9405000 Si02
#       6
#     4   8   8   8   4   8
#     4  12  25  40  57  80 108 138 172 214 261 308
#     4   9  18  33  52  72  98 131 170 210 251 300
#     4   9  19  34  53  77 105 135 170 209 251 298
#     4   9  18  33  51  74 102 133 168 209 253 300
#     4  10  21  34  48  72 102 132 165 208 256 302
#     4  10  20  37  58  80 106 139 176 213 254 306
#
# _framework density 18.21848
#
# number of rings (size 3 to 8) (size 9 to 14) (size 15 to 20)
#    0.000    2.400    0.000    2.100    0.000    4.000 
#    0.000    2.000    0.000    0.000    0.000    0.000 
#    0.000    0.000    0.000    0.000    0.000    0.000 
#
# Total GULP energy -223200.598636 kJ/mol
# GULP energy per Si atom -5580.014966 kJ/mol
# Density = 1.817701 g / cm^3
# Si number density = 18.218480 Si / 1000 Ang^3
#
#
#
# Elastic Constant Matrix: (Units=GPa)
#
#
# Indices 1 2 3 4 5 6 
#
# 1 29.1380 33.9018 33.2088 0.0000 0.0000 0.0000
# 2 33.9018 170.2263 149.0380 0.0000 0.0000 0.0000
# 3 33.2088 149.0380 171.8877 0.0000 0.0000 0.0000
# 4 0.0000 0.0000 0.0000 37.9180 0.0000 0.0000
# 5 0.0000 0.0000 0.0000 0.0000 34.6189 0.0000
# 6 0.0000 0.0000 0.0000 0.0000 0.0000 35.7552
#
#
#
# Elastic Compliance Matrix: (Units=1/GPa)
#
#
# Indices 1 2 3 4 5 6 
#
# 1 0.045278 -0.005640 -0.003857 0.000000 0.000000 0.000000
# 2 -0.005640 0.025093 -0.020667 0.000000 0.000000 0.000000
# 3 -0.003857 -0.020667 0.024483 0.000000 0.000000 0.000000
# 4 0.000000 0.000000 0.000000 0.026373 0.000000 0.000000
# 5 0.000000 0.000000 0.000000 0.000000 0.028886 0.000000
# 6 0.000000 0.000000 0.000000 0.000000 0.000000 0.027968
#
#
# Mechanical properties :
#
#
# Convention : Reuss Voigt Hill
#
# Bulk Modulus (GPa) = 28.96547 89.28324 59.12436
# Shear Modulus (GPa) = 20.00661 31.99864 26.00262
#
# Velocity S-wave (km/s) = 3.31743 4.19547 3.78202
# Velocity P-wave (km/s) = 5.53238 8.51954 7.18296
#
# Compressibility (1/GPa) = 0.03452386
#
# Stress axis : x y z
#
# Youngs Moduli (GPa) = 22.08579 39.85238 40.84506
#
# Poissons Ratio (x) = 0.22479 0.15754
# Poissons Ratio (y) = 0.12457 0.84415
# Poissons Ratio (z) = 0.08519 0.82364
#
# Static dielectric constant tensor:
#      x y z
#    x 1.617590 0.000000 0.000000 
#    y 0.000000 1.650750 0.000000 
#    z 0.000000 0.000000 1.577530 
# 
# From -- ./inp_files/5618.got.cif
#   From: 2010.05.17/outbox.cif.g08.bks.cpg/sg51_3_cif.got.tgz:5618.got - 2010.06.03 11:52:47.
