data_PCOD9405561
_publ_section_title
;
Structure prediction by ZEFSAII (Michael W. Deem and Ramdas Pophale) SiO2 
 PCOD9405561
Probable space group: P M M A
;
_chemical_formula_sum "Si O2"
_cell_formula_units_Z 64
_cell_length_a 15.774785
_cell_length_b 15.462950
_cell_length_c 12.384348
_cell_angle_alpha 90.000000
_cell_angle_beta 90.000000
_cell_angle_gamma 90.000000
_cell_volume 3020.848516
_symmetry_space_group_name_H-M "P M M A"
_symmetry_group_IT_number 51
_symmetry_cell_setting 'orthorhombic'
loop_
_space_group_symop_operation_xyz
x,y,z
1/2-x,-y,z
1/2+x,-y,-z
-x,y,-z
-x,-y,-z
1/2+x,y,-z
1/2-x,y,z
x,-y,z
loop_
_atom_site_type_symbol
_atom_site_label
_atom_site_fract_x
_atom_site_fract_y
_atom_site_fract_z
Si Si1 0.990794 0.850961 0.880954
Si Si2 0.403090 0.636006 0.510558
Si Si3 0.507870 0.351415 0.879683
Si Si4 0.652947 0.144991 0.720840
Si Si5 0.149250 0.169497 0.513590
Si Si6 0.156268 0.600322 0.749372
Si Si7 0.656178 0.643191 0.724587
Si Si8 0.654363 0.898044 0.249635
O O1 0.969591 0.749535 0.894214
O O2 0.079886 0.857147 0.819676
O O3 0.915436 0.887196 0.806615
O O4 0.000000 0.889706 0.000000
O O5 0.500000 0.607532 0.500000
O O6 0.399870 0.740365 0.519785
O O7 0.361973 0.604383 0.621299
O O8 0.357596 0.613131 0.398533
O O9 0.419846 0.356749 0.814851
O O10 0.581846 0.388283 0.803227
O O11 0.500000 0.389389 0.000000
O O12 0.750000 0.118665 0.743380
O O13 0.628715 0.121231 0.597870
O O14 0.651769 0.251019 0.719964
O O15 0.250000 0.190984 0.505608
O O16 0.137091 0.118530 0.623872
O O17 0.250000 0.637648 0.769606
O O18 0.156494 0.500000 0.781301
O O19 0.750000 0.619497 0.762451
O O20 0.750000 0.865308 0.226755
O O21 0.653573 0.000000 0.229073
#
# Coordination Sequence:
#
# PCOD9405561 Si02
#       8
#     8   8   8   8   8   8   8   8
#     4  10  21  35  57  84 109 142 189 236 278 325
#     4  11  19  32  58  85 111 144 181 236 286 340
#     4  10  21  38  59  86 112 143 191 243 283 328
#     4   8  16  31  52  78 110 138 171 223 281 334
#     4   9  18  32  55  83 108 141 183 227 279 339
#     4  11  24  40  57  81 117 156 191 230 280 340
#     4   9  17  32  53  81 111 142 175 222 288 342
#     4  10  22  38  55  79 115 153 186 227 278 333
#
# _framework density 21.1861
#
# number of rings (size 3 to 8) (size 9 to 14) (size 15 to 20)
#    0.000    2.250    1.250    2.625    3.500    3.250 
#    0.000    3.750    0.000    1.500    0.000    0.000 
#    0.000    0.000    0.000    0.000    0.000    0.000 
#
# Total GULP energy -357356.378012 kJ/mol
# GULP energy per Si atom -5583.693406 kJ/mol
# Density = 2.113788 g / cm^3
# Si number density = 21.186100 Si / 1000 Ang^3
#
#
#
# Elastic Constant Matrix: (Units=GPa)
#
#
# Indices 1 2 3 4 5 6 
#
# 1 123.3218 -12.1059 71.1904 0.0000 0.0000 0.0000
# 2 -12.1059 25.8004 -9.0026 0.0000 0.0000 0.0000
# 3 71.1904 -9.0026 148.1030 0.0000 0.0000 0.0000
# 4 0.0000 0.0000 0.0000 -61.4206 0.0000 0.0000
# 5 0.0000 0.0000 0.0000 0.0000 5.1697 0.0000
# 6 0.0000 0.0000 0.0000 0.0000 0.0000 -179.6655
#
#
#
# Elastic Compliance Matrix: (Units=1/GPa)
#
#
# Indices 1 2 3 4 5 6 
#
# 1 0.011533 0.003552 -0.005328 0.000000 0.000000 0.000000
# 2 0.003552 0.040693 0.000766 0.000000 0.000000 0.000000
# 3 -0.005328 0.000766 0.009360 0.000000 0.000000 0.000000
# 4 0.000000 0.000000 0.000000 -0.016281 0.000000 0.000000
# 5 0.000000 0.000000 0.000000 0.000000 0.193434 0.000000
# 6 0.000000 0.000000 0.000000 0.000000 0.000000 -0.005566
#
#
# Mechanical properties :
#
#
# Convention : Reuss Voigt Hill
#
# Bulk Modulus (GPa) = 16.78772 44.15430 30.47101
# Shear Modulus (GPa) = 19.60421 -30.70704 -5.55142
#
# Velocity S-wave (km/s) = 3.04523 -3.81122 -1.62049
# Velocity P-wave (km/s) = 4.50618 1.23255 3.30340
#
# Compressibility (1/GPa) = 0.05956733
#
# Stress axis : x y z
#
# Youngs Moduli (GPa) = 86.70591 24.57409 106.84184
#
# Poissons Ratio (x) = -0.08730 0.56924
# Poissons Ratio (y) = -0.30802 -0.08184
# Poissons Ratio (z) = 0.46196 -0.01882
#
# Static dielectric constant tensor:
#      x y z
#    x 1.752800 0.000000 0.000000 
#    y 0.000000 1.787320 0.000000 
#    z 0.000000 0.000000 1.755360 
# 
# From -- ./inp_files/16843.got.cif
#   From: 2010.05.17/outbox.cif.g08.bks.cpg/sg51_9_cif.got.tgz:16843.got - 2010.06.03 11:52:47.
