data_PCOD9405961
_publ_section_title
;
Structure prediction by ZEFSAII (Michael W. Deem and Ramdas Pophale) SiO2 
 PCOD9405961
Probable space group: P M M A
;
_chemical_formula_sum "Si O2"
_cell_formula_units_Z 56
_cell_length_a 8.403031
_cell_length_b 15.123384
_cell_length_c 23.769954
_cell_angle_alpha 90.000000
_cell_angle_beta 90.000000
_cell_angle_gamma 90.000000
_cell_volume 3020.739583
_symmetry_space_group_name_H-M "P M M A"
_symmetry_group_IT_number 51
_symmetry_cell_setting 'orthorhombic'
loop_
_space_group_symop_operation_xyz
x,y,z
1/2-x,-y,z
1/2+x,-y,-z
-x,y,-z
-x,-y,-z
1/2+x,y,-z
1/2-x,y,z
x,-y,z
loop_
_atom_site_type_symbol
_atom_site_label
_atom_site_fract_x
_atom_site_fract_y
_atom_site_fract_z
Si Si1 0.060566 0.722211 0.939949
Si Si2 0.443631 0.100599 0.237033
Si Si3 0.940185 0.223918 0.661936
Si Si4 0.557830 0.899583 0.891995
Si Si5 0.443745 0.398059 0.837667
Si Si6 0.440543 0.100277 0.563221
Si Si7 0.558000 0.398811 0.289881
O O1 0.250000 0.716600 0.939665
O O2 0.997831 0.666065 0.886729
O O3 0.009853 0.823401 0.930805
O O4 0.000000 0.689272 0.000000
O O5 0.250000 0.102131 0.237080
O O6 0.500972 0.169596 0.283279
O O7 0.493116 0.118608 0.172797
O O8 0.491620 0.000000 0.251390
O O9 0.750000 0.222370 0.662970
O O10 0.997295 0.171726 0.607199
O O11 0.997082 0.324297 0.668217
O O12 0.750000 0.896610 0.893645
O O13 0.509192 0.000000 0.906195
O O14 0.250000 0.394273 0.837231
O O15 0.487388 0.500000 0.848906
O O16 0.496199 0.376101 0.774085
O O17 0.500000 0.117360 0.500000
O O18 0.250000 0.101312 0.563465
O O19 0.494143 0.000000 0.578747
O O20 0.750000 0.397740 0.289971
O O21 0.508100 0.500000 0.301805
#
# Coordination Sequence:
#
# PCOD9405961 Si02
#       7
#     8   8   8   8   8   8   8
#     4  11  22  34  50  71  95 124 161 206 252 302
#     4   8  15  28  47  73 103 132 161 197 248 306
#     4  11  20  30  51  81 112 143 174 212 257 308
#     4   9  18  34  53  70  93 127 164 203 248 298
#     4   8  16  33  55  76  99 129 164 204 254 308
#     4  10  21  37  56  79 110 148 188 225 258 297
#     4   9  18  34  55  77 103 136 173 214 260 309
#
# _framework density 18.538506000000002
#
# number of rings (size 3 to 8) (size 9 to 14) (size 15 to 20)
#    0.000    2.571    0.000    4.286    0.000    2.571 
#    0.000    1.429    0.000    5.143    0.000    0.000 
#    0.000    0.000    0.000    0.000    0.000    0.000 
#
# Total GULP energy -312484.518041 kJ/mol
# GULP energy per Si atom -5580.080679 kJ/mol
# Density = 1.849631 g / cm^3
# Si number density = 18.538506 Si / 1000 Ang^3
#
#
#
# Elastic Constant Matrix: (Units=GPa)
#
#
# Indices 1 2 3 4 5 6 
#
# 1 21.7256 21.9109 18.8651 0.0000 0.0000 0.0000
# 2 21.9109 116.3111 80.2189 0.0000 0.0000 0.0000
# 3 18.8651 80.2189 87.1765 0.0000 0.0000 0.0000
# 4 0.0000 0.0000 0.0000 19.8673 0.0000 0.0000
# 5 0.0000 0.0000 0.0000 0.0000 18.2761 0.0000
# 6 0.0000 0.0000 0.0000 0.0000 0.0000 17.8148
#
#
#
# Elastic Compliance Matrix: (Units=1/GPa)
#
#
# Indices 1 2 3 4 5 6 
#
# 1 0.058290 -0.006243 -0.006869 0.000000 0.000000 0.000000
# 2 -0.006243 0.024201 -0.020919 0.000000 0.000000 0.000000
# 3 -0.006869 -0.020919 0.032206 0.000000 0.000000 0.000000
# 4 0.000000 0.000000 0.000000 0.050334 0.000000 0.000000
# 5 0.000000 0.000000 0.000000 0.000000 0.054716 0.000000
# 6 0.000000 0.000000 0.000000 0.000000 0.000000 0.056133
#
#
# Mechanical properties :
#
#
# Convention : Reuss Voigt Hill
#
# Bulk Modulus (GPa) = 21.44282 51.91144 36.67713
# Shear Modulus (GPa) = 13.90869 18.13953 16.02411
#
# Velocity S-wave (km/s) = 2.74206 3.13146 2.94321
# Velocity P-wave (km/s) = 4.64940 6.41385 5.60153
#
# Compressibility (1/GPa) = 0.04663566
#
# Stress axis : x y z
#
# Youngs Moduli (GPa) = 17.15570 41.32051 31.04964
#
# Poissons Ratio (x) = 0.25797 0.21329
# Poissons Ratio (y) = 0.10710 0.64951
# Poissons Ratio (z) = 0.11785 0.86436
#
# Static dielectric constant tensor:
#      x y z
#    x 1.633830 0.000000 0.000000 
#    y 0.000000 1.640190 0.000000 
#    z 0.000000 0.000000 1.631430 
# 
# From -- ./inp_files/31869.got.cif
#   From: 2010.05.17/outbox.cif.g08.bks.cpg/sg51_16_cif.got.tgz:31869.got - 2010.06.03 11:52:47.
