data_PCOD9405662
_publ_section_title
;
Structure prediction by ZEFSAII (Michael W. Deem and Ramdas Pophale) SiO2 
 PCOD9405662
Probable space group: P M M A
;
_chemical_formula_sum "Si O2"
_cell_formula_units_Z 48
_cell_length_a 8.652380
_cell_length_b 31.313126
_cell_length_c 9.354198
_cell_angle_alpha 90.000000
_cell_angle_beta 90.000000
_cell_angle_gamma 90.000000
_cell_volume 2534.361536
_symmetry_space_group_name_H-M "P M M A"
_symmetry_group_IT_number 51
_symmetry_cell_setting 'orthorhombic'
loop_
_space_group_symop_operation_xyz
x,y,z
1/2-x,-y,z
1/2+x,-y,-z
-x,y,-z
-x,-y,-z
1/2+x,y,-z
1/2-x,y,z
x,-y,z
loop_
_atom_site_type_symbol
_atom_site_label
_atom_site_fract_x
_atom_site_fract_y
_atom_site_fract_z
Si Si1 0.563129 0.370728 0.159124
Si Si2 0.065181 0.049968 0.842497
Si Si3 0.935904 0.795605 0.160135
Si Si4 0.065674 0.874491 0.340884
Si Si5 0.436590 0.548337 0.658521
Si Si6 0.563706 0.288140 0.340170
O O1 0.750000 0.370472 0.153867
O O2 0.512486 0.415080 0.232374
O O3 0.513504 0.330955 0.257590
O O4 0.500000 0.366404 0.000000
O O5 0.250000 0.055587 0.842555
O O6 0.989637 0.080969 0.727387
O O7 0.031014 0.000000 0.815032
O O8 0.000000 0.060436 0.000000
O O9 0.750000 0.797778 0.155934
O O10 0.982136 0.753434 0.249077
O O11 0.000518 0.836888 0.241142
O O12 0.000000 0.793475 0.000000
O O13 0.250000 0.872570 0.344098
O O14 0.000000 0.869552 0.500000
O O15 0.500000 0.557100 0.500000
O O16 0.250000 0.549273 0.652351
O O17 0.484123 0.500000 0.698707
O O18 0.500000 0.286478 0.500000
O O19 0.750000 0.288616 0.347364
#
# Coordination Sequence:
#
# PCOD9405662 Si02
#       6
#     8   8   8   8   8   8
#     4  10  21  36  53  78 110 143 182 226 274 328
#     4  10  21  39  63  90 120 155 195 238 285 337
#     4  11  23  40  61  86 115 148 188 231 280 335
#     4  12  25  41  61  86 118 154 193 237 285 337
#     4   9  18  33  53  77 106 140 180 226 274 327
#     4  10  22  38  58  83 111 144 183 229 278 331
#
# _framework density 18.939682000000001
#
# number of rings (size 3 to 8) (size 9 to 14) (size 15 to 20)
#    0.000    1.667    0.000    4.500    0.000    5.667 
#    0.000    0.000    0.000    0.000    0.000    0.000 
#    0.000    0.000    0.000    0.000    0.000    0.000 
#
# Total GULP energy -268335.013556 kJ/mol
# GULP energy per Si atom -5590.312782 kJ/mol
# Density = 1.889657 g / cm^3
# Si number density = 18.939682 Si / 1000 Ang^3
#
#
#
# Elastic Constant Matrix: (Units=GPa)
#
#
# Indices 1 2 3 4 5 6 
#
# 1 55.2141 49.2647 50.1400 0.0000 0.0000 0.0000
# 2 49.2647 125.1330 106.0587 0.0000 0.0000 0.0000
# 3 50.1400 106.0587 190.7719 0.0000 0.0000 0.0000
# 4 0.0000 0.0000 0.0000 37.5004 0.0000 0.0000
# 5 0.0000 0.0000 0.0000 0.0000 40.9032 0.0000
# 6 0.0000 0.0000 0.0000 0.0000 0.0000 -44.5679
#
#
#
# Elastic Compliance Matrix: (Units=1/GPa)
#
#
# Indices 1 2 3 4 5 6 
#
# 1 0.028472 -0.009204 -0.002367 0.000000 0.000000 0.000000
# 2 -0.009204 0.018088 -0.007637 0.000000 0.000000 0.000000
# 3 -0.002367 -0.007637 0.010109 0.000000 0.000000 0.000000
# 4 0.000000 0.000000 0.000000 0.026666 0.000000 0.000000
# 5 0.000000 0.000000 0.000000 0.000000 0.024448 0.000000
# 6 0.000000 0.000000 0.000000 0.000000 0.000000 -0.022438
#
#
# Mechanical properties :
#
#
# Convention : Reuss Voigt Hill
#
# Bulk Modulus (GPa) = 54.77816 86.89397 70.83607
# Shear Modulus (GPa) = 38.50737 17.81085 28.15911
#
# Velocity S-wave (km/s) = 4.51395 3.06992 3.86006
# Velocity P-wave (km/s) = 7.49352 7.65146 7.57290
#
# Compressibility (1/GPa) = 0.01825545
#
# Stress axis : x y z
#
# Youngs Moduli (GPa) = 35.12179 55.28637 98.91721
#
# Poissons Ratio (x) = 0.50884 0.23409
# Poissons Ratio (y) = 0.32325 0.75541
# Poissons Ratio (z) = 0.08312 0.42221
#
# Static dielectric constant tensor:
#      x y z
#    x 1.637080 0.000000 0.000000 
#    y 0.000000 1.659030 0.000000 
#    z 0.000000 0.000000 1.602760 
# 
# From -- ./inp_files/6092.got.cif
#   From: 2010.05.17/outbox.cif.g08.bks.cpg/sg51_4_cif.got.tgz:6092.got - 2010.06.03 11:52:47.
