data_PCOD9405794
_publ_section_title
;
Structure prediction by ZEFSAII (Michael W. Deem and Ramdas Pophale) SiO2 
 PCOD9405794
Probable space group: P M M A
;
_chemical_formula_sum "Si O2"
_cell_formula_units_Z 64
_cell_length_a 14.271526
_cell_length_b 9.024673
_cell_length_c 26.671985
_cell_angle_alpha 90.000000
_cell_angle_beta 90.000000
_cell_angle_gamma 90.000000
_cell_volume 3435.241122
_symmetry_space_group_name_H-M "P M M A"
_symmetry_group_IT_number 51
_symmetry_cell_setting 'orthorhombic'
loop_
_space_group_symop_operation_xyz
x,y,z
1/2-x,-y,z
1/2+x,-y,-z
-x,y,-z
-x,-y,-z
1/2+x,y,-z
1/2-x,y,z
x,-y,z
loop_
_atom_site_type_symbol
_atom_site_label
_atom_site_fract_x
_atom_site_fract_y
_atom_site_fract_z
Si Si1 0.359752 0.323983 0.918505
Si Si2 0.856606 0.321598 0.369479
Si Si3 0.531986 0.822726 0.873987
Si Si4 0.457321 0.319810 0.321672
Si Si5 0.137003 0.673550 0.425105
Si Si6 0.861279 0.827046 0.976314
Si Si7 0.860125 0.320817 0.781318
Si Si8 0.135718 0.169054 0.526628
O O1 0.250000 0.289433 0.910267
O O2 0.372409 0.500000 0.915204
O O3 0.428033 0.241724 0.880284
O O4 0.383490 0.268082 0.974661
O O5 0.750000 0.271110 0.359490
O O6 0.855599 0.500000 0.371770
O O7 0.887577 0.262218 0.423899
O O8 0.934247 0.276521 0.328928
O O9 0.585030 0.784174 0.926010
O O10 0.586884 0.751602 0.827867
O O11 0.530914 0.000000 0.869644
O O12 0.452956 0.500000 0.321230
O O13 0.404296 0.272547 0.372384
O O14 0.407738 0.270933 0.270828
O O15 0.250000 0.682734 0.422482
O O16 0.112444 0.500000 0.431322
O O17 0.104100 0.761436 0.474104
O O18 0.750000 0.814879 0.967058
O O19 0.882228 0.000000 0.987540
O O20 0.750000 0.283607 0.781607
O O21 0.867716 0.500000 0.784545
O O22 0.250000 0.170185 0.524677
O O23 0.104852 0.000000 0.531993
#
# Coordination Sequence:
#
# PCOD9405794 Si02
#       8
#     8   8   8   8   8   8   8   8
#     4  10  21  36  55  82 115 148 184 228 274 318
#     4   9  17  31  51  72  95 126 164 204 247 301
#     4  11  22  36  56  81 111 149 189 225 266 321
#     4   9  18  33  53  75  97 126 169 216 260 308
#     4   9  16  28  48  71  95 126 164 204 248 302
#     4   9  18  33  53  79 113 151 187 223 268 323
#     4  10  21  38  59  81 106 136 173 222 276 323
#     4   9  17  29  45  68 100 132 159 195 246 301
#
# _framework density 18.630424000000001
#
# number of rings (size 3 to 8) (size 9 to 14) (size 15 to 20)
#    0.000    2.500    0.000    2.250    0.000    7.500 
#    0.000    6.250    0.000    3.750    0.000    0.000 
#    0.000    0.000    0.000    0.000    0.000    0.000 
#
# Total GULP energy -357261.630023 kJ/mol
# GULP energy per Si atom -5582.212969 kJ/mol
# Density = 1.858802 g / cm^3
# Si number density = 18.630424 Si / 1000 Ang^3
#
#
#
# Elastic Constant Matrix: (Units=GPa)
#
#
# Indices 1 2 3 4 5 6 
#
# 1 109.8656 41.8143 91.5603 0.0000 0.0000 0.0000
# 2 41.8143 30.4129 42.2541 0.0000 0.0000 0.0000
# 3 91.5603 42.2541 124.2117 0.0000 0.0000 0.0000
# 4 0.0000 0.0000 0.0000 -143.0319 0.0000 0.0000
# 5 0.0000 0.0000 0.0000 0.0000 36.9653 0.0000
# 6 0.0000 0.0000 0.0000 0.0000 0.0000 14.4723
#
#
#
# Elastic Compliance Matrix: (Units=1/GPa)
#
#
# Indices 1 2 3 4 5 6 
#
# 1 0.028346 -0.018853 -0.014481 0.000000 0.000000 0.000000
# 2 -0.018853 0.074887 -0.011578 0.000000 0.000000 0.000000
# 3 -0.014481 -0.011578 0.022664 0.000000 0.000000 0.000000
# 4 0.000000 0.000000 0.000000 -0.006991 0.000000 0.000000
# 5 0.000000 0.000000 0.000000 0.000000 0.027052 0.000000
# 6 0.000000 0.000000 0.000000 0.000000 0.000000 0.069097
#
#
# Mechanical properties :
#
#
# Convention : Reuss Voigt Hill
#
# Bulk Modulus (GPa) = 27.72182 68.41641 48.06912
# Shear Modulus (GPa) = 15.77773 -12.39474 1.69149
#
# Velocity S-wave (km/s) = 2.91328 -2.58213 0.95388
# Velocity P-wave (km/s) = 5.12137 5.28326 5.20294
#
# Compressibility (1/GPa) = 0.03607266
#
# Stress axis : x y z
#
# Youngs Moduli (GPa) = 35.27873 13.35351 44.12297
#
# Poissons Ratio (x) = 0.25175 0.63896
# Poissons Ratio (y) = 0.66510 0.51085
# Poissons Ratio (z) = 0.51088 0.15461
#
# Static dielectric constant tensor:
#      x y z
#    x 1.685830 0.000000 0.000000 
#    y 0.000000 1.624620 0.000000 
#    z 0.000000 0.000000 1.607060 
# 
# From -- ./inp_files/35681.got.cif
#   From: 2010.05.17/outbox.cif.g08.bks.cpg/sg51_18_cif.got.tgz:35681.got - 2010.06.03 11:52:47.
