data_PCOD9405326
_publ_section_title
;
Structure prediction by ZEFSAII (Michael W. Deem and Ramdas Pophale) SiO2 
 PCOD9405326
Probable space group: P M M A
;
_chemical_formula_sum "Si O2"
_cell_formula_units_Z 44
_cell_length_a 7.536116
_cell_length_b 29.835535
_cell_length_c 9.620735
_cell_angle_alpha 90.000000
_cell_angle_beta 90.000000
_cell_angle_gamma 90.000000
_cell_volume 2163.165047
_symmetry_space_group_name_H-M "P M M A"
_symmetry_group_IT_number 51
_symmetry_cell_setting 'orthorhombic'
loop_
_space_group_symop_operation_xyz
x,y,z
1/2-x,-y,z
1/2+x,-y,-z
-x,y,-z
-x,-y,-z
1/2+x,y,-z
1/2-x,y,z
x,-y,z
loop_
_atom_site_type_symbol
_atom_site_label
_atom_site_fract_x
_atom_site_fract_y
_atom_site_fract_z
Si Si1 0.962889 0.818608 0.837798
Si Si2 0.537035 0.281446 0.837575
Si Si3 0.963105 0.634196 0.662967
Si Si4 0.037538 0.000000 0.334727
Si Si5 0.036714 0.097343 0.335946
Si Si6 0.462869 0.449616 0.161066
O O1 0.750000 0.817386 0.819664
O O2 0.030974 0.768590 0.803462
O O3 0.032749 0.859617 0.746254
O O4 0.000000 0.826503 0.000000
O O5 0.750000 0.280050 0.822307
O O6 0.468729 0.321351 0.740939
O O7 0.500000 0.290442 0.000000
O O8 0.750000 0.634130 0.680480
O O9 0.031154 0.589263 0.738382
O O10 0.000000 0.634654 0.500000
O O11 0.969622 0.048452 0.284916
O O12 0.000000 0.000000 0.500000
O O13 0.250000 0.000000 0.314891
O O14 0.250000 0.096592 0.319516
O O15 0.000000 0.101440 0.500000
O O16 0.250000 0.451393 0.176651
O O17 0.531692 0.500000 0.188353
O O18 0.500000 0.438608 0.000000
#
# Coordination Sequence:
#
# PCOD9405326 Si02
#       6
#     8   8   8   4   8   8
#     4   9  18  32  48  67  92 120 150 186 228 272
#     4   9  18  33  51  69  90 119 155 191 226 269
#     4  10  21  34  48  70  99 126 153 189 231 273
#     4   8  14  26  43  62  86 116 148 182 221 264
#     4   9  17  29  46  67  90 117 150 187 225 267
#     4   9  18  33  52  73  96 123 157 194 229 269
#
# _framework density 20.340565999999999
#
# number of rings (size 3 to 8) (size 9 to 14) (size 15 to 20)
#    0.000    2.909    0.000    0.545    0.000    3.273 
#    0.000    0.455    0.000    0.000    0.000    0.000 
#    0.000    0.000    0.000    0.000    0.000    0.000 
#
# Total GULP energy -245364.130728 kJ/mol
# GULP energy per Si atom -5576.457517 kJ/mol
# Density = 2.029427 g / cm^3
# Si number density = 20.340566 Si / 1000 Ang^3
#
#
#
# Elastic Constant Matrix: (Units=GPa)
#
#
# Indices 1 2 3 4 5 6 
#
# 1 53.0018 10.8487 -4.5511 0.0000 0.0000 0.0000
# 2 10.8487 245.0596 140.6002 0.0000 0.0000 0.0000
# 3 -4.5511 140.6002 107.2839 0.0000 0.0000 0.0000
# 4 0.0000 0.0000 0.0000 20.4249 0.0000 0.0000
# 5 0.0000 0.0000 0.0000 0.0000 23.3199 0.0000
# 6 0.0000 0.0000 0.0000 0.0000 0.0000 11.4418
#
#
#
# Elastic Compliance Matrix: (Units=1/GPa)
#
#
# Indices 1 2 3 4 5 6 
#
# 1 0.020764 -0.005742 0.008406 0.000000 0.000000 0.000000
# 2 -0.005742 0.018036 -0.023881 0.000000 0.000000 0.000000
# 3 0.008406 -0.023881 0.040974 0.000000 0.000000 0.000000
# 4 0.000000 0.000000 0.000000 0.048960 0.000000 0.000000
# 5 0.000000 0.000000 0.000000 0.000000 0.042882 0.000000
# 6 0.000000 0.000000 0.000000 0.000000 0.000000 0.087399
#
#
# Mechanical properties :
#
#
# Convention : Reuss Voigt Hill
#
# Bulk Modulus (GPa) = 26.77970 77.68231 52.23100
# Shear Modulus (GPa) = 15.92882 28.26714 22.09798
#
# Velocity S-wave (km/s) = 2.80144 3.73190 3.29963
# Velocity P-wave (km/s) = 4.86398 7.53944 6.34435
#
# Compressibility (1/GPa) = 0.03734172
#
# Stress axis : x y z
#
# Youngs Moduli (GPa) = 48.15917 55.44412 24.40545
#
# Poissons Ratio (x) = 0.31838 -0.20516
# Poissons Ratio (y) = 0.27654 0.58282
# Poissons Ratio (z) = -0.40485 1.32405
#
# Static dielectric constant tensor:
#      x y z
#    x 1.738130 0.000000 0.000000 
#    y 0.000000 1.779500 0.000000 
#    z 0.000000 0.000000 1.658060 
# 
# From -- ./inp_files/5739.got.cif
#   From: 2010.05.17/outbox.cif.g08.bks.cpg/sg51_3_cif.got.tgz:5739.got - 2010.06.03 11:52:47.
