data_PCOD9405529
_publ_section_title
;
Structure prediction by ZEFSAII (Michael W. Deem and Ramdas Pophale) SiO2 
 PCOD9405529
Probable space group: P M M A
;
_chemical_formula_sum "Si O2"
_cell_formula_units_Z 64
_cell_length_a 15.126189
_cell_length_b 17.733573
_cell_length_c 11.230114
_cell_angle_alpha 90.000000
_cell_angle_beta 90.000000
_cell_angle_gamma 90.000000
_cell_volume 3012.381241
_symmetry_space_group_name_H-M "P M M A"
_symmetry_group_IT_number 51
_symmetry_cell_setting 'orthorhombic'
loop_
_space_group_symop_operation_xyz
x,y,z
1/2-x,-y,z
1/2+x,-y,-z
-x,y,-z
-x,-y,-z
1/2+x,y,-z
1/2-x,y,z
x,-y,z
loop_
_atom_site_type_symbol
_atom_site_label
_atom_site_fract_x
_atom_site_fract_y
_atom_site_fract_z
Si Si1 0.848794 0.221429 0.438268
Si Si2 0.849446 0.583336 0.282894
Si Si3 0.099640 0.381204 0.466393
Si Si4 0.645774 0.914932 0.835856
Si Si5 0.454482 0.735507 0.772957
Si Si6 0.091352 0.916237 0.426298
Si Si7 0.850656 0.234290 0.994652
Si Si8 0.850794 0.688296 0.757064
O O1 0.750000 0.242779 0.403354
O O2 0.890113 0.292010 0.507001
O O3 0.905680 0.210850 0.320354
O O4 0.850102 0.149698 0.521114
O O5 0.750000 0.597807 0.237753
O O6 0.878207 0.500000 0.242961
O O7 0.845736 0.582626 0.427021
O O8 0.914789 0.651139 0.249228
O O9 0.130974 0.384268 0.328991
O O10 0.000000 0.403978 0.500000
O O11 0.750000 0.911527 0.800395
O O12 0.587858 0.908256 0.716288
O O13 0.633162 0.844040 0.923086
O O14 0.631169 0.000000 0.885994
O O15 0.557526 0.733977 0.742495
O O16 0.423397 0.756331 0.904214
O O17 0.000000 0.910982 0.500000
O O18 0.127804 0.000000 0.448031
O O19 0.750000 0.229816 0.044208
O O20 0.849764 0.304778 0.901357
O O21 0.750000 0.714617 0.723794
#
# Coordination Sequence:
#
# PCOD9405529 Si02
#       8
#     8   8   8   8   8   8   8   8
#     4  11  21  33  56  84 116 157 201 250 308 360
#     4  10  21  38  64  94 125 165 204 241 298 370
#     4  11  19  36  58  89 123 155 194 250 301 360
#     4   9  18  34  58  87 118 158 207 256 310 372
#     4  11  22  40  60  89 124 159 201 261 303 354
#     4  10  21  35  53  81 123 164 206 253 306 372
#     4  10  21  37  61  89 119 160 209 259 305 359
#     4  11  22  37  59  88 119 158 204 249 304 361
#
# _framework density 21.245650000000001
#
# number of rings (size 3 to 8) (size 9 to 14) (size 15 to 20)
#    0.000    1.625    2.500    4.875    1.750    2.000 
#    0.000    0.625    0.000    5.625    0.000    5.250 
#    0.000    0.000    0.000    0.000    0.000    0.000 
#
# Total GULP energy -356586.873516 kJ/mol
# GULP energy per Si atom -5571.669899 kJ/mol
# Density = 2.119729 g / cm^3
# Si number density = 21.245650 Si / 1000 Ang^3
#
#
#
# Elastic Constant Matrix: (Units=GPa)
#
#
# Indices 1 2 3 4 5 6 
#
# 1 124.6450 8.5998 34.2223 0.0000 0.0000 0.0000
# 2 8.5998 99.0373 21.2921 0.0000 0.0000 0.0000
# 3 34.2223 21.2921 96.7794 0.0000 0.0000 0.0000
# 4 0.0000 0.0000 0.0000 9.2562 0.0000 0.0000
# 5 0.0000 0.0000 0.0000 0.0000 34.2170 0.0000
# 6 0.0000 0.0000 0.0000 0.0000 0.0000 4.7239
#
#
#
# Elastic Compliance Matrix: (Units=1/GPa)
#
#
# Indices 1 2 3 4 5 6 
#
# 1 0.008886 -0.000101 -0.003120 0.000000 0.000000 0.000000
# 2 -0.000101 0.010600 -0.002296 0.000000 0.000000 0.000000
# 3 -0.003120 -0.002296 0.011941 0.000000 0.000000 0.000000
# 4 0.000000 0.000000 0.000000 0.108036 0.000000 0.000000
# 5 0.000000 0.000000 0.000000 0.000000 0.029225 0.000000
# 6 0.000000 0.000000 0.000000 0.000000 0.000000 0.211687
#
#
# Mechanical properties :
#
#
# Convention : Reuss Voigt Hill
#
# Bulk Modulus (GPa) = 49.03711 49.85446 49.44578
# Shear Modulus (GPa) = 12.55625 26.72926 19.64275
#
# Velocity S-wave (km/s) = 2.43369 3.55083 3.04395
# Velocity P-wave (km/s) = 5.57030 6.35042 5.97311
#
# Compressibility (1/GPa) = 0.02039272
#
# Stress axis : x y z
#
# Youngs Moduli (GPa) = 112.53146 94.34276 83.74289
#
# Poissons Ratio (x) = 0.00951 0.26129
# Poissons Ratio (y) = 0.01135 0.19230
# Poissons Ratio (z) = 0.35112 0.21664
#
# Static dielectric constant tensor:
#      x y z
#    x 1.818210 0.000000 0.000000 
#    y 0.000000 1.795000 0.000000 
#    z 0.000000 0.000000 1.822380 
# 
# From -- ./inp_files/16836.got.cif
#   From: 2010.05.17/outbox.cif.g08.bks.cpg/sg51_9_cif.got.tgz:16836.got - 2010.06.03 11:52:47.
