data_PCOD9405205
_publ_section_title
;
Structure prediction by ZEFSAII (Michael W. Deem and Ramdas Pophale) SiO2 
 PCOD9405205
Probable space group: P M M A
;
_chemical_formula_sum "Si O2"
_cell_formula_units_Z 48
_cell_length_a 18.330341
_cell_length_b 13.945475
_cell_length_c 9.616581
_cell_angle_alpha 90.000000
_cell_angle_beta 90.000000
_cell_angle_gamma 90.000000
_cell_volume 2458.241520
_symmetry_space_group_name_H-M "P M M A"
_symmetry_group_IT_number 51
_symmetry_cell_setting 'orthorhombic'
loop_
_space_group_symop_operation_xyz
x,y,z
1/2-x,-y,z
1/2+x,-y,-z
-x,y,-z
-x,-y,-z
1/2+x,y,-z
1/2-x,y,z
x,-y,z
loop_
_atom_site_type_symbol
_atom_site_label
_atom_site_fract_x
_atom_site_fract_y
_atom_site_fract_z
Si Si1 0.834144 0.220489 0.965580
Si Si2 0.531803 0.609774 0.653878
Si Si3 0.335893 0.755660 0.356279
Si Si4 0.579192 0.112671 0.429592
Si Si5 0.556512 0.888993 0.114551
Si Si6 0.429644 0.608850 0.902640
O O1 0.750000 0.235645 0.994078
O O2 0.842987 0.203712 0.800648
O O3 0.866259 0.128848 0.043565
O O4 0.876963 0.312869 0.027667
O O5 0.500000 0.613122 0.500000
O O6 0.548347 0.500000 0.693908
O O7 0.606433 0.668763 0.651967
O O8 0.466513 0.640235 0.757184
O O9 0.250000 0.731534 0.377461
O O10 0.364883 0.826283 0.477094
O O11 0.500000 0.119307 0.500000
O O12 0.565230 0.147038 0.271671
O O13 0.601116 0.000000 0.426677
O O14 0.535831 0.000000 0.129757
O O15 0.500000 0.845666 0.000000
O O16 0.398494 0.500000 0.889490
O O17 0.500000 0.602405 0.000000
#
# Coordination Sequence:
#
# PCOD9405205 Si02
#       6
#     8   8   8   8   8   8
#     4  11  24  38  57  89 124 160 202 253 311 363
#     4  10  22  40  62  89 119 156 203 251 302 364
#     4  11  24  39  59  89 125 164 202 250 308 363
#     4  10  22  40  63  90 118 155 203 248 297 361
#     4  10  22  40  64  91 119 156 201 250 300 355
#     4  10  20  38  63  87 115 156 203 251 302 361
#
# _framework density 19.526153000000001
#
# number of rings (size 3 to 8) (size 9 to 14) (size 15 to 20)
#    0.000    1.667    1.667    2.000    4.667    4.000 
#    0.000    5.000    0.000    3.000    0.000    0.000 
#    0.000    0.000    0.000    0.000    0.000    0.000 
#
# Total GULP energy -267623.467749 kJ/mol
# GULP energy per Si atom -5575.488911 kJ/mol
# Density = 1.948171 g / cm^3
# Si number density = 19.526153 Si / 1000 Ang^3
#
#
#
# Elastic Constant Matrix: (Units=GPa)
#
#
# Indices 1 2 3 4 5 6 
#
# 1 77.6987 9.9375 59.9142 0.0000 0.0000 0.0000
# 2 9.9375 45.8166 29.1776 0.0000 0.0000 0.0000
# 3 59.9142 29.1776 151.8139 0.0000 0.0000 0.0000
# 4 0.0000 0.0000 0.0000 36.2359 0.0000 0.0000
# 5 0.0000 0.0000 0.0000 0.0000 31.9313 0.0000
# 6 0.0000 0.0000 0.0000 0.0000 0.0000 10.7429
#
#
#
# Elastic Compliance Matrix: (Units=1/GPa)
#
#
# Indices 1 2 3 4 5 6 
#
# 1 0.018521 0.000727 -0.007449 0.000000 0.000000 0.000000
# 2 0.000727 0.024899 -0.005072 0.000000 0.000000 0.000000
# 3 -0.007449 -0.005072 0.010502 0.000000 0.000000 0.000000
# 4 0.000000 0.000000 0.000000 0.027597 0.000000 0.000000
# 5 0.000000 0.000000 0.000000 0.000000 0.031317 0.000000
# 6 0.000000 0.000000 0.000000 0.000000 0.000000 0.093084
#
#
# Mechanical properties :
#
#
# Convention : Reuss Voigt Hill
#
# Bulk Modulus (GPa) = 32.96803 52.59865 42.78334
# Shear Modulus (GPa) = 20.86632 27.53537 24.20084
#
# Velocity S-wave (km/s) = 3.27254 3.75931 3.52434
# Velocity P-wave (km/s) = 5.58570 6.77047 6.20642
#
# Compressibility (1/GPa) = 0.03033242
#
# Stress axis : x y z
#
# Youngs Moduli (GPa) = 53.99136 40.16284 95.22236
#
# Poissons Ratio (x) = -0.02919 0.70934
# Poissons Ratio (y) = -0.03923 0.48298
# Poissons Ratio (z) = 0.40220 0.20371
#
# Static dielectric constant tensor:
#      x y z
#    x 1.569860 0.000000 0.000000 
#    y 0.000000 1.756670 0.000000 
#    z 0.000000 0.000000 1.550940 
# 
# From -- ./inp_files/9638.got.cif
#   From: 2010.05.17/outbox.cif.g08.bks.cpg/sg51_5_cif.got.tgz:9638.got - 2010.06.03 11:52:47.
