data_PCOD9405522
_publ_section_title
;
Structure prediction by ZEFSAII (Michael W. Deem and Ramdas Pophale) SiO2 
 PCOD9405522
Probable space group: P M M A
;
_chemical_formula_sum "Si O2"
_cell_formula_units_Z 52
_cell_length_a 9.051441
_cell_length_b 10.776366
_cell_length_c 30.496177
_cell_angle_alpha 90.000000
_cell_angle_beta 90.000000
_cell_angle_gamma 90.000000
_cell_volume 2974.647150
_symmetry_space_group_name_H-M "P M M A"
_symmetry_group_IT_number 51
_symmetry_cell_setting 'orthorhombic'
loop_
_space_group_symop_operation_xyz
x,y,z
1/2-x,-y,z
1/2+x,-y,-z
-x,y,-z
-x,-y,-z
1/2+x,y,-z
1/2-x,y,z
x,-y,z
loop_
_atom_site_type_symbol
_atom_site_label
_atom_site_fract_x
_atom_site_fract_y
_atom_site_fract_z
Si Si1 0.927202 0.852795 0.043934
Si Si2 0.926704 0.854503 0.768885
Si Si3 0.080062 0.849719 0.859840
Si Si4 0.082779 0.146370 0.456569
Si Si5 0.572526 0.355937 0.291580
Si Si6 0.425563 0.706219 0.606969
Si Si7 0.074229 0.500000 0.452750
O O1 0.750000 0.842914 0.041108
O O2 0.970959 0.803647 0.092146
O O3 0.964258 0.000000 0.044360
O O4 0.000000 0.799137 0.000000
O O5 0.750000 0.850204 0.765895
O O6 0.979933 0.821939 0.818160
O O7 0.997086 0.751181 0.737241
O O8 0.971934 0.000000 0.760184
O O9 0.250000 0.809088 0.852365
O O10 0.084162 0.000000 0.862935
O O11 0.250000 0.196184 0.453299
O O12 0.000000 0.196624 0.500000
O O13 0.988085 0.166526 0.412502
O O14 0.095643 0.000000 0.463194
O O15 0.750000 0.349837 0.285248
O O16 0.527400 0.500000 0.282710
O O17 0.542808 0.324802 0.342649
O O18 0.250000 0.695211 0.600628
O O19 0.513269 0.614022 0.575453
O O20 0.250000 0.500000 0.456247
O O21 0.000000 0.500000 0.500000
#
# Coordination Sequence:
#
# PCOD9405522 Si02
#       7
#     8   8   8   8   8   8   4
#     4   8  13  20  32  54  86 126 170 213 260 315
#     4  10  21  35  53  80 110 140 179 226 274 323
#     4   8  14  26  43  63  92 133 178 220 264 317
#     4  10  21  37  56  80 110 142 175 209 249 300
#     4  10  22  41  61  80 106 140 179 221 268 323
#     4  11  22  39  59  80 106 133 169 211 253 304
#     4  12  24  38  58  82 108 136 166 200 245 296
#
# _framework density 17.481065000000001
#
# number of rings (size 3 to 8) (size 9 to 14) (size 15 to 20)
#    0.000    2.308    0.769    3.462    0.000    4.615 
#    0.000    6.154    0.000    0.000    0.000    0.000 
#    0.000    0.615    0.000    2.000    0.000    4.000 
#
# Total GULP energy -289612.559049 kJ/mol
# GULP energy per Si atom -5569.472289 kJ/mol
# Density = 1.744128 g / cm^3
# Si number density = 17.481065 Si / 1000 Ang^3
#
#
#
# Elastic Constant Matrix: (Units=GPa)
#
#
# Indices 1 2 3 4 5 6 
#
# 1 73.6614 37.4347 72.4263 0.0000 0.0000 0.0000
# 2 37.4347 66.0725 58.2218 0.0000 0.0000 0.0000
# 3 72.4263 58.2218 151.8375 0.0000 0.0000 0.0000
# 4 0.0000 0.0000 0.0000 10.6986 0.0000 0.0000
# 5 0.0000 0.0000 0.0000 0.0000 31.3353 0.0000
# 6 0.0000 0.0000 0.0000 0.0000 0.0000 23.4133
#
#
#
# Elastic Compliance Matrix: (Units=1/GPa)
#
#
# Indices 1 2 3 4 5 6 
#
# 1 0.027042 -0.005973 -0.010609 0.000000 0.000000 0.000000
# 2 -0.005973 0.024178 -0.006422 0.000000 0.000000 0.000000
# 3 -0.010609 -0.006422 0.014109 0.000000 0.000000 0.000000
# 4 0.000000 0.000000 0.000000 0.093470 0.000000 0.000000
# 5 0.000000 0.000000 0.000000 0.000000 0.031913 0.000000
# 6 0.000000 0.000000 0.000000 0.000000 0.000000 0.042711
#
#
# Mechanical properties :
#
#
# Convention : Reuss Voigt Hill
#
# Bulk Modulus (GPa) = 51.75578 69.74856 60.75217
# Shear Modulus (GPa) = 17.49047 21.32199 19.40623
#
# Velocity S-wave (km/s) = 3.16656 3.49624 3.33547
# Velocity P-wave (km/s) = 6.56053 7.50229 7.04716
#
# Compressibility (1/GPa) = 0.01932152
#
# Stress axis : x y z
#
# Youngs Moduli (GPa) = 36.97974 41.36026 70.87829
#
# Poissons Ratio (x) = 0.24705 0.75192
# Poissons Ratio (y) = 0.22088 0.45517
# Poissons Ratio (z) = 0.39230 0.26561
#
# Static dielectric constant tensor:
#      x y z
#    x 1.594910 0.000000 0.000000 
#    y 0.000000 1.778270 0.000000 
#    z 0.000000 0.000000 1.602430 
# 
# From -- ./inp_files/36198.got.cif
#   From: 2010.05.17/outbox.cif.g08.bks.cpg/sg51_19_cif.got.tgz:36198.got - 2010.06.03 11:52:47.
