data_PCOD9405044
_publ_section_title
;
Structure prediction by ZEFSAII (Michael W. Deem and Ramdas Pophale) SiO2 
 PCOD9405044
Probable space group: P M M A
;
_chemical_formula_sum "Si O2"
_cell_formula_units_Z 48
_cell_length_a 8.616223
_cell_length_b 31.654033
_cell_length_c 9.307908
_cell_angle_alpha 90.000000
_cell_angle_beta 90.000000
_cell_angle_gamma 90.000000
_cell_volume 2538.622140
_symmetry_space_group_name_H-M "P M M A"
_symmetry_group_IT_number 51
_symmetry_cell_setting 'orthorhombic'
loop_
_space_group_symop_operation_xyz
x,y,z
1/2-x,-y,z
1/2+x,-y,-z
-x,y,-z
-x,-y,-z
1/2+x,y,-z
1/2-x,y,z
x,-y,z
loop_
_atom_site_type_symbol
_atom_site_label
_atom_site_fract_x
_atom_site_fract_y
_atom_site_fract_z
Si Si1 0.935873 0.500000 0.837738
Si Si2 0.934725 0.000000 0.659625
Si Si3 0.062238 0.254174 0.660399
Si Si4 0.563559 0.077901 0.160810
Si Si5 0.936978 0.420017 0.337851
Si Si6 0.937065 0.826642 0.160376
Si Si7 0.937032 0.336369 0.161071
O O1 0.750000 0.500000 0.841306
O O2 0.996410 0.459082 0.752413
O O3 0.000000 0.500000 0.000000
O O4 0.000000 0.000000 0.500000
O O5 0.995157 0.041621 0.740309
O O6 0.750000 0.000000 0.658918
O O7 0.250000 0.254378 0.655819
O O8 0.010625 0.210216 0.732998
O O9 0.012048 0.293429 0.759726
O O10 0.000000 0.258662 0.500000
O O11 0.750000 0.075021 0.159781
O O12 0.518505 0.125728 0.205466
O O13 0.500000 0.071881 0.000000
O O14 0.750000 0.422707 0.341027
O O15 0.982425 0.376764 0.256753
O O16 0.000000 0.420604 0.500000
O O17 0.750000 0.825363 0.153650
O O18 0.000000 0.819273 0.000000
O O19 0.750000 0.335878 0.153898
O O20 0.000000 0.339272 0.000000
#
# Coordination Sequence:
#
# PCOD9405044 Si02
#       7
#     4   4   8   8   8   8   8
#     4  12  25  42  63  88 118 154 194 240 287 340
#     4  12  25  40  57  80 110 146 184 230 283 336
#     4  10  21  37  55  82 115 149 187 229 276 331
#     4  10  20  37  59  84 112 146 186 230 276 331
#     4  11  23  40  61  88 119 154 193 237 287 341
#     4   9  19  35  57  83 112 144 184 228 273 325
#     4  10  22  38  59  85 115 149 190 235 282 334
#
# _framework density 18.907893000000001
#
# number of rings (size 3 to 8) (size 9 to 14) (size 15 to 20)
#    0.000    1.667    0.000    4.500    0.000    5.333 
#    0.000    1.667    0.000    0.000    0.000    0.000 
#    0.000    0.000    0.000    0.000    0.000    0.000 
#
# Total GULP energy -268298.574765 kJ/mol
# GULP energy per Si atom -5589.553641 kJ/mol
# Density = 1.886486 g / cm^3
# Si number density = 18.907893 Si / 1000 Ang^3
#
#
#
# Elastic Constant Matrix: (Units=GPa)
#
#
# Indices 1 2 3 4 5 6 
#
# 1 62.2460 58.1833 49.4590 0.0000 0.0000 0.0000
# 2 58.1833 193.8983 131.0630 0.0000 0.0000 0.0000
# 3 49.4590 131.0630 183.6851 0.0000 0.0000 0.0000
# 4 0.0000 0.0000 0.0000 -152.2177 0.0000 0.0000
# 5 0.0000 0.0000 0.0000 0.0000 39.9331 0.0000
# 6 0.0000 0.0000 0.0000 0.0000 0.0000 -7.7204
#
#
#
# Elastic Compliance Matrix: (Units=1/GPa)
#
#
# Indices 1 2 3 4 5 6 
#
# 1 0.022879 -0.005218 -0.002437 0.000000 0.000000 0.000000
# 2 -0.005218 0.011152 -0.006552 0.000000 0.000000 0.000000
# 3 -0.002437 -0.006552 0.010775 0.000000 0.000000 0.000000
# 4 0.000000 0.000000 0.000000 -0.006570 0.000000 0.000000
# 5 0.000000 0.000000 0.000000 0.000000 0.025042 0.000000
# 6 0.000000 0.000000 0.000000 0.000000 0.000000 -0.129527
#
#
# Mechanical properties :
#
#
# Convention : Reuss Voigt Hill
#
# Bulk Modulus (GPa) = 61.00606 101.91555 81.46081
# Shear Modulus (GPa) = -154.46969 -10.59272 -82.53120
#
# Velocity S-wave (km/s) = -9.04838 -2.36948 -6.61391
# Velocity P-wave (km/s) = 8.76524 6.82145 3.89212
#
# Compressibility (1/GPa) = 0.01639181
#
# Stress axis : x y z
#
# Youngs Moduli (GPa) = 43.70766 89.67070 92.80326
#
# Poissons Ratio (x) = 0.46789 0.22620
# Poissons Ratio (y) = 0.22806 0.60806
# Poissons Ratio (z) = 0.10653 0.58754
#
# Static dielectric constant tensor:
#      x y z
#    x 1.637130 0.000000 0.000000 
#    y 0.000000 1.658780 0.000000 
#    z 0.000000 0.000000 1.598230 
# 
# From -- ./inp_files/6207.got.cif
#   From: 2010.05.17/outbox.cif.g08.bks.cpg/sg51_4_cif.got.tgz:6207.got - 2010.06.03 11:52:47.
