data_PCOD9405306
_publ_section_title
;
Structure prediction by ZEFSAII (Michael W. Deem and Ramdas Pophale) SiO2 
 PCOD9405306
Probable space group: P M M A
;
_chemical_formula_sum "Si O2"
_cell_formula_units_Z 40
_cell_length_a 7.419783
_cell_length_b 28.112879
_cell_length_c 9.030588
_cell_angle_alpha 90.000000
_cell_angle_beta 90.000000
_cell_angle_gamma 90.000000
_cell_volume 1883.703551
_symmetry_space_group_name_H-M "P M M A"
_symmetry_group_IT_number 51
_symmetry_cell_setting 'orthorhombic'
loop_
_space_group_symop_operation_xyz
x,y,z
1/2-x,-y,z
1/2+x,-y,-z
-x,y,-z
-x,-y,-z
1/2+x,y,-z
1/2-x,y,z
x,-y,z
loop_
_atom_site_type_symbol
_atom_site_label
_atom_site_fract_x
_atom_site_fract_y
_atom_site_fract_z
Si Si1 0.534375 0.346536 0.177192
Si Si2 0.965861 0.448826 0.177460
Si Si3 0.034179 0.243495 0.824512
Si Si4 0.034441 0.852274 0.673389
Si Si5 0.534412 0.052117 0.175022
O O1 0.750000 0.346811 0.198664
O O2 0.464848 0.397661 0.234189
O O3 0.465061 0.295158 0.230224
O O4 0.500000 0.346380 0.000000
O O5 0.750000 0.448872 0.197959
O O6 0.035041 0.500000 0.234131
O O7 0.000000 0.448782 0.000000
O O8 0.250000 0.244482 0.803571
O O9 0.963048 0.196273 0.746115
O O10 0.000000 0.239930 0.000000
O O11 0.250000 0.852294 0.699155
O O12 0.962922 0.901163 0.743862
O O13 0.000000 0.851875 0.500000
O O14 0.750000 0.051193 0.196991
O O15 0.464876 0.000000 0.222943
O O16 0.500000 0.056574 0.000000
#
# Coordination Sequence:
#
# PCOD9405306 Si02
#       5
#     8   8   8   8   8
#     4   8  13  21  33  50  73 100 130 165 203 243
#     4   8  12  17  26  42  66  96 126 155 192 240
#     4   9  17  29  45  64  85 111 144 180 216 255
#     4  10  21  34  47  66  92 119 147 180 217 256
#     4   9  18  33  52  73  95 118 146 179 213 252
#
# _framework density 21.234763999999998
#
# number of rings (size 3 to 8) (size 9 to 14) (size 15 to 20)
#    0.000    3.200    0.000    0.600    0.000    2.000 
#    0.000    0.000    0.000    0.000    0.000    0.000 
#    0.000    0.800    0.000    0.600    0.000   12.000 
#
# Total GULP energy -222773.441875 kJ/mol
# GULP energy per Si atom -5569.336047 kJ/mol
# Density = 2.118643 g / cm^3
# Si number density = 21.234764 Si / 1000 Ang^3
#
#
#
# Elastic Constant Matrix: (Units=GPa)
#
#
# Indices 1 2 3 4 5 6 
#
# 1 76.4401 16.7374 -7.5491 0.0000 0.0000 0.0000
# 2 16.7374 329.3642 76.1908 0.0000 0.0000 0.0000
# 3 -7.5491 76.1908 34.4226 0.0000 0.0000 0.0000
# 4 0.0000 0.0000 0.0000 -7.4848 0.0000 0.0000
# 5 0.0000 0.0000 0.0000 0.0000 13.4826 0.0000
# 6 0.0000 0.0000 0.0000 0.0000 0.0000 -8.0888
#
#
#
# Elastic Compliance Matrix: (Units=1/GPa)
#
#
# Indices 1 2 3 4 5 6 
#
# 1 0.014744 -0.003068 0.010025 0.000000 0.000000 0.000000
# 2 -0.003068 0.006860 -0.015858 0.000000 0.000000 0.000000
# 3 0.010025 -0.015858 0.066348 0.000000 0.000000 0.000000
# 4 0.000000 0.000000 0.000000 -0.133605 0.000000 0.000000
# 5 0.000000 0.000000 0.000000 0.000000 0.074170 0.000000
# 6 0.000000 0.000000 0.000000 0.000000 0.000000 -0.123628
#
#
# Mechanical properties :
#
#
# Convention : Reuss Voigt Hill
#
# Bulk Modulus (GPa) = 14.25508 67.88722 41.07115
# Shear Modulus (GPa) = -92.72112 23.23834 -34.74139
#
# Velocity S-wave (km/s) = -6.61510 3.31169 -4.04921
# Velocity P-wave (km/s) = 7.18460 6.83098 1.57419
#
# Compressibility (1/GPa) = 0.07015041
#
# Stress axis : x y z
#
# Youngs Moduli (GPa) = 67.82427 145.76503 15.07197
#
# Poissons Ratio (x) = 0.44724 -0.15109
# Poissons Ratio (y) = 0.20810 0.23900
# Poissons Ratio (z) = -0.67992 2.31148
#
# Static dielectric constant tensor:
#      x y z
#    x 1.762870 0.000000 0.000000 
#    y 0.000000 1.878410 0.000000 
#    z 0.000000 0.000000 1.664100 
# 
# From -- ./inp_files/900.got.cif
#   From: 2010.05.17/outbox.cif.g08.bks.cpg/sg51_1_cif.got.tgz:900.got - 2010.06.03 11:52:47.
