data_PCOD9405692
_publ_section_title
;
Structure prediction by ZEFSAII (Michael W. Deem and Ramdas Pophale) SiO2 
 PCOD9405692
Probable space group: P M M A
;
_chemical_formula_sum "Si O2"
_cell_formula_units_Z 40
_cell_length_a 9.465548
_cell_length_b 7.549625
_cell_length_c 26.543750
_cell_angle_alpha 90.000000
_cell_angle_beta 90.000000
_cell_angle_gamma 90.000000
_cell_volume 1896.851886
_symmetry_space_group_name_H-M "P M M A"
_symmetry_group_IT_number 51
_symmetry_cell_setting 'orthorhombic'
loop_
_space_group_symop_operation_xyz
x,y,z
1/2-x,-y,z
1/2+x,-y,-z
-x,y,-z
-x,-y,-z
1/2+x,y,-z
1/2-x,y,z
x,-y,z
loop_
_atom_site_type_symbol
_atom_site_label
_atom_site_fract_x
_atom_site_fract_y
_atom_site_fract_z
Si Si1 0.910202 0.286997 0.647340
Si Si2 0.089212 0.212383 0.547627
Si Si3 0.087853 0.783212 0.049068
Si Si4 0.088826 0.212364 0.855148
Si Si5 0.088727 0.712199 0.741801
O O1 0.750000 0.219895 0.641847
O O2 0.902046 0.500000 0.651385
O O3 0.005255 0.247793 0.598866
O O4 0.987708 0.220008 0.697751
O O5 0.250000 0.280773 0.549071
O O6 0.000000 0.280968 0.500000
O O7 0.098074 0.000000 0.542144
O O8 0.250000 0.725979 0.046581
O O9 0.010654 0.723178 0.100077
O O10 0.088300 0.000000 0.049287
O O11 0.000000 0.728395 0.000000
O O12 0.250000 0.280306 0.859882
O O13 0.038687 0.251123 0.798548
O O14 0.095459 0.000000 0.859979
O O15 0.250000 0.780658 0.736998
O O16 0.095819 0.500000 0.736420
#
# Coordination Sequence:
#
# PCOD9405692 Si02
#       5
#     8   8   8   8   8
#     4  10  21  36  54  77 104 135 172 211 250 295
#     4  10  21  37  57  80 106 136 169 206 251 301
#     4   9  16  26  42  65  93 123 154 191 237 286
#     4   9  17  29  46  69  95 122 156 198 241 287
#     4   9  18  33  51  70  96 131 166 201 245 294
#
# _framework density 21.087569999999999
#
# number of rings (size 3 to 8) (size 9 to 14) (size 15 to 20)
#    0.000    2.600    0.000    1.800    0.000    6.800 
#    0.000    2.000    0.000    0.600    0.000    0.000 
#    0.000    0.000    0.000    0.000    0.000    0.000 
#
# Total GULP energy -223396.945103 kJ/mol
# GULP energy per Si atom -5584.923628 kJ/mol
# Density = 2.103957 g / cm^3
# Si number density = 21.087570 Si / 1000 Ang^3
#
#
#
# Elastic Constant Matrix: (Units=GPa)
#
#
# Indices 1 2 3 4 5 6 
#
# 1 197.6744 7.1081 155.9797 0.0000 0.0000 0.0000
# 2 7.1081 50.8569 -2.0473 0.0000 0.0000 0.0000
# 3 155.9797 -2.0473 234.2931 0.0000 0.0000 0.0000
# 4 0.0000 0.0000 0.0000 27.4809 0.0000 0.0000
# 5 0.0000 0.0000 0.0000 0.0000 41.4245 0.0000
# 6 0.0000 0.0000 0.0000 0.0000 0.0000 13.3708
#
#
#
# Elastic Compliance Matrix: (Units=1/GPa)
#
#
# Indices 1 2 3 4 5 6 
#
# 1 0.010820 -0.001803 -0.007219 0.000000 0.000000 0.000000
# 2 -0.001803 0.019970 0.001375 0.000000 0.000000 0.000000
# 3 -0.007219 0.001375 0.009086 0.000000 0.000000 0.000000
# 4 0.000000 0.000000 0.000000 0.036389 0.000000 0.000000
# 5 0.000000 0.000000 0.000000 0.000000 0.024140 0.000000
# 6 0.000000 0.000000 0.000000 0.000000 0.000000 0.074790
#
#
# Mechanical properties :
#
#
# Convention : Reuss Voigt Hill
#
# Bulk Modulus (GPa) = 40.67995 89.43394 65.05695
# Shear Modulus (GPa) = 25.16548 37.90750 31.53649
#
# Velocity S-wave (km/s) = 3.45828 4.24444 3.87137
# Velocity P-wave (km/s) = 5.93962 8.15617 7.13450
#
# Compressibility (1/GPa) = 0.02458214
#
# Stress axis : x y z
#
# Youngs Moduli (GPa) = 92.42004 50.07424 110.05524
#
# Poissons Ratio (x) = 0.09028 0.79451
# Poissons Ratio (y) = 0.16663 -0.15130
# Poissons Ratio (z) = 0.66720 -0.06884
#
# Static dielectric constant tensor:
#      x y z
#    x 1.742050 0.000000 0.000000 
#    y 0.000000 1.800320 0.000000 
#    z 0.000000 0.000000 1.714440 
# 
# From -- ./inp_files/31347.got.cif
#   From: 2010.05.17/outbox.cif.g08.bks.cpg/sg51_16_cif.got.tgz:31347.got - 2010.06.03 11:52:47.
