data_PCOD9405704
_publ_section_title
;
Structure prediction by ZEFSAII (Michael W. Deem and Ramdas Pophale) SiO2 
 PCOD9405704
Probable space group: P M M A
;
_chemical_formula_sum "Si O2"
_cell_formula_units_Z 48
_cell_length_a 16.321312
_cell_length_b 7.517582
_cell_length_c 18.867428
_cell_angle_alpha 90.000000
_cell_angle_beta 90.000000
_cell_angle_gamma 90.000000
_cell_volume 2314.973065
_symmetry_space_group_name_H-M "P M M A"
_symmetry_group_IT_number 51
_symmetry_cell_setting 'orthorhombic'
loop_
_space_group_symop_operation_xyz
x,y,z
1/2-x,-y,z
1/2+x,-y,-z
-x,y,-z
-x,-y,-z
1/2+x,y,-z
1/2-x,y,z
x,-y,z
loop_
_atom_site_type_symbol
_atom_site_label
_atom_site_fract_x
_atom_site_fract_y
_atom_site_fract_z
Si Si1 0.917060 0.712054 0.462499
Si Si2 0.158978 0.283688 0.839869
Si Si3 0.250000 0.788020 0.453301
Si Si4 0.750000 0.782503 0.709078
Si Si5 0.002683 0.794668 0.078198
Si Si6 0.419907 0.216083 0.221727
Si Si7 0.415733 0.708314 0.695730
O O1 0.929412 0.500000 0.455340
O O2 0.833689 0.736780 0.506559
O O3 0.907801 0.785426 0.382705
O O4 0.000000 0.781835 0.500000
O O5 0.250000 0.233262 0.861327
O O6 0.152965 0.500000 0.840555
O O7 0.088533 0.211948 0.890235
O O8 0.139601 0.220568 0.759846
O O9 0.250000 0.720962 0.372379
O O10 0.250000 0.000000 0.449864
O O11 0.832180 0.726793 0.749402
O O12 0.750000 0.000000 0.708373
O O13 0.057813 0.719390 0.142415
O O14 0.029481 0.000000 0.069504
O O15 0.000000 0.712536 0.000000
O O16 0.491752 0.274685 0.275067
O O17 0.422419 0.000000 0.220457
O O18 0.394418 0.500000 0.690385
#
# Coordination Sequence:
#
# PCOD9405704 Si02
#       7
#     8   8   4   4   8   8   8
#     4  10  21  36  54  77 105 139 177 218 267 318
#     4   9  18  32  51  74  97 131 170 201 243 296
#     4  11  23  35  51  77 106 137 176 222 267 311
#     4   9  18  33  51  71  96 133 174 206 245 299
#     4   9  18  33  51  76 105 130 161 202 249 296
#     4   9  17  32  53  73  98 133 171 207 246 298
#     4   9  18  32  52  73  99 132 169 208 252 301
#
# _framework density 20.734582
#
# number of rings (size 3 to 8) (size 9 to 14) (size 15 to 20)
#    0.000    2.667    0.000    1.250    1.167    1.667 
#    1.500    1.250    0.000    0.000    0.000    0.000 
#    0.000    0.000    0.000    0.000    0.000    0.000 
#
# Total GULP energy -267807.519145 kJ/mol
# GULP energy per Si atom -5579.323316 kJ/mol
# Density = 2.068739 g / cm^3
# Si number density = 20.734582 Si / 1000 Ang^3
#
#
#
# Elastic Constant Matrix: (Units=GPa)
#
#
# Indices 1 2 3 4 5 6 
#
# 1 99.4903 -23.4761 70.6686 0.0000 0.0000 0.0000
# 2 -23.4761 51.2540 -2.9391 0.0000 0.0000 0.0000
# 3 70.6686 -2.9391 199.8766 0.0000 0.0000 0.0000
# 4 0.0000 0.0000 0.0000 -19.2691 0.0000 0.0000
# 5 0.0000 0.0000 0.0000 0.0000 9.3734 0.0000
# 6 0.0000 0.0000 0.0000 0.0000 0.0000 -10.6918
#
#
#
# Elastic Compliance Matrix: (Units=1/GPa)
#
#
# Indices 1 2 3 4 5 6 
#
# 1 0.015462 0.006774 -0.005367 0.000000 0.000000 0.000000
# 2 0.006774 0.022495 -0.002064 0.000000 0.000000 0.000000
# 3 -0.005367 -0.002064 0.006870 0.000000 0.000000 0.000000
# 4 0.000000 0.000000 0.000000 -0.051897 0.000000 0.000000
# 5 0.000000 0.000000 0.000000 0.000000 0.106684 0.000000
# 6 0.000000 0.000000 0.000000 0.000000 0.000000 -0.093530
#
#
# Mechanical properties :
#
#
# Convention : Reuss Voigt Hill
#
# Bulk Modulus (GPa) = 22.98147 48.79195 35.88671
# Shear Modulus (GPa) = 228.26702 16.30703 122.28702
#
# Velocity S-wave (km/s) = 10.50376 2.80744 7.68800
# Velocity P-wave (km/s) = 12.57828 5.83881 9.80573
#
# Compressibility (1/GPa) = 0.04351331
#
# Stress axis : x y z
#
# Youngs Moduli (GPa) = 64.67439 44.45394 145.55296
#
# Poissons Ratio (x) = -0.30115 0.78121
# Poissons Ratio (y) = -0.43813 0.30048
# Poissons Ratio (z) = 0.34712 0.09177
#
# Static dielectric constant tensor:
#      x y z
#    x 1.700510 0.000000 0.000000 
#    y 0.000000 1.779330 0.000000 
#    z 0.000000 0.000000 1.749780 
# 
# From -- ./inp_files/29498.got.cif
#   From: 2010.05.17/outbox.cif.g08.bks.cpg/sg51_15_cif.got.tgz:29498.got - 2010.06.03 11:52:47.
