data_PCOD9405485
_publ_section_title
;
Structure prediction by ZEFSAII (Michael W. Deem and Ramdas Pophale) SiO2 
 PCOD9405485
Probable space group: P M M A
;
_chemical_formula_sum "Si O2"
_cell_formula_units_Z 64
_cell_length_a 13.756505
_cell_length_b 7.584355
_cell_length_c 25.357413
_cell_angle_alpha 90.000000
_cell_angle_beta 90.000000
_cell_angle_gamma 90.000000
_cell_volume 2645.645843
_symmetry_space_group_name_H-M "P M M A"
_symmetry_group_IT_number 51
_symmetry_cell_setting 'orthorhombic'
loop_
_space_group_symop_operation_xyz
x,y,z
1/2-x,-y,z
1/2+x,-y,-z
-x,y,-z
-x,-y,-z
1/2+x,y,-z
1/2-x,y,z
x,-y,z
loop_
_atom_site_type_symbol
_atom_site_label
_atom_site_fract_x
_atom_site_fract_y
_atom_site_fract_z
Si Si1 0.362833 0.789018 0.915002
Si Si2 0.057337 0.702318 0.365403
Si Si3 0.362702 0.289127 0.029548
Si Si4 0.633180 0.709630 0.857370
Si Si5 0.134059 0.705898 0.474095
Si Si6 0.446582 0.706223 0.251668
Si Si7 0.362340 0.213501 0.798972
Si Si8 0.860565 0.795526 0.407461
O O1 0.250000 0.726802 0.916571
O O2 0.398110 0.726995 0.857613
O O3 0.361621 0.000000 0.912758
O O4 0.406835 0.742126 0.971693
O O5 0.093567 0.500000 0.365300
O O6 0.941193 0.701661 0.372807
O O7 0.095691 0.785588 0.419533
O O8 0.081923 0.781902 0.308527
O O9 0.250000 0.224216 0.026329
O O10 0.359484 0.500000 0.035195
O O11 0.402444 0.218967 0.085629
O O12 0.750000 0.725685 0.858300
O O13 0.610420 0.500000 0.856280
O O14 0.596113 0.786423 0.802183
O O15 0.250000 0.714603 0.471113
O O16 0.104508 0.500000 0.476304
O O17 0.108355 0.783950 0.530930
O O18 0.418077 0.500000 0.252926
O O19 0.562343 0.718034 0.243549
O O20 0.250000 0.266562 0.792154
O O21 0.364325 0.000000 0.797679
O O22 0.750000 0.726653 0.403642
O O23 0.859580 0.000000 0.392084
#
# Coordination Sequence:
#
# PCOD9405485 Si02
#       8
#     8   8   8   8   8   8   8   8
#     4   8  14  26  45  68  92 120 157 201 250 303
#     4  10  21  35  52  77 107 137 170 209 251 293
#     4   8  13  23  43  70  95 121 156 197 244 299
#     4   8  15  30  51  73 100 133 165 202 251 302
#     4   9  18  34  56  81 109 138 166 201 248 298
#     4  10  21  35  52  76 102 131 173 216 247 286
#     4   9  19  36  54  70  95 133 170 207 257 310
#     4  10  21  36  55  80 107 136 171 207 246 296
#
# _framework density 24.190693
#
# number of rings (size 3 to 8) (size 9 to 14) (size 15 to 20)
#    0.000    3.000    0.000    2.250    0.000    5.000 
#    0.000    7.500    0.000    4.875    0.000    1.750 
#    0.000    0.000    0.000    0.000    0.000    0.000 
#
# Total GULP energy -357177.952380 kJ/mol
# GULP energy per Si atom -5580.905506 kJ/mol
# Density = 2.413563 g / cm^3
# Si number density = 24.190693 Si / 1000 Ang^3
#
#
#
# Elastic Constant Matrix: (Units=GPa)
#
#
# Indices 1 2 3 4 5 6 
#
# 1 33.7942 -5.4381 26.7906 0.0000 0.0000 0.0000
# 2 -5.4381 58.4350 1.6139 0.0000 0.0000 0.0000
# 3 26.7906 1.6139 128.8602 0.0000 0.0000 0.0000
# 4 0.0000 0.0000 0.0000 23.9797 0.0000 0.0000
# 5 0.0000 0.0000 0.0000 0.0000 19.6282 0.0000
# 6 0.0000 0.0000 0.0000 0.0000 0.0000 1.7759
#
#
#
# Elastic Compliance Matrix: (Units=1/GPa)
#
#
# Indices 1 2 3 4 5 6 
#
# 1 0.036162 0.003574 -0.007563 0.000000 0.000000 0.000000
# 2 0.003574 0.017472 -0.000962 0.000000 0.000000 0.000000
# 3 -0.007563 -0.000962 0.009345 0.000000 0.000000 0.000000
# 4 0.000000 0.000000 0.000000 0.041702 0.000000 0.000000
# 5 0.000000 0.000000 0.000000 0.000000 0.050947 0.000000
# 6 0.000000 0.000000 0.000000 0.000000 0.000000 0.563090
#
#
# Mechanical properties :
#
#
# Convention : Reuss Voigt Hill
#
# Bulk Modulus (GPa) = 18.84047 29.66913 24.25480
# Shear Modulus (GPa) = 6.69962 22.28495 14.49229
#
# Velocity S-wave (km/s) = 1.66599 3.03845 2.45028
# Velocity P-wave (km/s) = 3.39204 4.95993 4.24893
#
# Compressibility (1/GPa) = 0.05307724
#
# Stress axis : x y z
#
# Youngs Moduli (GPa) = 27.65367 57.23369 107.01184
#
# Poissons Ratio (x) = -0.20456 0.80932
# Poissons Ratio (y) = -0.09884 0.10294
# Poissons Ratio (z) = 0.20914 0.05505
#
# Static dielectric constant tensor:
#      x y z
#    x 1.948530 0.000000 0.000000 
#    y 0.000000 1.895560 0.000000 
#    z 0.000000 0.000000 1.970160 
# 
# From -- ./inp_files/35868.got.cif
#   From: 2010.05.17/outbox.cif.g08.bks.cpg/sg51_18_cif.got.tgz:35868.got - 2010.06.03 11:52:47.
