data_PCOD9405586
_publ_section_title
;
Structure prediction by ZEFSAII (Michael W. Deem and Ramdas Pophale) SiO2 
 PCOD9405586
Probable space group: P M M A
;
_chemical_formula_sum "Si O2"
_cell_formula_units_Z 56
_cell_length_a 19.004420
_cell_length_b 8.879848
_cell_length_c 19.562738
_cell_angle_alpha 90.000000
_cell_angle_beta 90.000000
_cell_angle_gamma 90.000000
_cell_volume 3301.336475
_symmetry_space_group_name_H-M "P M M A"
_symmetry_group_IT_number 51
_symmetry_cell_setting 'orthorhombic'
loop_
_space_group_symop_operation_xyz
x,y,z
1/2-x,-y,z
1/2+x,-y,-z
-x,y,-z
-x,-y,-z
1/2+x,y,-z
1/2-x,y,z
x,-y,z
loop_
_atom_site_type_symbol
_atom_site_label
_atom_site_fract_x
_atom_site_fract_y
_atom_site_fract_z
Si Si1 0.085666 0.679549 0.600507
Si Si2 0.132222 0.827927 0.735454
Si Si3 0.668011 0.181177 0.526533
Si Si4 0.937154 0.182038 0.645449
Si Si5 0.023466 0.318334 0.925151
Si Si6 0.825203 0.318887 0.127070
Si Si7 0.971489 0.828247 0.791165
O O1 0.081758 0.500000 0.599709
O O2 0.131139 0.737294 0.665159
O O3 0.122497 0.741541 0.532691
O O4 0.007281 0.746585 0.612100
O O5 0.172072 0.747829 0.796889
O O6 0.051307 0.830842 0.761770
O O7 0.155180 0.000000 0.725002
O O8 0.750000 0.225829 0.524979
O O9 0.629665 0.215224 0.598299
O O10 0.664694 0.000000 0.516811
O O11 0.929878 0.231717 0.724728
O O12 0.947451 0.000000 0.646935
O O13 0.021719 0.500000 0.924241
O O14 0.103993 0.268653 0.910944
O O15 0.976239 0.260934 0.861961
O O16 0.000000 0.266597 0.000000
O O17 0.750000 0.276974 0.095039
O O18 0.828460 0.500000 0.131428
O O19 0.949771 0.000000 0.805255
#
# Coordination Sequence:
#
# PCOD9405586 Si02
#       7
#     8   8   8   8   8   8   8
#     4  11  21  32  49  73  99 127 160 198 241 289
#     4   9  17  30  47  67  92 121 153 189 229 278
#     4  10  21  36  52  69  92 126 165 204 248 292
#     4   9  18  34  54  73  94 122 161 205 243 287
#     4   9  17  29  46  69  95 122 153 187 223 270
#     4   9  17  29  45  66  93 124 156 191 232 277
#     4   8  15  28  47  70  91 113 145 186 230 272
#
# _framework density 16.962827999999998
#
# number of rings (size 3 to 8) (size 9 to 14) (size 15 to 20)
#    0.000    2.714    0.000    3.000    0.000    7.143 
#    0.000    0.000    0.000    0.857    0.000    0.000 
#    0.000    0.000    0.000    0.000    0.000    0.571 
#
# Total GULP energy -311969.847329 kJ/mol
# GULP energy per Si atom -5570.890131 kJ/mol
# Density = 1.692422 g / cm^3
# Si number density = 16.962828 Si / 1000 Ang^3
#
#
#
# Elastic Constant Matrix: (Units=GPa)
#
#
# Indices 1 2 3 4 5 6 
#
# 1 53.9894 19.1071 41.3502 0.0000 0.0000 0.0000
# 2 19.1071 27.5492 33.8331 0.0000 0.0000 0.0000
# 3 41.3502 33.8331 133.0734 0.0000 0.0000 0.0000
# 4 0.0000 0.0000 0.0000 21.1614 0.0000 0.0000
# 5 0.0000 0.0000 0.0000 0.0000 10.3733 0.0000
# 6 0.0000 0.0000 0.0000 0.0000 0.0000 10.4660
#
#
#
# Elastic Compliance Matrix: (Units=1/GPa)
#
#
# Indices 1 2 3 4 5 6 
#
# 1 0.026851 -0.012179 -0.005247 0.000000 0.000000 0.000000
# 2 -0.012179 0.058302 -0.011039 0.000000 0.000000 0.000000
# 3 -0.005247 -0.011039 0.011952 0.000000 0.000000 0.000000
# 4 0.000000 0.000000 0.000000 0.047256 0.000000 0.000000
# 5 0.000000 0.000000 0.000000 0.000000 0.096401 0.000000
# 6 0.000000 0.000000 0.000000 0.000000 0.000000 0.095548
#
#
# Mechanical properties :
#
#
# Convention : Reuss Voigt Hill
#
# Bulk Modulus (GPa) = 24.89081 44.79920 34.84500
# Shear Modulus (GPa) = 12.29617 16.42157 14.35887
#
# Velocity S-wave (km/s) = 2.69530 3.11479 2.91261
# Velocity P-wave (km/s) = 4.93880 6.27722 5.64780
#
# Compressibility (1/GPa) = 0.04017547
#
# Stress axis : x y z
#
# Youngs Moduli (GPa) = 37.24245 17.15205 83.67116
#
# Poissons Ratio (x) = 0.20890 0.43903
# Poissons Ratio (y) = 0.45358 0.92361
# Poissons Ratio (z) = 0.19541 0.18933
#
# Static dielectric constant tensor:
#      x y z
#    x 1.591470 0.000000 0.000000 
#    y 0.000000 1.573750 0.000000 
#    z 0.000000 0.000000 1.575900 
# 
# From -- ./inp_files/30347.got.cif
#   From: 2010.05.17/outbox.cif.g08.bks.cpg/sg51_16_cif.got.tgz:30347.got - 2010.06.03 11:52:47.
