data_PCOD9405349
_publ_section_title
;
Structure prediction by ZEFSAII (Michael W. Deem and Ramdas Pophale) SiO2 
 PCOD9405349
Probable space group: P M M A
;
_chemical_formula_sum "Si O2"
_cell_formula_units_Z 48
_cell_length_a 15.214923
_cell_length_b 9.429654
_cell_length_c 17.753322
_cell_angle_alpha 90.000000
_cell_angle_beta 90.000000
_cell_angle_gamma 90.000000
_cell_volume 2547.095019
_symmetry_space_group_name_H-M "P M M A"
_symmetry_group_IT_number 51
_symmetry_cell_setting 'orthorhombic'
loop_
_space_group_symop_operation_xyz
x,y,z
1/2-x,-y,z
1/2+x,-y,-z
-x,y,-z
-x,-y,-z
1/2+x,y,-z
1/2-x,y,z
x,-y,z
loop_
_atom_site_type_symbol
_atom_site_label
_atom_site_fract_x
_atom_site_fract_y
_atom_site_fract_z
Si Si1 0.604272 0.660568 0.996535
Si Si2 0.855142 0.840423 0.849150
Si Si3 0.645668 0.339645 0.163589
Si Si4 0.353162 0.668626 0.298335
Si Si5 0.144528 0.832098 0.690263
Si Si6 0.509466 0.330971 0.411809
O O1 0.640556 0.500000 0.987272
O O2 0.631955 0.714691 0.078876
O O3 0.500000 0.650669 0.000000
O O4 0.627635 0.757730 0.926362
O O5 0.750000 0.849789 0.842258
O O6 0.883868 0.752490 0.775932
O O7 0.891729 0.000000 0.850528
O O8 0.750000 0.351948 0.173539
O O9 0.607269 0.500000 0.168509
O O10 0.615305 0.239025 0.230612
O O11 0.250000 0.702152 0.314251
O O12 0.357393 0.500000 0.283130
O O13 0.419122 0.700103 0.366747
O O14 0.250000 0.810065 0.680762
O O15 0.088306 0.755690 0.626014
O O16 0.128891 0.000000 0.691342
O O17 0.500000 0.299344 0.500000
O O18 0.526542 0.500000 0.403715
#
# Coordination Sequence:
#
# PCOD9405349 Si02
#       6
#     8   8   8   8   8   8
#     4  10  21  34  51  79 112 146 186 232 279 328
#     4  10  21  36  54  78 109 146 187 230 277 329
#     4   9  18  34  55  77 105 146 192 235 279 327
#     4   9  19  37  60  84 113 150 190 232 281 340
#     4  10  22  39  59  85 118 156 194 233 283 341
#     4  10  22  39  62  91 118 147 186 235 289 343
#
# _framework density 18.844996999999999
#
# number of rings (size 3 to 8) (size 9 to 14) (size 15 to 20)
#    0.000    2.333    0.000    1.500    2.333    5.333 
#    0.000    3.333    0.000    2.000    0.000    0.000 
#    0.000    0.000    0.000    0.000    0.000    0.000 
#
# Total GULP energy -267828.260213 kJ/mol
# GULP energy per Si atom -5579.755421 kJ/mol
# Density = 1.880211 g / cm^3
# Si number density = 18.844997 Si / 1000 Ang^3
#
#
#
# Elastic Constant Matrix: (Units=GPa)
#
#
# Indices 1 2 3 4 5 6 
#
# 1 59.9749 50.4323 57.4810 0.0000 0.0000 0.0000
# 2 50.4323 87.5862 103.5815 0.0000 0.0000 0.0000
# 3 57.4810 103.5815 199.8812 0.0000 0.0000 0.0000
# 4 0.0000 0.0000 0.0000 -0.5154 0.0000 0.0000
# 5 0.0000 0.0000 0.0000 0.0000 34.0283 0.0000
# 6 0.0000 0.0000 0.0000 0.0000 0.0000 21.4248
#
#
#
# Elastic Compliance Matrix: (Units=1/GPa)
#
#
# Indices 1 2 3 4 5 6 
#
# 1 0.032388 -0.019719 0.000905 0.000000 0.000000 0.000000
# 2 -0.019719 0.041497 -0.015834 0.000000 0.000000 0.000000
# 3 0.000905 -0.015834 0.012948 0.000000 0.000000 0.000000
# 4 0.000000 0.000000 0.000000 -1.940175 0.000000 0.000000
# 5 0.000000 0.000000 0.000000 0.000000 0.029387 0.000000
# 6 0.000000 0.000000 0.000000 0.000000 0.000000 0.046675
#
#
# Mechanical properties :
#
#
# Convention : Reuss Voigt Hill
#
# Bulk Modulus (GPa) = 57.02215 85.60353 71.31284
# Shear Modulus (GPa) = -2.93748 20.05070 8.55661
#
# Velocity S-wave (km/s) = -1.24986 3.26541 2.13316
# Velocity P-wave (km/s) = 5.31426 7.72922 6.63258
#
# Compressibility (1/GPa) = 0.01753705
#
# Stress axis : x y z
#
# Youngs Moduli (GPa) = 30.87544 24.09827 77.23213
#
# Poissons Ratio (x) = 0.47520 -0.06987
# Poissons Ratio (y) = 0.60884 1.22286
# Poissons Ratio (z) = -0.02793 0.38156
#
# Static dielectric constant tensor:
#      x y z
#    x 1.664770 0.000000 0.000000 
#    y 0.000000 1.662120 0.000000 
#    z 0.000000 0.000000 1.634260 
# 
# From -- ./inp_files/29399.got.cif
#   From: 2010.05.17/outbox.cif.g08.bks.cpg/sg51_15_cif.got.tgz:29399.got - 2010.06.03 11:52:47.
