data_PCOD9405212
_publ_section_title
;
Structure prediction by ZEFSAII (Michael W. Deem and Ramdas Pophale) SiO2 
 PCOD9405212
Probable space group: P M M A
;
_chemical_formula_sum "Si O2"
_cell_formula_units_Z 30
_cell_length_a 8.785043
_cell_length_b 19.959827
_cell_length_c 9.282788
_cell_angle_alpha 90.000000
_cell_angle_beta 90.000000
_cell_angle_gamma 90.000000
_cell_volume 1627.717739
_symmetry_space_group_name_H-M "P M M A"
_symmetry_group_IT_number 51
_symmetry_cell_setting 'orthorhombic'
loop_
_space_group_symop_operation_xyz
x,y,z
1/2-x,-y,z
1/2+x,-y,-z
-x,y,-z
-x,-y,-z
1/2+x,y,-z
1/2-x,y,z
x,-y,z
loop_
_atom_site_type_symbol
_atom_site_label
_atom_site_fract_x
_atom_site_fract_y
_atom_site_fract_z
Si Si1 0.431460 0.745456 0.841176
Si Si2 0.418098 0.636961 0.346429
Si Si3 0.066580 0.132146 0.339987
Si Si4 0.932783 0.000000 0.840376
Si Si5 0.250000 0.500000 0.302775
O O1 0.250000 0.749573 0.846504
O O2 0.484657 0.675213 0.772410
O O3 0.498362 0.803361 0.739552
O O4 0.500000 0.752864 0.000000
O O5 0.500000 0.640974 0.500000
O O6 0.250000 0.670190 0.356442
O O7 0.380361 0.560017 0.308940
O O8 0.250000 0.136307 0.345289
O O9 0.000000 0.127436 0.500000
O O10 0.023143 0.066277 0.248257
O O11 0.750000 0.000000 0.852051
O O12 0.000000 0.000000 0.000000
#
# Coordination Sequence:
#
# PCOD9405212 Si02
#       5
#     8   8   8   4   2
#     4  12  25  42  63  89 123 164 208 256 310 369
#     4  10  20  38  63  92 123 157 200 251 301 365
#     4  11  23  41  64  94 126 165 211 260 307 361
#     4  10  23  40  62  92 130 168 209 254 311 366
#     4   8  22  36  68  90 130 150 210 238 318 356
#
# _framework density 18.430714999999999
#
# number of rings (size 3 to 8) (size 9 to 14) (size 15 to 20)
#    0.800    0.533    0.000    6.400    0.000    4.267 
#    0.000    0.667    0.000    0.000    0.000    0.000 
#    0.000    0.000    0.000    0.000    0.000    0.000 
#
# Total GULP energy -167010.362246 kJ/mol
# GULP energy per Si atom -5567.012075 kJ/mol
# Density = 1.838877 g / cm^3
# Si number density = 18.430715 Si / 1000 Ang^3
#
#
#
# Elastic Constant Matrix: (Units=GPa)
#
#
# Indices 1 2 3 4 5 6 
#
# 1 127.8289 52.6322 62.9165 0.0000 0.0000 0.0000
# 2 52.6322 88.4468 86.9907 0.0000 0.0000 0.0000
# 3 62.9165 86.9907 166.7627 0.0000 0.0000 0.0000
# 4 0.0000 0.0000 0.0000 19.0943 0.0000 0.0000
# 5 0.0000 0.0000 0.0000 0.0000 34.8438 0.0000
# 6 0.0000 0.0000 0.0000 0.0000 0.0000 16.1989
#
#
#
# Elastic Compliance Matrix: (Units=1/GPa)
#
#
# Indices 1 2 3 4 5 6 
#
# 1 0.010529 -0.004843 -0.001446 0.000000 0.000000 0.000000
# 2 -0.004843 0.025447 -0.011447 0.000000 0.000000 0.000000
# 3 -0.001446 -0.011447 0.012513 0.000000 0.000000 0.000000
# 4 0.000000 0.000000 0.000000 0.052372 0.000000 0.000000
# 5 0.000000 0.000000 0.000000 0.000000 0.028700 0.000000
# 6 0.000000 0.000000 0.000000 0.000000 0.000000 0.061732
#
#
# Mechanical properties :
#
#
# Convention : Reuss Voigt Hill
#
# Bulk Modulus (GPa) = 76.82431 87.56859 82.19645
# Shear Modulus (GPa) = 21.63535 26.06067 23.84801
#
# Velocity S-wave (km/s) = 3.42990 3.76437 3.60102
# Velocity P-wave (km/s) = 7.58016 8.15533 7.87300
#
# Compressibility (1/GPa) = 0.01301671
#
# Stress axis : x y z
#
# Youngs Moduli (GPa) = 94.97778 39.29777 79.91583
#
# Poissons Ratio (x) = 0.19033 0.11554
# Poissons Ratio (y) = 0.46001 0.91478
# Poissons Ratio (z) = 0.13732 0.44983
#
# Static dielectric constant tensor:
#      x y z
#    x 1.630950 0.000000 0.000000 
#    y 0.000000 1.628070 0.000000 
#    z 0.000000 0.000000 1.598750 
# 
# From -- ./inp_files/4863.got.cif
#   From: 2010.05.17/outbox.cif.g08.bks.cpg/sg51_3_cif.got.tgz:4863.got - 2010.06.03 11:52:47.
