data_PCOD9405430
_publ_section_title
;
Structure prediction by ZEFSAII (Michael W. Deem and Ramdas Pophale) SiO2 
 PCOD9405430
Probable space group: P M M A
;
_chemical_formula_sum "Si O2"
_cell_formula_units_Z 64
_cell_length_a 20.616970
_cell_length_b 7.863668
_cell_length_c 18.044273
_cell_angle_alpha 90.000000
_cell_angle_beta 90.000000
_cell_angle_gamma 90.000000
_cell_volume 2925.427891
_symmetry_space_group_name_H-M "P M M A"
_symmetry_group_IT_number 51
_symmetry_cell_setting 'orthorhombic'
loop_
_space_group_symop_operation_xyz
x,y,z
1/2-x,-y,z
1/2+x,-y,-z
-x,y,-z
-x,-y,-z
1/2+x,y,-z
1/2-x,y,z
x,-y,z
loop_
_atom_site_type_symbol
_atom_site_label
_atom_site_fract_x
_atom_site_fract_y
_atom_site_fract_z
Si Si1 0.006894 0.706967 0.882421
Si Si2 0.323405 0.701374 0.379810
Si Si3 0.319666 0.696507 0.750272
Si Si4 0.959496 0.291383 0.571699
Si Si5 0.172416 0.807315 0.214987
Si Si6 0.873662 0.304287 0.941562
Si Si7 0.963975 0.292617 0.281901
Si Si8 0.347559 0.809443 0.908209
O O1 0.009452 0.500000 0.887385
O O2 0.000858 0.751988 0.795351
O O3 0.075172 0.780335 0.907202
O O4 0.946132 0.766907 0.930050
O O5 0.250000 0.772439 0.390197
O O6 0.318762 0.500000 0.393525
O O7 0.384563 0.767581 0.426510
O O8 0.344183 0.725839 0.293910
O O9 0.250000 0.773407 0.727883
O O10 0.319227 0.500000 0.726009
O O11 0.388942 0.768882 0.723423
O O12 0.322502 0.698466 0.840147
O O13 0.958163 0.500000 0.572499
O O14 0.000000 0.238743 0.500000
O O15 0.997324 0.236489 0.645916
O O16 0.250000 0.815209 0.215331
O O17 0.153747 0.708559 0.141107
O O18 0.146929 0.000000 0.210719
O O19 0.879509 0.500000 0.964219
O O20 0.831057 0.222022 0.006143
O O21 0.961555 0.500000 0.283157
O O22 0.330423 0.000000 0.887645
#
# Coordination Sequence:
#
# PCOD9405430 Si02
#       8
#     8   8   8   8   8   8   8   8
#     4   9  18  33  51  69  92 127 171 212 253 307
#     4   9  17  31  51  74 102 139 180 214 249 305
#     4   9  18  34  53  69  89 125 174 222 265 313
#     4   9  16  27  47  78 113 141 165 203 256 306
#     4  10  21  35  50  71  99 130 167 212 258 303
#     4  11  21  33  51  72  97 132 170 210 258 312
#     4   8  14  27  47  70  95 125 163 205 251 304
#     4  11  22  33  47  70 100 130 163 211 266 314
#
# _framework density 21.877141000000002
#
# number of rings (size 3 to 8) (size 9 to 14) (size 15 to 20)
#    0.000    2.500    0.000    3.750    0.000    6.000 
#    0.000    0.625    0.000    4.125    0.000    0.000 
#    0.000    4.000    0.000    0.000    0.000    0.000 
#
# Total GULP energy -357011.191691 kJ/mol
# GULP energy per Si atom -5578.299870 kJ/mol
# Density = 2.182735 g / cm^3
# Si number density = 21.877141 Si / 1000 Ang^3
#
#
#
# Elastic Constant Matrix: (Units=GPa)
#
#
# Indices 1 2 3 4 5 6 
#
# 1 122.5031 3.5454 52.3830 0.0000 0.0000 0.0000
# 2 3.5454 29.4292 -4.6017 0.0000 0.0000 0.0000
# 3 52.3830 -4.6017 99.0676 0.0000 0.0000 0.0000
# 4 0.0000 0.0000 0.0000 -24.2681 0.0000 0.0000
# 5 0.0000 0.0000 0.0000 0.0000 6.6054 0.0000
# 6 0.0000 0.0000 0.0000 0.0000 0.0000 39.4892
#
#
#
# Elastic Compliance Matrix: (Units=1/GPa)
#
#
# Indices 1 2 3 4 5 6 
#
# 1 0.010686 -0.002187 -0.005752 0.000000 0.000000 0.000000
# 2 -0.002187 0.034676 0.002767 0.000000 0.000000 0.000000
# 3 -0.005752 0.002767 0.013264 0.000000 0.000000 0.000000
# 4 0.000000 0.000000 0.000000 -0.041206 0.000000 0.000000
# 5 0.000000 0.000000 0.000000 0.000000 0.151391 0.000000
# 6 0.000000 0.000000 0.000000 0.000000 0.000000 0.025323
#
#
# Mechanical properties :
#
#
# Convention : Reuss Voigt Hill
#
# Bulk Modulus (GPa) = 20.71138 39.29481 30.00309
# Shear Modulus (GPa) = 22.66839 17.67686 20.17262
#
# Velocity S-wave (km/s) = 3.22245 2.84563 3.03988
# Velocity P-wave (km/s) = 4.83045 5.36632 5.10542
#
# Compressibility (1/GPa) = 0.04828264
#
# Stress axis : x y z
#
# Youngs Moduli (GPa) = 93.58157 28.83839 75.39205
#
# Poissons Ratio (x) = 0.06306 0.43364
# Poissons Ratio (y) = 0.20464 -0.20861
# Poissons Ratio (z) = 0.53827 -0.07980
#
# Static dielectric constant tensor:
#      x y z
#    x 1.851030 0.000000 0.000000 
#    y 0.000000 1.817970 0.000000 
#    z 0.000000 0.000000 1.796160 
# 
# From -- ./inp_files/30540.got.cif
#   From: 2010.05.17/outbox.cif.g08.bks.cpg/sg51_16_cif.got.tgz:30540.got - 2010.06.03 11:52:47.
