data_PCOD9405131
_publ_section_title
;
Structure prediction by ZEFSAII (Michael W. Deem and Ramdas Pophale) SiO2 
 PCOD9405131
Probable space group: P M M A
;
_chemical_formula_sum "Si O2"
_cell_formula_units_Z 64
_cell_length_a 23.973675
_cell_length_b 9.052919
_cell_length_c 15.609593
_cell_angle_alpha 90.000000
_cell_angle_beta 90.000000
_cell_angle_gamma 90.000000
_cell_volume 3387.777097
_symmetry_space_group_name_H-M "P M M A"
_symmetry_group_IT_number 51
_symmetry_cell_setting 'orthorhombic'
loop_
_space_group_symop_operation_xyz
x,y,z
1/2-x,-y,z
1/2+x,-y,-z
-x,y,-z
-x,-y,-z
1/2+x,y,-z
1/2-x,y,z
x,-y,z
loop_
_atom_site_type_symbol
_atom_site_label
_atom_site_fract_x
_atom_site_fract_y
_atom_site_fract_z
Si Si1 0.119435 0.175825 0.097723
Si Si2 0.617489 0.175236 0.595597
Si Si3 0.110832 0.175616 0.901698
Si Si4 0.315993 0.323987 0.755880
Si Si5 0.683607 0.673298 0.750479
Si Si6 0.996068 0.326463 0.849998
Si Si7 0.004305 0.671940 0.356197
Si Si8 0.620740 0.323708 0.418720
O O1 0.161949 0.253260 0.162272
O O2 0.058468 0.241588 0.117973
O O3 0.119087 0.000000 0.112530
O O4 0.132052 0.203410 0.998023
O O5 0.652800 0.248441 0.671717
O O6 0.553636 0.227147 0.609099
O O7 0.636544 0.237003 0.503894
O O8 0.621727 0.000000 0.599597
O O9 0.152788 0.237365 0.830733
O O10 0.051668 0.255926 0.888791
O O11 0.103150 0.000000 0.891484
O O12 0.250000 0.297858 0.756630
O O13 0.326035 0.500000 0.767918
O O14 0.342476 0.284647 0.664004
O O15 0.750000 0.687169 0.742613
O O16 0.668490 0.500000 0.750591
O O17 0.992405 0.500000 0.871338
O O18 0.999059 0.314102 0.746661
O O19 0.017524 0.500000 0.376204
O O20 0.943935 0.705915 0.395329
O O21 0.626230 0.500000 0.433366
#
# Coordination Sequence:
#
# PCOD9405131 Si02
#       8
#     8   8   8   8   8   8   8   8
#     4  11  24  41  62  92 127 164 200 246 310 370
#     4  12  25  39  61  94 128 160 197 246 306 369
#     4  11  24  40  61  91 130 166 200 246 307 371
#     4  10  22  42  66  90 118 158 211 262 305 355
#     4  11  25  45  67  89 116 158 211 260 304 356
#     4  11  21  37  64  94 124 161 205 250 300 360
#     4  10  20  37  62  90 123 161 202 249 301 359
#     4  10  21  40  63  89 123 162 205 251 301 357
#
# _framework density 18.891442999999999
#
# number of rings (size 3 to 8) (size 9 to 14) (size 15 to 20)
#    0.000    1.250    2.500    3.375    0.000    8.750 
#    0.000    3.750    0.000    0.000    0.000    0.000 
#    0.000    0.000    0.000    0.000    0.000    0.000 
#
# Total GULP energy -358009.429060 kJ/mol
# GULP energy per Si atom -5593.897329 kJ/mol
# Density = 1.884845 g / cm^3
# Si number density = 18.891443 Si / 1000 Ang^3
#
#
#
# Elastic Constant Matrix: (Units=GPa)
#
#
# Indices 1 2 3 4 5 6 
#
# 1 41.3448 31.9338 9.1053 0.0000 0.0000 0.0000
# 2 31.9338 88.2311 50.8828 0.0000 0.0000 0.0000
# 3 9.1053 50.8828 84.4896 0.0000 0.0000 0.0000
# 4 0.0000 0.0000 0.0000 37.9309 0.0000 0.0000
# 5 0.0000 0.0000 0.0000 0.0000 -6.2550 0.0000
# 6 0.0000 0.0000 0.0000 0.0000 0.0000 -5.8874
#
#
#
# Elastic Compliance Matrix: (Units=1/GPa)
#
#
# Indices 1 2 3 4 5 6 
#
# 1 0.035442 -0.016279 0.005984 0.000000 0.000000 0.000000
# 2 -0.016279 0.024842 -0.013206 0.000000 0.000000 0.000000
# 3 0.005984 -0.013206 0.019144 0.000000 0.000000 0.000000
# 4 0.000000 0.000000 0.000000 0.026364 0.000000 0.000000
# 5 0.000000 0.000000 0.000000 0.000000 -0.159871 0.000000
# 6 0.000000 0.000000 0.000000 0.000000 0.000000 -0.169856
#
#
# Mechanical properties :
#
#
# Convention : Reuss Voigt Hill
#
# Bulk Modulus (GPa) = 30.83907 44.21211 37.52559
# Shear Modulus (GPa) = -30.09801 13.30061 -8.39870
#
# Velocity S-wave (km/s) = -3.99583 2.65628 -2.11079
# Velocity P-wave (km/s) = 2.22016 5.73252 3.73716
#
# Compressibility (1/GPa) = 0.03242640
#
# Stress axis : x y z
#
# Youngs Moduli (GPa) = 28.21483 40.25476 52.23512
#
# Poissons Ratio (x) = 0.65530 -0.31258
# Poissons Ratio (y) = 0.45930 0.68983
# Poissons Ratio (z) = -0.16884 0.53162
#
# Static dielectric constant tensor:
#      x y z
#    x 1.622680 0.000000 0.000000 
#    y 0.000000 1.630820 0.000000 
#    z 0.000000 0.000000 1.647670 
# 
# From -- ./inp_files/26287.got.cif
#   From: 2010.05.17/outbox.cif.g08.bks.cpg/sg51_14_cif.got.tgz:26287.got - 2010.06.03 11:52:47.
