data_PCOD9405409
_publ_section_title
;
Structure prediction by ZEFSAII (Michael W. Deem and Ramdas Pophale) SiO2 
 PCOD9405409
Probable space group: P M M A
;
_chemical_formula_sum "Si O2"
_cell_formula_units_Z 48
_cell_length_a 19.741130
_cell_length_b 7.434753
_cell_length_c 15.589752
_cell_angle_alpha 90.000000
_cell_angle_beta 90.000000
_cell_angle_gamma 90.000000
_cell_volume 2288.114534
_symmetry_space_group_name_H-M "P M M A"
_symmetry_group_IT_number 51
_symmetry_cell_setting 'orthorhombic'
loop_
_space_group_symop_operation_xyz
x,y,z
1/2-x,-y,z
1/2+x,-y,-z
-x,y,-z
-x,-y,-z
1/2+x,y,-z
1/2-x,y,z
x,-y,z
loop_
_atom_site_type_symbol
_atom_site_label
_atom_site_fract_x
_atom_site_fract_y
_atom_site_fract_z
Si Si1 0.826564 0.214496 0.842942
Si Si2 0.922307 0.279821 0.493347
Si Si3 0.425335 0.790171 0.012262
Si Si4 0.173134 0.282662 0.857460
Si Si5 0.327117 0.280956 0.661158
Si Si6 0.173160 0.284292 0.353010
O O1 0.750000 0.286572 0.854035
O O2 0.847195 0.244100 0.744539
O O3 0.822330 0.000000 0.856286
O O4 0.879645 0.288530 0.911367
O O5 0.922704 0.500000 0.492782
O O6 0.882430 0.222250 0.407769
O O7 0.878836 0.220080 0.575478
O O8 0.000000 0.221754 0.500000
O O9 0.381521 0.780199 0.925738
O O10 0.435504 0.000000 0.034687
O O11 0.500000 0.710877 0.000000
O O12 0.250000 0.225505 0.880354
O O13 0.172506 0.500000 0.858369
O O14 0.159554 0.225384 0.759348
O O15 0.250000 0.226795 0.638136
O O16 0.327273 0.500000 0.660730
O O17 0.250000 0.216131 0.365803
O O18 0.175992 0.500000 0.361278
#
# Coordination Sequence:
#
# PCOD9405409 Si02
#       6
#     8   8   8   8   8   8
#     4   9  18  33  51  68  89 122 159 192 233 284
#     4   9  16  25  40  65  95 124 152 183 223 273
#     4  10  21  35  50  70  97 129 162 195 237 291
#     4   9  18  32  51  74  96 122 160 202 242 284
#     4   8  14  26  43  62  87 119 152 187 229 276
#     4   9  17  29  47  71  94 117 151 194 232 266
#
# _framework density 20.977969999999999
#
# number of rings (size 3 to 8) (size 9 to 14) (size 15 to 20)
#    0.000    3.000    0.000    2.000    0.000    5.333 
#    0.000    3.333    0.000    1.500    0.000    2.333 
#    0.000    0.000    0.000    0.000    0.000    0.000 
#
# Total GULP energy -267935.511046 kJ/mol
# GULP energy per Si atom -5581.989813 kJ/mol
# Density = 2.093022 g / cm^3
# Si number density = 20.977970 Si / 1000 Ang^3
#
#
#
# Elastic Constant Matrix: (Units=GPa)
#
#
# Indices 1 2 3 4 5 6 
#
# 1 174.4099 -1.5058 133.5787 0.0000 0.0000 0.0000
# 2 -1.5058 63.5493 -9.3656 0.0000 0.0000 0.0000
# 3 133.5787 -9.3656 149.5053 0.0000 0.0000 0.0000
# 4 0.0000 0.0000 0.0000 19.2025 0.0000 0.0000
# 5 0.0000 0.0000 0.0000 0.0000 155.5237 0.0000
# 6 0.0000 0.0000 0.0000 0.0000 0.0000 -0.6044
#
#
#
# Elastic Compliance Matrix: (Units=1/GPa)
#
#
# Indices 1 2 3 4 5 6 
#
# 1 0.018412 -0.002007 -0.016576 0.000000 0.000000 0.000000
# 2 -0.002007 0.016101 0.002801 0.000000 0.000000 0.000000
# 3 -0.016576 0.002801 0.021674 0.000000 0.000000 0.000000
# 4 0.000000 0.000000 0.000000 0.052076 0.000000 0.000000
# 5 0.000000 0.000000 0.000000 0.000000 0.006430 0.000000
# 6 0.000000 0.000000 0.000000 0.000000 0.000000 -1.654555
#
#
# Mechanical properties :
#
#
# Convention : Reuss Voigt Hill
#
# Bulk Modulus (GPa) = 40.60923 70.31991 55.46457
# Shear Modulus (GPa) = -3.33313 52.47485 24.57086
#
# Velocity S-wave (km/s) = -1.26187 5.00685 3.42609
# Velocity P-wave (km/s) = 4.15656 8.18647 6.49212
#
# Compressibility (1/GPa) = 0.02462494
#
# Stress axis : x y z
#
# Youngs Moduli (GPa) = 54.31330 62.10746 46.13733
#
# Poissons Ratio (x) = 0.12463 0.76477
# Poissons Ratio (y) = 0.10899 -0.12925
# Poissons Ratio (z) = 0.90030 -0.17399
#
# Static dielectric constant tensor:
#      x y z
#    x 1.737900 0.000000 0.000000 
#    y 0.000000 1.656880 0.000000 
#    z 0.000000 0.000000 1.718290 
# 
# From -- ./inp_files/24804.got.cif
#   From: 2010.05.17/outbox.cif.g08.bks.cpg/sg51_13_cif.got.tgz:24804.got - 2010.06.03 11:52:47.
