data_PCOD9405758
_publ_section_title
;
Structure prediction by ZEFSAII (Michael W. Deem and Ramdas Pophale) SiO2 
 PCOD9405758
Probable space group: P M M A
;
_chemical_formula_sum "Si O2"
_cell_formula_units_Z 44
_cell_length_a 9.314027
_cell_length_b 7.618219
_cell_length_c 30.929305
_cell_angle_alpha 90.000000
_cell_angle_beta 90.000000
_cell_angle_gamma 90.000000
_cell_volume 2194.628966
_symmetry_space_group_name_H-M "P M M A"
_symmetry_group_IT_number 51
_symmetry_cell_setting 'orthorhombic'
loop_
_space_group_symop_operation_xyz
x,y,z
1/2-x,-y,z
1/2+x,-y,-z
-x,y,-z
-x,-y,-z
1/2+x,y,-z
1/2-x,y,z
x,-y,z
loop_
_atom_site_type_symbol
_atom_site_label
_atom_site_fract_x
_atom_site_fract_y
_atom_site_fract_z
Si Si1 0.586732 0.788972 0.371229
Si Si2 0.413284 0.711175 0.798494
Si Si3 0.086531 0.711035 0.458212
Si Si4 0.579105 0.292669 0.884847
Si Si5 0.921752 0.000000 0.954394
Si Si6 0.412715 0.789953 0.288153
O O1 0.750000 0.721927 0.373533
O O2 0.498901 0.750276 0.414518
O O3 0.502543 0.721384 0.329086
O O4 0.594827 0.000000 0.367337
O O5 0.250000 0.777591 0.795688
O O6 0.407760 0.500000 0.800226
O O7 0.492453 0.766592 0.842451
O O8 0.504125 0.757762 0.756299
O O9 0.250000 0.777848 0.456698
O O10 0.094098 0.500000 0.462067
O O11 0.000000 0.777592 0.500000
O O12 0.750000 0.273301 0.876501
O O13 0.551479 0.500000 0.892716
O O14 0.542128 0.170694 0.925440
O O15 0.750000 0.000000 0.961035
O O16 0.000000 0.000000 0.000000
O O17 0.250000 0.720545 0.286911
O O18 0.403205 0.000000 0.293445
#
# Coordination Sequence:
#
# PCOD9405758 Si02
#       6
#     8   8   8   8   4   8
#     4  10  21  37  56  79 108 141 179 223 272 326
#     4  10  21  36  55  82 113 145 184 229 278 332
#     4  10  21  37  57  80 105 136 176 221 271 327
#     4   9  19  37  58  81 114 153 192 239 289 341
#     4  10  22  38  58  86 116 150 196 240 289 350
#     4  10  21  36  55  79 108 144 183 223 270 325
#
# _framework density 20.048947999999999
#
# number of rings (size 3 to 8) (size 9 to 14) (size 15 to 20)
#    0.000    2.182    0.000    2.182    1.273    6.545 
#    0.000    0.000    0.000    0.000    0.000    0.000 
#    0.000    0.000    0.000    0.000    0.000    0.000 
#
# Total GULP energy -245820.244889 kJ/mol
# GULP energy per Si atom -5586.823747 kJ/mol
# Density = 2.000332 g / cm^3
# Si number density = 20.048948 Si / 1000 Ang^3
#
#
#
# Elastic Constant Matrix: (Units=GPa)
#
#
# Indices 1 2 3 4 5 6 
#
# 1 189.8591 34.0425 134.7223 0.0000 0.0000 0.0000
# 2 34.0425 53.2503 32.7842 0.0000 0.0000 0.0000
# 3 134.7223 32.7842 226.3403 0.0000 0.0000 0.0000
# 4 0.0000 0.0000 0.0000 34.2547 0.0000 0.0000
# 5 0.0000 0.0000 0.0000 0.0000 45.0482 0.0000
# 6 0.0000 0.0000 0.0000 0.0000 0.0000 20.3292
#
#
#
# Elastic Compliance Matrix: (Units=1/GPa)
#
#
# Indices 1 2 3 4 5 6 
#
# 1 0.009495 -0.002844 -0.005240 0.000000 0.000000 0.000000
# 2 -0.002844 0.021470 -0.001417 0.000000 0.000000 0.000000
# 3 -0.005240 -0.001417 0.007742 0.000000 0.000000 0.000000
# 4 0.000000 0.000000 0.000000 0.029193 0.000000 0.000000
# 5 0.000000 0.000000 0.000000 0.000000 0.022198 0.000000
# 6 0.000000 0.000000 0.000000 0.000000 0.000000 0.049190
#
#
# Mechanical properties :
#
#
# Convention : Reuss Voigt Hill
#
# Bulk Modulus (GPa) = 50.74727 96.94972 73.84850
# Shear Modulus (GPa) = 30.32896 37.78648 34.05772
#
# Velocity S-wave (km/s) = 3.89362 4.34604 4.12603
# Velocity P-wave (km/s) = 6.75132 8.58170 7.72094
#
# Compressibility (1/GPa) = 0.01970549
#
# Stress axis : x y z
#
# Youngs Moduli (GPa) = 105.31767 46.57694 129.16372
#
# Poissons Ratio (x) = 0.13248 0.67678
# Poissons Ratio (y) = 0.29955 0.18300
# Poissons Ratio (z) = 0.55183 0.06599
#
# Static dielectric constant tensor:
#      x y z
#    x 1.703240 0.000000 0.000000 
#    y 0.000000 1.746750 0.000000 
#    z 0.000000 0.000000 1.648510 
# 
# From -- ./inp_files/36757.got.cif
#   From: 2010.05.17/outbox.cif.g08.bks.cpg/sg51_19_cif.got.tgz:36757.got - 2010.06.03 11:52:47.
