data_PCOD9405701
_publ_section_title
;
Structure prediction by ZEFSAII (Michael W. Deem and Ramdas Pophale) SiO2 
 PCOD9405701
Probable space group: P M M A
;
_chemical_formula_sum "Si O2"
_cell_formula_units_Z 48
_cell_length_a 8.040816
_cell_length_b 9.562653
_cell_length_c 32.067409
_cell_angle_alpha 90.000000
_cell_angle_beta 90.000000
_cell_angle_gamma 90.000000
_cell_volume 2465.712245
_symmetry_space_group_name_H-M "P M M A"
_symmetry_group_IT_number 51
_symmetry_cell_setting 'orthorhombic'
loop_
_space_group_symop_operation_xyz
x,y,z
1/2-x,-y,z
1/2+x,-y,-z
-x,y,-z
-x,-y,-z
1/2+x,y,-z
1/2-x,y,z
x,-y,z
loop_
_atom_site_type_symbol
_atom_site_label
_atom_site_fract_x
_atom_site_fract_y
_atom_site_fract_z
Si Si1 0.049547 0.839621 0.453537
Si Si2 0.448077 0.840889 0.045232
Si Si3 0.051962 0.341112 0.876158
Si Si4 0.953540 0.339058 0.625392
Si Si5 0.949503 0.339757 0.784880
Si Si6 0.046329 0.838948 0.293923
O O1 0.250000 0.842697 0.451623
O O2 0.991066 0.738238 0.416819
O O3 0.000000 0.794600 0.500000
O O4 0.990260 0.000000 0.447460
O O5 0.250000 0.847217 0.045942
O O6 0.504080 0.750978 0.084415
O O7 0.515329 0.000000 0.048146
O O8 0.500000 0.783248 0.000000
O O9 0.250000 0.346973 0.874042
O O10 0.986339 0.500000 0.881040
O O11 0.989802 0.287854 0.831337
O O12 0.750000 0.339947 0.625258
O O13 0.007725 0.500000 0.627676
O O14 0.004885 0.249349 0.665586
O O15 0.750000 0.346241 0.781102
O O16 0.013112 0.500000 0.780949
O O17 0.010056 0.240182 0.747935
O O18 0.250000 0.840097 0.293717
O O19 0.992241 0.000000 0.295708
#
# Coordination Sequence:
#
# PCOD9405701 Si02
#       6
#     8   8   8   8   8   8
#     4   9  17  29  45  65  90 120 153 190 233 280
#     4  10  21  37  57  80 106 137 173 213 257 303
#     4  10  21  36  54  77 105 138 174 210 250 298
#     4   9  16  26  42  65  92 121 153 191 236 284
#     4   9  17  30  48  70  97 127 158 196 243 291
#     4   9  16  26  43  68  95 121 153 195 240 286
#
# _framework density 19.466991
#
# number of rings (size 3 to 8) (size 9 to 14) (size 15 to 20)
#    0.000    2.667    0.000    2.000    0.000    7.333 
#    0.000    1.667    0.000    1.000    0.000    0.000 
#    0.000    0.000    0.000    0.000    0.000    0.000 
#
# Total GULP energy -267827.057378 kJ/mol
# GULP energy per Si atom -5579.730362 kJ/mol
# Density = 1.942268 g / cm^3
# Si number density = 19.466991 Si / 1000 Ang^3
#
#
#
# Elastic Constant Matrix: (Units=GPa)
#
#
# Indices 1 2 3 4 5 6 
#
# 1 13.5538 7.8886 7.5344 0.0000 0.0000 0.0000
# 2 7.8886 128.9053 129.3008 0.0000 0.0000 0.0000
# 3 7.5344 129.3008 225.2774 0.0000 0.0000 0.0000
# 4 0.0000 0.0000 0.0000 41.1521 0.0000 0.0000
# 5 0.0000 0.0000 0.0000 0.0000 22.3565 0.0000
# 6 0.0000 0.0000 0.0000 0.0000 0.0000 10.5963
#
#
#
# Elastic Compliance Matrix: (Units=1/GPa)
#
#
# Indices 1 2 3 4 5 6 
#
# 1 0.076514 -0.004986 0.000303 0.000000 0.000000 0.000000
# 2 -0.004986 0.018609 -0.010514 0.000000 0.000000 0.000000
# 3 0.000303 -0.010514 0.010464 0.000000 0.000000 0.000000
# 4 0.000000 0.000000 0.000000 0.024300 0.000000 0.000000
# 5 0.000000 0.000000 0.000000 0.000000 0.044730 0.000000
# 6 0.000000 0.000000 0.000000 0.000000 0.000000 0.094373
#
#
# Mechanical properties :
#
#
# Convention : Reuss Voigt Hill
#
# Bulk Modulus (GPa) = 13.29938 73.02045 43.15991
# Shear Modulus (GPa) = 15.41077 29.68849 22.54963
#
# Velocity S-wave (km/s) = 2.81665 3.90945 3.40715
# Velocity P-wave (km/s) = 4.17428 7.61378 6.13980
#
# Compressibility (1/GPa) = 0.07519150
#
# Stress axis : x y z
#
# Youngs Moduli (GPa) = 13.06955 53.73654 95.56898
#
# Poissons Ratio (x) = 0.26794 -0.02894
# Poissons Ratio (y) = 0.06517 1.00484
# Poissons Ratio (z) = -0.00396 0.56500
#
# Static dielectric constant tensor:
#      x y z
#    x 1.695720 0.000000 0.000000 
#    y 0.000000 1.684800 0.000000 
#    z 0.000000 0.000000 1.660960 
# 
# From -- ./inp_files/37002.got.cif
#   From: 2010.05.17/outbox.cif.g08.bks.cpg/sg51_19_cif.got.tgz:37002.got - 2010.06.03 11:52:47.
