data_PCOD9405656
_publ_section_title
;
Structure prediction by ZEFSAII (Michael W. Deem and Ramdas Pophale) SiO2 
 PCOD9405656
Probable space group: P M M A
;
_chemical_formula_sum "Si O2"
_cell_formula_units_Z 64
_cell_length_a 8.683598
_cell_length_b 20.702792
_cell_length_c 19.147135
_cell_angle_alpha 90.000000
_cell_angle_beta 90.000000
_cell_angle_gamma 90.000000
_cell_volume 3442.170895
_symmetry_space_group_name_H-M "P M M A"
_symmetry_group_IT_number 51
_symmetry_cell_setting 'orthorhombic'
loop_
_space_group_symop_operation_xyz
x,y,z
1/2-x,-y,z
1/2+x,-y,-z
-x,y,-z
-x,-y,-z
1/2+x,y,-z
1/2-x,y,z
x,-y,z
loop_
_atom_site_type_symbol
_atom_site_label
_atom_site_fract_x
_atom_site_fract_y
_atom_site_fract_z
Si Si1 0.435894 0.573744 0.825841
Si Si2 0.934237 0.075494 0.576771
Si Si3 0.434918 0.307135 0.422203
Si Si4 0.563933 0.308709 0.077728
Si Si5 0.434270 0.074858 0.075751
Si Si6 0.064332 0.573716 0.327230
Si Si7 0.935852 0.814227 0.170506
Si Si8 0.434872 0.189040 0.667907
O O1 0.250000 0.575298 0.822761
O O2 0.483628 0.500000 0.841971
O O3 0.486160 0.625865 0.882881
O O4 0.498722 0.590333 0.749085
O O5 0.750000 0.083376 0.576095
O O6 0.000000 0.091453 0.500000
O O7 0.008101 0.122775 0.633065
O O8 0.969426 0.000000 0.590448
O O9 0.500000 0.303230 0.500000
O O10 0.250000 0.305026 0.424739
O O11 0.483666 0.373616 0.384065
O O12 0.495054 0.247731 0.376143
O O13 0.750000 0.308760 0.074709
O O14 0.515941 0.247567 0.124642
O O15 0.500000 0.304335 0.000000
O O16 0.250000 0.078403 0.073462
O O17 0.497844 0.121949 0.134672
O O18 0.479287 0.000000 0.087643
O O19 0.500000 0.094404 0.000000
O O20 0.250000 0.574676 0.323293
O O21 0.016118 0.500000 0.343774
O O22 0.750000 0.817410 0.168723
O O23 0.982708 0.807263 0.251081
O O24 0.250000 0.192436 0.664479
#
# Coordination Sequence:
#
# PCOD9405656 Si02
#       8
#     8   8   8   8   8   8   8   8
#     4   9  18  34  56  80 108 143 180 219 265 319
#     4  10  21  38  60  85 114 147 183 224 271 325
#     4  11  23  38  57  81 111 146 184 227 275 327
#     4  10  21  36  53  77 108 140 179 223 267 316
#     4  10  21  37  58  83 111 143 179 221 268 320
#     4   9  19  36  57  82 111 142 179 224 272 323
#     4  10  22  38  56  79 108 143 181 224 271 322
#     4  11  23  39  59  82 111 146 185 229 276 327
#
# _framework density 18.592918000000001
#
# number of rings (size 3 to 8) (size 9 to 14) (size 15 to 20)
#    0.000    2.000    0.000    3.000    0.000    7.500 
#    0.000    2.500    0.000    0.000    0.000    0.000 
#    0.000    0.000    0.000    0.000    0.000    0.000 
#
# Total GULP energy -357540.876232 kJ/mol
# GULP energy per Si atom -5586.576191 kJ/mol
# Density = 1.855060 g / cm^3
# Si number density = 18.592918 Si / 1000 Ang^3
#
#
#
# Elastic Constant Matrix: (Units=GPa)
#
#
# Indices 1 2 3 4 5 6 
#
# 1 27.6674 37.0004 45.0771 0.0000 0.0000 0.0000
# 2 37.0004 115.1685 116.5896 0.0000 0.0000 0.0000
# 3 45.0771 116.5896 196.6476 0.0000 0.0000 0.0000
# 4 0.0000 0.0000 0.0000 41.8640 0.0000 0.0000
# 5 0.0000 0.0000 0.0000 0.0000 31.1581 0.0000
# 6 0.0000 0.0000 0.0000 0.0000 0.0000 -11.0071
#
#
#
# Elastic Compliance Matrix: (Units=1/GPa)
#
#
# Indices 1 2 3 4 5 6 
#
# 1 0.066482 -0.014836 -0.006444 0.000000 0.000000 0.000000
# 2 -0.014836 0.025029 -0.011439 0.000000 0.000000 0.000000
# 3 -0.006444 -0.011439 0.013344 0.000000 0.000000 0.000000
# 4 0.000000 0.000000 0.000000 0.023887 0.000000 0.000000
# 5 0.000000 0.000000 0.000000 0.000000 0.032094 0.000000
# 6 0.000000 0.000000 0.000000 0.000000 0.000000 -0.090851
#
#
# Mechanical properties :
#
#
# Convention : Reuss Voigt Hill
#
# Bulk Modulus (GPa) = 25.36824 81.86864 53.61844
# Shear Modulus (GPa) = 33.65609 21.79077 27.72343
#
# Velocity S-wave (km/s) = 4.25921 3.42715 3.86563
# Velocity P-wave (km/s) = 6.15317 7.73229 6.98748
#
# Compressibility (1/GPa) = 0.03941937
#
# Stress axis : x y z
#
# Youngs Moduli (GPa) = 15.04161 39.95380 74.93968
#
# Poissons Ratio (x) = 0.59274 0.48289
# Poissons Ratio (y) = 0.22315 0.85720
# Poissons Ratio (z) = 0.09692 0.45701
#
# Static dielectric constant tensor:
#      x y z
#    x 1.627820 0.000000 0.000000 
#    y 0.000000 1.643510 0.000000 
#    z 0.000000 0.000000 1.599830 
# 
# From -- ./inp_files/32312.got.cif
#   From: 2010.05.17/outbox.cif.g08.bks.cpg/sg51_17_cif.got.tgz:32312.got - 2010.06.03 11:52:47.
