data_PCOD9405811
_publ_section_title
;
Structure prediction by ZEFSAII (Michael W. Deem and Ramdas Pophale) SiO2 
 PCOD9405811
Probable space group: P M M A
;
_chemical_formula_sum "Si O2"
_cell_formula_units_Z 56
_cell_length_a 22.757697
_cell_length_b 9.362001
_cell_length_c 14.649281
_cell_angle_alpha 90.000000
_cell_angle_beta 90.000000
_cell_angle_gamma 90.000000
_cell_volume 3121.140389
_symmetry_space_group_name_H-M "P M M A"
_symmetry_group_IT_number 51
_symmetry_cell_setting 'orthorhombic'
loop_
_space_group_symop_operation_xyz
x,y,z
1/2-x,-y,z
1/2+x,-y,-z
-x,y,-z
-x,-y,-z
1/2+x,y,-z
1/2-x,y,z
x,-y,z
loop_
_atom_site_type_symbol
_atom_site_label
_atom_site_fract_x
_atom_site_fract_y
_atom_site_fract_z
Si Si1 0.979915 0.164016 0.603775
Si Si2 0.972810 0.328649 0.229524
Si Si3 0.398484 0.332098 0.154343
Si Si4 0.646110 0.830023 0.187826
Si Si5 0.250000 0.668311 0.479881
Si Si6 0.635415 0.667388 0.641337
Si Si7 0.250000 0.172142 0.672810
Si Si8 0.684442 0.830116 0.981152
O O1 0.914878 0.227253 0.608030
O O2 0.000000 0.168494 0.500000
O O3 0.018160 0.263398 0.669800
O O4 0.982256 0.000000 0.636270
O O5 0.968647 0.500000 0.232086
O O6 0.914099 0.257947 0.191007
O O7 0.033570 0.292027 0.175876
O O8 0.398169 0.500000 0.131959
O O9 0.362632 0.312943 0.249297
O O10 0.366407 0.245423 0.075828
O O11 0.692223 0.789285 0.267454
O O12 0.633916 0.000000 0.197622
O O13 0.675618 0.808363 0.089187
O O14 0.250000 0.500000 0.503707
O O15 0.306241 0.694946 0.415781
O O16 0.250000 0.756831 0.573382
O O17 0.618432 0.500000 0.627865
O O18 0.250000 0.000000 0.663954
O O19 0.750000 0.779588 0.954879
O O20 0.681620 0.000000 0.964868
#
# Coordination Sequence:
#
# PCOD9405811 Si02
#       8
#     8   8   8   8   4   8   4   8
#     4  10  21  36  56  82 112 147 191 236 282 336
#     4  10  22  39  59  84 115 150 189 236 288 340
#     4   9  20  38  59  84 115 150 186 231 286 339
#     4  10  21  40  62  83 115 153 190 235 288 342
#     4  10  22  38  57  84 116 152 193 234 279 338
#     4   9  20  38  57  81 116 153 187 229 282 336
#     4  10  22  40  59  80 114 154 191 236 287 340
#     4  10  21  38  60  86 115 151 191 233 284 339
#
# _framework density 17.942160999999999
#
# number of rings (size 3 to 8) (size 9 to 14) (size 15 to 20)
#    0.000    2.286    0.714    1.714    3.000    6.571 
#    0.000    2.857    0.000    0.000    0.000    0.000 
#    0.000    0.000    0.000    0.000    0.000    0.000 
#
# Total GULP energy -312390.445326 kJ/mol
# GULP energy per Si atom -5578.400809 kJ/mol
# Density = 1.790132 g / cm^3
# Si number density = 17.942161 Si / 1000 Ang^3
#
#
#
# Elastic Constant Matrix: (Units=GPa)
#
#
# Indices 1 2 3 4 5 6 
#
# 1 93.8641 47.8152 49.4327 0.0000 0.0000 0.0000
# 2 47.8152 46.7202 33.1771 0.0000 0.0000 0.0000
# 3 49.4327 33.1771 47.6506 0.0000 0.0000 0.0000
# 4 0.0000 0.0000 0.0000 42.7028 0.0000 0.0000
# 5 0.0000 0.0000 0.0000 0.0000 18.2913 0.0000
# 6 0.0000 0.0000 0.0000 0.0000 0.0000 28.8683
#
#
#
# Elastic Compliance Matrix: (Units=1/GPa)
#
#
# Indices 1 2 3 4 5 6 
#
# 1 0.028585 -0.016213 -0.018365 0.000000 0.000000 0.000000
# 2 -0.016213 0.051532 -0.019060 0.000000 0.000000 0.000000
# 3 -0.018365 -0.019060 0.053309 0.000000 0.000000 0.000000
# 4 0.000000 0.000000 0.000000 0.023418 0.000000 0.000000
# 5 0.000000 0.000000 0.000000 0.000000 0.054671 0.000000
# 6 0.000000 0.000000 0.000000 0.000000 0.000000 0.034640
#
#
# Mechanical properties :
#
#
# Convention : Reuss Voigt Hill
#
# Bulk Modulus (GPa) = 38.24276 49.89832 44.07054
# Shear Modulus (GPa) = 13.80651 21.82648 17.81650
#
# Velocity S-wave (km/s) = 2.77700 3.49161 3.15460
# Velocity P-wave (km/s) = 5.62521 6.64275 6.15504
#
# Compressibility (1/GPa) = 0.02614874
#
# Stress axis : x y z
#
# Youngs Moduli (GPa) = 34.98390 19.40537 18.75849
#
# Poissons Ratio (x) = 0.31462 0.34450
# Poissons Ratio (y) = 0.56719 0.35754
# Poissons Ratio (z) = 0.64249 0.36987
#
# Static dielectric constant tensor:
#      x y z
#    x 1.633660 0.000000 0.000000 
#    y 0.000000 1.599950 0.000000 
#    z 0.000000 0.000000 1.603850 
# 
# From -- ./inp_files/25809.got.cif
#   From: 2010.05.17/outbox.cif.g08.bks.cpg/sg51_13_cif.got.tgz:25809.got - 2010.06.03 11:52:47.
