data_PCOD9405785
_publ_section_title
;
Structure prediction by ZEFSAII (Michael W. Deem and Ramdas Pophale) SiO2 
 PCOD9405785
Probable space group: P M M A
;
_chemical_formula_sum "Si O2"
_cell_formula_units_Z 64
_cell_length_a 22.693070
_cell_length_b 8.706626
_cell_length_c 15.612785
_cell_angle_alpha 90.000000
_cell_angle_beta 90.000000
_cell_angle_gamma 90.000000
_cell_volume 3084.775204
_symmetry_space_group_name_H-M "P M M A"
_symmetry_group_IT_number 51
_symmetry_cell_setting 'orthorhombic'
loop_
_space_group_symop_operation_xyz
x,y,z
1/2-x,-y,z
1/2+x,-y,-z
-x,y,-z
-x,-y,-z
1/2+x,y,-z
1/2-x,y,z
x,-y,z
loop_
_atom_site_type_symbol
_atom_site_label
_atom_site_fract_x
_atom_site_fract_y
_atom_site_fract_z
Si Si1 0.861407 0.184888 0.200853
Si Si2 0.348181 0.179718 0.611271
Si Si3 0.183791 0.314756 0.975614
Si Si4 0.998349 0.182817 0.232616
Si Si5 0.102022 0.680356 0.128321
Si Si6 0.678970 0.173040 0.732295
Si Si7 0.025306 0.680662 0.595381
Si Si8 0.681070 0.667821 0.563749
O O1 0.832890 0.229770 0.292273
O O2 0.831502 0.260013 0.119381
O O3 0.931121 0.223992 0.206377
O O4 0.857247 0.000000 0.194792
O O5 0.417876 0.210653 0.603069
O O6 0.322535 0.272233 0.532310
O O7 0.334481 0.000000 0.602178
O O8 0.250000 0.262801 0.999847
O O9 0.183635 0.500000 0.978533
O O10 0.133729 0.261559 0.042049
O O11 0.043839 0.233018 0.159680
O O12 0.012848 0.269212 0.322158
O O13 0.000721 0.000000 0.246147
O O14 0.089036 0.500000 0.119698
O O15 0.149977 0.708549 0.202855
O O16 0.750000 0.177322 0.738271
O O17 0.659404 0.215363 0.635836
O O18 0.659664 0.000000 0.753565
O O19 0.040807 0.500000 0.604700
O O20 0.000000 0.700350 0.500000
O O21 0.750000 0.651937 0.583239
O O22 0.652014 0.500000 0.570955
#
# Coordination Sequence:
#
# PCOD9405785 Si02
#       8
#     8   8   8   8   8   8   8   8
#     4   9  21  41  62  86 118 156 197 246 301 356
#     4  10  21  37  57  82 115 154 194 241 295 350
#     4  10  23  42  64  91 120 154 197 247 305 364
#     4  10  22  40  60  87 122 159 202 246 300 360
#     4  11  23  39  61  88 121 157 198 247 299 360
#     4  10  21  37  57  82 114 154 198 246 301 359
#     4  10  21  36  56  83 116 154 198 244 290 345
#     4  10  21  36  55  81 114 154 199 245 295 352
#
# _framework density 20.747056000000001
#
# number of rings (size 3 to 8) (size 9 to 14) (size 15 to 20)
#    0.000    2.000    0.000    3.375    1.750    8.250 
#    0.000    5.000    0.000    0.000    0.000    0.000 
#    0.000    0.000    0.000    0.000    0.000    0.000 
#
# Total GULP energy -357316.987295 kJ/mol
# GULP energy per Si atom -5583.077926 kJ/mol
# Density = 2.069983 g / cm^3
# Si number density = 20.747056 Si / 1000 Ang^3
#
#
#
# Elastic Constant Matrix: (Units=GPa)
#
#
# Indices 1 2 3 4 5 6 
#
# 1 24.1271 -5.8337 -14.3850 0.0000 0.0000 0.0000
# 2 -5.8337 27.7745 -6.1089 0.0000 0.0000 0.0000
# 3 -14.3850 -6.1089 65.9247 0.0000 0.0000 0.0000
# 4 0.0000 0.0000 0.0000 35.4212 0.0000 0.0000
# 5 0.0000 0.0000 0.0000 0.0000 23.7994 0.0000
# 6 0.0000 0.0000 0.0000 0.0000 0.0000 31.4222
#
#
#
# Elastic Compliance Matrix: (Units=1/GPa)
#
#
# Indices 1 2 3 4 5 6 
#
# 1 0.052355 0.013790 0.012702 0.000000 0.000000 0.000000
# 2 0.013790 0.040386 0.006751 0.000000 0.000000 0.000000
# 3 0.012702 0.006751 0.018566 0.000000 0.000000 0.000000
# 4 0.000000 0.000000 0.000000 0.028232 0.000000 0.000000
# 5 0.000000 0.000000 0.000000 0.000000 0.042018 0.000000
# 6 0.000000 0.000000 0.000000 0.000000 0.000000 0.031825
#
#
# Mechanical properties :
#
#
# Convention : Reuss Voigt Hill
#
# Bulk Modulus (GPa) = 5.62450 7.24121 6.43286
# Shear Modulus (GPa) = 24.25325 27.73883 25.99604
#
# Velocity S-wave (km/s) = 3.42277 3.66047 3.54361
# Velocity P-wave (km/s) = 4.28221 4.62203 4.45536
#
# Compressibility (1/GPa) = 0.17779363
#
# Stress axis : x y z
#
# Youngs Moduli (GPa) = 19.10048 24.76122 53.86180
#
# Poissons Ratio (x) = -0.34146 -0.68415
# Poissons Ratio (y) = -0.26340 -0.36364
# Poissons Ratio (z) = -0.24261 -0.16717
#
# Static dielectric constant tensor:
#      x y z
#    x 1.781420 0.000000 0.000000 
#    y 0.000000 1.715780 0.000000 
#    z 0.000000 0.000000 1.742170 
# 
# From -- ./inp_files/26200.got.cif
#   From: 2010.05.17/outbox.cif.g08.bks.cpg/sg51_14_cif.got.tgz:26200.got - 2010.06.03 11:52:47.
