data_PCOD9405193
_publ_section_title
;
Structure prediction by ZEFSAII (Michael W. Deem and Ramdas Pophale) SiO2 
 PCOD9405193
Probable space group: P M M A
;
_chemical_formula_sum "Si O2"
_cell_formula_units_Z 48
_cell_length_a 10.400345
_cell_length_b 8.891477
_cell_length_c 29.879146
_cell_angle_alpha 90.000000
_cell_angle_beta 90.000000
_cell_angle_gamma 90.000000
_cell_volume 2763.056946
_symmetry_space_group_name_H-M "P M M A"
_symmetry_group_IT_number 51
_symmetry_cell_setting 'orthorhombic'
loop_
_space_group_symop_operation_xyz
x,y,z
1/2-x,-y,z
1/2+x,-y,-z
-x,y,-z
-x,-y,-z
1/2+x,y,-z
1/2-x,y,z
x,-y,z
loop_
_atom_site_type_symbol
_atom_site_label
_atom_site_fract_x
_atom_site_fract_y
_atom_site_fract_z
Si Si1 0.750000 0.821145 0.945980
Si Si2 0.604154 0.683253 0.535811
Si Si3 0.598010 0.678733 0.197134
Si Si4 0.750000 0.319620 0.044235
Si Si5 0.996269 0.681352 0.898497
Si Si6 0.898726 0.318563 0.638872
Si Si7 0.899004 0.820200 0.292618
O O1 0.625187 0.758795 0.920639
O O2 0.750000 0.000000 0.946143
O O3 0.750000 0.760403 0.996638
O O4 0.500000 0.736703 0.500000
O O5 0.750000 0.730338 0.524823
O O6 0.603163 0.500000 0.534979
O O7 0.576086 0.725987 0.587161
O O8 0.750000 0.700893 0.187608
O O9 0.579042 0.500000 0.204150
O O10 0.520111 0.724898 0.153106
O O11 0.566852 0.764353 0.242717
O O12 0.750000 0.500000 0.036922
O O13 0.623611 0.282442 0.072912
O O14 0.980678 0.500000 0.899751
O O15 0.750000 0.277521 0.649326
O O16 0.906951 0.500000 0.641383
O O17 0.001894 0.247929 0.672014
O O18 0.750000 0.772639 0.301074
O O19 0.903546 0.000000 0.294338
#
# Coordination Sequence:
#
# PCOD9405193 Si02
#       7
#     4   8   8   4   8   8   8
#     4  12  26  38  50  80 120 150 178 212 255 312
#     4   8  14  25  43  70 103 134 167 213 265 313
#     4   9  17  34  60  85 104 128 172 223 268 316
#     4  10  20  38  64  86 104 136 182 224 265 314
#     4  10  20  38  62  84 106 137 177 222 268 313
#     4   9  18  33  52  76 106 140 179 219 262 313
#     4  10  21  35  52  77 107 138 173 215 264 317
#
# _framework density 17.372063000000001
#
# number of rings (size 3 to 8) (size 9 to 14) (size 15 to 20)
#    0.000    2.500    0.833    2.750    0.000    5.333 
#    1.500    1.667    0.000    0.500    0.000    0.000 
#    0.000    0.000    0.000    0.000    0.000    0.000 
#
# Total GULP energy -267773.881214 kJ/mol
# GULP energy per Si atom -5578.622525 kJ/mol
# Density = 1.733252 g / cm^3
# Si number density = 17.372063 Si / 1000 Ang^3
#
#
#
# Elastic Constant Matrix: (Units=GPa)
#
#
# Indices 1 2 3 4 5 6 
#
# 1 151.0648 53.9509 122.7066 0.0000 0.0000 0.0000
# 2 53.9509 26.8917 51.7791 0.0000 0.0000 0.0000
# 3 122.7066 51.7791 169.5469 0.0000 0.0000 0.0000
# 4 0.0000 0.0000 0.0000 -13.3776 0.0000 0.0000
# 5 0.0000 0.0000 0.0000 0.0000 30.6063 0.0000
# 6 0.0000 0.0000 0.0000 0.0000 0.0000 13.7171
#
#
#
# Elastic Compliance Matrix: (Units=1/GPa)
#
#
# Indices 1 2 3 4 5 6 
#
# 1 0.026488 -0.039395 -0.007139 0.000000 0.000000 0.000000
# 2 -0.039395 0.148856 -0.016949 0.000000 0.000000 0.000000
# 3 -0.007139 -0.016949 0.016241 0.000000 0.000000 0.000000
# 4 0.000000 0.000000 0.000000 -0.074752 0.000000 0.000000
# 5 0.000000 0.000000 0.000000 0.000000 0.032673 0.000000
# 6 0.000000 0.000000 0.000000 0.000000 0.000000 0.072902
#
#
# Mechanical properties :
#
#
# Convention : Reuss Voigt Hill
#
# Bulk Modulus (GPa) = 15.47525 89.37518 52.42522
# Shear Modulus (GPa) = 13.48022 14.12695 13.80358
#
# Velocity S-wave (km/s) = 2.78865 2.85476 2.82190
# Velocity P-wave (km/s) = 4.39274 7.90098 6.39225
#
# Compressibility (1/GPa) = 0.06461931
#
# Stress axis : x y z
#
# Youngs Moduli (GPa) = 37.75270 6.71790 61.57254
#
# Poissons Ratio (x) = 0.26465 0.43958
# Poissons Ratio (y) = 1.48727 1.04357
# Poissons Ratio (z) = 0.26952 0.11386
#
# Static dielectric constant tensor:
#      x y z
#    x 1.576210 0.000000 0.000000 
#    y 0.000000 1.574830 0.000000 
#    z 0.000000 0.000000 1.570960 
# 
# From -- ./inp_files/37164.got.cif
#   From: 2010.05.17/outbox.cif.g08.bks.cpg/sg51_19_cif.got.tgz:37164.got - 2010.06.03 11:52:47.
