data_PCOD9405449
_publ_section_title
;
Structure prediction by ZEFSAII (Michael W. Deem and Ramdas Pophale) SiO2 
 PCOD9405449
Probable space group: P M M A
;
_chemical_formula_sum "Si O2"
_cell_formula_units_Z 48
_cell_length_a 9.758617
_cell_length_b 7.504216
_cell_length_c 35.280786
_cell_angle_alpha 90.000000
_cell_angle_beta 90.000000
_cell_angle_gamma 90.000000
_cell_volume 2583.639119
_symmetry_space_group_name_H-M "P M M A"
_symmetry_group_IT_number 51
_symmetry_cell_setting 'orthorhombic'
loop_
_space_group_symop_operation_xyz
x,y,z
1/2-x,-y,z
1/2+x,-y,-z
-x,y,-z
-x,-y,-z
1/2+x,y,-z
1/2-x,y,z
x,-y,z
loop_
_atom_site_type_symbol
_atom_site_label
_atom_site_fract_x
_atom_site_fract_y
_atom_site_fract_z
Si Si1 0.086551 0.000000 0.099265
Si Si2 0.091667 0.782766 0.534723
Si Si3 0.595264 0.711965 0.690822
Si Si4 0.088376 0.290101 0.036683
Si Si5 0.089654 0.287514 0.761051
Si Si6 0.911818 0.000000 0.175174
Si Si7 0.593899 0.214228 0.380582
O O1 0.054404 0.170667 0.072950
O O2 0.250000 0.000000 0.106859
O O3 0.002414 0.000000 0.137787
O O4 0.250000 0.733408 0.529198
O O5 0.051482 0.724859 0.577206
O O6 0.000000 0.718944 0.500000
O O7 0.085610 0.000000 0.534546
O O8 0.750000 0.784246 0.689301
O O9 0.605278 0.500000 0.695888
O O10 0.506265 0.775290 0.726609
O O11 0.511170 0.739970 0.652316
O O12 0.250000 0.263755 0.028544
O O13 0.065856 0.500000 0.044033
O O14 0.000000 0.239234 0.000000
O O15 0.250000 0.259201 0.750885
O O16 0.071237 0.500000 0.767271
O O17 0.061200 0.172113 0.798363
O O18 0.750000 0.000000 0.165665
O O19 0.750000 0.277771 0.372878
O O20 0.600530 0.000000 0.382035
#
# Coordination Sequence:
#
# PCOD9405449 Si02
#       7
#     4   8   8   8   8   4   8
#     4  10  21  35  51  76 110 144 176 217 271 320
#     4   8  14  25  41  63  92 124 156 192 235 285
#     4  10  21  35  51  74 101 127 159 203 254 305
#     4   9  18  33  53  78 108 143 183 224 267 315
#     4   9  19  37  57  75 100 135 172 214 264 314
#     4  10  22  37  55  80 105 136 181 223 260 314
#     4   9  18  31  48  72  99 127 161 199 242 295
#
# _framework density 18.578446
#
# number of rings (size 3 to 8) (size 9 to 14) (size 15 to 20)
#    0.000    2.833    0.000    1.750    1.167    4.000 
#    0.000    1.667    0.000    0.500    0.000    0.000 
#    0.000    0.000    0.000    0.000    0.000    0.000 
#
# Total GULP energy -267750.508979 kJ/mol
# GULP energy per Si atom -5578.135604 kJ/mol
# Density = 1.853616 g / cm^3
# Si number density = 18.578446 Si / 1000 Ang^3
#
#
#
# Elastic Constant Matrix: (Units=GPa)
#
#
# Indices 1 2 3 4 5 6 
#
# 1 113.8320 41.4488 128.7831 0.0000 0.0000 0.0000
# 2 41.4488 63.0979 49.8083 0.0000 0.0000 0.0000
# 3 128.7831 49.8083 201.7172 0.0000 0.0000 0.0000
# 4 0.0000 0.0000 0.0000 8.8049 0.0000 0.0000
# 5 0.0000 0.0000 0.0000 0.0000 43.2477 0.0000
# 6 0.0000 0.0000 0.0000 0.0000 0.0000 13.4878
#
#
#
# Elastic Compliance Matrix: (Units=1/GPa)
#
#
# Indices 1 2 3 4 5 6 
#
# 1 0.033580 -0.006379 -0.019864 0.000000 0.000000 0.000000
# 2 -0.006379 0.020897 -0.001088 0.000000 0.000000 0.000000
# 3 -0.019864 -0.001088 0.017908 0.000000 0.000000 0.000000
# 4 0.000000 0.000000 0.000000 0.113573 0.000000 0.000000
# 5 0.000000 0.000000 0.000000 0.000000 0.023123 0.000000
# 6 0.000000 0.000000 0.000000 0.000000 0.000000 0.074141
#
#
# Mechanical properties :
#
#
# Convention : Reuss Voigt Hill
#
# Bulk Modulus (GPa) = 56.41758 90.96972 73.69365
# Shear Modulus (GPa) = 14.54379 23.68187 19.11283
#
# Velocity S-wave (km/s) = 2.80095 3.57416 3.21091
# Velocity P-wave (km/s) = 6.39481 8.13046 7.31430
#
# Compressibility (1/GPa) = 0.01772497
#
# Stress axis : x y z
#
# Youngs Moduli (GPa) = 29.77949 47.85379 55.84206
#
# Poissons Ratio (x) = 0.30524 1.10923
# Poissons Ratio (y) = 0.18995 0.06073
# Poissons Ratio (z) = 0.59153 0.05204
#
# Static dielectric constant tensor:
#      x y z
#    x 1.634960 0.000000 0.000000 
#    y 0.000000 1.698220 0.000000 
#    z 0.000000 0.000000 1.603670 
# 
# From -- ./inp_files/37074.got.cif
#   From: 2010.05.17/outbox.cif.g08.bks.cpg/sg51_19_cif.got.tgz:37074.got - 2010.06.03 11:52:47.
