data_PCOD9405941
_publ_section_title
;
Structure prediction by ZEFSAII (Michael W. Deem and Ramdas Pophale) SiO2 
 PCOD9405941
Probable space group: P M M A
;
_chemical_formula_sum "Si O2"
_cell_formula_units_Z 56
_cell_length_a 9.022048
_cell_length_b 14.465991
_cell_length_c 22.035293
_cell_angle_alpha 90.000000
_cell_angle_beta 90.000000
_cell_angle_gamma 90.000000
_cell_volume 2875.889224
_symmetry_space_group_name_H-M "P M M A"
_symmetry_group_IT_number 51
_symmetry_cell_setting 'orthorhombic'
loop_
_space_group_symop_operation_xyz
x,y,z
1/2-x,-y,z
1/2+x,-y,-z
-x,y,-z
-x,-y,-z
1/2+x,y,-z
1/2-x,y,z
x,-y,z
loop_
_atom_site_type_symbol
_atom_site_label
_atom_site_fract_x
_atom_site_fract_y
_atom_site_fract_z
Si Si1 0.575266 0.393926 0.697384
Si Si2 0.577165 0.112204 0.937545
Si Si3 0.071098 0.889899 0.199508
Si Si4 0.573557 0.109206 0.438791
Si Si5 0.572655 0.208132 0.316154
Si Si6 0.084967 0.610378 0.821152
Si Si7 0.419503 0.387230 0.061578
O O1 0.750000 0.381651 0.687541
O O2 0.535532 0.500000 0.681185
O O3 0.479337 0.312402 0.669273
O O4 0.534055 0.380943 0.768118
O O5 0.750000 0.137177 0.940925
O O6 0.522714 0.137414 0.869329
O O7 0.568625 0.000000 0.937850
O O8 0.500000 0.144171 0.000000
O O9 0.250000 0.879144 0.202043
O O10 0.998033 0.831746 0.253989
O O11 0.039113 0.000000 0.207674
O O12 0.500000 0.147676 0.500000
O O13 0.750000 0.122929 0.443055
O O14 0.522951 0.149936 0.374725
O O15 0.543572 0.000000 0.437026
O O16 0.750000 0.203038 0.310797
O O17 0.250000 0.646423 0.806143
O O18 0.100909 0.500000 0.829350
O O19 0.017131 0.647462 0.882801
O O20 0.250000 0.356464 0.064913
O O21 0.416356 0.500000 0.063758
O O22 0.500000 0.361581 0.000000
#
# Coordination Sequence:
#
# PCOD9405941 Si02
#       7
#     8   8   8   8   8   8   8
#     4  10  21  37  56  77 102 136 180 228 277 331
#     4   8  14  25  42  66  98 138 183 227 271 323
#     4   9  18  32  50  76 112 151 189 229 276 334
#     4   9  19  36  58  87 123 159 191 221 258 312
#     4  11  22  35  55  84 116 148 185 232 282 331
#     4   9  16  27  44  65  89 118 155 204 264 325
#     4   9  15  22  34  55  83 114 151 198 254 318
#
# _framework density 19.472238999999998
#
# number of rings (size 3 to 8) (size 9 to 14) (size 15 to 20)
#    0.000    2.714    0.000    3.000    0.000    6.857 
#    0.000    2.857    0.000    1.286    0.000    4.000 
#    0.000    0.000    0.000    0.000    0.000    0.000 
#
# Total GULP energy -312263.465514 kJ/mol
# GULP energy per Si atom -5576.133313 kJ/mol
# Density = 1.942792 g / cm^3
# Si number density = 19.472239 Si / 1000 Ang^3
#
#
#
# Elastic Constant Matrix: (Units=GPa)
#
#
# Indices 1 2 3 4 5 6 
#
# 1 43.5574 23.7580 33.6549 0.0000 0.0000 0.0000
# 2 23.7580 69.9313 36.4995 0.0000 0.0000 0.0000
# 3 33.6549 36.4995 125.6871 0.0000 0.0000 0.0000
# 4 0.0000 0.0000 0.0000 -43.4840 0.0000 0.0000
# 5 0.0000 0.0000 0.0000 0.0000 28.9074 0.0000
# 6 0.0000 0.0000 0.0000 0.0000 0.0000 13.1324
#
#
#
# Elastic Compliance Matrix: (Units=1/GPa)
#
#
# Indices 1 2 3 4 5 6 
#
# 1 0.032000 -0.007543 -0.006378 0.000000 0.000000 0.000000
# 2 -0.007543 0.018632 -0.003391 0.000000 0.000000 0.000000
# 3 -0.006378 -0.003391 0.010649 0.000000 0.000000 0.000000
# 4 0.000000 0.000000 0.000000 -0.022997 0.000000 0.000000
# 5 0.000000 0.000000 0.000000 0.000000 0.034593 0.000000
# 6 0.000000 0.000000 0.000000 0.000000 0.000000 0.076147
#
#
# Mechanical properties :
#
#
# Convention : Reuss Voigt Hill
#
# Bulk Modulus (GPa) = 37.51279 47.44449 42.47864
# Shear Modulus (GPa) = 25.96929 9.39540 17.68235
#
# Velocity S-wave (km/s) = 3.65589 2.19898 3.01671
# Velocity P-wave (km/s) = 6.09322 5.55567 5.83064
#
# Compressibility (1/GPa) = 0.02665757
#
# Stress axis : x y z
#
# Youngs Moduli (GPa) = 31.24957 53.67067 93.90591
#
# Poissons Ratio (x) = 0.40481 0.59896
# Poissons Ratio (y) = 0.23570 0.31845
# Poissons Ratio (z) = 0.19932 0.18200
#
# Static dielectric constant tensor:
#      x y z
#    x 1.639510 0.000000 0.000000 
#    y 0.000000 1.743770 0.000000 
#    z 0.000000 0.000000 1.444450 
# 
# From -- ./inp_files/32006.got.cif
#   From: 2010.05.17/outbox.cif.g08.bks.cpg/sg51_17_cif.got.tgz:32006.got - 2010.06.03 11:52:47.
