data_PCOD9405186
_publ_section_title
;
Structure prediction by ZEFSAII (Michael W. Deem and Ramdas Pophale) SiO2 
 PCOD9405186
Probable space group: P M M A
;
_chemical_formula_sum "Si O2"
_cell_formula_units_Z 48
_cell_length_a 15.634119
_cell_length_b 8.333673
_cell_length_c 19.367279
_cell_angle_alpha 90.000000
_cell_angle_beta 90.000000
_cell_angle_gamma 90.000000
_cell_volume 2523.355719
_symmetry_space_group_name_H-M "P M M A"
_symmetry_group_IT_number 51
_symmetry_cell_setting 'orthorhombic'
loop_
_space_group_symop_operation_xyz
x,y,z
1/2-x,-y,z
1/2+x,-y,-z
-x,y,-z
-x,-y,-z
1/2+x,y,-z
1/2-x,y,z
x,-y,z
loop_
_atom_site_type_symbol
_atom_site_label
_atom_site_fract_x
_atom_site_fract_y
_atom_site_fract_z
Si Si1 0.250000 0.195961 0.579482
Si Si2 0.250000 0.802980 0.421072
Si Si3 0.089722 0.808371 0.166563
Si Si4 0.250000 0.185159 0.930508
Si Si5 0.399036 0.688979 0.834534
Si Si6 0.750000 0.313176 0.918154
Si Si7 0.596350 0.805080 0.675799
Si Si8 0.097623 0.805515 0.678913
O O1 0.250000 0.249816 0.500369
O O2 0.333269 0.246082 0.622686
O O3 0.250000 0.000000 0.578442
O O4 0.333360 0.749506 0.378491
O O5 0.250000 0.000000 0.421426
O O6 0.165256 0.763498 0.115099
O O7 0.114509 0.757824 0.244902
O O8 0.997826 0.731828 0.149797
O O9 0.077900 0.000000 0.167403
O O10 0.166877 0.222409 0.884466
O O11 0.250000 0.000000 0.951328
O O12 0.250000 0.287996 0.999983
O O13 0.385644 0.500000 0.841496
O O14 0.382958 0.740816 0.755265
O O15 0.750000 0.500000 0.901143
O O16 0.499049 0.756291 0.660130
O O17 0.598535 0.000000 0.674348
O O18 0.099344 0.000000 0.683080
#
# Coordination Sequence:
#
# PCOD9405186 Si02
#       8
#     4   4   8   4   8   4   8   8
#     4   9  17  26  42  69 104 139 176 221 274 326
#     4   9  15  24  40  71 107 137 170 223 280 318
#     4  10  20  38  61  85 112 150 191 230 278 336
#     4  12  25  42  61  83 113 152 187 222 274 340
#     4  11  22  38  60  87 112 141 184 238 285 328
#     4  12  25  40  58  87 120 150 185 230 274 322
#     4   8  15  27  47  72 101 134 176 224 270 317
#     4   9  17  31  49  73 102 138 179 222 270 329
#
# _framework density 19.022288
#
# number of rings (size 3 to 8) (size 9 to 14) (size 15 to 20)
#    0.000    2.167    0.000    5.500    0.000    3.333 
#    0.000    6.667    0.000    0.000    0.000   18.667 
#    0.000    0.000    0.000    0.000    0.000    0.000 
#
# Total GULP energy -268036.220787 kJ/mol
# GULP energy per Si atom -5584.087933 kJ/mol
# Density = 1.897899 g / cm^3
# Si number density = 19.022288 Si / 1000 Ang^3
#
#
#
# Elastic Constant Matrix: (Units=GPa)
#
#
# Indices 1 2 3 4 5 6 
#
# 1 104.0616 -13.3300 76.3885 0.0000 0.0000 0.0000
# 2 -13.3300 25.1085 -19.7920 0.0000 0.0000 0.0000
# 3 76.3885 -19.7920 97.1285 0.0000 0.0000 0.0000
# 4 0.0000 0.0000 0.0000 0.8401 0.0000 0.0000
# 5 0.0000 0.0000 0.0000 0.0000 -6.0460 0.0000
# 6 0.0000 0.0000 0.0000 0.0000 0.0000 8.2066
#
#
#
# Elastic Compliance Matrix: (Units=1/GPa)
#
#
# Indices 1 2 3 4 5 6 
#
# 1 0.022859 -0.002425 -0.018472 0.000000 0.000000 0.000000
# 2 -0.002425 0.047706 0.011628 0.000000 0.000000 0.000000
# 3 -0.018472 0.011628 0.027192 0.000000 0.000000 0.000000
# 4 0.000000 0.000000 0.000000 1.190377 0.000000 0.000000
# 5 0.000000 0.000000 0.000000 0.000000 -0.165400 0.000000
# 6 0.000000 0.000000 0.000000 0.000000 0.000000 0.121852
#
#
# Mechanical properties :
#
#
# Convention : Reuss Voigt Hill
#
# Bulk Modulus (GPa) = 12.62305 34.75906 23.69106
# Shear Modulus (GPa) = 3.87738 12.80229 8.33984
#
# Velocity S-wave (km/s) = 1.42925 2.59707 2.09613
# Velocity P-wave (km/s) = 3.06170 5.22547 4.28249
#
# Compressibility (1/GPa) = 0.07922013
#
# Stress axis : x y z
#
# Youngs Moduli (GPa) = 43.74736 20.96179 36.77489
#
# Poissons Ratio (x) = 0.05083 0.67929
# Poissons Ratio (y) = 0.10608 -0.42762
# Poissons Ratio (z) = 0.80808 -0.24375
#
# Static dielectric constant tensor:
#      x y z
#    x 1.657920 0.000000 0.000000 
#    y 0.000000 1.642500 0.000000 
#    z 0.000000 0.000000 1.626160 
# 
# From -- ./inp_files/29675.got.cif
#   From: 2010.05.17/outbox.cif.g08.bks.cpg/sg51_15_cif.got.tgz:29675.got - 2010.06.03 11:52:47.
