data_PCOD9405540
_publ_section_title
;
Structure prediction by ZEFSAII (Michael W. Deem and Ramdas Pophale) SiO2 
 PCOD9405540
Probable space group: P M M A
;
_chemical_formula_sum "Si O2"
_cell_formula_units_Z 64
_cell_length_a 23.306226
_cell_length_b 9.650475
_cell_length_c 15.101107
_cell_angle_alpha 90.000000
_cell_angle_beta 90.000000
_cell_angle_gamma 90.000000
_cell_volume 3396.482868
_symmetry_space_group_name_H-M "P M M A"
_symmetry_group_IT_number 51
_symmetry_cell_setting 'orthorhombic'
loop_
_space_group_symop_operation_xyz
x,y,z
1/2-x,-y,z
1/2+x,-y,-z
-x,y,-z
-x,-y,-z
1/2+x,y,-z
1/2-x,y,z
x,-y,z
loop_
_atom_site_type_symbol
_atom_site_label
_atom_site_fract_x
_atom_site_fract_y
_atom_site_fract_z
Si Si1 0.607797 0.833667 0.166747
Si Si2 0.684882 0.834454 0.800037
Si Si3 0.055604 0.665632 0.445613
Si Si4 0.914304 0.341935 0.744587
Si Si5 0.496015 0.661329 0.895431
Si Si6 0.313895 0.167948 0.996762
Si Si7 0.315855 0.340193 0.705338
Si Si8 0.814803 0.663640 0.507678
O O1 0.546430 0.765457 0.153453
O O2 0.641881 0.765779 0.247573
O O3 0.606068 0.000000 0.172957
O O4 0.641451 0.790502 0.077071
O O5 0.750000 0.798009 0.777086
O O6 0.638826 0.759951 0.740902
O O7 0.674806 0.790476 0.902357
O O8 0.679339 0.000000 0.795982
O O9 0.058176 0.500000 0.465136
O O10 0.045490 0.682942 0.340394
O O11 0.121465 0.717529 0.463396
O O12 0.000000 0.719849 0.500000
O O13 0.893827 0.500000 0.736779
O O14 0.946040 0.328079 0.838414
O O15 0.476915 0.500000 0.888933
O O16 0.500000 0.694444 0.000000
O O17 0.250000 0.215360 0.972495
O O18 0.313253 0.000000 0.997465
O O19 0.250000 0.315872 0.734327
O O20 0.331112 0.500000 0.727071
O O21 0.316610 0.327279 0.599248
O O22 0.750000 0.718246 0.534300
O O23 0.814002 0.500000 0.531844
#
# Coordination Sequence:
#
# PCOD9405540 Si02
#       8
#     8   8   8   8   8   8   8   8
#     4  11  21  31  50  77 103 138 182 227 272 316
#     4   9  18  34  56  78 103 138 173 206 254 317
#     4   9  18  31  51  79 107 137 176 225 277 322
#     4  10  21  35  54  81 107 135 174 221 270 313
#     4  10  22  38  53  73 107 147 183 222 270 324
#     4   8  15  29  48  71 100 134 173 216 259 306
#     4   9  18  32  51  76 105 138 173 213 268 330
#     4   8  15  29  50  75 103 136 174 217 268 328
#
# _framework density 18.843021
#
# number of rings (size 3 to 8) (size 9 to 14) (size 15 to 20)
#    0.000    2.750    0.000    3.000    1.750    2.250 
#    0.000    1.875    0.000    2.625    0.000    0.000 
#    0.000    0.000    0.000    0.000    0.000    0.000 
#
# Total GULP energy -356336.430614 kJ/mol
# GULP energy per Si atom -5567.756728 kJ/mol
# Density = 1.880013 g / cm^3
# Si number density = 18.843021 Si / 1000 Ang^3
#
#
#
# Elastic Constant Matrix: (Units=GPa)
#
#
# Indices 1 2 3 4 5 6 
#
# 1 90.3355 33.6848 33.6593 0.0000 0.0000 0.0000
# 2 33.6848 34.4508 18.3239 0.0000 0.0000 0.0000
# 3 33.6593 18.3239 60.2663 0.0000 0.0000 0.0000
# 4 0.0000 0.0000 0.0000 12.0718 0.0000 0.0000
# 5 0.0000 0.0000 0.0000 0.0000 31.0291 0.0000
# 6 0.0000 0.0000 0.0000 0.0000 0.0000 17.3933
#
#
#
# Elastic Compliance Matrix: (Units=1/GPa)
#
#
# Indices 1 2 3 4 5 6 
#
# 1 0.019050 -0.015469 -0.005936 0.000000 0.000000 0.000000
# 2 -0.015469 0.047188 -0.005708 0.000000 0.000000 0.000000
# 3 -0.005936 -0.005708 0.021644 0.000000 0.000000 0.000000
# 4 0.000000 0.000000 0.000000 0.082838 0.000000 0.000000
# 5 0.000000 0.000000 0.000000 0.000000 0.032228 0.000000
# 6 0.000000 0.000000 0.000000 0.000000 0.000000 0.057493
#
#
# Mechanical properties :
#
#
# Convention : Reuss Voigt Hill
#
# Bulk Modulus (GPa) = 29.71273 39.59873 34.65573
# Shear Modulus (GPa) = 15.34285 18.72448 17.03367
#
# Velocity S-wave (km/s) = 2.85659 3.15574 3.00988
# Velocity P-wave (km/s) = 5.16556 5.85994 5.52367
#
# Compressibility (1/GPa) = 0.03365561
#
# Stress axis : x y z
#
# Youngs Moduli (GPa) = 52.49403 21.19192 46.20234
#
# Poissons Ratio (x) = 0.32781 0.27427
# Poissons Ratio (y) = 0.81202 0.26372
# Poissons Ratio (z) = 0.31161 0.12096
#
# Static dielectric constant tensor:
#      x y z
#    x 1.744140 0.000000 0.000000 
#    y 0.000000 1.614230 0.000000 
#    z 0.000000 0.000000 1.673750 
# 
# From -- ./inp_files/26227.got.cif
#   From: 2010.05.17/outbox.cif.g08.bks.cpg/sg51_14_cif.got.tgz:26227.got - 2010.06.03 11:52:47.
