data_PCOD9405546
_publ_section_title
;
Structure prediction by ZEFSAII (Michael W. Deem and Ramdas Pophale) SiO2 
 PCOD9405546
Probable space group: P M M A
;
_chemical_formula_sum "Si O2"
_cell_formula_units_Z 56
_cell_length_a 14.438214
_cell_length_b 23.330383
_cell_length_c 7.325806
_cell_angle_alpha 90.000000
_cell_angle_beta 90.000000
_cell_angle_gamma 90.000000
_cell_volume 2467.690883
_symmetry_space_group_name_H-M "P M M A"
_symmetry_group_IT_number 51
_symmetry_cell_setting 'orthorhombic'
loop_
_space_group_symop_operation_xyz
x,y,z
1/2-x,-y,z
1/2+x,-y,-z
-x,y,-z
-x,-y,-z
1/2+x,y,-z
1/2-x,y,z
x,-y,z
loop_
_atom_site_type_symbol
_atom_site_label
_atom_site_fract_x
_atom_site_fract_y
_atom_site_fract_z
Si Si1 0.095120 0.564513 0.611066
Si Si2 0.484893 0.247781 0.221714
Si Si3 0.354825 0.855553 0.180650
Si Si4 0.647581 0.829251 0.245803
Si Si5 0.483364 0.063360 0.713904
Si Si6 0.352281 0.345296 0.333243
Si Si7 0.857925 0.564159 0.991378
O O1 0.136613 0.500000 0.595204
O O2 0.147139 0.616798 0.515844
O O3 0.083930 0.575433 0.826459
O O4 0.000000 0.562712 0.500000
O O5 0.413821 0.195839 0.267685
O O6 0.583195 0.224706 0.292945
O O7 0.437619 0.302534 0.309967
O O8 0.500000 0.254961 0.000000
O O9 0.250000 0.866033 0.247420
O O10 0.424091 0.909796 0.194305
O O11 0.346848 0.833352 0.973665
O O12 0.750000 0.825219 0.323562
O O13 0.596779 0.889142 0.282624
O O14 0.500000 0.057508 0.500000
O O15 0.460538 0.000000 0.787534
O O16 0.250000 0.317398 0.313101
O O17 0.363675 0.390228 0.167520
O O18 0.750000 0.564250 0.052628
O O19 0.879375 0.500000 0.922374
#
# Coordination Sequence:
#
# PCOD9405546 Si02
#       7
#     8   8   8   8   8   8   8
#     4  10  22  38  58  84 121 163 202 251 308 372
#     4   9  19  35  60  85 115 149 189 251 301 357
#     4   9  18  36  60  83 113 155 202 245 296 353
#     4   9  19  38  63  86 112 156 203 245 300 356
#     4  10  21  35  54  87 128 163 197 242 295 352
#     4  11  22  36  62  92 119 158 205 252 312 374
#     4   9  19  36  58  86 119 155 198 249 306 373
#
# _framework density 22.693280999999999
#
# number of rings (size 3 to 8) (size 9 to 14) (size 15 to 20)
#    0.000    2.429    0.000    2.571    2.000    4.286 
#    0.000    7.857    0.000    3.429    0.000    0.000 
#    0.000    1.714    0.000    0.000    0.000    0.000 
#
# Total GULP energy -312765.580746 kJ/mol
# GULP energy per Si atom -5585.099656 kJ/mol
# Density = 2.264163 g / cm^3
# Si number density = 22.693281 Si / 1000 Ang^3
#
#
#
# Elastic Constant Matrix: (Units=GPa)
#
#
# Indices 1 2 3 4 5 6 
#
# 1 157.5450 60.5450 6.5536 0.0000 0.0000 0.0000
# 2 60.5450 114.3280 19.1706 0.0000 0.0000 0.0000
# 3 6.5536 19.1706 53.5044 0.0000 0.0000 0.0000
# 4 0.0000 0.0000 0.0000 5.5855 0.0000 0.0000
# 5 0.0000 0.0000 0.0000 0.0000 10.4305 0.0000
# 6 0.0000 0.0000 0.0000 0.0000 0.0000 23.4934
#
#
#
# Elastic Compliance Matrix: (Units=1/GPa)
#
#
# Indices 1 2 3 4 5 6 
#
# 1 0.007986 -0.004325 0.000571 0.000000 0.000000 0.000000
# 2 -0.004325 0.011648 -0.003644 0.000000 0.000000 0.000000
# 3 0.000571 -0.003644 0.019926 0.000000 0.000000 0.000000
# 4 0.000000 0.000000 0.000000 0.179033 0.000000 0.000000
# 5 0.000000 0.000000 0.000000 0.000000 0.095873 0.000000
# 6 0.000000 0.000000 0.000000 0.000000 0.000000 0.042565
#
#
# Mechanical properties :
#
#
# Convention : Reuss Voigt Hill
#
# Bulk Modulus (GPa) = 40.37946 55.32400 47.85173
# Shear Modulus (GPa) = 13.15512 23.84241 18.49876
#
# Velocity S-wave (km/s) = 2.41029 3.24487 2.85821
# Velocity P-wave (km/s) = 5.05749 6.20249 5.65902
#
# Compressibility (1/GPa) = 0.02476507
#
# Stress axis : x y z
#
# Youngs Moduli (GPa) = 125.22447 85.85123 50.18660
#
# Poissons Ratio (x) = 0.37129 -0.02868
# Poissons Ratio (y) = 0.54157 0.18287
# Poissons Ratio (z) = -0.07156 0.31282
#
# Static dielectric constant tensor:
#      x y z
#    x 1.912190 0.000000 0.000000 
#    y 0.000000 1.855660 0.000000 
#    z 0.000000 0.000000 1.864640 
# 
# From -- ./inp_files/8490.got.cif
#   From: 2010.05.17/outbox.cif.g08.bks.cpg/sg51_5_cif.got.tgz:8490.got - 2010.06.03 11:52:47.
