data_PCOD9405539
_publ_section_title
;
Structure prediction by ZEFSAII (Michael W. Deem and Ramdas Pophale) SiO2 
 PCOD9405539
Probable space group: P M M A
;
_chemical_formula_sum "Si O2"
_cell_formula_units_Z 48
_cell_length_a 15.622537
_cell_length_b 9.170788
_cell_length_c 17.400499
_cell_angle_alpha 90.000000
_cell_angle_beta 90.000000
_cell_angle_gamma 90.000000
_cell_volume 2492.986455
_symmetry_space_group_name_H-M "P M M A"
_symmetry_group_IT_number 51
_symmetry_cell_setting 'orthorhombic'
loop_
_space_group_symop_operation_xyz
x,y,z
1/2-x,-y,z
1/2+x,-y,-z
-x,y,-z
-x,-y,-z
1/2+x,y,-z
1/2-x,y,z
x,-y,z
loop_
_atom_site_type_symbol
_atom_site_label
_atom_site_fract_x
_atom_site_fract_y
_atom_site_fract_z
Si Si1 0.250000 0.827713 0.422450
Si Si2 0.652015 0.660589 0.014157
Si Si3 0.425221 0.830599 0.851875
Si Si4 0.750000 0.825663 0.395078
Si Si5 0.597288 0.325167 0.303424
Si Si6 0.901903 0.331649 0.843596
Si Si7 0.604793 0.329056 0.672489
O O1 0.250000 0.801166 0.513570
O O2 0.165071 0.759924 0.384012
O O3 0.250000 0.000000 0.409086
O O4 0.750000 0.659040 0.038775
O O5 0.613222 0.500000 0.030120
O O6 0.606091 0.780530 0.064687
O O7 0.649415 0.680018 0.922452
O O8 0.386061 0.735200 0.782615
O O9 0.524290 0.787137 0.849412
O O10 0.409827 0.000000 0.838410
O O11 0.834345 0.752232 0.358284
O O12 0.750000 0.000000 0.380412
O O13 0.606621 0.500000 0.305398
O O14 0.497153 0.291391 0.324487
O O15 0.936615 0.500000 0.841075
O O16 0.860738 0.311745 0.760128
O O17 0.610345 0.500000 0.652619
#
# Coordination Sequence:
#
# PCOD9405539 Si02
#       7
#     4   8   8   4   8   8   8
#     4  11  25  41  61  92 129 164 193 233 302 373
#     4  10  21  35  54  80 112 153 200 247 292 341
#     4  11  22  36  56  82 117 155 192 240 298 355
#     4  11  25  43  63  92 127 160 193 239 302 369
#     4  10  22  42  67  92 118 157 206 253 299 353
#     4   9  19  37  60  83 110 150 201 249 292 342
#     4   9  20  39  65  92 120 156 204 255 297 346
#
# _framework density 19.254014999999999
#
# number of rings (size 3 to 8) (size 9 to 14) (size 15 to 20)
#    0.000    2.000    0.000    4.000    2.333    8.333 
#    0.000    3.333    0.000    0.000    0.000    0.000 
#    0.000    0.000    0.000    0.000    0.000    0.000 
#
# Total GULP energy -267774.884801 kJ/mol
# GULP energy per Si atom -5578.643433 kJ/mol
# Density = 1.921019 g / cm^3
# Si number density = 19.254015 Si / 1000 Ang^3
#
#
#
# Elastic Constant Matrix: (Units=GPa)
#
#
# Indices 1 2 3 4 5 6 
#
# 1 75.8412 51.6902 52.9136 0.0000 0.0000 0.0000
# 2 51.6902 100.6597 66.9279 0.0000 0.0000 0.0000
# 3 52.9136 66.9279 104.7490 0.0000 0.0000 0.0000
# 4 0.0000 0.0000 0.0000 66.3082 0.0000 0.0000
# 5 0.0000 0.0000 0.0000 0.0000 35.9896 0.0000
# 6 0.0000 0.0000 0.0000 0.0000 0.0000 -36.5766
#
#
#
# Elastic Compliance Matrix: (Units=1/GPa)
#
#
# Indices 1 2 3 4 5 6 
#
# 1 0.022941 -0.007086 -0.007062 0.000000 0.000000 0.000000
# 2 -0.007086 0.019460 -0.008855 0.000000 0.000000 0.000000
# 3 -0.007062 -0.008855 0.018771 0.000000 0.000000 0.000000
# 4 0.000000 0.000000 0.000000 0.015081 0.000000 0.000000
# 5 0.000000 0.000000 0.000000 0.000000 0.027786 0.000000
# 6 0.000000 0.000000 0.000000 0.000000 0.000000 -0.027340
#
#
# Mechanical properties :
#
#
# Convention : Reuss Voigt Hill
#
# Bulk Modulus (GPa) = 65.92167 69.36817 67.64492
# Shear Modulus (GPa) = 39.13572 20.45879 29.79725
#
# Velocity S-wave (km/s) = 4.51333 3.26325 3.93821
# Velocity P-wave (km/s) = 7.84043 7.09257 7.47586
#
# Compressibility (1/GPa) = 0.01516952
#
# Stress axis : x y z
#
# Youngs Moduli (GPa) = 43.58918 51.38630 53.27268
#
# Poissons Ratio (x) = 0.36410 0.37619
# Poissons Ratio (y) = 0.30886 0.47171
# Poissons Ratio (z) = 0.30781 0.45501
#
# Static dielectric constant tensor:
#      x y z
#    x 1.680480 0.000000 0.000000 
#    y 0.000000 1.655000 0.000000 
#    z 0.000000 0.000000 1.672210 
# 
# From -- ./inp_files/24985.got.cif
#   From: 2010.05.17/outbox.cif.g08.bks.cpg/sg51_13_cif.got.tgz:24985.got - 2010.06.03 11:52:47.
