data_PCOD9405955
_publ_section_title
;
Structure prediction by ZEFSAII (Michael W. Deem and Ramdas Pophale) SiO2 
 PCOD9405955
Probable space group: P M M A
;
_chemical_formula_sum "Si O2"
_cell_formula_units_Z 64
_cell_length_a 19.748706
_cell_length_b 31.079060
_cell_length_c 5.478467
_cell_angle_alpha 90.000000
_cell_angle_beta 90.000000
_cell_angle_gamma 90.000000
_cell_volume 3362.525367
_symmetry_space_group_name_H-M "P M M A"
_symmetry_group_IT_number 51
_symmetry_cell_setting 'orthorhombic'
loop_
_space_group_symop_operation_xyz
x,y,z
1/2-x,-y,z
1/2+x,-y,-z
-x,y,-z
-x,-y,-z
1/2+x,y,-z
1/2-x,y,z
x,-y,z
loop_
_atom_site_type_symbol
_atom_site_label
_atom_site_fract_x
_atom_site_fract_y
_atom_site_fract_z
Si Si1 0.168718 0.759458 0.667850
Si Si2 0.824297 0.678371 0.634452
Si Si3 0.674432 0.407381 0.342309
Si Si4 0.423951 0.366040 0.054311
Si Si5 0.832545 0.049948 0.384262
Si Si6 0.667537 0.096837 0.884707
Si Si7 0.070958 0.453919 0.359861
Si Si8 0.167351 0.803609 0.164698
O O1 0.250000 0.765530 0.678553
O O2 0.158641 0.709966 0.588374
O O3 0.143911 0.775615 0.930782
O O4 0.144627 0.786019 0.428989
O O5 0.750000 0.692333 0.733802
O O6 0.817280 0.629451 0.546161
O O7 0.884385 0.673615 0.823707
O O8 0.750000 0.417141 0.246045
O O9 0.634214 0.447116 0.457749
O O10 0.624172 0.383876 0.157271
O O11 0.432542 0.409940 0.210575
O O12 0.500000 0.352227 0.000000
O O13 0.750000 0.050978 0.384075
O O14 0.854525 0.074223 0.136810
O O15 0.852830 0.000000 0.379446
O O16 0.854194 0.072631 0.636724
O O17 0.750000 0.095637 0.885945
O O18 0.647772 0.146822 0.874106
O O19 0.078733 0.500000 0.226664
O O20 0.000000 0.455550 0.500000
O O21 0.250000 0.802183 0.169574
#
# Coordination Sequence:
#
# PCOD9405955 Si02
#       8
#     8   8   8   8   8   8   8   8
#     4   9  17  28  43  63  88 118 154 193 248 313
#     4   9  20  34  51  74 103 133 163 210 262 314
#     4  10  21  37  56  79 107 137 171 214 262 309
#     4  11  21  35  57  81 102 136 175 210 253 309
#     4   9  15  21  29  41  60  92 135 184 241 300
#     4   9  15  22  31  44  66  94 132 185 242 297
#     4  10  21  38  57  79 108 140 174 210 254 311
#     4   9  16  25  38  57  80 110 147 192 248 311
#
# _framework density 19.033314000000001
#
# number of rings (size 3 to 8) (size 9 to 14) (size 15 to 20)
#    0.000    2.500    1.250    1.500    1.750    6.000 
#    0.000    0.000    0.000    0.000    0.000    0.000 
#    0.000    0.000    0.000    0.000    0.000    0.000 
#
# Total GULP energy -356296.598530 kJ/mol
# GULP energy per Si atom -5567.134352 kJ/mol
# Density = 1.898999 g / cm^3
# Si number density = 19.033314 Si / 1000 Ang^3
#
#
#
# Elastic Constant Matrix: (Units=GPa)
#
#
# Indices 1 2 3 4 5 6 
#
# 1 74.3424 4.3337 14.9704 0.0000 0.0000 0.0000
# 2 4.3337 94.6105 23.9694 0.0000 0.0000 0.0000
# 3 14.9704 23.9694 77.8457 0.0000 0.0000 0.0000
# 4 0.0000 0.0000 0.0000 25.4344 0.0000 0.0000
# 5 0.0000 0.0000 0.0000 0.0000 23.2958 0.0000
# 6 0.0000 0.0000 0.0000 0.0000 0.0000 69.3560
#
#
#
# Elastic Compliance Matrix: (Units=1/GPa)
#
#
# Indices 1 2 3 4 5 6 
#
# 1 0.013993 0.000044 -0.002705 0.000000 0.000000 0.000000
# 2 0.000044 0.011464 -0.003538 0.000000 0.000000 0.000000
# 3 -0.002705 -0.003538 0.014456 0.000000 0.000000 0.000000
# 4 0.000000 0.000000 0.000000 0.039317 0.000000 0.000000
# 5 0.000000 0.000000 0.000000 0.000000 0.042926 0.000000
# 6 0.000000 0.000000 0.000000 0.000000 0.000000 0.014418
#
#
# Mechanical properties :
#
#
# Convention : Reuss Voigt Hill
#
# Bulk Modulus (GPa) = 36.34337 37.03839 36.69088
# Shear Modulus (GPa) = 31.61679 37.18558 34.40119
#
# Velocity S-wave (km/s) = 4.08012 4.42487 4.25599
# Velocity P-wave (km/s) = 6.42904 6.75337 6.59320
#
# Compressibility (1/GPa) = 0.02751534
#
# Stress axis : x y z
#
# Youngs Moduli (GPa) = 71.46255 87.22905 69.17752
#
# Poissons Ratio (x) = -0.00386 0.18710
# Poissons Ratio (y) = -0.00316 0.24478
# Poissons Ratio (z) = 0.19328 0.30865
#
# Static dielectric constant tensor:
#      x y z
#    x 1.493190 0.000000 0.000000 
#    y 0.000000 1.676240 0.000000 
#    z 0.000000 0.000000 1.597100 
# 
# From -- ./inp_files/2098.got.cif
#   From: 2010.05.17/outbox.cif.g08.bks.cpg/sg51_2_cif.got.tgz:2098.got - 2010.06.03 11:52:47.
