data_PCOD9405552
_publ_section_title
;
Structure prediction by ZEFSAII (Michael W. Deem and Ramdas Pophale) SiO2 
 PCOD9405552
Probable space group: P M M A
;
_chemical_formula_sum "Si O2"
_cell_formula_units_Z 48
_cell_length_a 17.895956
_cell_length_b 7.877169
_cell_length_c 17.781963
_cell_angle_alpha 90.000000
_cell_angle_beta 90.000000
_cell_angle_gamma 90.000000
_cell_volume 2506.713897
_symmetry_space_group_name_H-M "P M M A"
_symmetry_group_IT_number 51
_symmetry_cell_setting 'orthorhombic'
loop_
_space_group_symop_operation_xyz
x,y,z
1/2-x,-y,z
1/2+x,-y,-z
-x,y,-z
-x,-y,-z
1/2+x,y,-z
1/2-x,y,z
x,-y,z
loop_
_atom_site_type_symbol
_atom_site_label
_atom_site_fract_x
_atom_site_fract_y
_atom_site_fract_z
Si Si1 0.341142 0.000000 0.241869
Si Si2 0.834637 0.798749 0.167749
Si Si3 0.660218 0.000000 0.584205
Si Si4 0.088734 0.700666 0.511432
Si Si5 0.582761 0.296414 0.016346
Si Si6 0.664640 0.296880 0.333460
Si Si7 0.339764 0.305143 0.136474
O O1 0.366243 0.168853 0.197677
O O2 0.250000 0.000000 0.239906
O O3 0.363259 0.000000 0.328539
O O4 0.750000 0.726109 0.160062
O O5 0.884666 0.748907 0.097230
O O6 0.863354 0.750035 0.250469
O O7 0.828874 0.000000 0.166510
O O8 0.629411 0.830957 0.544069
O O9 0.750000 0.000000 0.579957
O O10 0.108651 0.500000 0.499902
O O11 0.114117 0.752073 0.595782
O O12 0.000000 0.715429 0.500000
O O13 0.579454 0.500000 0.014601
O O14 0.500000 0.228580 0.000000
O O15 0.634887 0.246913 0.946329
O O16 0.750000 0.229352 0.341495
O O17 0.668970 0.500000 0.335515
O O18 0.250000 0.308471 0.138413
O O19 0.366006 0.500000 0.149553
#
# Coordination Sequence:
#
# PCOD9405552 Si02
#       7
#     4   8   4   8   8   8   8
#     4   9  20  37  56  83 111 141 190 241 285 337
#     4  10  21  35  55  85 115 147 189 236 286 341
#     4  11  23  39  63  91 119 155 200 251 300 351
#     4  10  22  41  62  89 124 160 199 244 303 369
#     4  10  21  37  54  78 111 146 187 233 284 341
#     4   9  18  35  59  84 112 150 194 240 290 346
#     4   9  18  35  58  78 104 147 191 234 284 338
#
# _framework density 19.148575999999998
#
# number of rings (size 3 to 8) (size 9 to 14) (size 15 to 20)
#    0.000    2.333    0.000    1.750    2.333    3.667 
#    3.000    1.667    0.000    0.000    0.000    0.000 
#    0.000    0.000    0.000    0.000    0.000    0.000 
#
# Total GULP energy -267759.044032 kJ/mol
# GULP energy per Si atom -5578.313417 kJ/mol
# Density = 1.910499 g / cm^3
# Si number density = 19.148576 Si / 1000 Ang^3
#
#
#
# Elastic Constant Matrix: (Units=GPa)
#
#
# Indices 1 2 3 4 5 6 
#
# 1 55.3945 35.5747 69.3628 0.0000 0.0000 0.0000
# 2 35.5747 80.4872 71.2317 0.0000 0.0000 0.0000
# 3 69.3628 71.2317 218.1959 0.0000 0.0000 0.0000
# 4 0.0000 0.0000 0.0000 36.9928 0.0000 0.0000
# 5 0.0000 0.0000 0.0000 0.0000 4.2112 0.0000
# 6 0.0000 0.0000 0.0000 0.0000 0.0000 14.9278
#
#
#
# Elastic Compliance Matrix: (Units=1/GPa)
#
#
# Indices 1 2 3 4 5 6 
#
# 1 0.032870 -0.007426 -0.008025 0.000000 0.000000 0.000000
# 2 -0.007426 0.019150 -0.003891 0.000000 0.000000 0.000000
# 3 -0.008025 -0.003891 0.008404 0.000000 0.000000 0.000000
# 4 0.000000 0.000000 0.000000 0.027032 0.000000 0.000000
# 5 0.000000 0.000000 0.000000 0.000000 0.237464 0.000000
# 6 0.000000 0.000000 0.000000 0.000000 0.000000 0.066989
#
#
# Mechanical properties :
#
#
# Convention : Reuss Voigt Hill
#
# Bulk Modulus (GPa) = 45.99742 78.49066 62.24404
# Shear Modulus (GPa) = 11.41968 23.08689 17.25328
#
# Velocity S-wave (km/s) = 2.44472 3.47605 3.00496
# Velocity P-wave (km/s) = 5.66060 7.56240 6.67953
#
# Compressibility (1/GPa) = 0.02174035
#
# Stress axis : x y z
#
# Youngs Moduli (GPa) = 30.42318 52.21867 118.98729
#
# Poissons Ratio (x) = 0.38779 0.95483
# Poissons Ratio (y) = 0.22593 0.46298
# Poissons Ratio (z) = 0.24414 0.20318
#
# Static dielectric constant tensor:
#      x y z
#    x 1.660310 0.000000 0.000000 
#    y 0.000000 1.678900 0.000000 
#    z 0.000000 0.000000 1.652970 
# 
# From -- ./inp_files/29621.got.cif
#   From: 2010.05.17/outbox.cif.g08.bks.cpg/sg51_15_cif.got.tgz:29621.got - 2010.06.03 11:52:47.
