data_PCOD9405950
_publ_section_title
;
Structure prediction by ZEFSAII (Michael W. Deem and Ramdas Pophale) SiO2 
 PCOD9405950
Probable space group: P M M A
;
_chemical_formula_sum "Si O2"
_cell_formula_units_Z 48
_cell_length_a 8.986762
_cell_length_b 14.050504
_cell_length_c 20.152480
_cell_angle_alpha 90.000000
_cell_angle_beta 90.000000
_cell_angle_gamma 90.000000
_cell_volume 2544.624135
_symmetry_space_group_name_H-M "P M M A"
_symmetry_group_IT_number 51
_symmetry_cell_setting 'orthorhombic'
loop_
_space_group_symop_operation_xyz
x,y,z
1/2-x,-y,z
1/2+x,-y,-z
-x,y,-z
-x,-y,-z
1/2+x,y,-z
1/2-x,y,z
x,-y,z
loop_
_atom_site_type_symbol
_atom_site_label
_atom_site_fract_x
_atom_site_fract_y
_atom_site_fract_z
Si Si1 0.429856 0.108131 0.572692
Si Si2 0.920805 0.384266 0.069420
Si Si3 0.423695 0.886776 0.209916
Si Si4 0.082195 0.115745 0.064629
Si Si5 0.927484 0.387690 0.790037
Si Si6 0.925235 0.242582 0.310133
O O1 0.500000 0.117928 0.500000
O O2 0.250000 0.110091 0.568989
O O3 0.475498 0.196647 0.619659
O O4 0.470800 0.000000 0.596982
O O5 0.750000 0.350659 0.070320
O O6 0.918919 0.500000 0.069316
O O7 0.002663 0.358392 0.138540
O O8 0.000000 0.357536 0.000000
O O9 0.250000 0.855142 0.219126
O O10 0.477813 0.859314 0.136460
O O11 0.536733 0.844342 0.261516
O O12 0.420088 0.000000 0.213837
O O13 0.250000 0.149982 0.062415
O O14 0.084943 0.000000 0.062585
O O15 0.000000 0.148890 0.000000
O O16 0.750000 0.375260 0.793682
O O17 0.959242 0.500000 0.781223
O O18 0.991990 0.328845 0.727572
O O19 0.750000 0.263284 0.313620
#
# Coordination Sequence:
#
# PCOD9405950 Si02
#       6
#     8   8   8   8   8   8
#     4   9  19  36  58  86 118 148 177 211 256 314
#     4   9  16  28  49  76 105 138 178 227 284 340
#     4   9  18  32  49  71 101 136 173 213 259 314
#     4   8  14  25  41  61  87 123 167 211 253 298
#     4  10  21  37  56  78 106 143 188 235 281 331
#     4  11  22  35  54  81 111 140 174 219 269 323
#
# _framework density 18.863295999999998
#
# number of rings (size 3 to 8) (size 9 to 14) (size 15 to 20)
#    0.000    2.667    0.000    3.000    0.000    6.000 
#    0.000    4.167    0.000    2.500    0.000    0.000 
#    0.000    0.000    0.000    0.000    0.000    0.000 
#
# Total GULP energy -267539.667666 kJ/mol
# GULP energy per Si atom -5573.743076 kJ/mol
# Density = 1.882036 g / cm^3
# Si number density = 18.863296 Si / 1000 Ang^3
#
#
#
# Elastic Constant Matrix: (Units=GPa)
#
#
# Indices 1 2 3 4 5 6 
#
# 1 49.8097 28.4166 42.7158 0.0000 0.0000 0.0000
# 2 28.4166 103.7856 45.2717 0.0000 0.0000 0.0000
# 3 42.7158 45.2717 117.6633 0.0000 0.0000 0.0000
# 4 0.0000 0.0000 0.0000 60.8297 0.0000 0.0000
# 5 0.0000 0.0000 0.0000 0.0000 30.7534 0.0000
# 6 0.0000 0.0000 0.0000 0.0000 0.0000 20.7178
#
#
#
# Elastic Compliance Matrix: (Units=1/GPa)
#
#
# Indices 1 2 3 4 5 6 
#
# 1 0.030637 -0.004250 -0.009487 0.000000 0.000000 0.000000
# 2 -0.004250 0.012168 -0.003139 0.000000 0.000000 0.000000
# 3 -0.009487 -0.003139 0.013151 0.000000 0.000000 0.000000
# 4 0.000000 0.000000 0.000000 0.016439 0.000000 0.000000
# 5 0.000000 0.000000 0.000000 0.000000 0.032517 0.000000
# 6 0.000000 0.000000 0.000000 0.000000 0.000000 0.048268
#
#
# Mechanical properties :
#
#
# Convention : Reuss Voigt Hill
#
# Bulk Modulus (GPa) = 45.03738 56.00742 50.52240
# Shear Modulus (GPa) = 25.72906 32.78381 29.25643
#
# Velocity S-wave (km/s) = 3.69721 4.17342 3.94251
# Velocity P-wave (km/s) = 6.49256 7.27866 6.89682
#
# Compressibility (1/GPa) = 0.02220378
#
# Stress axis : x y z
#
# Youngs Moduli (GPa) = 32.64020 82.18206 76.04209
#
# Poissons Ratio (x) = 0.34929 0.72141
# Poissons Ratio (y) = 0.13873 0.23868
# Poissons Ratio (z) = 0.30966 0.25795
#
# Static dielectric constant tensor:
#      x y z
#    x 1.652620 0.000000 0.000000 
#    y 0.000000 1.736400 0.000000 
#    z 0.000000 0.000000 1.659500 
# 
# From -- ./inp_files/27563.got.cif
#   From: 2010.05.17/outbox.cif.g08.bks.cpg/sg51_14_cif.got.tgz:27563.got - 2010.06.03 11:52:47.
