data_PCOD9405073
_publ_section_title
;
Structure prediction by ZEFSAII (Michael W. Deem and Ramdas Pophale) SiO2 
 PCOD9405073
Probable space group: P M M A
;
_chemical_formula_sum "Si O2"
_cell_formula_units_Z 48
_cell_length_a 15.760076
_cell_length_b 10.466760
_cell_length_c 14.063320
_cell_angle_alpha 90.000000
_cell_angle_beta 90.000000
_cell_angle_gamma 90.000000
_cell_volume 2319.842136
_symmetry_space_group_name_H-M "P M M A"
_symmetry_group_IT_number 51
_symmetry_cell_setting 'orthorhombic'
loop_
_space_group_symop_operation_xyz
x,y,z
1/2-x,-y,z
1/2+x,-y,-z
-x,y,-z
-x,-y,-z
1/2+x,y,-z
1/2-x,y,z
x,-y,z
loop_
_atom_site_type_symbol
_atom_site_label
_atom_site_fract_x
_atom_site_fract_y
_atom_site_fract_z
Si Si1 0.852739 0.272631 0.340360
Si Si2 0.146050 0.000000 0.583091
Si Si3 0.099337 0.500000 0.518532
Si Si4 0.851506 0.641968 0.133061
Si Si5 0.646477 0.000000 0.635434
Si Si6 0.646810 0.228971 0.771610
Si Si7 0.600082 0.856862 0.983203
Si Si8 0.349928 0.500000 0.301012
O O1 0.750000 0.269601 0.337315
O O2 0.882117 0.130334 0.366649
O O3 0.876491 0.375726 0.420132
O O4 0.884290 0.316817 0.236956
O O5 0.118454 0.000000 0.473336
O O6 0.250000 0.000000 0.583870
O O7 0.141671 0.500000 0.414814
O O8 0.000000 0.500000 0.500000
O O9 0.750000 0.632542 0.141921
O O10 0.883850 0.500000 0.107351
O O11 0.867754 0.749717 0.055357
O O12 0.619569 0.874748 0.693337
O O13 0.750000 0.000000 0.634193
O O14 0.750000 0.230378 0.771013
O O15 0.618847 0.185084 0.875618
O O16 0.614709 0.369328 0.742963
O O17 0.635816 0.000000 0.999543
O O18 0.500000 0.863510 0.000000
O O19 0.250000 0.500000 0.278194
#
# Coordination Sequence:
#
# PCOD9405073 Si02
#       8
#     8   4   4   8   4   8   8   4
#     4  10  20  39  63  89 122 156 201 259 302 347
#     4   9  18  32  60  93 116 148 197 249 306 355
#     4  12  24  38  59  88 127 168 203 238 294 362
#     4  10  22  40  65  92 117 154 203 255 304 350
#     4   9  16  30  54  83 113 146 185 237 296 343
#     4  10  20  37  60  86 116 149 195 252 298 342
#     4  11  25  42  60  86 123 164 198 239 302 370
#     4  10  22  38  62  90 114 150 198 246 296 352
#
# _framework density 20.691063
#
# number of rings (size 3 to 8) (size 9 to 14) (size 15 to 20)
#    0.000    1.833    1.667    2.250    2.333    5.333 
#    0.000    0.417    0.000    0.000    0.000    0.000 
#    0.000    0.000    0.000    0.000    0.000    0.000 
#
# Total GULP energy -268229.890253 kJ/mol
# GULP energy per Si atom -5588.122714 kJ/mol
# Density = 2.064397 g / cm^3
# Si number density = 20.691063 Si / 1000 Ang^3
#
#
#
# Elastic Constant Matrix: (Units=GPa)
#
#
# Indices 1 2 3 4 5 6 
#
# 1 11.3027 9.8646 -3.3807 0.0000 0.0000 0.0000
# 2 9.8646 228.4809 84.2133 0.0000 0.0000 0.0000
# 3 -3.3807 84.2133 104.4838 0.0000 0.0000 0.0000
# 4 0.0000 0.0000 0.0000 49.3321 0.0000 0.0000
# 5 0.0000 0.0000 0.0000 0.0000 -59.1304 0.0000
# 6 0.0000 0.0000 0.0000 0.0000 0.0000 -52.4741
#
#
#
# Elastic Compliance Matrix: (Units=1/GPa)
#
#
# Indices 1 2 3 4 5 6 
#
# 1 0.097977 -0.007680 0.009360 0.000000 0.000000 0.000000
# 2 -0.007680 0.006828 -0.005752 0.000000 0.000000 0.000000
# 3 0.009360 -0.005752 0.014510 0.000000 0.000000 0.000000
# 4 0.000000 0.000000 0.000000 0.020271 0.000000 0.000000
# 5 0.000000 0.000000 0.000000 0.000000 -0.016912 0.000000
# 6 0.000000 0.000000 0.000000 0.000000 0.000000 -0.019057
#
#
# Mechanical properties :
#
#
# Convention : Reuss Voigt Hill
#
# Bulk Modulus (GPa) = 8.99512 58.40688 33.70100
# Shear Modulus (GPa) = 33.59794 4.45022 19.02408
#
# Velocity S-wave (km/s) = 4.03400 1.46815 3.03551
# Velocity P-wave (km/s) = 5.10434 5.58241 5.34872
#
# Compressibility (1/GPa) = 0.11117135
#
# Stress axis : x y z
#
# Youngs Moduli (GPa) = 10.20647 146.44599 68.91827
#
# Poissons Ratio (x) = 1.12473 -0.64509
# Poissons Ratio (y) = 0.07839 0.39643
# Poissons Ratio (z) = -0.09554 0.84238
#
# Static dielectric constant tensor:
#      x y z
#    x 1.742240 0.000000 0.000000 
#    y 0.000000 1.753990 0.000000 
#    z 0.000000 0.000000 1.694420 
# 
# From -- ./inp_files/25044.got.cif
#   From: 2010.05.17/outbox.cif.g08.bks.cpg/sg51_13_cif.got.tgz:25044.got - 2010.06.03 11:52:47.
