data_PCOD9405094
_publ_section_title
;
Structure prediction by ZEFSAII (Michael W. Deem and Ramdas Pophale) SiO2 
 PCOD9405094
Probable space group: P M M A
;
_chemical_formula_sum "Si O2"
_cell_formula_units_Z 48
_cell_length_a 16.137760
_cell_length_b 9.031183
_cell_length_c 16.921535
_cell_angle_alpha 90.000000
_cell_angle_beta 90.000000
_cell_angle_gamma 90.000000
_cell_volume 2466.196355
_symmetry_space_group_name_H-M "P M M A"
_symmetry_group_IT_number 51
_symmetry_cell_setting 'orthorhombic'
loop_
_space_group_symop_operation_xyz
x,y,z
1/2-x,-y,z
1/2+x,-y,-z
-x,y,-z
-x,-y,-z
1/2+x,y,-z
1/2-x,y,z
x,-y,z
loop_
_atom_site_type_symbol
_atom_site_label
_atom_site_fract_x
_atom_site_fract_y
_atom_site_fract_z
Si Si1 0.901919 0.325381 0.832626
Si Si2 0.348805 0.828683 0.008318
Si Si3 0.342723 0.176269 0.674053
Si Si4 0.842236 0.823117 0.678026
Si Si5 0.575556 0.825302 0.162442
Si Si6 0.498797 0.673650 0.405611
O O1 0.891980 0.500000 0.823480
O O2 0.877575 0.273350 0.920204
O O3 0.849441 0.239660 0.766737
O O4 0.996417 0.274501 0.819756
O O5 0.250000 0.820380 0.000038
O O6 0.370948 0.000000 0.027153
O O7 0.389869 0.791923 0.924403
O O8 0.250000 0.226574 0.652612
O O9 0.358115 0.195543 0.767958
O O10 0.417570 0.256610 0.629924
O O11 0.348282 0.000000 0.658209
O O12 0.750000 0.788013 0.646598
O O13 0.917568 0.752636 0.629496
O O14 0.851746 0.000000 0.679552
O O15 0.551592 0.000000 0.164053
O O16 0.500000 0.689401 0.500000
O O17 0.495102 0.500000 0.385274
#
# Coordination Sequence:
#
# PCOD9405094 Si02
#       6
#     8   8   8   8   8   8
#     4  12  24  37  57  87 124 164 207 255 313 372
#     4  10  21  37  57  83 117 160 211 259 304 360
#     4  10  21  39  66  97 127 164 211 259 308 365
#     4  11  24  43  68  95 123 162 213 264 313 368
#     4  10  20  37  61  87 119 161 209 258 307 360
#     4  11  25  44  66  95 131 167 202 248 311 379
#
# _framework density 19.463170000000002
#
# number of rings (size 3 to 8) (size 9 to 14) (size 15 to 20)
#    0.000    1.333    1.667    4.000    0.000   10.667 
#    0.000    3.333    0.000    3.000    0.000    0.000 
#    0.000    0.000    0.000    0.000    0.000    0.000 
#
# Total GULP energy -268374.792313 kJ/mol
# GULP energy per Si atom -5591.141507 kJ/mol
# Density = 1.941887 g / cm^3
# Si number density = 19.463170 Si / 1000 Ang^3
#
#
#
# Elastic Constant Matrix: (Units=GPa)
#
#
# Indices 1 2 3 4 5 6 
#
# 1 161.6258 75.3294 52.5496 0.0000 0.0000 0.0000
# 2 75.3294 87.0965 52.2520 0.0000 0.0000 0.0000
# 3 52.5496 52.2520 77.2484 0.0000 0.0000 0.0000
# 4 0.0000 0.0000 0.0000 34.4108 0.0000 0.0000
# 5 0.0000 0.0000 0.0000 0.0000 5.1986 0.0000
# 6 0.0000 0.0000 0.0000 0.0000 0.0000 -69.5092
#
#
#
# Elastic Compliance Matrix: (Units=1/GPa)
#
#
# Indices 1 2 3 4 5 6 
#
# 1 0.010494 -0.008067 -0.001682 0.000000 0.000000 0.000000
# 2 -0.008067 0.025524 -0.011777 0.000000 0.000000 0.000000
# 3 -0.001682 -0.011777 0.022056 0.000000 0.000000 0.000000
# 4 0.000000 0.000000 0.000000 0.029061 0.000000 0.000000
# 5 0.000000 0.000000 0.000000 0.000000 0.192361 0.000000
# 6 0.000000 0.000000 0.000000 0.000000 0.000000 -0.014387
#
#
# Mechanical properties :
#
#
# Convention : Reuss Voigt Hill
#
# Bulk Modulus (GPa) = 66.57190 76.24808 71.40999
# Shear Modulus (GPa) = 15.96588 3.74269 9.85429
#
# Velocity S-wave (km/s) = 2.86722 1.38821 2.25256
# Velocity P-wave (km/s) = 6.72603 6.46762 6.59809
#
# Compressibility (1/GPa) = 0.01502135
#
# Stress axis : x y z
#
# Youngs Moduli (GPa) = 95.29455 39.17868 45.33970
#
# Poissons Ratio (x) = 0.31605 0.07626
# Poissons Ratio (y) = 0.76874 0.53397
# Poissons Ratio (z) = 0.16028 0.46141
#
# Static dielectric constant tensor:
#      x y z
#    x 1.678920 0.000000 0.000000 
#    y 0.000000 1.652230 0.000000 
#    z 0.000000 0.000000 1.674450 
# 
# From -- ./inp_files/29412.got.cif
#   From: 2010.05.17/outbox.cif.g08.bks.cpg/sg51_15_cif.got.tgz:29412.got - 2010.06.03 11:52:47.
