data_PCOD9405882
_publ_section_title
;
Structure prediction by ZEFSAII (Michael W. Deem and Ramdas Pophale) SiO2 
 PCOD9405882
Probable space group: P M M A
;
_chemical_formula_sum "Si O2"
_cell_formula_units_Z 64
_cell_length_a 14.948108
_cell_length_b 24.826591
_cell_length_c 9.327729
_cell_angle_alpha 90.000000
_cell_angle_beta 90.000000
_cell_angle_gamma 90.000000
_cell_volume 3461.618766
_symmetry_space_group_name_H-M "P M M A"
_symmetry_group_IT_number 51
_symmetry_cell_setting 'orthorhombic'
loop_
_space_group_symop_operation_xyz
x,y,z
1/2-x,-y,z
1/2+x,-y,-z
-x,y,-z
-x,-y,-z
1/2+x,y,-z
1/2-x,y,z
x,-y,z
loop_
_atom_site_type_symbol
_atom_site_label
_atom_site_fract_x
_atom_site_fract_y
_atom_site_fract_z
Si Si1 0.851852 0.726275 0.986551
Si Si2 0.495174 0.367504 0.663368
Si Si3 0.645433 0.064310 0.334026
Si Si4 0.643158 0.063601 0.666781
Si Si5 0.502630 0.750517 0.228562
Si Si6 0.001426 0.868569 0.827201
Si Si7 0.648772 0.395980 0.881283
Si Si8 0.357060 0.559968 0.821586
O O1 0.750000 0.745587 0.000479
O O2 0.849788 0.662342 0.959067
O O3 0.906730 0.748894 0.851913
O O4 0.915490 0.738990 0.119523
O O5 0.500000 0.384335 0.500000
O O6 0.495818 0.302212 0.672200
O O7 0.578815 0.390099 0.754149
O O8 0.408908 0.393774 0.737605
O O9 0.750000 0.077723 0.315593
O O10 0.620817 0.076673 0.500152
O O11 0.584136 0.094469 0.220599
O O12 0.635777 0.000000 0.318080
O O13 0.750000 0.070311 0.683721
O O14 0.586752 0.100139 0.774206
O O15 0.622815 0.000000 0.688275
O O16 0.511747 0.813167 0.263525
O O17 0.000000 0.858341 0.000000
O O18 0.750000 0.408228 0.833167
O O19 0.621272 0.435453 0.009153
O O20 0.250000 0.567048 0.810198
O O21 0.380601 0.500000 0.769642
#
# Coordination Sequence:
#
# PCOD9405882 Si02
#       8
#     8   8   8   8   8   8   8   8
#     4   9  16  33  58  75  98 142 191 232 269 318
#     4  11  23  37  58  85 121 157 189 232 291 344
#     4   9  20  40  61  79 106 149 196 234 276 340
#     4   9  20  40  62  80 106 153 200 233 277 343
#     4  10  21  37  51  82 114 150 191 225 275 347
#     4  12  23  34  54  90 119 144 181 238 299 342
#     4   9  18  35  60  84 108 145 194 238 277 332
#     4  10  21  38  62  89 114 149 199 244 282 334
#
# _framework density 18.488461000000001
#
# number of rings (size 3 to 8) (size 9 to 14) (size 15 to 20)
#    0.000    2.125    2.500    1.875    0.000    6.250 
#    0.000    1.250    0.000    1.500    0.000    0.000 
#    0.000    0.000    0.000    0.000    0.000    0.000 
#
# Total GULP energy -356740.481153 kJ/mol
# GULP energy per Si atom -5574.070018 kJ/mol
# Density = 1.844638 g / cm^3
# Si number density = 18.488461 Si / 1000 Ang^3
#
#
#
# Elastic Constant Matrix: (Units=GPa)
#
#
# Indices 1 2 3 4 5 6 
#
# 1 87.5629 27.6302 40.7561 0.0000 0.0000 0.0000
# 2 27.6302 59.4584 34.0619 0.0000 0.0000 0.0000
# 3 40.7561 34.0619 79.4819 0.0000 0.0000 0.0000
# 4 0.0000 0.0000 0.0000 -2.8150 0.0000 0.0000
# 5 0.0000 0.0000 0.0000 0.0000********** 0.0000
# 6 0.0000 0.0000 0.0000 0.0000 0.0000 38.0007
#
#
#
# Elastic Compliance Matrix: (Units=1/GPa)
#
#
# Indices 1 2 3 4 5 6 
#
# 1 0.015537 -0.003520 -0.006458 0.000000 0.000000 0.000000
# 2 -0.003520 0.023089 -0.008089 0.000000 0.000000 0.000000
# 3 -0.006458 -0.008089 0.019360 0.000000 0.000000 0.000000
# 4 0.000000 0.000000 0.000000 -0.355241 0.000000 0.000000
# 5 0.000000 0.000000 0.000000 0.000000 -0.000028 0.000000
# 6 0.000000 0.000000 0.000000 0.000000 0.000000 0.026315
#
#
# Mechanical properties :
#
#
# Convention : Reuss Voigt Hill
#
# Bulk Modulus (GPa) = 45.76800 47.93327 46.85063
# Shear Modulus (GPa) = -21.97336 -7130.11194 -3576.04265
#
# Velocity S-wave (km/s) = -3.45119 -62.16826 -44.02728
# Velocity P-wave (km/s) = 2.98792 71.60452 50.58794
#
# Compressibility (1/GPa) = 0.02184933
#
# Stress axis : x y z
#
# Youngs Moduli (GPa) = 64.36141 43.31152 51.65307
#
# Poissons Ratio (x) = 0.15247 0.33360
# Poissons Ratio (y) = 0.22657 0.41785
# Poissons Ratio (z) = 0.41568 0.35037
#
# Static dielectric constant tensor:
#      x y z
#    x 1.639750 0.000000 0.000000 
#    y 0.000000 1.668210 0.000000 
#    z 0.000000 0.000000 1.634680 
# 
# From -- ./inp_files/8744.got.cif
#   From: 2010.05.17/outbox.cif.g08.bks.cpg/sg51_5_cif.got.tgz:8744.got - 2010.06.03 11:52:47.
