data_PCOD9405771
_publ_section_title
;
Structure prediction by ZEFSAII (Michael W. Deem and Ramdas Pophale) SiO2 
 PCOD9405771
Probable space group: P M M A
;
_chemical_formula_sum "Si O2"
_cell_formula_units_Z 56
_cell_length_a 8.939655
_cell_length_b 19.795156
_cell_length_c 16.097387
_cell_angle_alpha 90.000000
_cell_angle_beta 90.000000
_cell_angle_gamma 90.000000
_cell_volume 2848.623630
_symmetry_space_group_name_H-M "P M M A"
_symmetry_group_IT_number 51
_symmetry_cell_setting 'orthorhombic'
loop_
_space_group_symop_operation_xyz
x,y,z
1/2-x,-y,z
1/2+x,-y,-z
-x,y,-z
-x,-y,-z
1/2+x,y,-z
1/2-x,y,z
x,-y,z
loop_
_atom_site_type_symbol
_atom_site_label
_atom_site_fract_x
_atom_site_fract_y
_atom_site_fract_z
Si Si1 0.570261 0.348826 0.413515
Si Si2 0.075875 0.790018 0.848402
Si Si3 0.071105 0.657731 0.085452
Si Si4 0.428877 0.075535 0.091844
Si Si5 0.576073 0.206766 0.344521
Si Si6 0.428344 0.074538 0.408639
Si Si7 0.928523 0.579937 0.745741
O O1 0.500000 0.373105 0.500000
O O2 0.750000 0.351683 0.416809
O O3 0.524779 0.270364 0.398847
O O4 0.512078 0.389531 0.333752
O O5 0.250000 0.791522 0.873525
O O6 0.067393 0.771532 0.751370
O O7 0.988090 0.733678 0.899717
O O8 0.003549 0.863434 0.859207
O O9 0.250000 0.657372 0.078784
O O10 0.027379 0.615428 0.167532
O O11 0.000000 0.631494 0.000000
O O12 0.250000 0.084444 0.087158
O O13 0.458060 0.000000 0.126007
O O14 0.500000 0.077749 0.000000
O O15 0.750000 0.192956 0.364210
O O16 0.485794 0.138485 0.358218
O O17 0.500000 0.079217 0.500000
O O18 0.250000 0.077522 0.415553
O O19 0.468744 0.000000 0.374198
O O20 0.750000 0.591416 0.735038
O O21 0.954534 0.500000 0.751167
#
# Coordination Sequence:
#
# PCOD9405771 Si02
#       7
#     8   8   8   8   8   8   8
#     4  11  23  41  65  95 128 165 210 255 308 367
#     4  11  22  38  59  85 119 156 202 255 306 363
#     4  11  23  40  65  94 127 166 207 253 306 364
#     4  10  21  37  56  80 112 152 200 252 307 366
#     4  10  22  38  58  85 117 155 201 253 305 362
#     4  10  21  36  55  80 112 152 199 250 304 363
#     4  10  23  44  68  96 129 164 205 252 303 363
#
# _framework density 19.658615999999999
#
# number of rings (size 3 to 8) (size 9 to 14) (size 15 to 20)
#    0.000    1.571    1.429    3.000    0.000    7.143 
#    0.000    2.857    0.000    0.000    0.000    0.000 
#    0.000    0.000    0.000    0.000    0.000    0.000 
#
# Total GULP energy -312925.209791 kJ/mol
# GULP energy per Si atom -5587.950175 kJ/mol
# Density = 1.961387 g / cm^3
# Si number density = 19.658616 Si / 1000 Ang^3
#
#
#
# Elastic Constant Matrix: (Units=GPa)
#
#
# Indices 1 2 3 4 5 6 
#
# 1 69.5980 45.8645 49.8613 0.0000 0.0000 0.0000
# 2 45.8645 94.3759 55.7160 0.0000 0.0000 0.0000
# 3 49.8613 55.7160 119.1408 0.0000 0.0000 0.0000
# 4 0.0000 0.0000 0.0000 11.6861 0.0000 0.0000
# 5 0.0000 0.0000 0.0000 0.0000 33.4265 0.0000
# 6 0.0000 0.0000 0.0000 0.0000 0.0000 25.8102
#
#
#
# Elastic Compliance Matrix: (Units=1/GPa)
#
#
# Indices 1 2 3 4 5 6 
#
# 1 0.024219 -0.007993 -0.006398 0.000000 0.000000 0.000000
# 2 -0.007993 0.017275 -0.004733 0.000000 0.000000 0.000000
# 3 -0.006398 -0.004733 0.013285 0.000000 0.000000 0.000000
# 4 0.000000 0.000000 0.000000 0.085572 0.000000 0.000000
# 5 0.000000 0.000000 0.000000 0.000000 0.029916 0.000000
# 6 0.000000 0.000000 0.000000 0.000000 0.000000 0.038744
#
#
# Mechanical properties :
#
#
# Convention : Reuss Voigt Hill
#
# Bulk Modulus (GPa) = 60.49645 65.11091 62.80368
# Shear Modulus (GPa) = 19.78088 22.96274 21.37181
#
# Velocity S-wave (km/s) = 3.17554 3.42142 3.30077
# Velocity P-wave (km/s) = 6.65475 6.98576 6.82226
#
# Compressibility (1/GPa) = 0.01652989
#
# Stress axis : x y z
#
# Youngs Moduli (GPa) = 41.28974 57.88827 75.27473
#
# Poissons Ratio (x) = 0.46269 0.48161
# Poissons Ratio (y) = 0.33002 0.35631
# Poissons Ratio (z) = 0.26418 0.27401
#
# Static dielectric constant tensor:
#      x y z
#    x 1.661140 0.000000 0.000000 
#    y 0.000000 1.684090 0.000000 
#    z 0.000000 0.000000 1.691040 
# 
# From -- ./inp_files/21845.got.cif
#   From: 2010.05.17/outbox.cif.g08.bks.cpg/sg51_11_cif.got.tgz:21845.got - 2010.06.03 11:52:47.
