data_PCOD9405577
_publ_section_title
;
Structure prediction by ZEFSAII (Michael W. Deem and Ramdas Pophale) SiO2 
 PCOD9405577
Probable space group: P M M A
;
_chemical_formula_sum "Si O2"
_cell_formula_units_Z 56
_cell_length_a 16.110621
_cell_length_b 8.903170
_cell_length_c 20.182162
_cell_angle_alpha 90.000000
_cell_angle_beta 90.000000
_cell_angle_gamma 90.000000
_cell_volume 2894.840467
_symmetry_space_group_name_H-M "P M M A"
_symmetry_group_IT_number 51
_symmetry_cell_setting 'orthorhombic'
loop_
_space_group_symop_operation_xyz
x,y,z
1/2-x,-y,z
1/2+x,-y,-z
-x,y,-z
-x,-y,-z
1/2+x,y,-z
1/2-x,y,z
x,-y,z
loop_
_atom_site_type_symbol
_atom_site_label
_atom_site_fract_x
_atom_site_fract_y
_atom_site_fract_z
Si Si1 0.099288 0.324947 0.710542
Si Si2 0.350346 0.324760 0.439169
Si Si3 0.004085 0.681352 0.922769
Si Si4 0.096712 0.677981 0.296775
Si Si5 0.341130 0.316476 0.157409
Si Si6 0.850425 0.828325 0.424845
Si Si7 0.342958 0.820672 0.843472
O O1 0.120957 0.500000 0.717796
O O2 0.120870 0.268930 0.637338
O O3 0.143849 0.231223 0.767658
O O4 0.000327 0.309200 0.719210
O O5 0.250000 0.320219 0.436193
O O6 0.375202 0.500000 0.445686
O O7 0.383500 0.260697 0.369602
O O8 0.378279 0.237800 0.504659
O O9 0.008564 0.500000 0.917649
O O10 0.084552 0.747680 0.886907
O O11 0.919625 0.731369 0.886068
O O12 0.000000 0.721603 0.000000
O O13 0.117193 0.500000 0.301758
O O14 0.146138 0.736101 0.233222
O O15 0.250000 0.271360 0.132856
O O16 0.343159 0.500000 0.158314
O O17 0.750000 0.825928 0.425285
O O18 0.877900 0.000000 0.416786
O O19 0.250000 0.775411 0.864855
O O20 0.349171 0.000000 0.846990
#
# Coordination Sequence:
#
# PCOD9405577 Si02
#       7
#     8   8   8   8   8   8   8
#     4  11  21  35  57  83 111 144 190 247 298 345
#     4   9  17  31  52  76 101 136 185 235 282 338
#     4  10  21  38  62  94 127 156 193 241 289 342
#     4   9  17  30  51  80 109 139 182 239 293 340
#     4   9  16  30  55  86 118 151 189 235 289 344
#     4  10  21  36  51  71 105 146 186 232 289 351
#     4  11  24  41  61  86 119 162 205 243 292 352
#
# _framework density 19.344763
#
# number of rings (size 3 to 8) (size 9 to 14) (size 15 to 20)
#    0.000    2.143    1.429    2.143    0.000    6.857 
#    0.000    5.714    0.000    0.429    0.000    0.000 
#    0.000    0.000    0.000    0.000    0.000    0.000 
#
# Total GULP energy -312602.326362 kJ/mol
# GULP energy per Si atom -5582.184399 kJ/mol
# Density = 1.930073 g / cm^3
# Si number density = 19.344763 Si / 1000 Ang^3
#
#
#
# Elastic Constant Matrix: (Units=GPa)
#
#
# Indices 1 2 3 4 5 6 
#
# 1 97.2149 26.4942 72.3777 0.0000 0.0000 0.0000
# 2 26.4942 19.4929 15.7057 0.0000 0.0000 0.0000
# 3 72.3777 15.7057 126.5419 0.0000 0.0000 0.0000
# 4 0.0000 0.0000 0.0000 -11.7149 0.0000 0.0000
# 5 0.0000 0.0000 0.0000 0.0000 1.3796 0.0000
# 6 0.0000 0.0000 0.0000 0.0000 0.0000 14.0351
#
#
#
# Elastic Compliance Matrix: (Units=1/GPa)
#
#
# Indices 1 2 3 4 5 6 
#
# 1 0.026083 -0.026035 -0.011687 0.000000 0.000000 0.000000
# 2 -0.026035 0.082987 0.004591 0.000000 0.000000 0.000000
# 3 -0.011687 0.004591 0.014018 0.000000 0.000000 0.000000
# 4 0.000000 0.000000 0.000000 -0.085361 0.000000 0.000000
# 5 0.000000 0.000000 0.000000 0.000000 0.724852 0.000000
# 6 0.000000 0.000000 0.000000 0.000000 0.000000 0.071250
#
#
# Mechanical properties :
#
#
# Convention : Reuss Voigt Hill
#
# Bulk Modulus (GPa) = 17.59768 52.48942 35.04355
# Shear Modulus (GPa) = 5.44050 9.31811 7.37930
#
# Velocity S-wave (km/s) = 1.67884 2.19712 1.95523
# Velocity P-wave (km/s) = 3.58812 5.79905 4.82201
#
# Compressibility (1/GPa) = 0.05682568
#
# Stress axis : x y z
#
# Youngs Moduli (GPa) = 38.33879 12.05005 71.33935
#
# Poissons Ratio (x) = 0.31372 0.83377
# Poissons Ratio (y) = 0.99814 -0.32753
# Poissons Ratio (z) = 0.44808 -0.05532
#
# Static dielectric constant tensor:
#      x y z
#    x 1.682610 0.000000 0.000000 
#    y 0.000000 1.656100 0.000000 
#    z 0.000000 0.000000 1.667220 
# 
# From -- ./inp_files/33425.got.cif
#   From: 2010.05.17/outbox.cif.g08.bks.cpg/sg51_17_cif.got.tgz:33425.got - 2010.06.03 11:52:47.
