data_PCOD9405892
_publ_section_title
;
Structure prediction by ZEFSAII (Michael W. Deem and Ramdas Pophale) SiO2 
 PCOD9405892
Probable space group: P M M A
;
_chemical_formula_sum "Si O2"
_cell_formula_units_Z 44
_cell_length_a 9.033843
_cell_length_b 7.459657
_cell_length_c 34.995624
_cell_angle_alpha 90.000000
_cell_angle_beta 90.000000
_cell_angle_gamma 90.000000
_cell_volume 2358.333060
_symmetry_space_group_name_H-M "P M M A"
_symmetry_group_IT_number 51
_symmetry_cell_setting 'orthorhombic'
loop_
_space_group_symop_operation_xyz
x,y,z
1/2-x,-y,z
1/2+x,-y,-z
-x,y,-z
-x,-y,-z
1/2+x,y,-z
1/2-x,y,z
x,-y,z
loop_
_atom_site_type_symbol
_atom_site_label
_atom_site_fract_x
_atom_site_fract_y
_atom_site_fract_z
Si Si1 0.572212 0.500000 0.458673
Si Si2 0.571537 0.500000 0.101948
Si Si3 0.580294 0.782018 0.682099
Si Si4 0.073081 0.789276 0.603636
Si Si5 0.573209 0.500000 0.815219
Si Si6 0.572630 0.207781 0.039656
Si Si7 0.574600 0.785814 0.239089
O O1 0.750000 0.500000 0.462913
O O2 0.500000 0.500000 0.500000
O O3 0.530745 0.328205 0.432898
O O4 0.750000 0.500000 0.108210
O O5 0.489013 0.500000 0.141938
O O6 0.532667 0.329208 0.075676
O O7 0.750000 0.722917 0.685468
O O8 0.508196 0.726403 0.642092
O O9 0.486842 0.730599 0.719281
O O10 0.579455 0.000000 0.681498
O O11 0.250000 0.770285 0.609409
O O12 0.041543 0.000000 0.597741
O O13 0.750000 0.500000 0.814624
O O14 0.509978 0.672181 0.792668
O O15 0.750000 0.218214 0.035340
O O16 0.531089 0.000000 0.045606
O O17 0.500000 0.269162 0.000000
O O18 0.750000 0.752390 0.236874
O O19 0.550499 0.000000 0.234672
#
# Coordination Sequence:
#
# PCOD9405892 Si02
#       7
#     4   4   8   8   4   8   8
#     4  10  22  37  52  73 100 132 172 214 256 310
#     4  10  21  37  54  75 108 147 187 228 271 328
#     4   9  17  31  54  84 113 139 173 221 274 322
#     4   9  18  34  54  75 102 136 172 211 259 316
#     4  12  26  40  56  82 115 151 194 240 284 332
#     4   9  18  33  55  82 109 138 175 222 276 331
#     4  10  21  39  62  84 111 150 191 231 277 333
#
# _framework density 18.657246000000001
#
# number of rings (size 3 to 8) (size 9 to 14) (size 15 to 20)
#    0.000    2.364    0.000    2.182    0.000    6.545 
#    0.000    4.545    0.000    0.000    0.000    0.000 
#    0.000    0.000    0.000    0.000    0.000    0.000 
#
# Total GULP energy -245724.315738 kJ/mol
# GULP energy per Si atom -5584.643540 kJ/mol
# Density = 1.861478 g / cm^3
# Si number density = 18.657246 Si / 1000 Ang^3
#
#
#
# Elastic Constant Matrix: (Units=GPa)
#
#
# Indices 1 2 3 4 5 6 
#
# 1 89.4659 56.5181 91.9080 0.0000 0.0000 0.0000
# 2 56.5181 93.2435 82.7149 0.0000 0.0000 0.0000
# 3 91.9080 82.7149 210.5962 0.0000 0.0000 0.0000
# 4 0.0000 0.0000 0.0000 108.8173 0.0000 0.0000
# 5 0.0000 0.0000 0.0000 0.0000 40.2249 0.0000
# 6 0.0000 0.0000 0.0000 0.0000 0.0000 16.4163
#
#
#
# Elastic Compliance Matrix: (Units=1/GPa)
#
#
# Indices 1 2 3 4 5 6 
#
# 1 0.023533 -0.007909 -0.007164 0.000000 0.000000 0.000000
# 2 -0.007909 0.019118 -0.004057 0.000000 0.000000 0.000000
# 3 -0.007164 -0.004057 0.009468 0.000000 0.000000 0.000000
# 4 0.000000 0.000000 0.000000 0.009190 0.000000 0.000000
# 5 0.000000 0.000000 0.000000 0.000000 0.024860 0.000000
# 6 0.000000 0.000000 0.000000 0.000000 0.000000 0.060915
#
#
# Mechanical properties :
#
#
# Convention : Reuss Voigt Hill
#
# Bulk Modulus (GPa) = 72.15589 95.06528 83.61059
# Shear Modulus (GPa) = 26.32071 43.90267 35.11169
#
# Velocity S-wave (km/s) = 3.76007 4.85616 4.34283
# Velocity P-wave (km/s) = 7.59008 9.08335 8.37008
#
# Compressibility (1/GPa) = 0.01385888
#
# Stress axis : x y z
#
# Youngs Moduli (GPa) = 42.49264 52.30768 105.61582
#
# Poissons Ratio (x) = 0.41373 0.75662
# Poissons Ratio (y) = 0.33610 0.42847
# Poissons Ratio (z) = 0.30441 0.21221
#
# Static dielectric constant tensor:
#      x y z
#    x 1.622540 0.000000 0.000000 
#    y 0.000000 1.678410 0.000000 
#    z 0.000000 0.000000 1.595450 
# 
# From -- ./inp_files/36863.got.cif
#   From: 2010.05.17/outbox.cif.g08.bks.cpg/sg51_19_cif.got.tgz:36863.got - 2010.06.03 11:52:47.
