data_PCOD9405035
_publ_section_title
;
Structure prediction by ZEFSAII (Michael W. Deem and Ramdas Pophale) SiO2 
 PCOD9405035
Probable space group: P M M A
;
_chemical_formula_sum "Si O2"
_cell_formula_units_Z 48
_cell_length_a 17.056834
_cell_length_b 9.021015
_cell_length_c 16.663550
_cell_angle_alpha 90.000000
_cell_angle_beta 90.000000
_cell_angle_gamma 90.000000
_cell_volume 2564.019695
_symmetry_space_group_name_H-M "P M M A"
_symmetry_group_IT_number 51
_symmetry_cell_setting 'orthorhombic'
loop_
_space_group_symop_operation_xyz
x,y,z
1/2-x,-y,z
1/2+x,-y,-z
-x,y,-z
-x,-y,-z
1/2+x,y,-z
1/2-x,y,z
x,-y,z
loop_
_atom_site_type_symbol
_atom_site_label
_atom_site_fract_x
_atom_site_fract_y
_atom_site_fract_z
Si Si1 0.386033 0.328205 0.299830
Si Si2 0.589342 0.826329 0.530861
Si Si3 0.838407 0.178182 0.364618
Si Si4 0.250000 0.825105 0.203243
Si Si5 0.441428 0.672582 0.770766
Si Si6 0.919537 0.319356 0.046128
Si Si7 0.750000 0.320633 0.971060
O O1 0.360482 0.500000 0.300967
O O2 0.398875 0.269093 0.389783
O O3 0.324245 0.227020 0.254481
O O4 0.467302 0.320157 0.251399
O O5 0.500000 0.818867 0.500000
O O6 0.640278 0.774389 0.454977
O O7 0.607039 0.000000 0.548295
O O8 0.750000 0.221170 0.345001
O O9 0.895668 0.241332 0.298007
O O10 0.844876 0.000000 0.364830
O O11 0.250000 0.741104 0.118682
O O12 0.250000 0.000000 0.190465
O O13 0.417428 0.500000 0.767625
O O14 0.425945 0.727060 0.860886
O O15 0.920716 0.500000 0.043709
O O16 0.833790 0.274656 0.011304
O O17 0.000000 0.271745 0.000000
O O18 0.750000 0.500000 0.970420
#
# Coordination Sequence:
#
# PCOD9405035 Si02
#       7
#     8   8   8   4   8   8   4
#     4  11  23  39  61  90 121 154 198 251 302 350
#     4  10  20  37  59  82 115 162 208 246 294 354
#     4  10  22  38  56  82 119 162 202 243 294 352
#     4  12  26  42  62  87 120 157 196 241 298 365
#     4  10  21  37  61  90 118 152 197 248 298 353
#     4   9  18  34  58  87 117 150 191 241 300 358
#     4  10  20  38  64  87 114 153 196 245 296 351
#
# _framework density 18.720604999999999
#
# number of rings (size 3 to 8) (size 9 to 14) (size 15 to 20)
#    0.000    1.833    1.667    2.250    2.333    4.667 
#    0.000    0.833    0.000    2.000    0.000    0.000 
#    0.000    0.000    0.000    0.000    0.000    0.000 
#
# Total GULP energy -267931.729550 kJ/mol
# GULP energy per Si atom -5581.911032 kJ/mol
# Density = 1.867800 g / cm^3
# Si number density = 18.720605 Si / 1000 Ang^3
#
#
#
# Elastic Constant Matrix: (Units=GPa)
#
#
# Indices 1 2 3 4 5 6 
#
# 1 91.8117 21.7931 42.9328 0.0000 0.0000 0.0000
# 2 21.7931 20.8064 19.6572 0.0000 0.0000 0.0000
# 3 42.9328 19.6572 128.9746 0.0000 0.0000 0.0000
# 4 0.0000 0.0000 0.0000 4.0631 0.0000 0.0000
# 5 0.0000 0.0000 0.0000 0.0000 8.1795 0.0000
# 6 0.0000 0.0000 0.0000 0.0000 0.0000 23.2703
#
#
#
# Elastic Compliance Matrix: (Units=1/GPa)
#
#
# Indices 1 2 3 4 5 6 
#
# 1 0.015513 -0.013282 -0.003139 0.000000 0.000000 0.000000
# 2 -0.013282 0.067520 -0.005869 0.000000 0.000000 0.000000
# 3 -0.003139 -0.005869 0.009693 0.000000 0.000000 0.000000
# 4 0.000000 0.000000 0.000000 0.246116 0.000000 0.000000
# 5 0.000000 0.000000 0.000000 0.000000 0.122256 0.000000
# 6 0.000000 0.000000 0.000000 0.000000 0.000000 0.042973
#
#
# Mechanical properties :
#
#
# Convention : Reuss Voigt Hill
#
# Bulk Modulus (GPa) = 20.77143 45.59542 33.18342
# Shear Modulus (GPa) = 8.85425 17.58324 13.21875
#
# Velocity S-wave (km/s) = 2.17714 3.06804 2.66015
# Velocity P-wave (km/s) = 4.17606 6.07940 5.21529
#
# Compressibility (1/GPa) = 0.04814306
#
# Stress axis : x y z
#
# Youngs Moduli (GPa) = 64.46330 14.81053 103.16636
#
# Poissons Ratio (x) = 0.19672 0.32389
# Poissons Ratio (y) = 0.85622 0.60552
# Poissons Ratio (z) = 0.20238 0.08693
#
# Static dielectric constant tensor:
#      x y z
#    x 1.635890 0.000000 0.000000 
#    y 0.000000 1.628560 0.000000 
#    z 0.000000 0.000000 1.623180 
# 
# From -- ./inp_files/29645.got.cif
#   From: 2010.05.17/outbox.cif.g08.bks.cpg/sg51_15_cif.got.tgz:29645.got - 2010.06.03 11:52:47.
