data_PCOD9405440
_publ_section_title
;
Structure prediction by ZEFSAII (Michael W. Deem and Ramdas Pophale) SiO2 
 PCOD9405440
Probable space group: P M M A
;
_chemical_formula_sum "Si O2"
_cell_formula_units_Z 56
_cell_length_a 24.867770
_cell_length_b 8.951266
_cell_length_c 15.133861
_cell_angle_alpha 90.000000
_cell_angle_beta 90.000000
_cell_angle_gamma 90.000000
_cell_volume 3368.767556
_symmetry_space_group_name_H-M "P M M A"
_symmetry_group_IT_number 51
_symmetry_cell_setting 'orthorhombic'
loop_
_space_group_symop_operation_xyz
x,y,z
1/2-x,-y,z
1/2+x,-y,-z
-x,y,-z
-x,-y,-z
1/2+x,y,-z
1/2-x,y,z
x,-y,z
loop_
_atom_site_type_symbol
_atom_site_label
_atom_site_fract_x
_atom_site_fract_y
_atom_site_fract_z
Si Si1 0.431671 0.821591 0.875582
Si Si2 0.130947 0.320382 0.039788
Si Si3 0.250000 0.678894 0.785912
Si Si4 0.539417 0.678423 0.631711
Si Si5 0.356303 0.823163 0.708235
Si Si6 0.580375 0.321884 0.443947
Si Si7 0.750000 0.318672 0.009032
Si Si8 0.948091 0.821049 0.821844
O O1 0.401913 0.793012 0.782531
O O2 0.494204 0.779393 0.865606
O O3 0.429024 0.000000 0.893370
O O4 0.400284 0.736206 0.952474
O O5 0.129275 0.500000 0.042538
O O6 0.193486 0.271619 0.033841
O O7 0.099552 0.252450 0.122591
O O8 0.250000 0.500000 0.784483
O O9 0.302843 0.740670 0.739136
O O10 0.250000 0.728589 0.888398
O O11 0.544772 0.500000 0.646187
O O12 0.478179 0.705444 0.599885
O O13 0.575753 0.719934 0.546992
O O14 0.551403 0.764751 0.721223
O O15 0.376880 0.764775 0.614423
O O16 0.347332 0.000000 0.706142
O O17 0.589885 0.500000 0.439149
O O18 0.750000 0.500000 0.008245
O O19 0.944202 0.000000 0.824631
#
# Coordination Sequence:
#
# PCOD9405440 Si02
#       8
#     8   8   4   8   8   8   4   8
#     4  10  21  35  50  75 113 147 174 213 266 326
#     4  11  22  37  56  77 102 139 184 229 272 321
#     4  11  21  37  57  78 105 142 185 231 272 318
#     4   9  18  33  54  80 108 140 179 219 261 314
#     4  11  21  34  53  81 112 146 180 218 270 328
#     4   9  18  33  54  80 109 140 176 220 265 313
#     4   9  20  37  55  76 101 132 179 229 270 312
#     4  11  22  36  52  78 113 147 179 218 272 327
#
# _framework density 16.623290000000001
#
# number of rings (size 3 to 8) (size 9 to 14) (size 15 to 20)
#    0.000    1.857    2.857    2.786    0.000    4.000 
#    0.000    2.857    0.000    0.857    0.000    2.000 
#    0.000    0.000    0.000    0.000    0.000    0.000 
#
# Total GULP energy -312612.672907 kJ/mol
# GULP energy per Si atom -5582.369159 kJ/mol
# Density = 1.658545 g / cm^3
# Si number density = 16.623290 Si / 1000 Ang^3
#
#
#
# Elastic Constant Matrix: (Units=GPa)
#
#
# Indices 1 2 3 4 5 6 
#
# 1 132.9129 52.1057 66.8193 0.0000 0.0000 0.0000
# 2 52.1057 44.7531 48.3167 0.0000 0.0000 0.0000
# 3 66.8193 48.3167 103.7727 0.0000 0.0000 0.0000
# 4 0.0000 0.0000 0.0000 25.4925 0.0000 0.0000
# 5 0.0000 0.0000 0.0000 0.0000 18.4233 0.0000
# 6 0.0000 0.0000 0.0000 0.0000 0.0000 21.6881
#
#
#
# Elastic Compliance Matrix: (Units=1/GPa)
#
#
# Indices 1 2 3 4 5 6 
#
# 1 0.014269 -0.013459 -0.002921 0.000000 0.000000 0.000000
# 2 -0.013459 0.057626 -0.018164 0.000000 0.000000 0.000000
# 3 -0.002921 -0.018164 0.019975 0.000000 0.000000 0.000000
# 4 0.000000 0.000000 0.000000 0.039227 0.000000 0.000000
# 5 0.000000 0.000000 0.000000 0.000000 0.054279 0.000000
# 6 0.000000 0.000000 0.000000 0.000000 0.000000 0.046108
#
#
# Mechanical properties :
#
#
# Convention : Reuss Voigt Hill
#
# Bulk Modulus (GPa) = 43.89776 68.43580 56.16678
# Shear Modulus (GPa) = 16.22500 20.73392 18.47946
#
# Velocity S-wave (km/s) = 3.12755 3.53552 3.33777
# Velocity P-wave (km/s) = 6.28545 7.61082 6.97966
#
# Compressibility (1/GPa) = 0.02278021
#
# Stress axis : x y z
#
# Youngs Moduli (GPa) = 70.08408 17.35321 50.06377
#
# Poissons Ratio (x) = 0.23356 0.14623
# Poissons Ratio (y) = 0.94329 0.90938
# Poissons Ratio (z) = 0.20470 0.31521
#
# Static dielectric constant tensor:
#      x y z
#    x 1.553400 0.000000 0.000000 
#    y 0.000000 1.551420 0.000000 
#    z 0.000000 0.000000 1.545460 
# 
# From -- ./inp_files/25849.got.cif
#   From: 2010.05.17/outbox.cif.g08.bks.cpg/sg51_13_cif.got.tgz:25849.got - 2010.06.03 11:52:47.
