data_PCOD9405052
_publ_section_title
;
Structure prediction by ZEFSAII (Michael W. Deem and Ramdas Pophale) SiO2 
 PCOD9405052
Probable space group: P M M A
;
_chemical_formula_sum "Si O2"
_cell_formula_units_Z 52
_cell_length_a 8.860972
_cell_length_b 13.797981
_cell_length_c 23.686875
_cell_angle_alpha 90.000000
_cell_angle_beta 90.000000
_cell_angle_gamma 90.000000
_cell_volume 2896.040793
_symmetry_space_group_name_H-M "P M M A"
_symmetry_group_IT_number 51
_symmetry_cell_setting 'orthorhombic'
loop_
_space_group_symop_operation_xyz
x,y,z
1/2-x,-y,z
1/2+x,-y,-z
-x,y,-z
-x,-y,-z
1/2+x,y,-z
1/2-x,y,z
x,-y,z
loop_
_atom_site_type_symbol
_atom_site_label
_atom_site_fract_x
_atom_site_fract_y
_atom_site_fract_z
Si Si1 0.568767 0.000000 0.062392
Si Si2 0.430945 0.111452 0.439510
Si Si3 0.420023 0.384585 0.557395
Si Si4 0.570052 0.729865 0.651398
Si Si5 0.427183 0.730103 0.774143
Si Si6 0.428491 0.609117 0.878244
Si Si7 0.070460 0.190285 0.119941
O O1 0.508775 0.902034 0.092141
O O2 0.750000 0.000000 0.061390
O O3 0.500000 0.000000 0.000000
O O4 0.500000 0.138015 0.500000
O O5 0.250000 0.118653 0.444335
O O6 0.476704 0.178267 0.387185
O O7 0.472217 0.000000 0.428521
O O8 0.500000 0.350987 0.500000
O O9 0.250000 0.344799 0.561653
O O10 0.409783 0.500000 0.553775
O O11 0.516972 0.357520 0.611699
O O12 0.750000 0.730720 0.658533
O O13 0.491758 0.726242 0.711860
O O14 0.250000 0.754607 0.773756
O O15 0.442330 0.630553 0.810696
O O16 0.518879 0.803684 0.814429
O O17 0.250000 0.615366 0.891793
O O18 0.481321 0.500000 0.891929
O O19 0.512440 0.704146 0.903110
O O20 0.250000 0.183693 0.114495
#
# Coordination Sequence:
#
# PCOD9405052 Si02
#       7
#     4   8   8   8   8   8   8
#     4  12  24  42  68  98 130 168 209 248 291 342
#     4   9  19  35  52  70  94 125 164 215 275 337
#     4  10  21  36  52  70  96 131 172 223 284 347
#     4  11  21  33  51  76 103 135 176 224 279 342
#     4   9  19  35  53  78 112 150 189 235 285 344
#     4   8  16  33  56  81 114 158 201 242 291 346
#     4  10  20  37  59  90 125 160 201 246 296 346
#
# _framework density 17.955549000000001
#
# number of rings (size 3 to 8) (size 9 to 14) (size 15 to 20)
#    0.923    1.385    0.000    3.462    0.000    4.308 
#    1.385    1.538    0.000    0.462    0.000    0.000 
#    0.000    0.000    0.000    0.000    0.000    0.000 
#
# Total GULP energy -289529.533155 kJ/mol
# GULP energy per Si atom -5567.875638 kJ/mol
# Density = 1.791468 g / cm^3
# Si number density = 17.955549 Si / 1000 Ang^3
#
#
#
# Elastic Constant Matrix: (Units=GPa)
#
#
# Indices 1 2 3 4 5 6 
#
# 1 101.1528 54.3661 28.7825 0.0000 0.0000 0.0000
# 2 54.3661 114.2018 30.4208 0.0000 0.0000 0.0000
# 3 28.7825 30.4208 56.3364 0.0000 0.0000 0.0000
# 4 0.0000 0.0000 0.0000 7.0725 0.0000 0.0000
# 5 0.0000 0.0000 0.0000 0.0000 29.0729 0.0000
# 6 0.0000 0.0000 0.0000 0.0000 0.0000 26.3240
#
#
#
# Elastic Compliance Matrix: (Units=1/GPa)
#
#
# Indices 1 2 3 4 5 6 
#
# 1 0.014078 -0.005590 -0.004174 0.000000 0.000000 0.000000
# 2 -0.005590 0.012447 -0.003865 0.000000 0.000000 0.000000
# 3 -0.004174 -0.003865 0.021970 0.000000 0.000000 0.000000
# 4 0.000000 0.000000 0.000000 0.141393 0.000000 0.000000
# 5 0.000000 0.000000 0.000000 0.000000 0.034396 0.000000
# 6 0.000000 0.000000 0.000000 0.000000 0.000000 0.037988
#
#
# Mechanical properties :
#
#
# Convention : Reuss Voigt Hill
#
# Bulk Modulus (GPa) = 47.08809 55.42553 51.25681
# Shear Modulus (GPa) = 16.85706 23.03530 19.94618
#
# Velocity S-wave (km/s) = 3.06734 3.58566 3.33658
# Velocity P-wave (km/s) = 6.23109 6.93381 6.59182
#
# Compressibility (1/GPa) = 0.02123679
#
# Stress axis : x y z
#
# Youngs Moduli (GPa) = 71.03163 80.33897 45.51605
#
# Poissons Ratio (x) = 0.44910 0.18999
# Poissons Ratio (y) = 0.39708 0.17593
# Poissons Ratio (z) = 0.29649 0.31054
#
# Static dielectric constant tensor:
#      x y z
#    x 1.610430 0.000000 0.000000 
#    y 0.000000 1.649560 0.000000 
#    z 0.000000 0.000000 1.585430 
# 
# From -- ./inp_files/31713.got.cif
#   From: 2010.05.17/outbox.cif.g08.bks.cpg/sg51_16_cif.got.tgz:31713.got - 2010.06.03 11:52:47.
