data_PCOD9405178
_publ_section_title
;
Structure prediction by ZEFSAII (Michael W. Deem and Ramdas Pophale) SiO2 
 PCOD9405178
Probable space group: P M M A
;
_chemical_formula_sum "Si O2"
_cell_formula_units_Z 40
_cell_length_a 16.084695
_cell_length_b 9.171902
_cell_length_c 13.919457
_cell_angle_alpha 90.000000
_cell_angle_beta 90.000000
_cell_angle_gamma 90.000000
_cell_volume 2053.499160
_symmetry_space_group_name_H-M "P M M A"
_symmetry_group_IT_number 51
_symmetry_cell_setting 'orthorhombic'
loop_
_space_group_symop_operation_xyz
x,y,z
1/2-x,-y,z
1/2+x,-y,-z
-x,y,-z
-x,-y,-z
1/2+x,y,-z
1/2-x,y,z
x,-y,z
loop_
_atom_site_type_symbol
_atom_site_label
_atom_site_fract_x
_atom_site_fract_y
_atom_site_fract_z
Si Si1 0.250000 0.171571 0.903476
Si Si2 0.846695 0.164330 0.381980
Si Si3 0.910245 0.674337 0.778554
Si Si4 0.089876 0.667245 0.448492
Si Si5 0.404364 0.325779 0.800674
Si Si6 0.250000 0.829154 0.133146
O O1 0.332925 0.246643 0.861368
O O2 0.250000 0.000000 0.877919
O O3 0.250000 0.186285 0.018124
O O4 0.750000 0.161832 0.355438
O O5 0.855701 0.222312 0.489722
O O6 0.890128 0.274664 0.308921
O O7 0.880356 0.000000 0.372579
O O8 0.900004 0.500000 0.789829
O O9 0.914049 0.703057 0.663924
O O10 0.832515 0.755148 0.824426
O O11 0.000021 0.713470 0.823911
O O12 0.120311 0.500000 0.457383
O O13 0.000000 0.673205 0.500000
O O14 0.395263 0.500000 0.807892
O O15 0.250000 0.000000 0.156907
#
# Coordination Sequence:
#
# PCOD9405178 Si02
#       6
#     4   8   8   8   8   4
#     4  11  25  45  66  95 128 159 201 258 322 381
#     4  11  23  36  54  89 131 167 205 253 307 370
#     4  10  23  43  66  93 126 165 212 262 307 363
#     4  10  20  38  60  86 123 165 210 255 302 363
#     4  11  22  40  68  97 124 161 208 261 316 370
#     4  11  27  47  66  89 126 169 207 256 318 381
#
# _framework density 19.478946000000001
#
# number of rings (size 3 to 8) (size 9 to 14) (size 15 to 20)
#    0.000    1.400    3.000    1.800    1.400    6.400 
#    0.000    4.000    0.000    0.000    0.000    0.000 
#    0.000    0.000    0.000    0.000    0.000    0.000 
#
# Total GULP energy -223454.081693 kJ/mol
# GULP energy per Si atom -5586.352042 kJ/mol
# Density = 1.943461 g / cm^3
# Si number density = 19.478946 Si / 1000 Ang^3
#
#
#
# Elastic Constant Matrix: (Units=GPa)
#
#
# Indices 1 2 3 4 5 6 
#
# 1 164.6583 84.2946 67.1301 0.0000 0.0000 0.0000
# 2 84.2946 85.6320 56.2412 0.0000 0.0000 0.0000
# 3 67.1301 56.2412 83.2412 0.0000 0.0000 0.0000
# 4 0.0000 0.0000 0.0000 33.2971 0.0000 0.0000
# 5 0.0000 0.0000 0.0000 0.0000 24.4138 0.0000
# 6 0.0000 0.0000 0.0000 0.0000 0.0000 -532.3562
#
#
#
# Elastic Compliance Matrix: (Units=1/GPa)
#
#
# Indices 1 2 3 4 5 6 
#
# 1 0.012708 -0.010389 -0.003230 0.000000 0.000000 0.000000
# 2 -0.010389 0.029486 -0.011544 0.000000 0.000000 0.000000
# 3 -0.003230 -0.011544 0.022418 0.000000 0.000000 0.000000
# 4 0.000000 0.000000 0.000000 0.030033 0.000000 0.000000
# 5 0.000000 0.000000 0.000000 0.000000 0.040960 0.000000
# 6 0.000000 0.000000 0.000000 0.000000 0.000000 -0.001878
#
#
# Mechanical properties :
#
#
# Convention : Reuss Voigt Hill
#
# Bulk Modulus (GPa) = 69.99287 83.20704 76.59996
# Shear Modulus (GPa) = 26.48116 -86.53804 -30.02844
#
# Velocity S-wave (km/s) = 3.69111 -6.67255 -3.93056
# Velocity P-wave (km/s) = 7.36045 4.06875 4.33714
#
# Compressibility (1/GPa) = 0.01428717
#
# Stress axis : x y z
#
# Youngs Moduli (GPa) = 78.68964 33.91425 44.60799
#
# Poissons Ratio (x) = 0.35232 0.14407
# Poissons Ratio (y) = 0.81747 0.51496
# Poissons Ratio (z) = 0.25414 0.39151
#
# Static dielectric constant tensor:
#      x y z
#    x 1.690510 0.000000 0.000000 
#    y 0.000000 1.663530 0.000000 
#    z 0.000000 0.000000 1.669720 
# 
# From -- ./inp_files/23811.got.cif
#   From: 2010.05.17/outbox.cif.g08.bks.cpg/sg51_12_cif.got.tgz:23811.got - 2010.06.03 11:52:47.
