data_PCOD9405473
_publ_section_title
;
Structure prediction by ZEFSAII (Michael W. Deem and Ramdas Pophale) SiO2 
 PCOD9405473
Probable space group: P M M A
;
_chemical_formula_sum "Si O2"
_cell_formula_units_Z 48
_cell_length_a 8.933989
_cell_length_b 9.605017
_cell_length_c 31.293662
_cell_angle_alpha 90.000000
_cell_angle_beta 90.000000
_cell_angle_gamma 90.000000
_cell_volume 2685.344067
_symmetry_space_group_name_H-M "P M M A"
_symmetry_group_IT_number 51
_symmetry_cell_setting 'orthorhombic'
loop_
_space_group_symop_operation_xyz
x,y,z
1/2-x,-y,z
1/2+x,-y,-z
-x,y,-z
-x,-y,-z
1/2+x,y,-z
1/2-x,y,z
x,-y,z
loop_
_atom_site_type_symbol
_atom_site_label
_atom_site_fract_x
_atom_site_fract_y
_atom_site_fract_z
Si Si1 0.930759 0.661145 0.627548
Si Si2 0.071300 0.163192 0.953869
Si Si3 0.929709 0.836928 0.198512
Si Si4 0.430147 0.838017 0.454732
Si Si5 0.069900 0.839052 0.702732
Si Si6 0.929021 0.663177 0.877206
O O1 0.750000 0.666974 0.629202
O O2 0.976190 0.500000 0.626044
O O3 0.978696 0.743032 0.584811
O O4 0.995421 0.737907 0.668854
O O5 0.250000 0.180381 0.955729
O O6 0.002454 0.259382 0.917436
O O7 0.040070 0.000000 0.944167
O O8 0.000000 0.194041 0.000000
O O9 0.750000 0.821155 0.194008
O O10 0.969054 0.807344 0.247935
O O11 0.011986 0.738587 0.165321
O O12 0.963886 0.000000 0.190139
O O13 0.500000 0.795734 0.500000
O O14 0.250000 0.830864 0.457913
O O15 0.471076 0.000000 0.446870
O O16 0.250000 0.830710 0.699435
O O17 0.026866 0.000000 0.694183
O O18 0.750000 0.675556 0.879771
O O19 0.968502 0.500000 0.876902
#
# Coordination Sequence:
#
# PCOD9405473 Si02
#       6
#     8   8   8   8   8   8
#     4  10  21  35  51  75 108 142 174 211 258 313
#     4  10  21  38  61  86 110 140 180 224 269 317
#     4   9  19  37  59  81 105 136 177 223 268 314
#     4   9  18  33  52  73  98 131 172 216 260 307
#     4   9  19  36  57  80 105 135 175 221 265 312
#     4  11  24  38  53  79 114 148 181 218 263 316
#
# _framework density 17.874804999999999
#
# number of rings (size 3 to 8) (size 9 to 14) (size 15 to 20)
#    0.000    2.333    0.000    3.000    0.000    8.667 
#    0.000    6.667    0.000    0.000    0.000    0.000 
#    0.000    0.000    0.000    0.000    0.000    0.000 
#
# Total GULP energy -268004.685221 kJ/mol
# GULP energy per Si atom -5583.430942 kJ/mol
# Density = 1.783412 g / cm^3
# Si number density = 17.874805 Si / 1000 Ang^3
#
#
#
# Elastic Constant Matrix: (Units=GPa)
#
#
# Indices 1 2 3 4 5 6 
#
# 1 34.5016 59.7759 59.8673 0.0000 0.0000 0.0000
# 2 59.7759 143.1965 134.4781 0.0000 0.0000 0.0000
# 3 59.8673 134.4781 170.8946 0.0000 0.0000 0.0000
# 4 0.0000 0.0000 0.0000 -15.9890 0.0000 0.0000
# 5 0.0000 0.0000 0.0000 0.0000 39.1535 0.0000
# 6 0.0000 0.0000 0.0000 0.0000 0.0000 28.9179
#
#
#
# Elastic Compliance Matrix: (Units=1/GPa)
#
#
# Indices 1 2 3 4 5 6 
#
# 1 0.108263 -0.036689 -0.009056 0.000000 0.000000 0.000000
# 2 -0.036689 0.039190 -0.017986 0.000000 0.000000 0.000000
# 3 -0.009056 -0.017986 0.023177 0.000000 0.000000 0.000000
# 4 0.000000 0.000000 0.000000 -0.062543 0.000000 0.000000
# 5 0.000000 0.000000 0.000000 0.000000 0.025540 0.000000
# 6 0.000000 0.000000 0.000000 0.000000 0.000000 0.034581
#
#
# Mechanical properties :
#
#
# Convention : Reuss Voigt Hill
#
# Bulk Modulus (GPa) = 23.16481 95.20394 59.18437
# Shear Modulus (GPa) = 16.12602 16.71459 16.42031
#
# Velocity S-wave (km/s) = 3.00686 3.06125 3.03418
# Velocity P-wave (km/s) = 5.00426 8.11616 6.74221
#
# Compressibility (1/GPa) = 0.04316893
#
# Stress axis : x y z
#
# Youngs Moduli (GPa) = 9.23675 25.51703 43.14642
#
# Poissons Ratio (x) = 0.93620 0.39071
# Poissons Ratio (y) = 0.33889 0.77602
# Poissons Ratio (z) = 0.08364 0.45894
#
# Static dielectric constant tensor:
#      x y z
#    x 1.597410 0.000000 0.000000 
#    y 0.000000 1.594180 0.000000 
#    z 0.000000 0.000000 1.582870 
# 
# From -- ./inp_files/36869.got.cif
#   From: 2010.05.17/outbox.cif.g08.bks.cpg/sg51_19_cif.got.tgz:36869.got - 2010.06.03 11:52:47.
