data_PCOD9405643
_publ_section_title
;
Structure prediction by ZEFSAII (Michael W. Deem and Ramdas Pophale) SiO2 
 PCOD9405643
Probable space group: P M M A
;
_chemical_formula_sum "Si O2"
_cell_formula_units_Z 64
_cell_length_a 14.444756
_cell_length_b 7.682963
_cell_length_c 24.829530
_cell_angle_alpha 90.000000
_cell_angle_beta 90.000000
_cell_angle_gamma 90.000000
_cell_volume 2755.544638
_symmetry_space_group_name_H-M "P M M A"
_symmetry_group_IT_number 51
_symmetry_cell_setting 'orthorhombic'
loop_
_space_group_symop_operation_xyz
x,y,z
1/2-x,-y,z
1/2+x,-y,-z
-x,y,-z
-x,-y,-z
1/2+x,y,-z
1/2-x,y,z
x,-y,z
loop_
_atom_site_type_symbol
_atom_site_label
_atom_site_fract_x
_atom_site_fract_y
_atom_site_fract_z
Si Si1 0.644934 0.200776 0.345385
Si Si2 0.862926 0.799098 0.027538
Si Si3 0.355811 0.210031 0.088036
Si Si4 0.642019 0.287068 0.582099
Si Si5 0.951339 0.300354 0.689582
Si Si6 0.852603 0.296440 0.146898
Si Si7 0.362254 0.301074 0.534125
Si Si8 0.965478 0.709661 0.804152
O O1 0.750000 0.269772 0.338423
O O2 0.562609 0.296878 0.315140
O O3 0.621884 0.209462 0.409264
O O4 0.644226 0.000000 0.328692
O O5 0.750000 0.795892 0.023504
O O6 0.884238 0.713249 0.084466
O O7 0.892438 0.000000 0.032691
O O8 0.895756 0.727936 0.969745
O O9 0.250000 0.271692 0.092637
O O10 0.408013 0.256089 0.142213
O O11 0.354498 0.000000 0.083525
O O12 0.750000 0.241406 0.587637
O O13 0.636585 0.500000 0.579413
O O14 0.588817 0.222076 0.634693
O O15 0.605530 0.228374 0.523482
O O16 0.918096 0.500000 0.689214
O O17 0.926320 0.222378 0.747575
O O18 0.750000 0.218065 0.151193
O O19 0.845337 0.500000 0.160123
O O20 0.931921 0.219041 0.183991
O O21 0.250000 0.307563 0.528501
O O22 0.396217 0.500000 0.540632
O O23 0.971312 0.500000 0.798414
#
# Coordination Sequence:
#
# PCOD9405643 Si02
#       8
#     8   8   8   8   8   8   8   8
#     4  10  21  36  53  75 105 137 168 209 259 306
#     4   8  15  30  52  77 101 127 166 210 252 305
#     4   9  19  36  56  77 104 137 169 206 254 305
#     4   8  15  30  53  79 104 130 165 211 257 301
#     4  10  21  36  54  76 102 136 178 217 251 295
#     4   9  18  33  51  72 102 136 167 207 261 313
#     4   8  14  28  52  78 101 128 164 205 253 310
#     4  10  22  36  51  76 105 135 175 217 255 299
#
# _framework density 23.225899999999999
#
# number of rings (size 3 to 8) (size 9 to 14) (size 15 to 20)
#    0.000    3.000    0.000    1.875    0.000    4.500 
#    0.000    9.375    0.000    2.625    0.000    0.000 
#    0.000    0.000    0.000    0.000    0.000    0.000 
#
# Total GULP energy -357138.608650 kJ/mol
# GULP energy per Si atom -5580.290760 kJ/mol
# Density = 2.317304 g / cm^3
# Si number density = 23.225900 Si / 1000 Ang^3
#
#
#
# Elastic Constant Matrix: (Units=GPa)
#
#
# Indices 1 2 3 4 5 6 
#
# 1 52.2594 -6.5092 16.5571 0.0000 0.0000 0.0000
# 2 -6.5092 40.3862 -5.7465 0.0000 0.0000 0.0000
# 3 16.5571 -5.7465 67.3807 0.0000 0.0000 0.0000
# 4 0.0000 0.0000 0.0000 29.4962 0.0000 0.0000
# 5 0.0000 0.0000 0.0000 0.0000 22.4861 0.0000
# 6 0.0000 0.0000 0.0000 0.0000 0.0000 -9.6999
#
#
#
# Elastic Compliance Matrix: (Units=1/GPa)
#
#
# Indices 1 2 3 4 5 6 
#
# 1 0.021035 0.002687 -0.004940 0.000000 0.000000 0.000000
# 2 0.002687 0.025408 0.001507 0.000000 0.000000 0.000000
# 3 -0.004940 0.001507 0.016183 0.000000 0.000000 0.000000
# 4 0.000000 0.000000 0.000000 0.033903 0.000000 0.000000
# 5 0.000000 0.000000 0.000000 0.000000 0.044472 0.000000
# 6 0.000000 0.000000 0.000000 0.000000 0.000000 -0.103094
#
#
# Mechanical properties :
#
#
# Convention : Reuss Voigt Hill
#
# Bulk Modulus (GPa) = 16.35711 18.73659 17.54685
# Shear Modulus (GPa) = 83.64353 18.83814 51.24083
#
# Velocity S-wave (km/s) = 6.00760 2.85104 4.70211
# Velocity P-wave (km/s) = 7.42829 4.35000 6.08696
#
# Compressibility (1/GPa) = 0.06113551
#
# Stress axis : x y z
#
# Youngs Moduli (GPa) = 47.53965 39.35700 61.79202
#
# Poissons Ratio (x) = -0.10577 0.30523
# Poissons Ratio (y) = -0.12776 -0.09309
# Poissons Ratio (z) = 0.23483 -0.05929
#
# Static dielectric constant tensor:
#      x y z
#    x 1.898450 0.000000 0.000000 
#    y 0.000000 1.898950 0.000000 
#    z 0.000000 0.000000 1.896710 
# 
# From -- ./inp_files/35675.got.cif
#   From: 2010.05.17/outbox.cif.g08.bks.cpg/sg51_18_cif.got.tgz:35675.got - 2010.06.03 11:52:47.
