data_PCOD9405603
_publ_section_title
;
Structure prediction by ZEFSAII (Michael W. Deem and Ramdas Pophale) SiO2 
 PCOD9405603
Probable space group: P M M A
;
_chemical_formula_sum "Si O2"
_cell_formula_units_Z 40
_cell_length_a 9.513663
_cell_length_b 13.865276
_cell_length_c 15.654460
_cell_angle_alpha 90.000000
_cell_angle_beta 90.000000
_cell_angle_gamma 90.000000
_cell_volume 2064.972982
_symmetry_space_group_name_H-M "P M M A"
_symmetry_group_IT_number 51
_symmetry_cell_setting 'orthorhombic'
loop_
_space_group_symop_operation_xyz
x,y,z
1/2-x,-y,z
1/2+x,-y,-z
-x,y,-z
-x,-y,-z
1/2+x,y,-z
1/2-x,y,z
x,-y,z
loop_
_atom_site_type_symbol
_atom_site_label
_atom_site_fract_x
_atom_site_fract_y
_atom_site_fract_z
Si Si1 0.910860 0.184619 0.254909
Si Si2 0.087487 0.116263 0.417086
Si Si3 0.048749 0.385950 0.796257
Si Si4 0.918563 0.116572 0.912551
Si Si5 0.750000 0.615008 0.861366
Si Si6 0.250000 0.385112 0.949038
O O1 0.750000 0.146794 0.251191
O O2 0.899482 0.300978 0.263624
O O3 0.000828 0.144711 0.333195
O O4 0.995922 0.158777 0.168201
O O5 0.250000 0.150583 0.415876
O O6 0.000000 0.149727 0.500000
O O7 0.092802 0.000000 0.420364
O O8 0.074407 0.500000 0.776820
O O9 0.117615 0.365117 0.889042
O O10 0.886221 0.365265 0.807753
O O11 0.750000 0.138955 0.911478
O O12 0.927785 0.000000 0.907229
O O13 0.000000 0.145797 0.000000
O O14 0.750000 0.500000 0.873260
O O15 0.750000 0.657004 0.956846
O O16 0.250000 0.500000 0.958147
#
# Coordination Sequence:
#
# PCOD9405603 Si02
#       6
#     8   8   8   8   4   4
#     4  12  24  37  58  89 120 161 203 244 294 352
#     4  10  22  42  69  98 125 150 182 236 301 362
#     4  10  21  36  52  77 113 155 201 249 302 350
#     4  10  22  40  59  81 115 158 202 249 298 354
#     4   9  18  30  50  74 100 145 202 258 306 343
#     4   9  16  32  50  68 102 147 198 252 300 343
#
# _framework density 19.370715000000001
#
# number of rings (size 3 to 8) (size 9 to 14) (size 15 to 20)
#    0.000    1.800    1.000    3.000    2.800    8.800 
#    0.000    0.000    0.000    0.600    0.000    0.000 
#    0.000    0.000    0.000    0.000    0.000    0.000 
#
# Total GULP energy -223065.109107 kJ/mol
# GULP energy per Si atom -5576.627728 kJ/mol
# Density = 1.932663 g / cm^3
# Si number density = 19.370715 Si / 1000 Ang^3
#
#
#
# Elastic Constant Matrix: (Units=GPa)
#
#
# Indices 1 2 3 4 5 6 
#
# 1 205.9133 26.1163 73.0991 0.0000 0.0000 0.0000
# 2 26.1163 60.4008 20.9982 0.0000 0.0000 0.0000
# 3 73.0991 20.9982 122.3972 0.0000 0.0000 0.0000
# 4 0.0000 0.0000 0.0000 9.0902 0.0000 0.0000
# 5 0.0000 0.0000 0.0000 0.0000 32.3272 0.0000
# 6 0.0000 0.0000 0.0000 0.0000 0.0000 30.2575
#
#
#
# Elastic Compliance Matrix: (Units=1/GPa)
#
#
# Indices 1 2 3 4 5 6 
#
# 1 0.006289 -0.001503 -0.003498 0.000000 0.000000 0.000000
# 2 -0.001503 0.017965 -0.002184 0.000000 0.000000 0.000000
# 3 -0.003498 -0.002184 0.010634 0.000000 0.000000 0.000000
# 4 0.000000 0.000000 0.000000 0.110009 0.000000 0.000000
# 5 0.000000 0.000000 0.000000 0.000000 0.030934 0.000000
# 6 0.000000 0.000000 0.000000 0.000000 0.000000 0.033050
#
#
# Mechanical properties :
#
#
# Convention : Reuss Voigt Hill
#
# Bulk Modulus (GPa) = 48.73966 69.90429 59.32197
# Shear Modulus (GPa) = 21.73055 32.23481 26.98268
#
# Velocity S-wave (km/s) = 3.35300 4.08376 3.73629
# Velocity P-wave (km/s) = 6.34084 7.64213 7.02170
#
# Compressibility (1/GPa) = 0.02051717
#
# Stress axis : x y z
#
# Youngs Moduli (GPa) = 159.01168 55.66259 94.03814
#
# Poissons Ratio (x) = 0.08367 0.32895
# Poissons Ratio (y) = 0.23901 0.20542
# Poissons Ratio (z) = 0.55622 0.12159
#
# Static dielectric constant tensor:
#      x y z
#    x 1.732010 0.000000 0.000000 
#    y 0.000000 1.721980 0.000000 
#    z 0.000000 0.000000 1.643970 
# 
# From -- ./inp_files/20531.got.cif
#   From: 2010.05.17/outbox.cif.g08.bks.cpg/sg51_11_cif.got.tgz:20531.got - 2010.06.03 11:52:47.
