data_PCOD9405582
_publ_section_title
;
Structure prediction by ZEFSAII (Michael W. Deem and Ramdas Pophale) SiO2 
 PCOD9405582
Probable space group: P M M A
;
_chemical_formula_sum "Si O2"
_cell_formula_units_Z 48
_cell_length_a 9.558573
_cell_length_b 14.926919
_cell_length_c 16.360339
_cell_angle_alpha 90.000000
_cell_angle_beta 90.000000
_cell_angle_gamma 90.000000
_cell_volume 2334.293904
_symmetry_space_group_name_H-M "P M M A"
_symmetry_group_IT_number 51
_symmetry_cell_setting 'orthorhombic'
loop_
_space_group_symop_operation_xyz
x,y,z
1/2-x,-y,z
1/2+x,-y,-z
-x,y,-z
-x,-y,-z
1/2+x,y,-z
1/2-x,y,z
x,-y,z
loop_
_atom_site_type_symbol
_atom_site_label
_atom_site_fract_x
_atom_site_fract_y
_atom_site_fract_z
Si Si1 0.586857 0.857738 0.576911
Si Si2 0.587542 0.639281 0.578265
Si Si3 0.911612 0.142418 0.753137
Si Si4 0.409128 0.392998 0.922845
Si Si5 0.093015 0.105877 0.071816
Si Si6 0.911382 0.642403 0.761038
O O1 0.500000 0.890128 0.500000
O O2 0.750000 0.882461 0.570758
O O3 0.582205 0.748521 0.576712
O O4 0.529949 0.886503 0.665697
O O5 0.500000 0.607917 0.500000
O O6 0.750000 0.614157 0.569554
O O7 0.542443 0.611003 0.670066
O O8 0.750000 0.110050 0.754717
O O9 0.975589 0.114549 0.838993
O O10 0.908057 0.249859 0.754766
O O11 0.250000 0.356645 0.920968
O O12 0.397960 0.500000 0.933833
O O13 0.490397 0.379766 0.837247
O O14 0.500000 0.359003 0.000000
O O15 0.250000 0.145510 0.073536
O O16 0.107504 0.000000 0.056690
O O17 0.000000 0.144985 0.000000
O O18 0.750000 0.612603 0.774848
#
# Coordination Sequence:
#
# PCOD9405582 Si02
#       6
#     8   8   8   8   8   8
#     4   8  13  23  39  59  85 115 145 177 214 257
#     4   8  14  24  40  63  90 119 147 178 218 261
#     4   8  15  28  45  66  92 119 147 182 223 264
#     4  10  21  36  52  69  90 118 151 185 222 268
#     4   9  17  30  47  64  84 115 152 185 220 265
#     4   9  17  30  48  70  95 120 148 186 229 267
#
# _framework density 20.562961999999999
#
# number of rings (size 3 to 8) (size 9 to 14) (size 15 to 20)
#    0.000    3.333    0.000    2.500    0.000    2.333 
#    0.000    5.833    0.000    1.000    0.000    0.000 
#    0.000    0.000    0.000    0.000    0.000    0.000 
#
# Total GULP energy -267394.927056 kJ/mol
# GULP energy per Si atom -5570.727647 kJ/mol
# Density = 2.051616 g / cm^3
# Si number density = 20.562962 Si / 1000 Ang^3
#
#
#
# Elastic Constant Matrix: (Units=GPa)
#
#
# Indices 1 2 3 4 5 6 
#
# 1 93.1552 3.2656 110.1629 0.0000 0.0000 0.0000
# 2 3.2656 45.8112 1.6901 0.0000 0.0000 0.0000
# 3 110.1629 1.6901 253.1189 0.0000 0.0000 0.0000
# 4 0.0000 0.0000 0.0000 27.1479 0.0000 0.0000
# 5 0.0000 0.0000 0.0000 0.0000 37.4457 0.0000
# 6 0.0000 0.0000 0.0000 0.0000 0.0000 15.7889
#
#
#
# Elastic Compliance Matrix: (Units=1/GPa)
#
#
# Indices 1 2 3 4 5 6 
#
# 1 0.022188 -0.001226 -0.009648 0.000000 0.000000 0.000000
# 2 -0.001226 0.021902 0.000387 0.000000 0.000000 0.000000
# 3 -0.009648 0.000387 0.008147 0.000000 0.000000 0.000000
# 4 0.000000 0.000000 0.000000 0.036835 0.000000 0.000000
# 5 0.000000 0.000000 0.000000 0.000000 0.026705 0.000000
# 6 0.000000 0.000000 0.000000 0.000000 0.000000 0.063336
#
#
# Mechanical properties :
#
#
# Convention : Reuss Voigt Hill
#
# Bulk Modulus (GPa) = 31.98659 69.14693 50.56676
# Shear Modulus (GPa) = 23.75209 34.54095 29.14652
#
# Velocity S-wave (km/s) = 3.40235 4.10294 3.76896
# Velocity P-wave (km/s) = 5.56991 7.49302 6.60187
#
# Compressibility (1/GPa) = 0.03126310
#
# Stress axis : x y z
#
# Youngs Moduli (GPa) = 45.07017 45.65835 122.74003
#
# Poissons Ratio (x) = 0.05596 1.18424
# Poissons Ratio (y) = 0.05524 -0.04752
# Poissons Ratio (z) = 0.43485 -0.01768
#
# Static dielectric constant tensor:
#      x y z
#    x 1.721600 0.000000 0.000000 
#    y 0.000000 1.782190 0.000000 
#    z 0.000000 0.000000 1.764250 
# 
# From -- ./inp_files/21394.got.cif
#   From: 2010.05.17/outbox.cif.g08.bks.cpg/sg51_11_cif.got.tgz:21394.got - 2010.06.03 11:52:47.
