data_PCOD9405087
_publ_section_title
;
Structure prediction by ZEFSAII (Michael W. Deem and Ramdas Pophale) SiO2 
 PCOD9405087
Probable space group: P M M A
;
_chemical_formula_sum "Si O2"
_cell_formula_units_Z 56
_cell_length_a 15.594180
_cell_length_b 14.372220
_cell_length_c 11.739943
_cell_angle_alpha 90.000000
_cell_angle_beta 90.000000
_cell_angle_gamma 90.000000
_cell_volume 2631.191077
_symmetry_space_group_name_H-M "P M M A"
_symmetry_group_IT_number 51
_symmetry_cell_setting 'orthorhombic'
loop_
_space_group_symop_operation_xyz
x,y,z
1/2-x,-y,z
1/2+x,-y,-z
-x,y,-z
-x,-y,-z
1/2+x,y,-z
1/2-x,y,z
x,-y,z
loop_
_atom_site_type_symbol
_atom_site_label
_atom_site_fract_x
_atom_site_fract_y
_atom_site_fract_z
Si Si1 0.656978 0.111751 0.733463
Si Si2 0.655430 0.347105 0.338101
Si Si3 0.596267 0.781526 0.522769
Si Si4 0.039819 0.397630 0.337078
Si Si5 0.843011 0.744296 0.100995
Si Si6 0.014182 0.104814 0.865414
Si Si7 0.412566 0.603784 0.072430
O O1 0.750000 0.143618 0.778389
O O2 0.645327 0.149936 0.606195
O O3 0.572983 0.138840 0.805169
O O4 0.657168 0.000000 0.734228
O O5 0.750000 0.385382 0.371510
O O6 0.643074 0.250212 0.407742
O O7 0.563217 0.395511 0.355809
O O8 0.658415 0.330043 0.203223
O O9 0.500000 0.818136 0.500000
O O10 0.581708 0.685265 0.592349
O O11 0.071550 0.500000 0.370549
O O12 0.062603 0.383138 0.204252
O O13 0.750000 0.789828 0.092585
O O14 0.912360 0.818952 0.141306
O O15 0.862024 0.688219 0.985328
O O16 0.034941 0.000000 0.822569
O O17 0.000000 0.097083 0.000000
O O18 0.372451 0.500000 0.061389
O O19 0.500000 0.602108 0.000000
#
# Coordination Sequence:
#
# PCOD9405087 Si02
#       7
#     8   8   8   8   8   8   8
#     4  10  22  41  65  92 121 161 213 261 310 372
#     4  10  21  36  55  85 120 156 201 249 296 357
#     4  10  21  37  61  89 123 162 201 256 311 366
#     4  10  21  38  60  85 115 159 204 245 301 364
#     4  11  23  38  61  89 120 162 206 246 304 372
#     4  10  22  39  60  88 124 159 197 247 304 368
#     4  10  20  37  61  86 118 157 200 251 302 359
#
# _framework density 21.283135999999999
#
# number of rings (size 3 to 8) (size 9 to 14) (size 15 to 20)
#    0.000    1.857    1.429    2.571    2.000    4.286 
#    0.000    4.286    0.000    3.857    0.000    0.000 
#    0.000    0.000    0.000    0.000    0.000    0.000 
#
# Total GULP energy -312476.803673 kJ/mol
# GULP energy per Si atom -5579.942923 kJ/mol
# Density = 2.123469 g / cm^3
# Si number density = 21.283136 Si / 1000 Ang^3
#
#
#
# Elastic Constant Matrix: (Units=GPa)
#
#
# Indices 1 2 3 4 5 6 
#
# 1 121.6766 40.8355 17.0935 0.0000 0.0000 0.0000
# 2 40.8355 48.7662 3.5532 0.0000 0.0000 0.0000
# 3 17.0935 3.5532 83.4352 0.0000 0.0000 0.0000
# 4 0.0000 0.0000 0.0000 23.2253 0.0000 0.0000
# 5 0.0000 0.0000 0.0000 0.0000 17.9076 0.0000
# 6 0.0000 0.0000 0.0000 0.0000 0.0000 9.3972
#
#
#
# Elastic Compliance Matrix: (Units=1/GPa)
#
#
# Indices 1 2 3 4 5 6 
#
# 1 0.011753 -0.009696 -0.001995 0.000000 0.000000 0.000000
# 2 -0.009696 0.028569 0.000770 0.000000 0.000000 0.000000
# 3 -0.001995 0.000770 0.012361 0.000000 0.000000 0.000000
# 4 0.000000 0.000000 0.000000 0.043056 0.000000 0.000000
# 5 0.000000 0.000000 0.000000 0.000000 0.055842 0.000000
# 6 0.000000 0.000000 0.000000 0.000000 0.000000 0.106415
#
#
# Mechanical properties :
#
#
# Convention : Reuss Voigt Hill
#
# Bulk Modulus (GPa) = 32.42453 41.87136 37.14795
# Shear Modulus (GPa) = 17.23429 22.93242 20.08335
#
# Velocity S-wave (km/s) = 2.84872 3.28608 3.07518
# Velocity P-wave (km/s) = 5.10766 5.84072 5.48644
#
# Compressibility (1/GPa) = 0.03084085
#
# Stress axis : x y z
#
# Youngs Moduli (GPa) = 85.08560 35.00267 80.89784
#
# Poissons Ratio (x) = 0.33939 0.16138
# Poissons Ratio (y) = 0.82501 -0.06228
# Poissons Ratio (z) = 0.16974 -0.02695
#
# Static dielectric constant tensor:
#      x y z
#    x 1.796800 0.000000 0.000000 
#    y 0.000000 1.804510 0.000000 
#    z 0.000000 0.000000 1.767660 
# 
# From -- ./inp_files/16613.got.cif
#   From: 2010.05.17/outbox.cif.g08.bks.cpg/sg51_9_cif.got.tgz:16613.got - 2010.06.03 11:52:47.
