data_PCOD9405251
_publ_section_title
;
Structure prediction by ZEFSAII (Michael W. Deem and Ramdas Pophale) SiO2 
 PCOD9405251
Probable space group: P M M A
;
_chemical_formula_sum "Si O2"
_cell_formula_units_Z 34
_cell_length_a 10.076132
_cell_length_b 19.728682
_cell_length_c 9.005780
_cell_angle_alpha 90.000000
_cell_angle_beta 90.000000
_cell_angle_gamma 90.000000
_cell_volume 1790.248235
_symmetry_space_group_name_H-M "P M M A"
_symmetry_group_IT_number 51
_symmetry_cell_setting 'orthorhombic'
loop_
_space_group_symop_operation_xyz
x,y,z
1/2-x,-y,z
1/2+x,-y,-z
-x,y,-z
-x,-y,-z
1/2+x,y,-z
1/2-x,y,z
x,-y,z
loop_
_atom_site_type_symbol
_atom_site_label
_atom_site_fract_x
_atom_site_fract_y
_atom_site_fract_z
Si Si1 0.250000 0.646364 0.328935
Si Si2 0.250000 0.500000 0.228748
Si Si3 0.409057 0.850122 0.350920
Si Si4 0.000000 0.500000 0.000000
Si Si5 0.750000 0.346103 0.329439
Si Si6 0.903247 0.000000 0.639638
Si Si7 0.993439 0.718625 0.822690
Si Si8 0.250000 0.500000 0.772340
O O1 0.250000 0.566226 0.328582
O O2 0.250000 0.672651 0.496895
O O3 0.375408 0.672401 0.237998
O O4 0.381211 0.500000 0.127151
O O5 0.500000 0.845626 0.500000
O O6 0.250000 0.839811 0.380437
O O7 0.461539 0.793372 0.239092
O O8 0.423650 0.926702 0.286335
O O9 0.883114 0.500000 0.128507
O O10 0.624508 0.312839 0.248725
O O11 0.750000 0.427573 0.312074
O O12 0.000000 0.000000 0.500000
O O13 0.750000 0.000000 0.588319
O O14 0.000000 0.717053 0.000000
#
# Coordination Sequence:
#
# PCOD9405251 Si02
#       8
#     4   2   8   2   4   4   8   2
#     4  12  25  46  66  93 123 166 213 269 317 377
#     4  11  25  40  68  88 128 156 218 250 330 374
#     4  10  20  39  65  96 132 169 216 261 315 379
#     4  10  24  38  66  98 124 162 190 260 324 382
#     4  12  27  44  70  93 127 166 215 269 319 377
#     4   8  16  32  61  94 126 168 210 259 308 372
#     4  12  27  42  63  95 131 168 211 261 325 385
#     4  11  25  44  68  96 128 160 218 254 330 374
#
# _framework density 18.991779000000001
#
# number of rings (size 3 to 8) (size 9 to 14) (size 15 to 20)
#    0.000    1.176    1.176    4.588   11.529    0.000 
#    0.000    4.118    0.000    0.000    0.000    0.000 
#    0.000    0.000    0.000    0.000    0.000    0.000 
#
# Total GULP energy -189291.788863 kJ/mol
# GULP energy per Si atom -5567.405555 kJ/mol
# Density = 1.894855 g / cm^3
# Si number density = 18.991779 Si / 1000 Ang^3
#
#
#
# Elastic Constant Matrix: (Units=GPa)
#
#
# Indices 1 2 3 4 5 6 
#
# 1 179.5152 58.4696 66.4083 0.0000 0.0000 0.0000
# 2 58.4696 176.1161 62.7517 0.0000 0.0000 0.0000
# 3 66.4083 62.7517 151.0289 0.0000 0.0000 0.0000
# 4 0.0000 0.0000 0.0000 261.9572 0.0000 0.0000
# 5 0.0000 0.0000 0.0000 0.0000 25.2397 0.0000
# 6 0.0000 0.0000 0.0000 0.0000 0.0000 24.3271
#
#
#
# Elastic Compliance Matrix: (Units=1/GPa)
#
#
# Indices 1 2 3 4 5 6 
#
# 1 0.006946 -0.001429 -0.002460 0.000000 0.000000 0.000000
# 2 -0.001429 0.006959 -0.002263 0.000000 0.000000 0.000000
# 3 -0.002460 -0.002263 0.008643 0.000000 0.000000 0.000000
# 4 0.000000 0.000000 0.000000 0.003817 0.000000 0.000000
# 5 0.000000 0.000000 0.000000 0.000000 0.039620 0.000000
# 6 0.000000 0.000000 0.000000 0.000000 0.000000 0.041106
#
#
# Mechanical properties :
#
#
# Convention : Reuss Voigt Hill
#
# Bulk Modulus (GPa) = 97.62666 97.99104 97.80885
# Shear Modulus (GPa) = 40.71250 83.57351 62.14300
#
# Velocity S-wave (km/s) = 4.63502 6.64083 5.72643
# Velocity P-wave (km/s) = 8.95326 10.51235 9.76397
#
# Compressibility (1/GPa) = 0.01024310
#
# Stress axis : x y z
#
# Youngs Moduli (GPa) = 143.96085 143.70035 115.69656
#
# Poissons Ratio (x) = 0.20542 0.28466
# Poissons Ratio (y) = 0.20579 0.26180
# Poissons Ratio (z) = 0.35420 0.32517
#
# Static dielectric constant tensor:
#      x y z
#    x 1.678710 0.000000 0.000000 
#    y 0.000000 1.718160 0.000000 
#    z 0.000000 0.000000 1.614970 
# 
# From -- ./inp_files/5123.got.cif
#   From: 2010.05.17/outbox.cif.g08.bks.cpg/sg51_3_cif.got.tgz:5123.got - 2010.06.03 11:52:47.
