data_PCOD9405496
_publ_section_title
;
Structure prediction by ZEFSAII (Michael W. Deem and Ramdas Pophale) SiO2 
 PCOD9405496
Probable space group: P M M A
;
_chemical_formula_sum "Si O2"
_cell_formula_units_Z 48
_cell_length_a 26.346842
_cell_length_b 8.406288
_cell_length_c 12.232536
_cell_angle_alpha 90.000000
_cell_angle_beta 90.000000
_cell_angle_gamma 90.000000
_cell_volume 2709.251575
_symmetry_space_group_name_H-M "P M M A"
_symmetry_group_IT_number 51
_symmetry_cell_setting 'orthorhombic'
loop_
_space_group_symop_operation_xyz
x,y,z
1/2-x,-y,z
1/2+x,-y,-z
-x,y,-z
-x,-y,-z
1/2+x,y,-z
1/2-x,y,z
x,-y,z
loop_
_atom_site_type_symbol
_atom_site_label
_atom_site_fract_x
_atom_site_fract_y
_atom_site_fract_z
Si Si1 0.573241 0.685199 0.767516
Si Si2 0.309060 0.190986 0.831690
Si Si3 0.942114 0.812031 0.528407
Si Si4 0.108185 0.313935 0.676970
Si Si5 0.887000 0.308683 0.989896
Si Si6 0.970041 0.184302 0.152284
O O1 0.581333 0.500000 0.742393
O O2 0.570591 0.779025 0.654437
O O3 0.612458 0.736747 0.862183
O O4 0.518608 0.708566 0.824799
O O5 0.250000 0.233958 0.835371
O O6 0.337835 0.264439 0.726980
O O7 0.313693 0.000000 0.826942
O O8 0.339520 0.251503 0.938249
O O9 0.903079 0.723595 0.448540
O O10 0.000000 0.758649 0.500000
O O11 0.939761 0.000000 0.506706
O O12 0.099582 0.500000 0.699732
O O13 0.067385 0.211509 0.745204
O O14 0.890619 0.500000 0.996346
O O15 0.936370 0.234638 0.049023
O O16 0.985027 0.000000 0.144931
#
# Coordination Sequence:
#
# PCOD9405496 Si02
#       6
#     8   8   8   8   8   8
#     4  11  22  34  50  74 107 146 184 219 263 316
#     4  10  21  38  61  85 108 136 174 223 276 326
#     4  11  22  35  53  77 108 148 188 224 265 317
#     4  11  21  34  55  80 109 143 180 225 270 316
#     4  10  21  35  52  77 107 139 177 221 268 319
#     4  11  20  31  49  74 106 144 182 219 261 312
#
# _framework density 17.717071000000001
#
# number of rings (size 3 to 8) (size 9 to 14) (size 15 to 20)
#    0.000    1.333    1.667    7.500    0.000    6.667 
#    0.000    0.000    0.000    1.000    0.000    4.667 
#    0.000    0.000    0.000    0.000    0.000    0.000 
#
# Total GULP energy -268095.662920 kJ/mol
# GULP energy per Si atom -5585.326311 kJ/mol
# Density = 1.767675 g / cm^3
# Si number density = 17.717071 Si / 1000 Ang^3
#
#
#
# Elastic Constant Matrix: (Units=GPa)
#
#
# Indices 1 2 3 4 5 6 
#
# 1 74.0423 6.2867 42.2493 0.0000 0.0000 0.0000
# 2 6.2867 49.5762 17.2696 0.0000 0.0000 0.0000
# 3 42.2493 17.2696 121.2328 0.0000 0.0000 0.0000
# 4 0.0000 0.0000 0.0000 44.0541 0.0000 0.0000
# 5 0.0000 0.0000 0.0000 0.0000 6.8875 0.0000
# 6 0.0000 0.0000 0.0000 0.0000 0.0000 19.7318
#
#
#
# Elastic Compliance Matrix: (Units=1/GPa)
#
#
# Indices 1 2 3 4 5 6 
#
# 1 0.016859 -0.000096 -0.005861 0.000000 0.000000 0.000000
# 2 -0.000096 0.021225 -0.002990 0.000000 0.000000 0.000000
# 3 -0.005861 -0.002990 0.010717 0.000000 0.000000 0.000000
# 4 0.000000 0.000000 0.000000 0.022699 0.000000 0.000000
# 5 0.000000 0.000000 0.000000 0.000000 0.145190 0.000000
# 6 0.000000 0.000000 0.000000 0.000000 0.000000 0.050680
#
#
# Mechanical properties :
#
#
# Convention : Reuss Voigt Hill
#
# Bulk Modulus (GPa) = 32.35670 41.82917 37.09294
# Shear Modulus (GPa) = 16.91669 26.07107 21.49388
#
# Velocity S-wave (km/s) = 3.09338 3.84020 3.48684
# Velocity P-wave (km/s) = 5.57327 6.58207 6.09856
#
# Compressibility (1/GPa) = 0.03090550
#
# Stress axis : x y z
#
# Youngs Moduli (GPa) = 59.31695 47.11498 93.30765
#
# Poissons Ratio (x) = 0.00452 0.54692
# Poissons Ratio (y) = 0.00570 0.27899
# Poissons Ratio (z) = 0.34769 0.14087
#
# Static dielectric constant tensor:
#      x y z
#    x 1.586050 0.000000 0.000000 
#    y 0.000000 1.595010 0.000000 
#    z 0.000000 0.000000 1.639410 
# 
# From -- ./inp_files/19014.got.cif
#   From: 2010.05.17/outbox.cif.g08.bks.cpg/sg51_10_cif.got.tgz:19014.got - 2010.06.03 11:52:47.
