data_PCOD9405665
_publ_section_title
;
Structure prediction by ZEFSAII (Michael W. Deem and Ramdas Pophale) SiO2 
 PCOD9405665
Probable space group: P M M A
;
_chemical_formula_sum "Si O2"
_cell_formula_units_Z 48
_cell_length_a 8.686264
_cell_length_b 10.117758
_cell_length_c 29.710066
_cell_angle_alpha 90.000000
_cell_angle_beta 90.000000
_cell_angle_gamma 90.000000
_cell_volume 2611.084513
_symmetry_space_group_name_H-M "P M M A"
_symmetry_group_IT_number 51
_symmetry_cell_setting 'orthorhombic'
loop_
_space_group_symop_operation_xyz
x,y,z
1/2-x,-y,z
1/2+x,-y,-z
-x,y,-z
-x,-y,-z
1/2+x,y,-z
1/2-x,y,z
x,-y,z
loop_
_atom_site_type_symbol
_atom_site_label
_atom_site_fract_x
_atom_site_fract_y
_atom_site_fract_z
Si Si1 0.436224 0.653617 0.871105
Si Si2 0.067022 0.251061 0.602448
Si Si3 0.064116 0.152237 0.204027
Si Si4 0.065995 0.155527 0.308128
Si Si5 0.066545 0.500000 0.449669
Si Si6 0.064269 0.150217 0.950080
Si Si7 0.934207 0.000000 0.550361
O O1 0.250000 0.653000 0.870655
O O2 0.487297 0.500000 0.871111
O O3 0.494340 0.739184 0.828917
O O4 0.486405 0.737555 0.915058
O O5 0.250000 0.251924 0.597803
O O6 0.995961 0.125523 0.577233
O O7 0.020498 0.240433 0.654722
O O8 0.994083 0.375139 0.577738
O O9 0.250000 0.155019 0.200826
O O10 0.024014 0.180524 0.256177
O O11 0.015543 0.000000 0.193593
O O12 0.250000 0.174537 0.312835
O O13 0.034771 0.000000 0.316755
O O14 0.250000 0.500000 0.452095
O O15 0.000000 0.500000 0.500000
O O16 0.250000 0.152633 0.951864
O O17 0.018409 0.000000 0.936065
O O18 0.000000 0.172665 0.000000
O O19 0.000000 0.000000 0.500000
O O20 0.250000 0.000000 0.450773
#
# Coordination Sequence:
#
# PCOD9405665 Si02
#       7
#     8   8   8   8   4   8   4
#     4  10  21  36  53  78 114 153 191 234 284 341
#     4  12  24  40  62  92 122 152 195 244 291 348
#     4   9  19  36  59  85 111 145 190 237 283 339
#     4   9  18  36  61  87 116 150 190 236 290 346
#     4  12  26  46  66  86 118 160 198 238 291 350
#     4   9  18  33  53  77 106 143 189 238 288 341
#     4  12  24  40  62  90 122 158 196 240 291 346
#
# _framework density 18.383165999999999
#
# number of rings (size 3 to 8) (size 9 to 14) (size 15 to 20)
#    0.000    1.833    0.833    5.000    0.000    3.000 
#    1.500    3.333    0.000    0.000    0.000    0.000 
#    0.000    0.000    0.000    0.000    0.000    0.000 
#
# Total GULP energy -268069.400094 kJ/mol
# GULP energy per Si atom -5584.779169 kJ/mol
# Density = 1.834132 g / cm^3
# Si number density = 18.383166 Si / 1000 Ang^3
#
#
#
# Elastic Constant Matrix: (Units=GPa)
#
#
# Indices 1 2 3 4 5 6 
#
# 1 78.8539 56.7176 51.7067 0.0000 0.0000 0.0000
# 2 56.7176 178.4580 107.6947 0.0000 0.0000 0.0000
# 3 51.7067 107.6947 147.1006 0.0000 0.0000 0.0000
# 4 0.0000 0.0000 0.0000 28.3017 0.0000 0.0000
# 5 0.0000 0.0000 0.0000 0.0000 37.4203 0.0000
# 6 0.0000 0.0000 0.0000 0.0000 0.0000 28.2226
#
#
#
# Elastic Compliance Matrix: (Units=1/GPa)
#
#
# Indices 1 2 3 4 5 6 
#
# 1 0.017511 -0.003316 -0.003728 0.000000 0.000000 0.000000
# 2 -0.003316 0.010667 -0.006644 0.000000 0.000000 0.000000
# 3 -0.003728 -0.006644 0.012972 0.000000 0.000000 0.000000
# 4 0.000000 0.000000 0.000000 0.035334 0.000000 0.000000
# 5 0.000000 0.000000 0.000000 0.000000 0.026723 0.000000
# 6 0.000000 0.000000 0.000000 0.000000 0.000000 0.035433
#
#
# Mechanical properties :
#
#
# Convention : Reuss Voigt Hill
#
# Bulk Modulus (GPa) = 72.59192 92.96118 82.77655
# Shear Modulus (GPa) = 29.30729 31.34182 30.32456
#
# Velocity S-wave (km/s) = 3.99713 4.13355 4.06591
# Velocity P-wave (km/s) = 7.80236 8.57088 8.19563
#
# Compressibility (1/GPa) = 0.01377564
#
# Stress axis : x y z
#
# Youngs Moduli (GPa) = 57.10697 93.74954 77.08703
#
# Poissons Ratio (x) = 0.31086 0.28735
# Poissons Ratio (y) = 0.18936 0.51215
# Poissons Ratio (z) = 0.21287 0.62285
#
# Static dielectric constant tensor:
#      x y z
#    x 1.617400 0.000000 0.000000 
#    y 0.000000 1.607950 0.000000 
#    z 0.000000 0.000000 1.622240 
# 
# From -- ./inp_files/37186.got.cif
#   From: 2010.05.17/outbox.cif.g08.bks.cpg/sg51_19_cif.got.tgz:37186.got - 2010.06.03 11:52:47.
