data_PCOD9405304
_publ_section_title
;
Structure prediction by ZEFSAII (Michael W. Deem and Ramdas Pophale) SiO2 
 PCOD9405304
Probable space group: P M M A
;
_chemical_formula_sum "Si O2"
_cell_formula_units_Z 56
_cell_length_a 7.445550
_cell_length_b 15.595584
_cell_length_c 22.922723
_cell_angle_alpha 90.000000
_cell_angle_beta 90.000000
_cell_angle_gamma 90.000000
_cell_volume 2661.733883
_symmetry_space_group_name_H-M "P M M A"
_symmetry_group_IT_number 51
_symmetry_cell_setting 'orthorhombic'
loop_
_space_group_symop_operation_xyz
x,y,z
1/2-x,-y,z
1/2+x,-y,-z
-x,y,-z
-x,-y,-z
1/2+x,y,-z
1/2-x,y,z
x,-y,z
loop_
_atom_site_type_symbol
_atom_site_label
_atom_site_fract_x
_atom_site_fract_y
_atom_site_fract_z
Si Si1 0.032762 0.403217 0.836416
Si Si2 0.535242 0.903104 0.567201
Si Si3 0.033205 0.903920 0.228156
Si Si4 0.960025 0.595370 0.700882
Si Si5 0.464948 0.276872 0.936359
Si Si6 0.541179 0.906331 0.091978
Si Si7 0.970502 0.221254 0.669300
O O1 0.250000 0.400808 0.835633
O O2 0.978517 0.500000 0.852726
O O3 0.967185 0.334418 0.883174
O O4 0.971732 0.387969 0.770366
O O5 0.500000 0.880306 0.500000
O O6 0.750000 0.907190 0.574725
O O7 0.470063 0.833832 0.613649
O O8 0.465527 0.000000 0.577154
O O9 0.250000 0.901082 0.225547
O O10 0.973855 0.830753 0.272669
O O11 0.966091 0.894841 0.162159
O O12 0.983289 0.000000 0.248950
O O13 0.750000 0.590680 0.685418
O O14 0.037663 0.500000 0.690184
O O15 0.034059 0.680599 0.670609
O O16 0.250000 0.271085 0.928816
O O17 0.539597 0.180073 0.934080
O O18 0.500000 0.314851 0.000000
O O19 0.750000 0.909911 0.074677
O O20 0.461248 0.000000 0.078313
O O21 0.750000 0.222877 0.669862
#
# Coordination Sequence:
#
# PCOD9405304 Si02
#       7
#     8   8   8   8   8   8   8
#     4   9  18  33  50  67  90 117 141 172 221 272
#     4   9  17  30  47  66  91 124 158 189 221 257
#     4   9  16  26  43  67  89 110 141 177 213 260
#     4   9  17  29  47  71  93 114 145 181 215 258
#     4  10  21  34  47  64  85 111 145 181 216 258
#     4   9  18  32  46  61  86 116 141 172 218 264
#     4   9  16  27  45  67  92 120 147 180 222 261
#
# _framework density 21.038917999999999
#
# number of rings (size 3 to 8) (size 9 to 14) (size 15 to 20)
#    0.000    2.857    0.000    1.286    0.000    3.429 
#    0.000    1.429    0.000    3.857    0.000    0.000 
#    0.000    0.000    0.000    0.000    0.000    0.000 
#
# Total GULP energy -312564.483394 kJ/mol
# GULP energy per Si atom -5581.508632 kJ/mol
# Density = 2.099103 g / cm^3
# Si number density = 21.038918 Si / 1000 Ang^3
#
#
#
# Elastic Constant Matrix: (Units=GPa)
#
#
# Indices 1 2 3 4 5 6 
#
# 1 66.2953 7.8013 -6.7735 0.0000 0.0000 0.0000
# 2 7.8013 141.7268 62.6355 0.0000 0.0000 0.0000
# 3 -6.7735 62.6355 65.8148 0.0000 0.0000 0.0000
# 4 0.0000 0.0000 0.0000 49.8662 0.0000 0.0000
# 5 0.0000 0.0000 0.0000 0.0000 10.0628 0.0000
# 6 0.0000 0.0000 0.0000 0.0000 0.0000 -5.8232
#
#
#
# Elastic Compliance Matrix: (Units=1/GPa)
#
#
# Indices 1 2 3 4 5 6 
#
# 1 0.015841 -0.002749 0.004246 0.000000 0.000000 0.000000
# 2 -0.002749 0.012655 -0.012326 0.000000 0.000000 0.000000
# 3 0.004246 -0.012326 0.027362 0.000000 0.000000 0.000000
# 4 0.000000 0.000000 0.000000 0.020054 0.000000 0.000000
# 5 0.000000 0.000000 0.000000 0.000000 0.099376 0.000000
# 6 0.000000 0.000000 0.000000 0.000000 0.000000 -0.171726
#
#
# Mechanical properties :
#
#
# Convention : Reuss Voigt Hill
#
# Bulk Modulus (GPa) = 29.23930 44.57373 36.90651
# Shear Modulus (GPa) = 136.53969 24.83271 80.68620
#
# Velocity S-wave (km/s) = 8.06471 3.43931 6.19953
# Velocity P-wave (km/s) = 10.03231 6.08310 8.29612
#
# Compressibility (1/GPa) = 0.03420055
#
# Stress axis : x y z
#
# Youngs Moduli (GPa) = 63.12626 79.02243 36.54712
#
# Poissons Ratio (x) = 0.21719 -0.15518
# Poissons Ratio (y) = 0.17350 0.45049
# Poissons Ratio (z) = -0.26804 0.97405
#
# Static dielectric constant tensor:
#      x y z
#    x 1.786980 0.000000 0.000000 
#    y 0.000000 1.791560 0.000000 
#    z 0.000000 0.000000 1.706910 
# 
# From -- ./inp_files/23320.got.cif
#   From: 2010.05.17/outbox.cif.g08.bks.cpg/sg51_12_cif.got.tgz:23320.got - 2010.06.03 11:52:47.
