data_PCOD9405170
_publ_section_title
;
Structure prediction by ZEFSAII (Michael W. Deem and Ramdas Pophale) SiO2 
 PCOD9405170
Probable space group: P M M A
;
_chemical_formula_sum "Si O2"
_cell_formula_units_Z 44
_cell_length_a 10.531616
_cell_length_b 7.713469
_cell_length_c 28.648414
_cell_angle_alpha 90.000000
_cell_angle_beta 90.000000
_cell_angle_gamma 90.000000
_cell_volume 2327.262321
_symmetry_space_group_name_H-M "P M M A"
_symmetry_group_IT_number 51
_symmetry_cell_setting 'orthorhombic'
loop_
_space_group_symop_operation_xyz
x,y,z
1/2-x,-y,z
1/2+x,-y,-z
-x,y,-z
-x,-y,-z
1/2+x,y,-z
1/2-x,y,z
x,-y,z
loop_
_atom_site_type_symbol
_atom_site_label
_atom_site_fract_x
_atom_site_fract_y
_atom_site_fract_z
Si Si1 0.895140 0.208413 0.799306
Si Si2 0.503235 0.210753 0.104537
Si Si3 0.250000 0.198066 0.055479
Si Si4 0.896513 0.000000 0.459482
Si Si5 0.750000 0.305484 0.047332
Si Si6 0.396759 0.706764 0.617939
Si Si7 0.105611 0.293031 0.306448
O O1 0.750000 0.271439 0.806639
O O2 0.983214 0.266674 0.841872
O O3 0.932983 0.256128 0.746897
O O4 0.891202 0.000000 0.801612
O O5 0.379525 0.272803 0.076010
O O6 0.627825 0.274927 0.079020
O O7 0.509280 0.000000 0.103258
O O8 0.250000 0.000000 0.073270
O O9 0.250000 0.195104 0.999782
O O10 0.912233 0.170057 0.426854
O O11 0.000000 0.000000 0.500000
O O12 0.750000 0.000000 0.476748
O O13 0.750000 0.500000 0.029162
O O14 0.250000 0.728509 0.634100
O O15 0.413758 0.500000 0.608058
O O16 0.499718 0.763602 0.656587
O O17 0.250000 0.223435 0.313411
O O18 0.113171 0.500000 0.311369
#
# Coordination Sequence:
#
# PCOD9405170 Si02
#       7
#     8   8   4   4   4   8   8
#     4   9  17  32  55  82 106 132 173 225 275 326
#     4  10  20  38  60  79 104 137 177 222 273 331
#     4  10  20  38  64  82  96 134 180 222 270 333
#     4  10  22  38  58  86 118 152 196 242 283 336
#     4  12  26  38  50  78 112 138 174 222 272 329
#     4   9  19  37  57  79 115 157 192 233 284 339
#     4   9  18  32  52  80 110 143 184 225 270 329
#
# _framework density 18.906334999999999
#
# number of rings (size 3 to 8) (size 9 to 14) (size 15 to 20)
#    0.000    2.364    0.909    1.364    1.273    4.727 
#    1.636    0.000    0.000    0.000    0.000    0.000 
#    0.000    0.000    0.000    0.000    0.000    0.000 
#
# Total GULP energy -245402.052491 kJ/mol
# GULP energy per Si atom -5577.319375 kJ/mol
# Density = 1.886330 g / cm^3
# Si number density = 18.906335 Si / 1000 Ang^3
#
#
#
# Elastic Constant Matrix: (Units=GPa)
#
#
# Indices 1 2 3 4 5 6 
#
# 1 149.5116 21.5983 97.3129 0.0000 0.0000 0.0000
# 2 21.5983 45.4707 16.0193 0.0000 0.0000 0.0000
# 3 97.3129 16.0193 125.3956 0.0000 0.0000 0.0000
# 4 0.0000 0.0000 0.0000 62.9565 0.0000 0.0000
# 5 0.0000 0.0000 0.0000 0.0000 31.2788 0.0000
# 6 0.0000 0.0000 0.0000 0.0000 0.0000 79.1435
#
#
#
# Elastic Compliance Matrix: (Units=1/GPa)
#
#
# Indices 1 2 3 4 5 6 
#
# 1 0.013878 -0.002930 -0.010396 0.000000 0.000000 0.000000
# 2 -0.002930 0.023647 -0.000747 0.000000 0.000000 0.000000
# 3 -0.010396 -0.000747 0.016138 0.000000 0.000000 0.000000
# 4 0.000000 0.000000 0.000000 0.015884 0.000000 0.000000
# 5 0.000000 0.000000 0.000000 0.000000 0.031971 0.000000
# 6 0.000000 0.000000 0.000000 0.000000 0.000000 0.012635
#
#
# Mechanical properties :
#
#
# Convention : Reuss Voigt Hill
#
# Bulk Modulus (GPa) = 39.18896 65.58210 52.38553
# Shear Modulus (GPa) = 33.15575 47.03893 40.09734
#
# Velocity S-wave (km/s) = 4.19224 4.99340 4.61026
# Velocity P-wave (km/s) = 6.64877 8.24673 7.49048
#
# Compressibility (1/GPa) = 0.02551739
#
# Stress axis : x y z
#
# Youngs Moduli (GPa) = 72.05718 42.28867 61.96647
#
# Poissons Ratio (x) = 0.12389 0.64418
# Poissons Ratio (y) = 0.21109 0.04632
# Poissons Ratio (z) = 0.74908 0.03161
#
# Static dielectric constant tensor:
#      x y z
#    x 1.653080 0.000000 0.000000 
#    y 0.000000 1.697060 0.000000 
#    z 0.000000 0.000000 1.624190 
# 
# From -- ./inp_files/36850.got.cif
#   From: 2010.05.17/outbox.cif.g08.bks.cpg/sg51_19_cif.got.tgz:36850.got - 2010.06.03 11:52:47.
