data_PCOD9405109
_publ_section_title
;
Structure prediction by ZEFSAII (Michael W. Deem and Ramdas Pophale) SiO2 
 PCOD9405109
Probable space group: P M M A
;
_chemical_formula_sum "Si O2"
_cell_formula_units_Z 64
_cell_length_a 14.608861
_cell_length_b 19.054268
_cell_length_c 11.879683
_cell_angle_alpha 90.000000
_cell_angle_beta 90.000000
_cell_angle_gamma 90.000000
_cell_volume 3306.842253
_symmetry_space_group_name_H-M "P M M A"
_symmetry_group_IT_number 51
_symmetry_cell_setting 'orthorhombic'
loop_
_space_group_symop_operation_xyz
x,y,z
1/2-x,-y,z
1/2+x,-y,-z
-x,y,-z
-x,-y,-z
1/2+x,y,-z
1/2-x,y,z
x,-y,z
loop_
_atom_site_type_symbol
_atom_site_label
_atom_site_fract_x
_atom_site_fract_y
_atom_site_fract_z
Si Si1 0.892331 0.310905 0.019940
Si Si2 0.356804 0.826559 0.227962
Si Si3 0.011530 0.418368 0.633611
Si Si4 0.643786 0.684663 0.272750
Si Si5 0.526587 0.813201 0.374008
Si Si6 0.851944 0.343860 0.779015
Si Si7 0.859625 0.917917 0.250903
Si Si8 0.853723 0.147869 0.017576
O O1 0.871170 0.337977 0.143498
O O2 0.852129 0.232214 0.026484
O O3 0.858985 0.355998 0.913754
O O4 0.000000 0.302189 0.000000
O O5 0.250000 0.845409 0.247646
O O6 0.432285 0.841059 0.320363
O O7 0.359117 0.741155 0.223339
O O8 0.389413 0.860426 0.109463
O O9 0.010060 0.500000 0.665117
O O10 0.107783 0.381183 0.658017
O O11 0.000000 0.412246 0.500000
O O12 0.931817 0.378742 0.705304
O O13 0.750000 0.703548 0.290995
O O14 0.576282 0.749002 0.307452
O O15 0.500000 0.791476 0.500000
O O16 0.596782 0.876701 0.355032
O O17 0.750000 0.363823 0.739266
O O18 0.750000 0.908478 0.254211
O O19 0.893521 0.884343 0.131666
O O20 0.880398 0.000000 0.252210
O O21 0.750000 0.120740 0.013194
#
# Coordination Sequence:
#
# PCOD9405109 Si02
#       8
#     8   8   8   8   8   8   8   8
#     4  11  18  33  62  93 125 155 192 251 321 371
#     4   9  19  35  59  88 122 155 198 257 316 369
#     4  11  25  45  63  86 124 169 213 257 306 369
#     4  12  23  39  64  94 124 160 207 264 317 375
#     4  12  24  39  60  89 126 166 216 262 310 361
#     4  10  20  37  61  92 122 158 203 251 309 372
#     4  10  22  40  62  90 125 164 207 258 317 382
#     4   9  17  32  55  85 117 152 193 246 309 371
#
# _framework density 19.353811
#
# number of rings (size 3 to 8) (size 9 to 14) (size 15 to 20)
#    0.000    1.500    3.750    3.375    0.000    2.250 
#    0.000    3.750    0.000    2.625    0.000    0.000 
#    0.000    0.000    0.000    0.000    0.000    0.000 
#
# Total GULP energy -356644.134217 kJ/mol
# GULP energy per Si atom -5572.564597 kJ/mol
# Density = 1.930976 g / cm^3
# Si number density = 19.353811 Si / 1000 Ang^3
#
#
#
# Elastic Constant Matrix: (Units=GPa)
#
#
# Indices 1 2 3 4 5 6 
#
# 1 101.1191 23.4245 18.3658 0.0000 0.0000 0.0000
# 2 23.4245 56.0540 16.9529 0.0000 0.0000 0.0000
# 3 18.3658 16.9529 57.6349 0.0000 0.0000 0.0000
# 4 0.0000 0.0000 0.0000 -35.7082 0.0000 0.0000
# 5 0.0000 0.0000 0.0000 0.0000 19.9179 0.0000
# 6 0.0000 0.0000 0.0000 0.0000 0.0000 16.9132
#
#
#
# Elastic Compliance Matrix: (Units=1/GPa)
#
#
# Indices 1 2 3 4 5 6 
#
# 1 0.011248 -0.003969 -0.002417 0.000000 0.000000 0.000000
# 2 -0.003969 0.020983 -0.004907 0.000000 0.000000 0.000000
# 3 -0.002417 -0.004907 0.019564 0.000000 0.000000 0.000000
# 4 0.000000 0.000000 0.000000 -0.028005 0.000000 0.000000
# 5 0.000000 0.000000 0.000000 0.000000 0.050206 0.000000
# 6 0.000000 0.000000 0.000000 0.000000 0.000000 0.059125
#
#
# Mechanical properties :
#
#
# Convention : Reuss Voigt Hill
#
# Bulk Modulus (GPa) = 34.23674 36.92161 35.57917
# Shear Modulus (GPa) = 30.22176 10.62891 20.42534
#
# Velocity S-wave (km/s) = 3.95592 2.34602 3.25216
# Velocity P-wave (km/s) = 6.21241 5.14364 5.70312
#
# Compressibility (1/GPa) = 0.02920839
#
# Stress axis : x y z
#
# Youngs Moduli (GPa) = 88.90634 47.65803 51.11420
#
# Poissons Ratio (x) = 0.18918 0.12352
# Poissons Ratio (y) = 0.35291 0.25082
# Poissons Ratio (z) = 0.21485 0.23386
#
# Static dielectric constant tensor:
#      x y z
#    x 1.727870 0.000000 0.000000 
#    y 0.000000 1.662340 0.000000 
#    z 0.000000 0.000000 1.740460 
# 
# From -- ./inp_files/16857.got.cif
#   From: 2010.05.17/outbox.cif.g08.bks.cpg/sg51_9_cif.got.tgz:16857.got - 2010.06.03 11:52:47.
