data_PCOD9405125
_publ_section_title
;
Structure prediction by ZEFSAII (Michael W. Deem and Ramdas Pophale) SiO2 
 PCOD9405125
Probable space group: P M M A
;
_chemical_formula_sum "Si O2"
_cell_formula_units_Z 38
_cell_length_a 9.012686
_cell_length_b 25.094473
_cell_length_c 9.188100
_cell_angle_alpha 90.000000
_cell_angle_beta 90.000000
_cell_angle_gamma 90.000000
_cell_volume 2078.059764
_symmetry_space_group_name_H-M "P M M A"
_symmetry_group_IT_number 51
_symmetry_cell_setting 'orthorhombic'
loop_
_space_group_symop_operation_xyz
x,y,z
1/2-x,-y,z
1/2+x,-y,-z
-x,y,-z
-x,-y,-z
1/2+x,y,-z
1/2-x,y,z
x,-y,z
loop_
_atom_site_type_symbol
_atom_site_label
_atom_site_fract_x
_atom_site_fract_y
_atom_site_fract_z
Si Si1 0.571192 0.105961 0.340459
Si Si2 0.413352 0.391499 0.848383
Si Si3 0.424991 0.692236 0.345707
Si Si4 0.573522 0.798640 0.841652
Si Si5 0.750000 0.500000 0.202087
Si Si6 0.572617 0.000000 0.158323
O O1 0.500000 0.103240 0.500000
O O2 0.750000 0.110200 0.350861
O O3 0.504120 0.156074 0.254835
O O4 0.533453 0.052651 0.249867
O O5 0.250000 0.365666 0.868272
O O6 0.502207 0.359532 0.727112
O O7 0.376873 0.452257 0.805056
O O8 0.500000 0.390080 0.000000
O O9 0.500000 0.703621 0.500000
O O10 0.250000 0.684180 0.366097
O O11 0.446983 0.741992 0.237789
O O12 0.750000 0.809009 0.852772
O O13 0.500000 0.797831 0.000000
O O14 0.750000 0.000000 0.139610
O O15 0.500000 0.000000 0.000000
#
# Coordination Sequence:
#
# PCOD9405125 Si02
#       6
#     8   8   8   8   2   4
#     4  11  23  40  62  90 125 163 207 253 309 365
#     4  10  20  37  62  89 122 153 198 242 294 351
#     4  11  24  41  62  88 121 160 200 247 303 360
#     4  11  24  41  63  92 123 157 202 252 304 361
#     4   8  22  36  64  90 126 152 202 240 302 340
#     4  10  23  40  60  88 122 164 209 258 305 360
#
# _framework density 18.286287999999999
#
# number of rings (size 3 to 8) (size 9 to 14) (size 15 to 20)
#    0.632    0.842    0.000    5.053    0.000   10.105 
#    0.000    0.526    0.000    0.000    0.000    0.000 
#    0.000    0.000    0.000    0.000    0.000    0.000 
#
# Total GULP energy -211717.612080 kJ/mol
# GULP energy per Si atom -5571.516107 kJ/mol
# Density = 1.824467 g / cm^3
# Si number density = 18.286288 Si / 1000 Ang^3
#
#
#
# Elastic Constant Matrix: (Units=GPa)
#
#
# Indices 1 2 3 4 5 6 
#
# 1 117.4537 69.5834 86.0352 0.0000 0.0000 0.0000
# 2 69.5834 76.5720 76.5456 0.0000 0.0000 0.0000
# 3 86.0352 76.5456 163.2889 0.0000 0.0000 0.0000
# 4 0.0000 0.0000 0.0000 18.0385 0.0000 0.0000
# 5 0.0000 0.0000 0.0000 0.0000 37.5298 0.0000
# 6 0.0000 0.0000 0.0000 0.0000 0.0000 34.9180
#
#
#
# Elastic Compliance Matrix: (Units=1/GPa)
#
#
# Indices 1 2 3 4 5 6 
#
# 1 0.019572 -0.014071 -0.003716 0.000000 0.000000 0.000000
# 2 -0.014071 0.034692 -0.008849 0.000000 0.000000 0.000000
# 3 -0.003716 -0.008849 0.012230 0.000000 0.000000 0.000000
# 4 0.000000 0.000000 0.000000 0.055437 0.000000 0.000000
# 5 0.000000 0.000000 0.000000 0.000000 0.026646 0.000000
# 6 0.000000 0.000000 0.000000 0.000000 0.000000 0.028639
#
#
# Mechanical properties :
#
#
# Convention : Reuss Voigt Hill
#
# Bulk Modulus (GPa) = 75.62922 91.29368 83.46145
# Shear Modulus (GPa) = 21.28600 26.44060 23.86330
#
# Velocity S-wave (km/s) = 3.41551 3.80666 3.61637
# Velocity P-wave (km/s) = 7.55000 8.32790 7.94847
#
# Compressibility (1/GPa) = 0.01322240
#
# Stress axis : x y z
#
# Youngs Moduli (GPa) = 51.09265 28.82488 81.76324
#
# Poissons Ratio (x) = 0.40559 0.30386
# Poissons Ratio (y) = 0.71892 0.72353
# Poissons Ratio (z) = 0.18988 0.25507
#
# Static dielectric constant tensor:
#      x y z
#    x 1.622520 0.000000 0.000000 
#    y 0.000000 1.607920 0.000000 
#    z 0.000000 0.000000 1.596760 
# 
# From -- ./inp_files/5307.got.cif
#   From: 2010.05.17/outbox.cif.g08.bks.cpg/sg51_3_cif.got.tgz:5307.got - 2010.06.03 11:52:47.
