data_PCOD9405851
_publ_section_title
;
Structure prediction by ZEFSAII (Michael W. Deem and Ramdas Pophale) SiO2 
 PCOD9405851
Probable space group: P M M A
;
_chemical_formula_sum "Si O2"
_cell_formula_units_Z 64
_cell_length_a 25.530512
_cell_length_b 9.182071
_cell_length_c 14.623377
_cell_angle_alpha 90.000000
_cell_angle_beta 90.000000
_cell_angle_gamma 90.000000
_cell_volume 3428.055524
_symmetry_space_group_name_H-M "P M M A"
_symmetry_group_IT_number 51
_symmetry_cell_setting 'orthorhombic'
loop_
_space_group_symop_operation_xyz
x,y,z
1/2-x,-y,z
1/2+x,-y,-z
-x,y,-z
-x,-y,-z
1/2+x,y,-z
1/2-x,y,z
x,-y,z
loop_
_atom_site_type_symbol
_atom_site_label
_atom_site_fract_x
_atom_site_fract_y
_atom_site_fract_z
Si Si1 0.189258 0.673279 0.217024
Si Si2 0.488693 0.171506 0.209444
Si Si3 0.189788 0.325615 0.773294
Si Si4 0.095644 0.326597 0.083868
Si Si5 0.686900 0.830035 0.594760
Si Si6 0.027877 0.173101 0.596473
Si Si7 0.361616 0.326543 0.580235
Si Si8 0.099976 0.172196 0.889339
O O1 0.250000 0.708653 0.197153
O O2 0.186158 0.500000 0.235782
O O3 0.151046 0.704945 0.133088
O O4 0.172722 0.759154 0.307970
O O5 0.448872 0.267410 0.151713
O O6 0.491212 0.207868 0.316907
O O7 0.547258 0.192083 0.170127
O O8 0.475276 0.000000 0.199098
O O9 0.250000 0.285619 0.791296
O O10 0.184303 0.500000 0.786800
O O11 0.174967 0.295038 0.667785
O O12 0.148806 0.243609 0.837334
O O13 0.090750 0.500000 0.071764
O O14 0.092073 0.247079 0.987143
O O15 0.750000 0.817545 0.586002
O O16 0.660322 0.748126 0.510735
O O17 0.672640 0.000000 0.593452
O O18 0.081172 0.263113 0.601309
O O19 0.000000 0.199806 0.500000
O O20 0.040053 0.000000 0.602923
O O21 0.363756 0.500000 0.568080
O O22 0.108146 0.000000 0.900591
#
# Coordination Sequence:
#
# PCOD9405851 Si02
#       8
#     8   8   8   8   8   8   8   8
#     4   9  20  40  61  84 118 156 193 240 297 353
#     4  10  22  41  62  87 122 160 198 247 301 356
#     4  10  22  40  62  89 122 161 202 246 302 362
#     4  11  24  39  62  92 119 154 202 249 302 366
#     4  10  21  36  57  85 116 153 196 240 286 344
#     4  10  22  40  61  88 122 162 200 241 299 357
#     4  11  22  37  60  88 122 159 198 245 297 358
#     4  11  23  41  63  88 119 155 200 250 304 357
#
# _framework density 18.669477000000001
#
# number of rings (size 3 to 8) (size 9 to 14) (size 15 to 20)
#    0.000    1.750    1.250    2.250    1.750    6.750 
#    0.000    1.250    0.000    0.000    0.000    0.000 
#    0.000    0.000    0.000    0.000    0.000    0.000 
#
# Total GULP energy -357686.822685 kJ/mol
# GULP energy per Si atom -5588.856604 kJ/mol
# Density = 1.862698 g / cm^3
# Si number density = 18.669477 Si / 1000 Ang^3
#
#
#
# Elastic Constant Matrix: (Units=GPa)
#
#
# Indices 1 2 3 4 5 6 
#
# 1 61.2486 38.7629 30.1286 0.0000 0.0000 0.0000
# 2 38.7629 54.2244 53.3754 0.0000 0.0000 0.0000
# 3 30.1286 53.3754 124.9300 0.0000 0.0000 0.0000
# 4 0.0000 0.0000 0.0000 30.5667 0.0000 0.0000
# 5 0.0000 0.0000 0.0000 0.0000 28.2669 0.0000
# 6 0.0000 0.0000 0.0000 0.0000 0.0000 31.4958
#
#
#
# Elastic Compliance Matrix: (Units=1/GPa)
#
#
# Indices 1 2 3 4 5 6 
#
# 1 0.030629 -0.025239 0.003397 0.000000 0.000000 0.000000
# 2 -0.025239 0.052624 -0.016396 0.000000 0.000000 0.000000
# 3 0.003397 -0.016396 0.014191 0.000000 0.000000 0.000000
# 4 0.000000 0.000000 0.000000 0.032715 0.000000 0.000000
# 5 0.000000 0.000000 0.000000 0.000000 0.035377 0.000000
# 6 0.000000 0.000000 0.000000 0.000000 0.000000 0.031750
#
#
# Mechanical properties :
#
#
# Convention : Reuss Voigt Hill
#
# Bulk Modulus (GPa) = 47.69629 53.88187 50.78908
# Shear Modulus (GPa) = 17.80921 25.94163 21.87542
#
# Velocity S-wave (km/s) = 3.09191 3.73167 3.42675
# Velocity P-wave (km/s) = 6.19272 6.89135 6.55136
#
# Compressibility (1/GPa) = 0.02096599
#
# Stress axis : x y z
#
# Youngs Moduli (GPa) = 32.64837 19.00269 70.46898
#
# Poissons Ratio (x) = 0.47961 -0.23935
# Poissons Ratio (y) = 0.82402 1.15544
# Poissons Ratio (z) = -0.11089 0.31158
#
# Static dielectric constant tensor:
#      x y z
#    x 1.628660 0.000000 0.000000 
#    y 0.000000 1.621870 0.000000 
#    z 0.000000 0.000000 1.619880 
# 
# From -- ./inp_files/26226.got.cif
#   From: 2010.05.17/outbox.cif.g08.bks.cpg/sg51_14_cif.got.tgz:26226.got - 2010.06.03 11:52:47.
