data_PCOD9405848
_publ_section_title
;
Structure prediction by ZEFSAII (Michael W. Deem and Ramdas Pophale) SiO2 
 PCOD9405848
Probable space group: P M M A
;
_chemical_formula_sum "Si O2"
_cell_formula_units_Z 48
_cell_length_a 10.344591
_cell_length_b 8.898325
_cell_length_c 29.682875
_cell_angle_alpha 90.000000
_cell_angle_beta 90.000000
_cell_angle_gamma 90.000000
_cell_volume 2732.294773
_symmetry_space_group_name_H-M "P M M A"
_symmetry_group_IT_number 51
_symmetry_cell_setting 'orthorhombic'
loop_
_space_group_symop_operation_xyz
x,y,z
1/2-x,-y,z
1/2+x,-y,-z
-x,y,-z
-x,-y,-z
1/2+x,y,-z
1/2-x,y,z
x,-y,z
loop_
_atom_site_type_symbol
_atom_site_label
_atom_site_fract_x
_atom_site_fract_y
_atom_site_fract_z
Si Si1 0.750000 0.820397 0.943496
Si Si2 0.600849 0.819485 0.538474
Si Si3 0.597186 0.677780 0.197965
Si Si4 0.750000 0.179745 0.050465
Si Si5 0.003897 0.680834 0.899691
Si Si6 0.899392 0.320083 0.636346
Si Si7 0.900440 0.820456 0.293629
O O1 0.624675 0.748198 0.920878
O O2 0.750000 0.000000 0.937298
O O3 0.750000 0.790773 0.997038
O O4 0.500000 0.773431 0.500000
O O5 0.750000 0.786637 0.525640
O O6 0.574738 0.741480 0.586171
O O7 0.589963 0.000000 0.544323
O O8 0.750000 0.699894 0.188215
O O9 0.578089 0.500000 0.206531
O O10 0.520132 0.720270 0.153104
O O11 0.565621 0.767749 0.243074
O O12 0.624832 0.251808 0.073412
O O13 0.750000 0.000000 0.057181
O O14 0.005503 0.500000 0.902997
O O15 0.750000 0.278359 0.647540
O O16 0.908145 0.500000 0.636630
O O17 0.001511 0.252117 0.671092
O O18 0.750000 0.774885 0.301655
O O19 0.907071 0.000000 0.296775
#
# Coordination Sequence:
#
# PCOD9405848 Si02
#       7
#     4   8   8   4   8   8   8
#     4  11  25  41  55  83 121 153 187 231 286 337
#     4   9  18  33  53  77 108 146 186 230 277 326
#     4   9  18  36  59  83 111 142 180 227 279 333
#     4  11  23  39  61  85 115 153 189 231 282 339
#     4  11  22  39  62  87 113 148 191 235 282 337
#     4  10  21  37  56  80 112 151 190 229 278 332
#     4  10  21  36  57  85 111 140 183 231 277 331
#
# _framework density 17.567651000000001
#
# number of rings (size 3 to 8) (size 9 to 14) (size 15 to 20)
#    0.000    2.000    0.833    2.500    0.000    7.667 
#    1.500    1.667    0.000    0.000    0.000    0.000 
#    0.000    0.000    0.000    0.000    0.000    0.000 
#
# Total GULP energy -268033.132001 kJ/mol
# GULP energy per Si atom -5584.023583 kJ/mol
# Density = 1.752767 g / cm^3
# Si number density = 17.567651 Si / 1000 Ang^3
#
#
#
# Elastic Constant Matrix: (Units=GPa)
#
#
# Indices 1 2 3 4 5 6 
#
# 1 151.1718 65.7665 117.5482 0.0000 0.0000 0.0000
# 2 65.7665 61.0657 76.5447 0.0000 0.0000 0.0000
# 3 117.5482 76.5447 162.4151 0.0000 0.0000 0.0000
# 4 0.0000 0.0000 0.0000 36.8839 0.0000 0.0000
# 5 0.0000 0.0000 0.0000 0.0000 28.8387 0.0000
# 6 0.0000 0.0000 0.0000 0.0000 0.0000 28.3691
#
#
#
# Elastic Compliance Matrix: (Units=1/GPa)
#
#
# Indices 1 2 3 4 5 6 
#
# 1 0.016182 -0.006713 -0.008548 0.000000 0.000000 0.000000
# 2 -0.006713 0.042799 -0.015312 0.000000 0.000000 0.000000
# 3 -0.008548 -0.015312 0.019560 0.000000 0.000000 0.000000
# 4 0.000000 0.000000 0.000000 0.027112 0.000000 0.000000
# 5 0.000000 0.000000 0.000000 0.000000 0.034676 0.000000
# 6 0.000000 0.000000 0.000000 0.000000 0.000000 0.035250
#
#
# Mechanical properties :
#
#
# Convention : Reuss Voigt Hill
#
# Bulk Modulus (GPa) = 57.48815 99.37460 78.43138
# Shear Modulus (GPa) = 20.61642 26.47122 23.54382
#
# Velocity S-wave (km/s) = 3.42942 3.88598 3.66482
# Velocity P-wave (km/s) = 6.96248 8.76494 7.91518
#
# Compressibility (1/GPa) = 0.01739489
#
# Stress axis : x y z
#
# Youngs Moduli (GPa) = 61.79539 23.36487 51.12357
#
# Poissons Ratio (x) = 0.15685 0.43702
# Poissons Ratio (y) = 0.41484 0.78282
# Poissons Ratio (z) = 0.52824 0.35777
#
# Static dielectric constant tensor:
#      x y z
#    x 1.555620 0.000000 0.000000 
#    y 0.000000 1.586820 0.000000 
#    z 0.000000 0.000000 1.568740 
# 
# From -- ./inp_files/37167.got.cif
#   From: 2010.05.17/outbox.cif.g08.bks.cpg/sg51_19_cif.got.tgz:37167.got - 2010.06.03 11:52:47.
