data_PCOD9405679
_publ_section_title
;
Structure prediction by ZEFSAII (Michael W. Deem and Ramdas Pophale) SiO2 
 PCOD9405679
Probable space group: P M M A
;
_chemical_formula_sum "Si O2"
_cell_formula_units_Z 40
_cell_length_a 9.548823
_cell_length_b 8.830785
_cell_length_c 26.552665
_cell_angle_alpha 90.000000
_cell_angle_beta 90.000000
_cell_angle_gamma 90.000000
_cell_volume 2239.016380
_symmetry_space_group_name_H-M "P M M A"
_symmetry_group_IT_number 51
_symmetry_cell_setting 'orthorhombic'
loop_
_space_group_symop_operation_xyz
x,y,z
1/2-x,-y,z
1/2+x,-y,-z
-x,y,-z
-x,-y,-z
1/2+x,y,-z
1/2-x,y,z
x,-y,z
loop_
_atom_site_type_symbol
_atom_site_label
_atom_site_fract_x
_atom_site_fract_y
_atom_site_fract_z
Si Si1 0.913996 0.179768 0.248650
Si Si2 0.413343 0.681191 0.858896
Si Si3 0.588223 0.684712 0.547759
Si Si4 0.587092 0.182921 0.950468
Si Si5 0.917720 0.319843 0.659855
O O1 0.750000 0.215139 0.257725
O O2 0.954575 0.260170 0.196437
O O3 0.004114 0.235764 0.295545
O O4 0.927976 0.000000 0.242300
O O5 0.250000 0.726537 0.867279
O O6 0.420509 0.500000 0.860139
O O7 0.511448 0.750281 0.901631
O O8 0.500000 0.737598 0.500000
O O9 0.750000 0.729724 0.542319
O O10 0.585291 0.500000 0.547846
O O11 0.537954 0.730506 0.603510
O O12 0.750000 0.228708 0.953935
O O13 0.582774 0.000000 0.947642
O O14 0.500000 0.229304 0.000000
O O15 0.750000 0.298428 0.663033
O O16 0.944376 0.500000 0.664218
#
# Coordination Sequence:
#
# PCOD9405679 Si02
#       5
#     8   8   8   8   8
#     4  10  21  36  54  76 102 134 173 215 258 306
#     4  10  21  37  57  80 106 137 173 214 260 307
#     4   8  14  25  42  67  98 129 162 202 249 300
#     4  10  21  37  58  83 110 142 178 213 252 300
#     4   9  18  32  50  74 104 135 168 209 256 306
#
# _framework density 17.864986999999999
#
# number of rings (size 3 to 8) (size 9 to 14) (size 15 to 20)
#    0.000    2.600    0.000    3.000    0.000    6.000 
#    0.000    2.000    0.000    0.600    0.000    0.000 
#    0.000    0.000    0.000    0.000    0.000    0.000 
#
# Total GULP energy -223145.850745 kJ/mol
# GULP energy per Si atom -5578.646269 kJ/mol
# Density = 1.782433 g / cm^3
# Si number density = 17.864987 Si / 1000 Ang^3
#
#
#
# Elastic Constant Matrix: (Units=GPa)
#
#
# Indices 1 2 3 4 5 6 
#
# 1 83.1946 30.8679 93.0817 0.0000 0.0000 0.0000
# 2 30.8679 18.6373 39.1745 0.0000 0.0000 0.0000
# 3 93.0817 39.1745 179.7380 0.0000 0.0000 0.0000
# 4 0.0000 0.0000 0.0000 49.5323 0.0000 0.0000
# 5 0.0000 0.0000 0.0000 0.0000 40.9458 0.0000
# 6 0.0000 0.0000 0.0000 0.0000 0.0000 24.1355
#
#
#
# Elastic Compliance Matrix: (Units=1/GPa)
#
#
# Indices 1 2 3 4 5 6 
#
# 1 0.041832 -0.043826 -0.012112 0.000000 0.000000 0.000000
# 2 -0.043826 0.144934 -0.008893 0.000000 0.000000 0.000000
# 3 -0.012112 -0.008893 0.013774 0.000000 0.000000 0.000000
# 4 0.000000 0.000000 0.000000 0.020189 0.000000 0.000000
# 5 0.000000 0.000000 0.000000 0.000000 0.024423 0.000000
# 6 0.000000 0.000000 0.000000 0.000000 0.000000 0.041433
#
#
# Mechanical properties :
#
#
# Convention : Reuss Voigt Hill
#
# Bulk Modulus (GPa) = 14.10839 67.53534 40.82186
# Shear Modulus (GPa) = 11.36699 30.81910 21.09304
#
# Velocity S-wave (km/s) = 2.52518 4.15795 3.43985
# Velocity P-wave (km/s) = 4.05172 7.80620 6.21905
#
# Compressibility (1/GPa) = 0.07087983
#
# Stress axis : x y z
#
# Youngs Moduli (GPa) = 23.90525 6.89970 72.59981
#
# Poissons Ratio (x) = 0.30238 0.87931
# Poissons Ratio (y) = 1.04766 0.64560
# Poissons Ratio (z) = 0.28953 0.06136
#
# Static dielectric constant tensor:
#      x y z
#    x 1.598630 0.000000 0.000000 
#    y 0.000000 1.603210 0.000000 
#    z 0.000000 0.000000 1.592280 
# 
# From -- ./inp_files/34309.got.cif
#   From: 2010.05.17/outbox.cif.g08.bks.cpg/sg51_18_cif.got.tgz:34309.got - 2010.06.03 11:52:47.
