data_PCOD9405616
_publ_section_title
;
Structure prediction by ZEFSAII (Michael W. Deem and Ramdas Pophale) SiO2 
 PCOD9405616
Probable space group: P M M A
;
_chemical_formula_sum "Si O2"
_cell_formula_units_Z 48
_cell_length_a 9.674751
_cell_length_b 7.497283
_cell_length_c 31.893980
_cell_angle_alpha 90.000000
_cell_angle_beta 90.000000
_cell_angle_gamma 90.000000
_cell_volume 2313.408987
_symmetry_space_group_name_H-M "P M M A"
_symmetry_group_IT_number 51
_symmetry_cell_setting 'orthorhombic'
loop_
_space_group_symop_operation_xyz
x,y,z
1/2-x,-y,z
1/2+x,-y,-z
-x,y,-z
-x,-y,-z
1/2+x,y,-z
1/2-x,y,z
x,-y,z
loop_
_atom_site_type_symbol
_atom_site_label
_atom_site_fract_x
_atom_site_fract_y
_atom_site_fract_z
Si Si1 0.407069 0.785736 0.788062
Si Si2 0.591851 0.785069 0.617239
Si Si3 0.090580 0.718138 0.040153
Si Si4 0.091818 0.287174 0.882121
Si Si5 0.905935 0.288506 0.462410
Si Si6 0.090779 0.782411 0.288823
O O1 0.250000 0.717843 0.785611
O O2 0.459063 0.745781 0.834842
O O3 0.497507 0.718627 0.749422
O O4 0.402484 0.000000 0.784570
O O5 0.750000 0.723858 0.608854
O O6 0.486539 0.733117 0.581141
O O7 0.550192 0.725805 0.664126
O O8 0.596182 0.000000 0.617975
O O9 0.250000 0.776292 0.037965
O O10 0.093017 0.500000 0.040353
O O11 0.011224 0.778722 0.082069
O O12 0.000000 0.771815 0.000000
O O13 0.250000 0.217213 0.885770
O O14 0.100607 0.500000 0.887612
O O15 0.750000 0.215441 0.461426
O O16 0.893785 0.500000 0.469914
O O17 0.000000 0.213605 0.500000
O O18 0.250000 0.731090 0.282554
O O19 0.086436 0.000000 0.288649
#
# Coordination Sequence:
#
# PCOD9405616 Si02
#       6
#     8   8   8   8   8   8
#     4   9  17  29  46  67  90 119 154 187 221 266
#     4   9  18  33  53  76 100 126 159 200 243 284
#     4   9  16  26  42  64  88 114 145 181 221 266
#     4   9  17  29  44  63  89 118 146 181 225 266
#     4  10  21  36  53  73  98 130 165 198 236 285
#     4   8  15  29  48  69  93 121 153 189 228 271
#
# _framework density 20.748602000000002
#
# number of rings (size 3 to 8) (size 9 to 14) (size 15 to 20)
#    0.000    3.000    0.000    2.000    0.000    5.000 
#    0.000    2.500    0.000    3.500    0.000    0.000 
#    0.000    0.000    0.000    0.000    0.000    0.000 
#
# Total GULP energy -267839.895990 kJ/mol
# GULP energy per Si atom -5579.997833 kJ/mol
# Density = 2.070138 g / cm^3
# Si number density = 20.748602 Si / 1000 Ang^3
#
#
#
# Elastic Constant Matrix: (Units=GPa)
#
#
# Indices 1 2 3 4 5 6 
#
# 1 157.7485 6.0813 146.9643 0.0000 0.0000 0.0000
# 2 6.0813 55.3663 -1.0654 0.0000 0.0000 0.0000
# 3 146.9643 -1.0654 225.4281 0.0000 0.0000 0.0000
# 4 0.0000 0.0000 0.0000 20.0230 0.0000 0.0000
# 5 0.0000 0.0000 0.0000 0.0000 38.0527 0.0000
# 6 0.0000 0.0000 0.0000 0.0000 0.0000 3.7167
#
#
#
# Elastic Compliance Matrix: (Units=1/GPa)
#
#
# Indices 1 2 3 4 5 6 
#
# 1 0.016364 -0.002003 -0.010678 0.000000 0.000000 0.000000
# 2 -0.002003 0.018308 0.001392 0.000000 0.000000 0.000000
# 3 -0.010678 0.001392 0.011404 0.000000 0.000000 0.000000
# 4 0.000000 0.000000 0.000000 0.049943 0.000000 0.000000
# 5 0.000000 0.000000 0.000000 0.000000 0.026279 0.000000
# 6 0.000000 0.000000 0.000000 0.000000 0.000000 0.269053
#
#
# Mechanical properties :
#
#
# Convention : Reuss Voigt Hill
#
# Bulk Modulus (GPa) = 42.55421 82.50037 62.52729
# Shear Modulus (GPa) = 11.85503 31.46267 21.65885
#
# Velocity S-wave (km/s) = 2.39292 3.89829 3.23440
# Velocity P-wave (km/s) = 5.30930 7.75309 6.64451
#
# Compressibility (1/GPa) = 0.02349944
#
# Stress axis : x y z
#
# Youngs Moduli (GPa) = 61.10802 54.62004 87.68887
#
# Poissons Ratio (x) = 0.10940 0.93634
# Poissons Ratio (y) = 0.12239 -0.12209
# Poissons Ratio (z) = 0.65251 -0.07605
#
# Static dielectric constant tensor:
#      x y z
#    x 1.717620 0.000000 0.000000 
#    y 0.000000 1.802080 0.000000 
#    z 0.000000 0.000000 1.717440 
# 
# From -- ./inp_files/36143.got.cif
#   From: 2010.05.17/outbox.cif.g08.bks.cpg/sg51_19_cif.got.tgz:36143.got - 2010.06.03 11:52:47.
