data_PCOD9405763
_publ_section_title
;
Structure prediction by ZEFSAII (Michael W. Deem and Ramdas Pophale) SiO2 
 PCOD9405763
Probable space group: P M M A
;
_chemical_formula_sum "Si O2"
_cell_formula_units_Z 48
_cell_length_a 14.850385
_cell_length_b 9.425819
_cell_length_c 18.991065
_cell_angle_alpha 90.000000
_cell_angle_beta 90.000000
_cell_angle_gamma 90.000000
_cell_volume 2658.313086
_symmetry_space_group_name_H-M "P M M A"
_symmetry_group_IT_number 51
_symmetry_cell_setting 'orthorhombic'
loop_
_space_group_symop_operation_xyz
x,y,z
1/2-x,-y,z
1/2+x,-y,-z
-x,y,-z
-x,-y,-z
1/2+x,y,-z
1/2-x,y,z
x,-y,z
loop_
_atom_site_type_symbol
_atom_site_label
_atom_site_fract_x
_atom_site_fract_y
_atom_site_fract_z
Si Si1 0.855974 0.331530 0.097609
Si Si2 0.144265 0.668333 0.604201
Si Si3 0.982282 0.831436 0.667518
Si Si4 0.642605 0.665409 0.560536
Si Si5 0.491259 0.168541 0.172173
Si Si6 0.643826 0.166251 0.954324
O O1 0.750000 0.304948 0.111251
O O2 0.870242 0.500000 0.095743
O O3 0.920099 0.257239 0.153859
O O4 0.877781 0.261630 0.021866
O O5 0.250000 0.697098 0.615810
O O6 0.129836 0.500000 0.615914
O O7 0.078572 0.761276 0.650977
O O8 0.123684 0.696728 0.521627
O O9 0.958350 0.802302 0.748848
O O10 0.912297 0.762071 0.613564
O O11 0.985938 0.000000 0.657408
O O12 0.750000 0.680421 0.570279
O O13 0.619020 0.500000 0.572312
O O14 0.416715 0.201261 0.112971
O O15 0.511000 0.000000 0.167572
O O16 0.750000 0.182987 0.938452
O O17 0.628508 0.000000 0.972346
#
# Coordination Sequence:
#
# PCOD9405763 Si02
#       6
#     8   8   8   8   8   8
#     4  10  21  36  55  80 106 132 169 219 267 306
#     4   9  19  37  59  79 102 138 182 223 263 313
#     4  11  23  35  51  80 114 143 173 217 269 314
#     4   9  19  37  59  80 103 137 181 222 261 313
#     4  10  22  37  52  75 108 144 177 208 251 311
#     4   9  18  35  58  78  99 134 176 213 253 307
#
# _framework density 18.056564000000002
#
# number of rings (size 3 to 8) (size 9 to 14) (size 15 to 20)
#    0.000    2.333    0.000    3.000    0.000    9.667 
#    0.000    6.667    0.000    2.000    0.000    0.000 
#    0.000    0.000    0.000    0.000    0.000    0.000 
#
# Total GULP energy -268027.435236 kJ/mol
# GULP energy per Si atom -5583.904901 kJ/mol
# Density = 1.801547 g / cm^3
# Si number density = 18.056564 Si / 1000 Ang^3
#
#
#
# Elastic Constant Matrix: (Units=GPa)
#
#
# Indices 1 2 3 4 5 6 
#
# 1 26.3262 14.8142 6.1815 0.0000 0.0000 0.0000
# 2 14.8142 29.2222 16.7958 0.0000 0.0000 0.0000
# 3 6.1815 16.7958 25.9768 0.0000 0.0000 0.0000
# 4 0.0000 0.0000 0.0000 94.7438 0.0000 0.0000
# 5 0.0000 0.0000 0.0000 0.0000 -0.4737 0.0000
# 6 0.0000 0.0000 0.0000 0.0000 0.0000 9.8504
#
#
#
# Elastic Compliance Matrix: (Units=1/GPa)
#
#
# Indices 1 2 3 4 5 6 
#
# 1 0.054105 -0.031873 0.007733 0.000000 0.000000 0.000000
# 2 -0.031873 0.073235 -0.039767 0.000000 0.000000 0.000000
# 3 0.007733 -0.039767 0.062368 0.000000 0.000000 0.000000
# 4 0.000000 0.000000 0.000000 0.010555 0.000000 0.000000
# 5 0.000000 0.000000 0.000000 0.000000 -2.110949 0.000000
# 6 0.000000 0.000000 0.000000 0.000000 0.000000 0.101519
#
#
# Mechanical properties :
#
#
# Convention : Reuss Voigt Hill
#
# Bulk Modulus (GPa) = 16.15664 17.45646 16.80655
# Shear Modulus (GPa) = -3.01074 23.73966 10.36446
#
# Velocity S-wave (km/s) = -1.29268 3.62987 2.39843
# Velocity P-wave (km/s) = 2.59600 5.22078 4.12285
#
# Compressibility (1/GPa) = 0.06189406
#
# Stress axis : x y z
#
# Youngs Moduli (GPa) = 18.48264 13.65459 16.03384
#
# Poissons Ratio (x) = 0.43522 -0.12400
# Poissons Ratio (y) = 0.58910 0.63762
# Poissons Ratio (z) = -0.14294 0.54301
#
# Static dielectric constant tensor:
#      x y z
#    x 1.618700 0.000000 0.000000 
#    y 0.000000 1.594490 0.000000 
#    z 0.000000 0.000000 1.601290 
# 
# From -- ./inp_files/29390.got.cif
#   From: 2010.05.17/outbox.cif.g08.bks.cpg/sg51_15_cif.got.tgz:29390.got - 2010.06.03 11:52:47.
