data_PCOD9405584
_publ_section_title
;
Structure prediction by ZEFSAII (Michael W. Deem and Ramdas Pophale) SiO2 
 PCOD9405584
Probable space group: P M M A
;
_chemical_formula_sum "Si O2"
_cell_formula_units_Z 56
_cell_length_a 19.233510
_cell_length_b 7.534640
_cell_length_c 19.726986
_cell_angle_alpha 90.000000
_cell_angle_beta 90.000000
_cell_angle_gamma 90.000000
_cell_volume 2858.786949
_symmetry_space_group_name_H-M "P M M A"
_symmetry_group_IT_number 51
_symmetry_cell_setting 'orthorhombic'
loop_
_space_group_symop_operation_xyz
x,y,z
1/2-x,-y,z
1/2+x,-y,-z
-x,y,-z
-x,-y,-z
1/2+x,y,-z
1/2-x,y,z
x,-y,z
loop_
_atom_site_type_symbol
_atom_site_label
_atom_site_fract_x
_atom_site_fract_y
_atom_site_fract_z
Si Si1 0.669116 0.217459 0.583794
Si Si2 0.035559 0.293654 0.066729
Si Si3 0.540647 0.785596 0.204822
Si Si4 0.329613 0.782182 0.712539
Si Si5 0.826706 0.789808 0.855241
Si Si6 0.834603 0.205104 0.436357
Si Si7 0.596732 0.216948 0.720557
O O1 0.750000 0.267281 0.593657
O O2 0.644786 0.280909 0.509411
O O3 0.623944 0.275686 0.647686
O O4 0.668017 0.000000 0.581751
O O5 0.045899 0.500000 0.053098
O O6 0.111474 0.230584 0.090657
O O7 0.984601 0.272726 0.131017
O O8 0.000000 0.212289 0.000000
O O9 0.615451 0.725846 0.231091
O O10 0.480925 0.730741 0.258144
O O11 0.540762 0.000000 0.203405
O O12 0.250000 0.727693 0.724622
O O13 0.352777 0.720062 0.637312
O O14 0.329443 0.000000 0.710419
O O15 0.750000 0.719681 0.872858
O O16 0.854317 0.721118 0.782619
O O17 0.820197 0.000000 0.846008
O O18 0.750000 0.203988 0.437412
O O19 0.858219 0.000000 0.435815
O O20 0.598451 0.000000 0.719923
#
# Coordination Sequence:
#
# PCOD9405584 Si02
#       7
#     8   8   8   8   8   8   8
#     4   8  11  15  26  46  76 115 150 175 207 256
#     4  10  21  36  52  69  92 122 150 179 222 272
#     4   9  17  29  46  66  87 113 146 185 228 272
#     4   8  13  23  39  58  82 113 149 188 228 268
#     4   9  17  30  50  75  99 123 152 185 219 258
#     4   7  10  16  27  46  75 112 148 178 214 261
#     4   8  13  21  34  56  87 118 145 175 214 259
#
# _framework density 19.588726999999999
#
# number of rings (size 3 to 8) (size 9 to 14) (size 15 to 20)
#    0.000    3.571    0.000    3.429    0.000    3.143 
#    0.000    1.429    0.000    7.286    0.000    0.000 
#    0.000    9.143    0.000   16.857    0.000   12.000 
#
# Total GULP energy -311812.193362 kJ/mol
# GULP energy per Si atom -5568.074881 kJ/mol
# Density = 1.954414 g / cm^3
# Si number density = 19.588727 Si / 1000 Ang^3
#
#
#
# Elastic Constant Matrix: (Units=GPa)
#
#
# Indices 1 2 3 4 5 6 
#
# 1 114.6534 -0.6171 70.4171 0.0000 0.0000 0.0000
# 2 -0.6171 43.0203 -10.7303 0.0000 0.0000 0.0000
# 3 70.4171 -10.7303 94.8143 0.0000 0.0000 0.0000
# 4 0.0000 0.0000 0.0000 36.2964 0.0000 0.0000
# 5 0.0000 0.0000 0.0000 0.0000 23.2023 0.0000
# 6 0.0000 0.0000 0.0000 0.0000 0.0000 -22.5157
#
#
#
# Elastic Compliance Matrix: (Units=1/GPa)
#
#
# Indices 1 2 3 4 5 6 
#
# 1 0.016377 -0.002880 -0.012489 0.000000 0.000000 0.000000
# 2 -0.002880 0.024427 0.004903 0.000000 0.000000 0.000000
# 3 -0.012489 0.004903 0.020377 0.000000 0.000000 0.000000
# 4 0.000000 0.000000 0.000000 0.027551 0.000000 0.000000
# 5 0.000000 0.000000 0.000000 0.000000 0.043099 0.000000
# 6 0.000000 0.000000 0.000000 0.000000 0.000000 -0.044413
#
#
# Mechanical properties :
#
#
# Convention : Reuss Voigt Hill
#
# Bulk Modulus (GPa) = 24.84500 41.18082 33.01291
# Shear Modulus (GPa) = 41.06306 20.29114 30.67710
#
# Velocity S-wave (km/s) = 4.58346 3.22197 3.96164
# Velocity P-wave (km/s) = 6.38135 5.90845 6.14945
#
# Compressibility (1/GPa) = 0.04024954
#
# Stress axis : x y z
#
# Youngs Moduli (GPa) = 61.06268 40.93906 49.07504
#
# Poissons Ratio (x) = 0.11791 0.61288
# Poissons Ratio (y) = 0.17586 -0.24063
# Poissons Ratio (z) = 0.76259 -0.20074
#
# Static dielectric constant tensor:
#      x y z
#    x 1.683220 0.000000 0.000000 
#    y 0.000000 1.744650 0.000000 
#    z 0.000000 0.000000 1.701420 
# 
# From -- ./inp_files/30358.got.cif
#   From: 2010.05.17/outbox.cif.g08.bks.cpg/sg51_16_cif.got.tgz:30358.got - 2010.06.03 11:52:47.
