data_PCOD9405796
_publ_section_title
;
Structure prediction by ZEFSAII (Michael W. Deem and Ramdas Pophale) SiO2 
 PCOD9405796
Probable space group: P M M A
;
_chemical_formula_sum "Si O2"
_cell_formula_units_Z 56
_cell_length_a 9.064021
_cell_length_b 19.586641
_cell_length_c 16.271222
_cell_angle_alpha 90.000000
_cell_angle_beta 90.000000
_cell_angle_gamma 90.000000
_cell_volume 2888.690658
_symmetry_space_group_name_H-M "P M M A"
_symmetry_group_IT_number 51
_symmetry_cell_setting 'orthorhombic'
loop_
_space_group_symop_operation_xyz
x,y,z
1/2-x,-y,z
1/2+x,-y,-z
-x,y,-z
-x,-y,-z
1/2+x,y,-z
1/2-x,y,z
x,-y,z
loop_
_atom_site_type_symbol
_atom_site_label
_atom_site_fract_x
_atom_site_fract_y
_atom_site_fract_z
Si Si1 0.927163 0.574998 0.410682
Si Si2 0.076488 0.918426 0.255180
Si Si3 0.924966 0.291629 0.838623
Si Si4 0.426094 0.576652 0.910238
Si Si5 0.575008 0.284195 0.328656
Si Si6 0.576017 0.854323 0.414635
Si Si7 0.926765 0.849380 0.915830
O O1 0.750000 0.577832 0.419790
O O2 0.964798 0.500000 0.375458
O O3 0.970135 0.640596 0.358228
O O4 0.000000 0.579592 0.500000
O O5 0.250000 0.899892 0.264169
O O6 0.025175 0.887594 0.167726
O O7 0.990599 0.890870 0.334455
O O8 0.064999 0.000000 0.251881
O O9 0.750000 0.302506 0.839321
O O10 0.960309 0.230933 0.902010
O O11 0.007913 0.361751 0.858183
O O12 0.979495 0.265904 0.750326
O O13 0.250000 0.584256 0.917408
O O14 0.455784 0.500000 0.877283
O O15 0.500000 0.580518 0.000000
O O16 0.750000 0.284996 0.307693
O O17 0.554475 0.226708 0.397706
O O18 0.500000 0.874284 0.500000
O O19 0.750000 0.867728 0.419434
O O20 0.750000 0.856936 0.921859
O O21 0.000000 0.873712 0.000000
#
# Coordination Sequence:
#
# PCOD9405796 Si02
#       7
#     8   8   8   8   8   8   8
#     4   9  18  33  52  75 106 144 188 237 290 348
#     4  10  22  43  67  91 124 161 199 246 299 360
#     4  11  22  36  57  84 116 154 198 250 300 354
#     4  10  21  37  56  79 111 151 197 249 302 359
#     4  10  21  36  55  82 115 154 198 246 299 353
#     4  11  23  39  63  92 124 162 205 253 304 362
#     4  10  22  39  61  91 123 159 200 244 298 355
#
# _framework density 19.385945
#
# number of rings (size 3 to 8) (size 9 to 14) (size 15 to 20)
#    0.000    1.857    1.429    2.143    0.000    6.286 
#    0.000    1.429    0.000    0.000    0.000    0.000 
#    0.000    0.000    0.000    0.000    0.000    0.000 
#
# Total GULP energy -312694.658685 kJ/mol
# GULP energy per Si atom -5583.833191 kJ/mol
# Density = 1.934182 g / cm^3
# Si number density = 19.385945 Si / 1000 Ang^3
#
#
#
# Elastic Constant Matrix: (Units=GPa)
#
#
# Indices 1 2 3 4 5 6 
#
# 1 53.7978 43.0156 55.3150 0.0000 0.0000 0.0000
# 2 43.0156 71.5756 46.3458 0.0000 0.0000 0.0000
# 3 55.3150 46.3458 138.3663 0.0000 0.0000 0.0000
# 4 0.0000 0.0000 0.0000 18.3472 0.0000 0.0000
# 5 0.0000 0.0000 0.0000 0.0000 37.0615 0.0000
# 6 0.0000 0.0000 0.0000 0.0000 0.0000 20.6629
#
#
#
# Elastic Compliance Matrix: (Units=1/GPa)
#
#
# Indices 1 2 3 4 5 6 
#
# 1 0.047650 -0.020817 -0.012077 0.000000 0.000000 0.000000
# 2 -0.020817 0.026935 -0.000700 0.000000 0.000000 0.000000
# 3 -0.012077 -0.000700 0.012289 0.000000 0.000000 0.000000
# 4 0.000000 0.000000 0.000000 0.054504 0.000000 0.000000
# 5 0.000000 0.000000 0.000000 0.000000 0.026982 0.000000
# 6 0.000000 0.000000 0.000000 0.000000 0.000000 0.048396
#
#
# Mechanical properties :
#
#
# Convention : Reuss Voigt Hill
#
# Bulk Modulus (GPa) = 50.79298 61.45472 56.12385
# Shear Modulus (GPa) = 17.21131 23.15188 20.18159
#
# Velocity S-wave (km/s) = 2.98287 3.45956 3.23002
# Velocity P-wave (km/s) = 6.17423 6.90851 6.55167
#
# Compressibility (1/GPa) = 0.01968776
#
# Stress axis : x y z
#
# Youngs Moduli (GPa) = 20.98625 37.12627 81.37076
#
# Poissons Ratio (x) = 0.77287 0.98267
# Poissons Ratio (y) = 0.43688 0.05694
# Poissons Ratio (z) = 0.25344 0.02598
#
# Static dielectric constant tensor:
#      x y z
#    x 1.644330 0.000000 0.000000 
#    y 0.000000 1.695320 0.000000 
#    z 0.000000 0.000000 1.661250 
# 
# From -- ./inp_files/21717.got.cif
#   From: 2010.05.17/outbox.cif.g08.bks.cpg/sg51_11_cif.got.tgz:21717.got - 2010.06.03 11:52:47.
