data_PCOD9405940
_publ_section_title
;
Structure prediction by ZEFSAII (Michael W. Deem and Ramdas Pophale) SiO2 
 PCOD9405940
Probable space group: P M M A
;
_chemical_formula_sum "Si O2"
_cell_formula_units_Z 48
_cell_length_a 9.330486
_cell_length_b 7.861140
_cell_length_c 32.508319
_cell_angle_alpha 90.000000
_cell_angle_beta 90.000000
_cell_angle_gamma 90.000000
_cell_volume 2384.428527
_symmetry_space_group_name_H-M "P M M A"
_symmetry_group_IT_number 51
_symmetry_cell_setting 'orthorhombic'
loop_
_space_group_symop_operation_xyz
x,y,z
1/2-x,-y,z
1/2+x,-y,-z
-x,y,-z
-x,-y,-z
1/2+x,y,-z
1/2-x,y,z
x,-y,z
loop_
_atom_site_type_symbol
_atom_site_label
_atom_site_fract_x
_atom_site_fract_y
_atom_site_fract_z
Si Si1 0.585882 0.203440 0.718668
Si Si2 0.582503 0.292262 0.540210
Si Si3 0.087008 0.795684 0.960466
Si Si4 0.417654 0.704576 0.370398
Si Si5 0.586896 0.296825 0.878987
Si Si6 0.087275 0.204938 0.797461
O O1 0.750000 0.270943 0.720512
O O2 0.522414 0.237646 0.673344
O O3 0.491367 0.269646 0.756317
O O4 0.594909 0.000000 0.723049
O O5 0.500000 0.230681 0.500000
O O6 0.750000 0.246464 0.537700
O O7 0.576435 0.500000 0.539885
O O8 0.524316 0.237687 0.585153
O O9 0.250000 0.729814 0.958974
O O10 0.001716 0.759688 0.918791
O O11 0.095600 0.000000 0.964597
O O12 0.000000 0.729660 0.000000
O O13 0.250000 0.758043 0.370046
O O14 0.421089 0.500000 0.370381
O O15 0.750000 0.229441 0.879779
O O16 0.593616 0.500000 0.879779
O O17 0.505486 0.244878 0.837569
O O18 0.250000 0.269219 0.801230
O O19 0.094644 0.000000 0.794308
#
# Coordination Sequence:
#
# PCOD9405940 Si02
#       6
#     8   8   8   8   8   8
#     4   9  17  30  49  71  93 121 159 200 241 289
#     4   8  13  22  37  57  81 110 145 185 228 275
#     4  10  21  38  61  87 113 144 182 220 258 302
#     4   8  14  25  42  64  89 117 150 190 236 284
#     4  11  24  39  56  81 111 142 176 215 260 306
#     4  10  21  37  56  77 102 134 171 210 254 305
#
# _framework density 20.130609
#
# number of rings (size 3 to 8) (size 9 to 14) (size 15 to 20)
#    0.000    2.667    0.000    3.000    0.000    6.333 
#    0.000    2.500    0.000    1.500    0.000    0.000 
#    0.000    0.000    0.000    0.000    0.000    0.000 
#
# Total GULP energy -267700.978473 kJ/mol
# GULP energy per Si atom -5577.103718 kJ/mol
# Density = 2.008479 g / cm^3
# Si number density = 20.130609 Si / 1000 Ang^3
#
#
#
# Elastic Constant Matrix: (Units=GPa)
#
#
# Indices 1 2 3 4 5 6 
#
# 1 138.5159 8.1239 110.9134 0.0000 0.0000 0.0000
# 2 8.1239 17.9409 3.1201 0.0000 0.0000 0.0000
# 3 110.9134 3.1201 239.4416 0.0000 0.0000 0.0000
# 4 0.0000 0.0000 0.0000 23.5148 0.0000 0.0000
# 5 0.0000 0.0000 0.0000 0.0000 37.9035 0.0000
# 6 0.0000 0.0000 0.0000 0.0000 0.0000 11.4480
#
#
#
# Elastic Compliance Matrix: (Units=1/GPa)
#
#
# Indices 1 2 3 4 5 6 
#
# 1 0.011814 -0.004408 -0.005415 0.000000 0.000000 0.000000
# 2 -0.004408 0.057510 0.001292 0.000000 0.000000 0.000000
# 3 -0.005415 0.001292 0.006668 0.000000 0.000000 0.000000
# 4 0.000000 0.000000 0.000000 0.042526 0.000000 0.000000
# 5 0.000000 0.000000 0.000000 0.000000 0.026383 0.000000
# 6 0.000000 0.000000 0.000000 0.000000 0.000000 0.087351
#
#
# Mechanical properties :
#
#
# Convention : Reuss Voigt Hill
#
# Bulk Modulus (GPa) = 16.96904 71.13477 44.05191
# Shear Modulus (GPa) = 18.59040 32.82268 25.70654
#
# Velocity S-wave (km/s) = 3.04219 4.04231 3.57737
# Velocity P-wave (km/s) = 4.55935 7.56309 6.24452
#
# Compressibility (1/GPa) = 0.05893084
#
# Stress axis : x y z
#
# Youngs Moduli (GPa) = 84.64711 17.38832 149.97420
#
# Poissons Ratio (x) = 0.07664 0.81209
# Poissons Ratio (y) = 0.37310 -0.19382
# Poissons Ratio (z) = 0.45836 -0.02247
#
# Static dielectric constant tensor:
#      x y z
#    x 1.710560 0.000000 0.000000 
#    y 0.000000 1.738890 0.000000 
#    z 0.000000 0.000000 1.716480 
# 
# From -- ./inp_files/37052.got.cif
#   From: 2010.05.17/outbox.cif.g08.bks.cpg/sg51_19_cif.got.tgz:37052.got - 2010.06.03 11:52:47.
