data_PCOD9405331
_publ_section_title
;
Structure prediction by ZEFSAII (Michael W. Deem and Ramdas Pophale) SiO2 
 PCOD9405331
Probable space group: P M M A
;
_chemical_formula_sum "Si O2"
_cell_formula_units_Z 58
_cell_length_a 32.569735
_cell_length_b 9.813244
_cell_length_c 10.090001
_cell_angle_alpha 90.000000
_cell_angle_beta 90.000000
_cell_angle_gamma 90.000000
_cell_volume 3224.913213
_symmetry_space_group_name_H-M "P M M A"
_symmetry_group_IT_number 51
_symmetry_cell_setting 'orthorhombic'
loop_
_space_group_symop_operation_xyz
x,y,z
1/2-x,-y,z
1/2+x,-y,-z
-x,y,-z
-x,-y,-z
1/2+x,y,-z
1/2-x,y,z
x,-y,z
loop_
_atom_site_type_symbol
_atom_site_label
_atom_site_fract_x
_atom_site_fract_y
_atom_site_fract_z
Si Si1 0.386612 0.839924 0.888764
Si Si2 0.855548 0.836152 0.397068
Si Si3 0.796223 0.834466 0.620595
Si Si4 0.500000 0.000000 0.500000
Si Si5 0.868721 0.838787 0.817603
Si Si6 0.057026 0.736814 0.533479
Si Si7 0.947704 0.656207 0.760283
Si Si8 0.962423 0.655155 0.173423
O O1 0.360471 0.802867 0.758186
O O2 0.428455 0.752601 0.890397
O O3 0.397667 0.000000 0.877161
O O4 0.362245 0.822621 0.025160
O O5 0.814876 0.796615 0.477086
O O6 0.894520 0.768224 0.467885
O O7 0.859338 0.000000 0.408879
O O8 0.750000 0.783911 0.641458
O O9 0.829881 0.793677 0.730458
O O10 0.794657 0.000000 0.625835
O O11 0.533374 0.880152 0.462004
O O12 0.909948 0.755832 0.786559
O O13 0.875890 0.000000 0.790219
O O14 0.044643 0.664157 0.397843
O O15 0.047672 0.659470 0.669345
O O16 0.938403 0.500000 0.795698
O O17 0.989841 0.698332 0.833997
O O18 0.958834 0.500000 0.125353
#
# Coordination Sequence:
#
# PCOD9405331 Si02
#       8
#     8   8   8   2   8   8   8   8
#     4   9  20  35  52  75 106 141 179 221 264 313
#     4   9  16  29  50  76 104 132 167 213 262 312
#     4   9  17  31  55  84 108 132 167 215 273 331
#     4  12  20  24  50  84 108 148 186 228 274 316
#     4  10  21  36  54  77 107 140 179 222 269 323
#     4  11  19  29  48  77 109 139 180 227 270 311
#     4  11  22  33  49  74 108 145 184 226 269 314
#     4  10  21  34  49  71 107 145 183 225 264 311
#
# _framework density 17.98498
#
# number of rings (size 3 to 8) (size 9 to 14) (size 15 to 20)
#    0.000    2.069    3.448    0.414    1.931    2.759 
#    0.000    3.448    0.000    4.552    0.000    0.000 
#    0.000    1.379    0.000    0.000    0.000    0.000 
#
# Total GULP energy -322936.054274 kJ/mol
# GULP energy per Si atom -5567.863005 kJ/mol
# Density = 1.794405 g / cm^3
# Si number density = 17.984980 Si / 1000 Ang^3
#
#
#
# Elastic Constant Matrix: (Units=GPa)
#
#
# Indices 1 2 3 4 5 6 
#
# 1 132.6138 34.8388 48.4032 0.0000 0.0000 0.0000
# 2 34.8388 47.8463 23.8052 0.0000 0.0000 0.0000
# 3 48.4032 23.8052 84.8730 0.0000 0.0000 0.0000
# 4 0.0000 0.0000 0.0000 0.8288 0.0000 0.0000
# 5 0.0000 0.0000 0.0000 0.0000 15.6279 0.0000
# 6 0.0000 0.0000 0.0000 0.0000 0.0000 6.6044
#
#
#
# Elastic Compliance Matrix: (Units=1/GPa)
#
#
# Indices 1 2 3 4 5 6 
#
# 1 0.010635 -0.005493 -0.004525 0.000000 0.000000 0.000000
# 2 -0.005493 0.027127 -0.004476 0.000000 0.000000 0.000000
# 3 -0.004525 -0.004476 0.015618 0.000000 0.000000 0.000000
# 4 0.000000 0.000000 0.000000 1.206510 0.000000 0.000000
# 5 0.000000 0.000000 0.000000 0.000000 0.063988 0.000000
# 6 0.000000 0.000000 0.000000 0.000000 0.000000 0.151414
#
#
# Mechanical properties :
#
#
# Convention : Reuss Voigt Hill
#
# Bulk Modulus (GPa) = 40.99489 53.26973 47.13231
# Shear Modulus (GPa) = 3.30598 15.16463 9.23531
#
# Velocity S-wave (km/s) = 1.35727 2.90691 2.26851
# Velocity P-wave (km/s) = 5.02988 6.39923 5.75543
#
# Compressibility (1/GPa) = 0.02439328
#
# Stress axis : x y z
#
# Youngs Moduli (GPa) = 94.02789 36.86407 64.02811
#
# Poissons Ratio (x) = 0.20248 0.28970
# Poissons Ratio (y) = 0.51647 0.28659
# Poissons Ratio (z) = 0.42544 0.16500
#
# Static dielectric constant tensor:
#      x y z
#    x 1.603750 0.000000 0.000000 
#    y 0.000000 1.599170 0.000000 
#    z 0.000000 0.000000 1.674910 
# 
# From -- ./inp_files/19366.got.cif
#   From: 2010.05.17/outbox.cif.g08.bks.cpg/sg51_10_cif.got.tgz:19366.got - 2010.06.03 11:52:47.
