data_PCOD9405264
_publ_section_title
;
Structure prediction by ZEFSAII (Michael W. Deem and Ramdas Pophale) SiO2 
 PCOD9405264
Probable space group: P M M A
;
_chemical_formula_sum "Si O2"
_cell_formula_units_Z 30
_cell_length_a 7.260482
_cell_length_b 13.594411
_cell_length_c 13.982201
_cell_angle_alpha 90.000000
_cell_angle_beta 90.000000
_cell_angle_gamma 90.000000
_cell_volume 1380.070873
_symmetry_space_group_name_H-M "P M M A"
_symmetry_group_IT_number 51
_symmetry_cell_setting 'orthorhombic'
loop_
_space_group_symop_operation_xyz
x,y,z
1/2-x,-y,z
1/2+x,-y,-z
-x,y,-z
-x,-y,-z
1/2+x,y,-z
1/2-x,y,z
x,-y,z
loop_
_atom_site_type_symbol
_atom_site_label
_atom_site_fract_x
_atom_site_fract_y
_atom_site_fract_z
Si Si1 0.968855 0.894570 0.613301
Si Si2 0.030062 0.500000 0.385726
Si Si3 0.750000 0.000000 0.158083
Si Si4 0.027115 0.301799 0.284528
Si Si5 0.467276 0.177663 0.112270
O O1 0.750000 0.896986 0.630006
O O2 0.039480 0.795003 0.658974
O O3 0.000000 0.890965 0.500000
O O4 0.046521 0.000000 0.648038
O O5 0.250000 0.500000 0.373618
O O6 0.959932 0.401543 0.333393
O O7 0.000000 0.500000 0.500000
O O8 0.589852 0.086959 0.147319
O O9 0.250000 0.304400 0.293281
O O10 0.986614 0.274590 0.174860
O O11 0.250000 0.156004 0.127443
O O12 0.500000 0.191725 0.000000
#
# Coordination Sequence:
#
# PCOD9405264 Si02
#       5
#     8   4   2   8   8
#     4   9  17  31  47  72 106 146 184 233 299 367
#     4  10  20  40  65  92 118 161 210 265 321 373
#     4  12  24  40  62  96 126 172 218 248 318 376
#     4   9  20  37  59  82 118 159 204 252 317 371
#     4  11  23  40  60  91 131 168 211 261 308 375
#
# _framework density 21.738014
#
# number of rings (size 3 to 8) (size 9 to 14) (size 15 to 20)
#    0.000    2.133    1.333    1.600    1.867    0.000 
#    4.800    0.667    0.000    0.000    0.000    0.000 
#    0.000    0.000    0.000    0.000    0.000    0.000 
#
# Total GULP energy -167070.844323 kJ/mol
# GULP energy per Si atom -5569.028144 kJ/mol
# Density = 2.168854 g / cm^3
# Si number density = 21.738014 Si / 1000 Ang^3
#
#
#
# Elastic Constant Matrix: (Units=GPa)
#
#
# Indices 1 2 3 4 5 6 
#
# 1 143.5014 33.5535 6.0558 0.0000 0.0000 0.0000
# 2 33.5535 223.8759 98.9574 0.0000 0.0000 0.0000
# 3 6.0558 98.9574 124.8056 0.0000 0.0000 0.0000
# 4 0.0000 0.0000 0.0000 24.9324 0.0000 0.0000
# 5 0.0000 0.0000 0.0000 0.0000 13.7320 0.0000
# 6 0.0000 0.0000 0.0000 0.0000 0.0000 6.9946
#
#
#
# Elastic Compliance Matrix: (Units=1/GPa)
#
#
# Indices 1 2 3 4 5 6 
#
# 1 0.007272 -0.001438 0.000787 0.000000 0.000000 0.000000
# 2 -0.001438 0.007161 -0.005608 0.000000 0.000000 0.000000
# 3 0.000787 -0.005608 0.012421 0.000000 0.000000 0.000000
# 4 0.000000 0.000000 0.000000 0.040108 0.000000 0.000000
# 5 0.000000 0.000000 0.000000 0.000000 0.072823 0.000000
# 6 0.000000 0.000000 0.000000 0.000000 0.000000 0.142967
#
#
# Mechanical properties :
#
#
# Convention : Reuss Voigt Hill
#
# Bulk Modulus (GPa) = 69.75459 85.47960 77.61709
# Shear Modulus (GPa) = 16.66396 32.70622 24.68509
#
# Velocity S-wave (km/s) = 2.77172 3.88308 3.37348
# Velocity P-wave (km/s) = 6.51166 7.71443 7.13842
#
# Compressibility (1/GPa) = 0.01433597
#
# Stress axis : x y z
#
# Youngs Moduli (GPa) = 137.52261 139.64078 80.50844
#
# Poissons Ratio (x) = 0.20077 -0.06337
# Poissons Ratio (y) = 0.19772 0.45152
# Poissons Ratio (z) = -0.10825 0.78315
#
# Static dielectric constant tensor:
#      x y z
#    x 1.821000 0.000000 0.000000 
#    y 0.000000 1.771760 0.000000 
#    z 0.000000 0.000000 1.825120 
# 
# From -- ./inp_files/20017.got.cif
#   From: 2010.05.17/outbox.cif.g08.bks.cpg/sg51_11_cif.got.tgz:20017.got - 2010.06.03 11:52:47.
