data_PCOD9405281
_publ_section_title
;
Structure prediction by ZEFSAII (Michael W. Deem and Ramdas Pophale) SiO2 
 PCOD9405281
Probable space group: P M M A
;
_chemical_formula_sum "Si O2"
_cell_formula_units_Z 48
_cell_length_a 15.335662
_cell_length_b 9.191483
_cell_length_c 17.837714
_cell_angle_alpha 90.000000
_cell_angle_beta 90.000000
_cell_angle_gamma 90.000000
_cell_volume 2514.359153
_symmetry_space_group_name_H-M "P M M A"
_symmetry_group_IT_number 51
_symmetry_cell_setting 'orthorhombic'
loop_
_space_group_symop_operation_xyz
x,y,z
1/2-x,-y,z
1/2+x,-y,-z
-x,y,-z
-x,-y,-z
1/2+x,y,-z
1/2-x,y,z
x,-y,z
loop_
_atom_site_type_symbol
_atom_site_label
_atom_site_fract_x
_atom_site_fract_y
_atom_site_fract_z
Si Si1 0.645779 0.837189 0.649425
Si Si2 0.147110 0.823564 0.184645
Si Si3 0.603454 0.663355 0.500523
Si Si4 0.498690 0.327418 0.910702
Si Si5 0.145630 0.172931 0.813586
Si Si6 0.353922 0.334086 0.662754
O O1 0.750000 0.848617 0.656530
O O2 0.618110 0.778737 0.730813
O O3 0.628320 0.746029 0.575540
O O4 0.609417 0.000000 0.639823
O O5 0.250000 0.788400 0.173634
O O6 0.083285 0.747485 0.126350
O O7 0.139758 0.000000 0.181110
O O8 0.500000 0.653620 0.500000
O O9 0.641375 0.500000 0.502256
O O10 0.628443 0.728847 0.419893
O O11 0.498378 0.500000 0.894644
O O12 0.413213 0.253357 0.874762
O O13 0.500000 0.307177 0.000000
O O14 0.250000 0.198648 0.823568
O O15 0.117664 0.236839 0.732531
O O16 0.131214 0.000000 0.815974
O O17 0.250000 0.345232 0.669476
O O18 0.390403 0.500000 0.666297
#
# Coordination Sequence:
#
# PCOD9405281 Si02
#       6
#     8   8   8   8   8   8
#     4   9  19  36  56  79 109 146 188 234 283 333
#     4   9  20  40  64  90 121 156 195 242 294 347
#     4  10  21  33  48  78 116 151 190 234 279 331
#     4  11  25  42  62  90 122 155 191 236 292 354
#     4  10  22  40  63  90 118 153 198 244 293 350
#     4   9  18  34  54  76 109 153 194 236 287 337
#
# _framework density 19.090351999999999
#
# number of rings (size 3 to 8) (size 9 to 14) (size 15 to 20)
#    0.000    2.333    0.000    2.500    2.333    6.000 
#    0.000    6.667    0.000    0.000    0.000    0.000 
#    0.000    0.000    0.000    0.000    0.000    0.000 
#
# Total GULP energy -267744.718546 kJ/mol
# GULP energy per Si atom -5578.014970 kJ/mol
# Density = 1.904690 g / cm^3
# Si number density = 19.090352 Si / 1000 Ang^3
#
#
#
# Elastic Constant Matrix: (Units=GPa)
#
#
# Indices 1 2 3 4 5 6 
#
# 1 68.9898 45.3771 58.4471 0.0000 0.0000 0.0000
# 2 45.3771 77.7286 83.6934 0.0000 0.0000 0.0000
# 3 58.4471 83.6934 164.4534 0.0000 0.0000 0.0000
# 4 0.0000 0.0000 0.0000 -4.3658 0.0000 0.0000
# 5 0.0000 0.0000 0.0000 0.0000 37.6504 0.0000
# 6 0.0000 0.0000 0.0000 0.0000 0.0000 65.8626
#
#
#
# Elastic Compliance Matrix: (Units=1/GPa)
#
#
# Indices 1 2 3 4 5 6 
#
# 1 0.024235 -0.010783 -0.003126 0.000000 0.000000 0.000000
# 2 -0.010783 0.033259 -0.013094 0.000000 0.000000 0.000000
# 3 -0.003126 -0.013094 0.013855 0.000000 0.000000 0.000000
# 4 0.000000 0.000000 0.000000 -0.229054 0.000000 0.000000
# 5 0.000000 0.000000 0.000000 0.000000 0.026560 0.000000
# 6 0.000000 0.000000 0.000000 0.000000 0.000000 0.015183
#
#
# Mechanical properties :
#
#
# Convention : Reuss Voigt Hill
#
# Bulk Modulus (GPa) = 57.65412 76.24522 66.94967
# Shear Modulus (GPa) = -89.00606 28.07306 -30.46650
#
# Velocity S-wave (km/s) = -6.83555 3.83892 -3.99922
# Velocity P-wave (km/s) = 5.65982 7.72500 3.71766
#
# Compressibility (1/GPa) = 0.01734481
#
# Stress axis : x y z
#
# Youngs Moduli (GPa) = 41.26248 30.06741 72.17449
#
# Poissons Ratio (x) = 0.32420 0.22560
# Poissons Ratio (y) = 0.44492 0.94504
# Poissons Ratio (z) = 0.12898 0.39370
#
# Static dielectric constant tensor:
#      x y z
#    x 1.665530 0.000000 0.000000 
#    y 0.000000 1.680430 0.000000 
#    z 0.000000 0.000000 1.674410 
# 
# From -- ./inp_files/29440.got.cif
#   From: 2010.05.17/outbox.cif.g08.bks.cpg/sg51_15_cif.got.tgz:29440.got - 2010.06.03 11:52:47.
