data_PCOD9405293
_publ_section_title
;
Structure prediction by ZEFSAII (Michael W. Deem and Ramdas Pophale) SiO2 
 PCOD9405293
Probable space group: P M M A
;
_chemical_formula_sum "Si O2"
_cell_formula_units_Z 44
_cell_length_a 7.409946
_cell_length_b 31.021625
_cell_length_c 8.999947
_cell_angle_alpha 90.000000
_cell_angle_beta 90.000000
_cell_angle_gamma 90.000000
_cell_volume 2068.804912
_symmetry_space_group_name_H-M "P M M A"
_symmetry_group_IT_number 51
_symmetry_cell_setting 'orthorhombic'
loop_
_space_group_symop_operation_xyz
x,y,z
1/2-x,-y,z
1/2+x,-y,-z
-x,y,-z
-x,-y,-z
1/2+x,y,-z
1/2-x,y,z
x,-y,z
loop_
_atom_site_type_symbol
_atom_site_label
_atom_site_fract_x
_atom_site_fract_y
_atom_site_fract_z
Si Si1 0.533957 0.587043 0.323855
Si Si2 0.965876 0.319586 0.322131
Si Si3 0.965924 0.773077 0.322042
Si Si4 0.033979 0.866279 0.675867
Si Si5 0.034169 0.046918 0.824322
Si Si6 0.534231 0.500000 0.174056
O O1 0.500000 0.583865 0.500000
O O2 0.750000 0.587929 0.302549
O O3 0.464659 0.633853 0.268977
O O4 0.462703 0.544182 0.245640
O O5 0.750000 0.319380 0.300438
O O6 0.035653 0.273260 0.265017
O O7 0.000000 0.319689 0.500000
O O8 0.750000 0.772924 0.300726
O O9 0.035057 0.819582 0.267720
O O10 0.000000 0.773160 0.500000
O O11 0.250000 0.865749 0.698788
O O12 0.961621 0.909771 0.749516
O O13 0.000000 0.868388 0.500000
O O14 0.250000 0.046550 0.800760
O O15 0.965295 0.000000 0.771534
O O16 0.000000 0.049236 0.000000
O O17 0.750000 0.500000 0.200207
O O18 0.500000 0.500000 0.000000
#
# Coordination Sequence:
#
# PCOD9405293 Si02
#       6
#     8   8   8   8   8   4
#     4   9  17  29  46  68  89 109 139 178 214 249
#     4   8  13  22  38  60  84 108 134 166 204 244
#     4   8  13  22  37  58  84 111 135 162 201 246
#     4   9  17  28  43  65  90 113 139 172 209 250
#     4   9  18  32  47  62  82 110 144 179 213 251
#     4  10  21  34  46  62  86 116 147 176 210 254
#
# _framework density 21.268318000000001
#
# number of rings (size 3 to 8) (size 9 to 14) (size 15 to 20)
#    0.000    3.273    0.000    0.273    0.000    1.818 
#    0.000    0.000    0.000    1.091    0.000    0.000 
#    0.000    0.000    0.000    0.000    0.000    0.000 
#
# Total GULP energy -244990.839461 kJ/mol
# GULP energy per Si atom -5567.973624 kJ/mol
# Density = 2.121991 g / cm^3
# Si number density = 21.268318 Si / 1000 Ang^3
#
#
#
# Elastic Constant Matrix: (Units=GPa)
#
#
# Indices 1 2 3 4 5 6 
#
# 1 78.5398 17.5065 -7.1516 0.0000 0.0000 0.0000
# 2 17.5065 332.4432 65.6920 0.0000 0.0000 0.0000
# 3 -7.1516 65.6920 24.5773 0.0000 0.0000 0.0000
# 4 0.0000 0.0000 0.0000 -23.3869 0.0000 0.0000
# 5 0.0000 0.0000 0.0000 0.0000 12.6808 0.0000
# 6 0.0000 0.0000 0.0000 0.0000 0.0000 -54.6885
#
#
#
# Elastic Compliance Matrix: (Units=1/GPa)
#
#
# Indices 1 2 3 4 5 6 
#
# 1 0.014726 -0.003438 0.013474 0.000000 0.000000 0.000000
# 2 -0.003438 0.007178 -0.020186 0.000000 0.000000 0.000000
# 3 0.013474 -0.020186 0.098563 0.000000 0.000000 0.000000
# 4 0.000000 0.000000 0.000000 -0.042759 0.000000 0.000000
# 5 0.000000 0.000000 0.000000 0.000000 0.078859 0.000000
# 6 0.000000 0.000000 0.000000 0.000000 0.000000 -0.018285
#
#
# Mechanical properties :
#
#
# Convention : Reuss Voigt Hill
#
# Bulk Modulus (GPa) = 9.98330 65.29491 37.63911
# Shear Modulus (GPa) = 26.04570 10.88863 18.46717
#
# Velocity S-wave (km/s) = 3.50326 2.26512 2.94988
# Velocity P-wave (km/s) = 4.58998 6.13255 5.41646
#
# Compressibility (1/GPa) = 0.10016728
#
# Stress axis : x y z
#
# Youngs Moduli (GPa) = 67.90867 139.31641 10.14577
#
# Poissons Ratio (x) = 0.47897 -0.13671
# Poissons Ratio (y) = 0.23347 0.20480
# Poissons Ratio (z) = -0.91502 2.81224
#
# Static dielectric constant tensor:
#      x y z
#    x 1.764520 0.000000 0.000000 
#    y 0.000000 1.886160 0.000000 
#    z 0.000000 0.000000 1.675950 
# 
# From -- ./inp_files/5780.got.cif
#   From: 2010.05.17/outbox.cif.g08.bks.cpg/sg51_3_cif.got.tgz:5780.got - 2010.06.03 11:52:47.
