data_PCOD9405484
_publ_section_title
;
Structure prediction by ZEFSAII (Michael W. Deem and Ramdas Pophale) SiO2 
 PCOD9405484
Probable space group: P M M A
;
_chemical_formula_sum "Si O2"
_cell_formula_units_Z 44
_cell_length_a 9.576790
_cell_length_b 7.663087
_cell_length_c 30.860986
_cell_angle_alpha 90.000000
_cell_angle_beta 90.000000
_cell_angle_gamma 90.000000
_cell_volume 2264.819095
_symmetry_space_group_name_H-M "P M M A"
_symmetry_group_IT_number 51
_symmetry_cell_setting 'orthorhombic'
loop_
_space_group_symop_operation_xyz
x,y,z
1/2-x,-y,z
1/2+x,-y,-z
-x,y,-z
-x,-y,-z
1/2+x,y,-z
1/2-x,y,z
x,-y,z
loop_
_atom_site_type_symbol
_atom_site_label
_atom_site_fract_x
_atom_site_fract_y
_atom_site_fract_z
Si Si1 0.592755 0.792078 0.302707
Si Si2 0.591833 0.292424 0.779903
Si Si3 0.591108 0.791358 0.877334
Si Si4 0.584613 0.206889 0.614388
Si Si5 0.416337 0.500000 0.455560
Si Si6 0.910416 0.786324 0.041770
O O1 0.750000 0.720236 0.301580
O O2 0.510258 0.762034 0.258291
O O3 0.503459 0.731750 0.344027
O O4 0.602512 0.000000 0.307939
O O5 0.750000 0.221097 0.773798
O O6 0.600409 0.500000 0.778568
O O7 0.544264 0.242562 0.828197
O O8 0.750000 0.722457 0.881915
O O9 0.487930 0.726635 0.914529
O O10 0.598822 0.000000 0.882678
O O11 0.750000 0.226136 0.623900
O O12 0.551821 0.329411 0.573609
O O13 0.559126 0.000000 0.606276
O O14 0.250000 0.500000 0.463979
O O15 0.500000 0.500000 0.500000
O O16 0.750000 0.729162 0.039384
O O17 0.908747 0.000000 0.041975
O O18 0.000000 0.733136 0.000000
#
# Coordination Sequence:
#
# PCOD9405484 Si02
#       6
#     8   8   8   8   4   8
#     4  10  21  36  55  81 110 140 178 225 275 323
#     4  10  21  35  52  75 104 140 178 215 260 318
#     4   9  17  30  48  69  95 128 165 206 253 306
#     4   9  19  37  59  82 112 150 190 233 279 332
#     4  10  22  38  58  86 116 150 192 234 281 336
#     4   9  16  26  43  68  95 122 156 202 255 308
#
# _framework density 19.427599000000001
#
# number of rings (size 3 to 8) (size 9 to 14) (size 15 to 20)
#    0.000    2.545    0.000    1.636    1.273    6.182 
#    0.000    1.818    0.000    0.545    0.000    0.000 
#    0.000    0.000    0.000    0.000    0.000    0.000 
#
# Total GULP energy -245563.788852 kJ/mol
# GULP energy per Si atom -5580.995201 kJ/mol
# Density = 1.938338 g / cm^3
# Si number density = 19.427599 Si / 1000 Ang^3
#
#
#
# Elastic Constant Matrix: (Units=GPa)
#
#
# Indices 1 2 3 4 5 6 
#
# 1 131.2037 31.4232 134.5870 0.0000 0.0000 0.0000
# 2 31.4232 48.7985 31.2259 0.0000 0.0000 0.0000
# 3 134.5870 31.2259 211.1053 0.0000 0.0000 0.0000
# 4 0.0000 0.0000 0.0000 54.4059 0.0000 0.0000
# 5 0.0000 0.0000 0.0000 0.0000 41.2312 0.0000
# 6 0.0000 0.0000 0.0000 0.0000 0.0000 8.5011
#
#
#
# Elastic Compliance Matrix: (Units=1/GPa)
#
#
# Indices 1 2 3 4 5 6 
#
# 1 0.023586 -0.006148 -0.014127 0.000000 0.000000 0.000000
# 2 -0.006148 0.024237 0.000334 0.000000 0.000000 0.000000
# 3 -0.014127 0.000334 0.013694 0.000000 0.000000 0.000000
# 4 0.000000 0.000000 0.000000 0.018380 0.000000 0.000000
# 5 0.000000 0.000000 0.000000 0.000000 0.024253 0.000000
# 6 0.000000 0.000000 0.000000 0.000000 0.000000 0.117632
#
#
# Mechanical properties :
#
#
# Convention : Reuss Voigt Hill
#
# Bulk Modulus (GPa) = 46.22004 87.28664 66.75334
# Shear Modulus (GPa) = 18.59584 33.75238 26.17411
#
# Velocity S-wave (km/s) = 3.09720 4.17267 3.67449
# Velocity P-wave (km/s) = 6.05250 8.26085 7.24135
#
# Compressibility (1/GPa) = 0.02163564
#
# Stress axis : x y z
#
# Youngs Moduli (GPa) = 42.39825 41.25871 73.02325
#
# Poissons Ratio (x) = 0.25365 1.03163
# Poissons Ratio (y) = 0.26065 -0.02441
# Poissons Ratio (z) = 0.59898 -0.01379
#
# Static dielectric constant tensor:
#      x y z
#    x 1.695360 0.000000 0.000000 
#    y 0.000000 1.707450 0.000000 
#    z 0.000000 0.000000 1.644990 
# 
# From -- ./inp_files/36748.got.cif
#   From: 2010.05.17/outbox.cif.g08.bks.cpg/sg51_19_cif.got.tgz:36748.got - 2010.06.03 11:52:47.
