data_PCOD9405642
_publ_section_title
;
Structure prediction by ZEFSAII (Michael W. Deem and Ramdas Pophale) SiO2 
 PCOD9405642
Probable space group: P M M A
;
_chemical_formula_sum "Si O2"
_cell_formula_units_Z 48
_cell_length_a 8.777086
_cell_length_b 10.002670
_cell_length_c 31.481204
_cell_angle_alpha 90.000000
_cell_angle_beta 90.000000
_cell_angle_gamma 90.000000
_cell_volume 2763.870105
_symmetry_space_group_name_H-M "P M M A"
_symmetry_group_IT_number 51
_symmetry_cell_setting 'orthorhombic'
loop_
_space_group_symop_operation_xyz
x,y,z
1/2-x,-y,z
1/2+x,-y,-z
-x,y,-z
-x,-y,-z
1/2+x,y,-z
1/2-x,y,z
x,-y,z
loop_
_atom_site_type_symbol
_atom_site_label
_atom_site_fract_x
_atom_site_fract_y
_atom_site_fract_z
Si Si1 0.068049 0.155492 0.710247
Si Si2 0.935607 0.346709 0.878802
Si Si3 0.067670 0.843952 0.381532
Si Si4 0.432316 0.655961 0.546048
Si Si5 0.433944 0.155253 0.045439
Si Si6 0.433358 0.342991 0.217564
O O1 0.250000 0.164452 0.706746
O O2 0.994584 0.192875 0.665036
O O3 0.009198 0.249750 0.747601
O O4 0.027216 0.000000 0.718703
O O5 0.750000 0.345772 0.878905
O O6 0.982877 0.500000 0.886757
O O7 0.986820 0.247331 0.915684
O O8 0.981094 0.308840 0.830817
O O9 0.250000 0.833357 0.381824
O O10 0.998107 0.750208 0.417530
O O11 0.026460 0.000000 0.388936
O O12 0.500000 0.691718 0.500000
O O13 0.250000 0.666921 0.544700
O O14 0.471958 0.500000 0.554196
O O15 0.250000 0.161522 0.043526
O O16 0.477055 0.000000 0.052213
O O17 0.500000 0.198166 0.000000
O O18 0.250000 0.328999 0.220115
O O19 0.468597 0.500000 0.224381
#
# Coordination Sequence:
#
# PCOD9405642 Si02
#       6
#     8   8   8   8   8   8
#     4  10  21  36  53  75 104 136 169 207 252 301
#     4   8  15  29  48  69  93 121 156 198 240 285
#     4  10  21  37  57  80 105 136 175 216 257 302
#     4  10  21  37  57  81 109 141 176 214 257 304
#     4   9  17  29  45  66  92 122 156 194 237 285
#     4   9  18  33  53  76 100 128 165 208 252 299
#
# _framework density 17.366952999999999
#
# number of rings (size 3 to 8) (size 9 to 14) (size 15 to 20)
#    0.000    2.667    0.000    2.500    0.000    5.333 
#    0.000    2.500    0.000    3.000    0.000    0.000 
#    0.000    0.000    0.000    0.000    0.000    0.000 
#
# Total GULP energy -267743.804457 kJ/mol
# GULP energy per Si atom -5577.995926 kJ/mol
# Density = 1.732742 g / cm^3
# Si number density = 17.366953 Si / 1000 Ang^3
#
#
#
# Elastic Constant Matrix: (Units=GPa)
#
#
# Indices 1 2 3 4 5 6 
#
# 1 28.3505 37.7134 50.3006 0.0000 0.0000 0.0000
# 2 37.7134 90.4709 119.8970 0.0000 0.0000 0.0000
# 3 50.3006 119.8970 198.3997 0.0000 0.0000 0.0000
# 4 0.0000 0.0000 0.0000 43.6378 0.0000 0.0000
# 5 0.0000 0.0000 0.0000 0.0000 32.1331 0.0000
# 6 0.0000 0.0000 0.0000 0.0000 0.0000 24.5775
#
#
#
# Elastic Compliance Matrix: (Units=1/GPa)
#
#
# Indices 1 2 3 4 5 6 
#
# 1 0.079197 -0.032161 -0.000643 0.000000 0.000000 0.000000
# 2 -0.032161 0.068571 -0.033285 0.000000 0.000000 0.000000
# 3 -0.000643 -0.033285 0.025318 0.000000 0.000000 0.000000
# 4 0.000000 0.000000 0.000000 0.022916 0.000000 0.000000
# 5 0.000000 0.000000 0.000000 0.000000 0.031121 0.000000
# 6 0.000000 0.000000 0.000000 0.000000 0.000000 0.040688
#
#
# Mechanical properties :
#
#
# Convention : Reuss Voigt Hill
#
# Bulk Modulus (GPa) = 24.44573 81.44923 52.94748
# Shear Modulus (GPa) = 12.08827 27.35701 19.72264
#
# Velocity S-wave (km/s) = 2.64114 3.97323 3.37358
# Velocity P-wave (km/s) = 4.83812 8.24921 6.76228
#
# Compressibility (1/GPa) = 0.04090695
#
# Stress axis : x y z
#
# Youngs Moduli (GPa) = 12.62681 14.58343 39.49744
#
# Poissons Ratio (x) = 0.46902 0.02540
# Poissons Ratio (y) = 0.40610 1.31467
# Poissons Ratio (z) = 0.00812 0.48541
#
# Static dielectric constant tensor:
#      x y z
#    x 1.585280 0.000000 0.000000 
#    y 0.000000 1.580480 0.000000 
#    z 0.000000 0.000000 1.561500 
# 
# From -- ./inp_files/36928.got.cif
#   From: 2010.05.17/outbox.cif.g08.bks.cpg/sg51_19_cif.got.tgz:36928.got - 2010.06.03 11:52:47.
