data_PCOD9405721
_publ_section_title
;
Structure prediction by ZEFSAII (Michael W. Deem and Ramdas Pophale) SiO2 
 PCOD9405721
Probable space group: P M M A
;
_chemical_formula_sum "Si O2"
_cell_formula_units_Z 56
_cell_length_a 14.714794
_cell_length_b 8.665732
_cell_length_c 24.434384
_cell_angle_alpha 90.000000
_cell_angle_beta 90.000000
_cell_angle_gamma 90.000000
_cell_volume 3115.737311
_symmetry_space_group_name_H-M "P M M A"
_symmetry_group_IT_number 51
_symmetry_cell_setting 'orthorhombic'
loop_
_space_group_symop_operation_xyz
x,y,z
1/2-x,-y,z
1/2+x,-y,-z
-x,y,-z
-x,-y,-z
1/2+x,y,-z
1/2-x,y,z
x,-y,z
loop_
_atom_site_type_symbol
_atom_site_label
_atom_site_fract_x
_atom_site_fract_y
_atom_site_fract_z
Si Si1 0.858230 0.318847 0.064241
Si Si2 0.354797 0.813224 0.348543
Si Si3 0.999271 0.316763 0.734547
Si Si4 0.354892 0.186797 0.652204
Si Si5 0.856233 0.814982 0.946745
Si Si6 0.499463 0.187728 0.562242
Si Si7 0.000656 0.816735 0.144549
O O1 0.750000 0.295235 0.068844
O O2 0.877735 0.500000 0.070552
O O3 0.911216 0.224695 0.110065
O O4 0.884972 0.263731 0.003437
O O5 0.250000 0.763779 0.349592
O O6 0.411686 0.749289 0.297483
O O7 0.411938 0.767045 0.402563
O O8 0.356708 0.000000 0.345828
O O9 0.999982 0.500000 0.730188
O O10 0.998225 0.265373 0.797279
O O11 0.087441 0.249909 0.703152
O O12 0.250000 0.236358 0.651642
O O13 0.411390 0.233505 0.597901
O O14 0.356725 0.000000 0.654641
O O15 0.750000 0.780343 0.937541
O O16 0.916792 0.767768 0.895290
O O17 0.865717 0.000000 0.953591
O O18 0.500000 0.244050 0.500000
O O19 0.499092 0.000000 0.560446
O O20 0.006864 0.000000 0.153249
#
# Coordination Sequence:
#
# PCOD9405721 Si02
#       7
#     8   8   8   8   8   8   8
#     4  10  21  36  54  78 108 139 170 208 256 308
#     4   9  18  34  55  77 105 142 179 215 259 310
#     4  11  23  37  53  75 104 136 175 223 268 313
#     4   9  18  34  55  77 104 140 178 215 259 311
#     4   9  19  36  56  78 104 134 168 206 252 309
#     4   8  14  26  48  82 116 138 166 213 262 307
#     4  11  22  36  56  79 103 135 174 215 262 313
#
# _framework density 17.973274
#
# number of rings (size 3 to 8) (size 9 to 14) (size 15 to 20)
#    0.000    2.429    0.000    3.429    0.000    6.000 
#    0.000    4.286    0.000    6.857    0.000    8.000 
#    0.000    0.000    0.000    0.000    0.000    0.000 
#
# Total GULP energy -312503.448445 kJ/mol
# GULP energy per Si atom -5580.418722 kJ/mol
# Density = 1.793237 g / cm^3
# Si number density = 17.973274 Si / 1000 Ang^3
#
#
#
# Elastic Constant Matrix: (Units=GPa)
#
#
# Indices 1 2 3 4 5 6 
#
# 1 132.6134 30.8305 66.9990 0.0000 0.0000 0.0000
# 2 30.8305 21.4837 24.1278 0.0000 0.0000 0.0000
# 3 66.9990 24.1278 144.0644 0.0000 0.0000 0.0000
# 4 0.0000 0.0000 0.0000 -33.6352 0.0000 0.0000
# 5 0.0000 0.0000 0.0000 0.0000 14.7413 0.0000
# 6 0.0000 0.0000 0.0000 0.0000 0.0000 14.0164
#
#
#
# Elastic Compliance Matrix: (Units=1/GPa)
#
#
# Indices 1 2 3 4 5 6 
#
# 1 0.012593 -0.014157 -0.003485 0.000000 0.000000 0.000000
# 2 -0.014157 0.073246 -0.005683 0.000000 0.000000 0.000000
# 3 -0.003485 -0.005683 0.009514 0.000000 0.000000 0.000000
# 4 0.000000 0.000000 0.000000 -0.029731 0.000000 0.000000
# 5 0.000000 0.000000 0.000000 0.000000 0.067837 0.000000
# 6 0.000000 0.000000 0.000000 0.000000 0.000000 0.071345
#
#
# Mechanical properties :
#
#
# Convention : Reuss Voigt Hill
#
# Bulk Modulus (GPa) = 20.53328 60.23068 40.38198
# Shear Modulus (GPa) = 18.67832 10.77145 14.72488
#
# Velocity S-wave (km/s) = 3.22720 2.45072 2.86539
# Velocity P-wave (km/s) = 5.03345 6.44919 5.78479
#
# Compressibility (1/GPa) = 0.04870143
#
# Stress axis : x y z
#
# Youngs Moduli (GPa) = 79.40918 13.65258 105.10696
#
# Poissons Ratio (x) = 0.19328 0.36635
# Poissons Ratio (y) = 1.12422 0.59734
# Poissons Ratio (z) = 0.27678 0.07759
#
# Static dielectric constant tensor:
#      x y z
#    x 1.614790 0.000000 0.000000 
#    y 0.000000 1.603110 0.000000 
#    z 0.000000 0.000000 1.586610 
# 
# From -- ./inp_files/33408.got.cif
#   From: 2010.05.17/outbox.cif.g08.bks.cpg/sg51_17_cif.got.tgz:33408.got - 2010.06.03 11:52:47.
