data_PCOD9405250
_publ_section_title
;
Structure prediction by ZEFSAII (Michael W. Deem and Ramdas Pophale) SiO2 
 PCOD9405250
Probable space group: P M M A
;
_chemical_formula_sum "Si O2"
_cell_formula_units_Z 48
_cell_length_a 14.284887
_cell_length_b 18.119877
_cell_length_c 9.590617
_cell_angle_alpha 90.000000
_cell_angle_beta 90.000000
_cell_angle_gamma 90.000000
_cell_volume 2482.439096
_symmetry_space_group_name_H-M "P M M A"
_symmetry_group_IT_number 51
_symmetry_cell_setting 'orthorhombic'
loop_
_space_group_symop_operation_xyz
x,y,z
1/2-x,-y,z
1/2+x,-y,-z
-x,y,-z
-x,-y,-z
1/2+x,y,-z
1/2-x,y,z
x,-y,z
loop_
_atom_site_type_symbol
_atom_site_label
_atom_site_fract_x
_atom_site_fract_y
_atom_site_fract_z
Si Si1 0.042227 0.862783 0.345651
Si Si2 0.914157 0.918004 0.106670
Si Si3 0.750000 0.852408 0.681494
Si Si4 0.943522 0.692572 0.642884
Si Si5 0.250000 0.704382 0.485806
Si Si6 0.550319 0.586102 0.149664
Si Si7 0.250000 0.335968 0.816272
Si Si8 0.250000 0.187289 0.994498
O O1 0.149110 0.892654 0.332553
O O2 0.051924 0.776504 0.300187
O O3 0.000000 0.864345 0.500000
O O4 0.965173 0.901610 0.251460
O O5 0.839766 0.857309 0.061488
O O6 0.871883 0.000000 0.105209
O O7 0.000000 0.916333 0.000000
O O8 0.750000 0.791411 0.556720
O O9 0.750000 0.815604 0.836596
O O10 0.839990 0.673126 0.592707
O O11 0.000000 0.694100 0.500000
O O12 0.989165 0.635293 0.746365
O O13 0.250000 0.690609 0.652400
O O14 0.551611 0.500000 0.189286
O O15 0.655741 0.617782 0.155062
O O16 0.500000 0.592363 0.000000
O O17 0.250000 0.266914 0.922220
#
# Coordination Sequence:
#
# PCOD9405250 Si02
#       8
#     8   8   4   8   4   8   4   4
#     4  10  22  39  66  93 130 166 212 269 314 374
#     4  11  24  42  62  91 131 169 211 258 315 381
#     4  10  22  39  59  99 128 160 210 264 323 368
#     4  10  20  39  65  93 125 164 213 265 312 367
#     4  10  22  39  61  99 128 158 210 272 321 362
#     4  11  26  44  63  92 133 171 209 258 321 386
#     4  12  25  43  69  95 126 166 213 268 321 369
#     4  12  25  39  69  97 124 168 217 264 315 375
#
# _framework density 19.335820999999999
#
# number of rings (size 3 to 8) (size 9 to 14) (size 15 to 20)
#    0.000    1.333    3.333    1.500    9.333    2.000 
#    0.000    1.667    0.000    0.000    0.000    0.000 
#    0.000    0.000    0.000    0.000    0.000    0.000 
#
# Total GULP energy -267969.257207 kJ/mol
# GULP energy per Si atom -5582.692858 kJ/mol
# Density = 1.929181 g / cm^3
# Si number density = 19.335821 Si / 1000 Ang^3
#
#
#
# Elastic Constant Matrix: (Units=GPa)
#
#
# Indices 1 2 3 4 5 6 
#
# 1 121.3943 6.1704 6.6333 0.0000 0.0000 0.0000
# 2 6.1704 40.2169 4.0289 0.0000 0.0000 0.0000
# 3 6.6333 4.0289 62.2068 0.0000 0.0000 0.0000
# 4 0.0000 0.0000 0.0000 19.5832 0.0000 0.0000
# 5 0.0000 0.0000 0.0000 0.0000 25.2370 0.0000
# 6 0.0000 0.0000 0.0000 0.0000 0.0000 50.8238
#
#
#
# Elastic Compliance Matrix: (Units=1/GPa)
#
#
# Indices 1 2 3 4 5 6 
#
# 1 0.008343 -0.001199 -0.000812 0.000000 0.000000 0.000000
# 2 -0.001199 0.025200 -0.001504 0.000000 0.000000 0.000000
# 3 -0.000812 -0.001504 0.016259 0.000000 0.000000 0.000000
# 4 0.000000 0.000000 0.000000 0.051064 0.000000 0.000000
# 5 0.000000 0.000000 0.000000 0.000000 0.039624 0.000000
# 6 0.000000 0.000000 0.000000 0.000000 0.000000 0.019676
#
#
# Mechanical properties :
#
#
# Convention : Reuss Voigt Hill
#
# Bulk Modulus (GPa) = 23.37967 28.60924 25.99445
# Shear Modulus (GPa) = 27.55524 32.92784 30.24154
#
# Velocity S-wave (km/s) = 3.77913 4.13115 3.95905
# Velocity P-wave (km/s) = 5.58212 6.13052 5.86274
#
# Compressibility (1/GPa) = 0.04277221
#
# Stress axis : x y z
#
# Youngs Moduli (GPa) = 119.86214 39.68289 61.50283
#
# Poissons Ratio (x) = 0.04757 0.04994
# Poissons Ratio (y) = 0.14368 0.09252
# Poissons Ratio (z) = 0.09733 0.05969
#
# Static dielectric constant tensor:
#      x y z
#    x 1.680260 0.000000 0.000000 
#    y 0.000000 1.671330 0.000000 
#    z 0.000000 0.000000 1.693450 
# 
# From -- ./inp_files/8405.got.cif
#   From: 2010.05.17/outbox.cif.g08.bks.cpg/sg51_5_cif.got.tgz:8405.got - 2010.06.03 11:52:47.
