data_PCOD9405362
_publ_section_title
;
Structure prediction by ZEFSAII (Michael W. Deem and Ramdas Pophale) SiO2 
 PCOD9405362
Probable space group: P M M A
;
_chemical_formula_sum "Si O2"
_cell_formula_units_Z 40
_cell_length_a 10.300086
_cell_length_b 14.596848
_cell_length_c 13.285544
_cell_angle_alpha 90.000000
_cell_angle_beta 90.000000
_cell_angle_gamma 90.000000
_cell_volume 1997.465461
_symmetry_space_group_name_H-M "P M M A"
_symmetry_group_IT_number 51
_symmetry_cell_setting 'orthorhombic'
loop_
_space_group_symop_operation_xyz
x,y,z
1/2-x,-y,z
1/2+x,-y,-z
-x,y,-z
-x,-y,-z
1/2+x,y,-z
1/2-x,y,z
x,-y,z
loop_
_atom_site_type_symbol
_atom_site_label
_atom_site_fract_x
_atom_site_fract_y
_atom_site_fract_z
Si Si1 0.514635 0.293272 0.304027
Si Si2 0.750000 0.607718 0.414715
Si Si3 0.107092 0.700414 0.927575
Si Si4 0.110076 0.900736 0.890622
Si Si5 0.250000 0.605442 0.343680
Si Si6 0.405331 0.897106 0.285472
O O1 0.622784 0.341157 0.372584
O O2 0.568176 0.297113 0.189656
O O3 0.379981 0.347215 0.305643
O O4 0.475624 0.189715 0.336880
O O5 0.750000 0.500000 0.384470
O O6 0.750000 0.611190 0.535092
O O7 0.250000 0.659851 0.939369
O O8 0.115364 0.808944 0.954811
O O9 0.000000 0.657805 0.000000
O O10 0.250000 0.896655 0.831640
O O11 0.984515 0.899258 0.819770
O O12 0.113072 0.000000 0.942221
O O13 0.250000 0.500000 0.313927
O O14 0.250000 0.880913 0.274419
O O15 0.421079 0.000000 0.329487
#
# Coordination Sequence:
#
# PCOD9405362 Si02
#       6
#     8   4   8   8   4   8
#     4  11  21  40  64  94 128 165 201 251 314 366
#     4  11  24  44  70  96 124 151 192 258 330 389
#     4  10  21  34  54  83 120 165 209 245 290 355
#     4   8  15  28  46  73 111 154 204 258 303 345
#     4  11  24  42  70 102 120 145 194 258 328 389
#     4   9  17  30  52  84 122 166 209 245 290 353
#
# _framework density 20.025379000000001
#
# number of rings (size 3 to 8) (size 9 to 14) (size 15 to 20)
#    0.000    2.200    2.000    1.200    2.800    2.800 
#    0.000    0.000    0.000    9.600    0.000    0.000 
#    0.000    0.000    0.000    0.000    0.000    0.000 
#
# Total GULP energy -222700.701546 kJ/mol
# GULP energy per Si atom -5567.517539 kJ/mol
# Density = 1.997980 g / cm^3
# Si number density = 20.025379 Si / 1000 Ang^3
#
#
#
# Elastic Constant Matrix: (Units=GPa)
#
#
# Indices 1 2 3 4 5 6 
#
# 1 166.4653 60.6256 22.4516 0.0000 0.0000 0.0000
# 2 60.6256 94.8857 11.9670 0.0000 0.0000 0.0000
# 3 22.4516 11.9670 20.6026 0.0000 0.0000 0.0000
# 4 0.0000 0.0000 0.0000 0.9690 0.0000 0.0000
# 5 0.0000 0.0000 0.0000 0.0000 39.6378 0.0000
# 6 0.0000 0.0000 0.0000 0.0000 0.0000 180.9854
#
#
#
# Elastic Compliance Matrix: (Units=1/GPa)
#
#
# Indices 1 2 3 4 5 6 
#
# 1 0.008602 -0.004655 -0.006670 0.000000 0.000000 0.000000
# 2 -0.004655 0.013891 -0.002996 0.000000 0.000000 0.000000
# 3 -0.006670 -0.002996 0.057547 0.000000 0.000000 0.000000
# 4 0.000000 0.000000 0.000000 1.031971 0.000000 0.000000
# 5 0.000000 0.000000 0.000000 0.000000 0.025228 0.000000
# 6 0.000000 0.000000 0.000000 0.000000 0.000000 0.005525
#
#
# Mechanical properties :
#
#
# Convention : Reuss Voigt Hill
#
# Bulk Modulus (GPa) = 19.45618 52.44910 35.95264
# Shear Modulus (GPa) = 4.20684 56.77908 30.49296
#
# Velocity S-wave (km/s) = 1.45097 5.33058 3.90643
# Velocity P-wave (km/s) = 3.54174 8.00843 6.19189
#
# Compressibility (1/GPa) = 0.05139755
#
# Stress axis : x y z
#
# Youngs Moduli (GPa) = 116.24910 71.98884 17.37720
#
# Poissons Ratio (x) = 0.33511 0.11591
# Poissons Ratio (y) = 0.54114 0.05206
# Poissons Ratio (z) = 0.77543 0.21567
#
# Static dielectric constant tensor:
#      x y z
#    x 1.755960 0.000000 0.000000 
#    y 0.000000 1.760140 0.000000 
#    z 0.000000 0.000000 1.677420 
# 
# From -- ./inp_files/20596.got.cif
#   From: 2010.05.17/outbox.cif.g08.bks.cpg/sg51_11_cif.got.tgz:20596.got - 2010.06.03 11:52:47.
