data_PCOD9405046
_publ_section_title
;
Structure prediction by ZEFSAII (Michael W. Deem and Ramdas Pophale) SiO2 
 PCOD9405046
Probable space group: P M M A
;
_chemical_formula_sum "Si O2"
_cell_formula_units_Z 48
_cell_length_a 14.165258
_cell_length_b 17.360644
_cell_length_c 9.407297
_cell_angle_alpha 90.000000
_cell_angle_beta 90.000000
_cell_angle_gamma 90.000000
_cell_volume 2313.423676
_symmetry_space_group_name_H-M "P M M A"
_symmetry_group_IT_number 51
_symmetry_cell_setting 'orthorhombic'
loop_
_space_group_symop_operation_xyz
x,y,z
1/2-x,-y,z
1/2+x,-y,-z
-x,y,-z
-x,-y,-z
1/2+x,y,-z
1/2-x,y,z
x,-y,z
loop_
_atom_site_type_symbol
_atom_site_label
_atom_site_fract_x
_atom_site_fract_y
_atom_site_fract_z
Si Si1 0.364712 0.343372 0.147583
Si Si2 0.099677 0.913029 0.416548
Si Si3 0.634236 0.500000 0.339147
Si Si4 0.972202 0.182404 0.848107
Si Si5 0.854714 0.208723 0.358517
Si Si6 0.364742 0.500000 0.983902
Si Si7 0.135687 0.358195 0.472813
O O1 0.250000 0.332990 0.137359
O O2 0.391105 0.363509 0.309755
O O3 0.416799 0.262301 0.118518
O O4 0.391167 0.418716 0.056217
O O5 0.153468 0.861776 0.531795
O O6 0.000000 0.918059 0.500000
O O7 0.086520 0.869033 0.265923
O O8 0.134355 0.000000 0.395174
O O9 0.750000 0.500000 0.335884
O O10 0.601853 0.500000 0.177952
O O11 0.602880 0.573918 0.426528
O O12 0.070140 0.197218 0.765023
O O13 0.000000 0.145867 0.000000
O O14 0.750000 0.227444 0.302188
O O15 0.891047 0.278107 0.456573
O O16 0.250000 0.500000 0.986841
O O17 0.250000 0.360597 0.472481
#
# Coordination Sequence:
#
# PCOD9405046 Si02
#       7
#     8   8   4   8   8   4   8
#     4  10  20  37  59  84 122 166 211 261 316 375
#     4   9  19  39  65  90 119 154 197 247 300 364
#     4   9  17  29  50  84 116 152 204 256 309 368
#     4  11  24  38  59  94 130 167 204 251 312 381
#     4  10  21  39  62  90 121 161 209 259 310 365
#     4   9  19  33  53  83 120 164 208 257 320 380
#     4   9  17  31  55  81 110 151 203 254 302 355
#
# _framework density 20.748470000000001
#
# number of rings (size 3 to 8) (size 9 to 14) (size 15 to 20)
#    0.000    2.333    1.667    0.500    2.333    3.333 
#    0.000    1.250    0.000    2.000    0.000    2.333 
#    0.000    0.000    0.000    0.000    0.000    0.000 
#
# Total GULP energy -267913.459713 kJ/mol
# GULP energy per Si atom -5581.530411 kJ/mol
# Density = 2.070125 g / cm^3
# Si number density = 20.748470 Si / 1000 Ang^3
#
#
#
# Elastic Constant Matrix: (Units=GPa)
#
#
# Indices 1 2 3 4 5 6 
#
# 1 85.7988 16.4865 13.0257 0.0000 0.0000 0.0000
# 2 16.4865 121.6006 30.7698 0.0000 0.0000 0.0000
# 3 13.0257 30.7698 115.0218 0.0000 0.0000 0.0000
# 4 0.0000 0.0000 0.0000 14.0503 0.0000 0.0000
# 5 0.0000 0.0000 0.0000 0.0000 16.7924 0.0000
# 6 0.0000 0.0000 0.0000 0.0000 0.0000 17.1513
#
#
#
# Elastic Compliance Matrix: (Units=1/GPa)
#
#
# Indices 1 2 3 4 5 6 
#
# 1 0.012073 -0.001385 -0.000997 0.000000 0.000000 0.000000
# 2 -0.001385 0.008980 -0.002245 0.000000 0.000000 0.000000
# 3 -0.000997 -0.002245 0.009408 0.000000 0.000000 0.000000
# 4 0.000000 0.000000 0.000000 0.071173 0.000000 0.000000
# 5 0.000000 0.000000 0.000000 0.000000 0.059551 0.000000
# 6 0.000000 0.000000 0.000000 0.000000 0.000000 0.058304
#
#
# Mechanical properties :
#
#
# Convention : Reuss Voigt Hill
#
# Bulk Modulus (GPa) = 47.15590 49.22059 48.18824
# Shear Modulus (GPa) = 21.20351 27.07475 24.13913
#
# Velocity S-wave (km/s) = 3.20023 3.61626 3.41459
# Velocity P-wave (km/s) = 6.03590 6.41954 6.23067
#
# Compressibility (1/GPa) = 0.02120625
#
# Stress axis : x y z
#
# Youngs Moduli (GPa) = 82.83254 111.36454 106.29776
#
# Poissons Ratio (x) = 0.15419 0.10596
# Poissons Ratio (y) = 0.11469 0.23867
# Poissons Ratio (z) = 0.08257 0.25005
#
# Static dielectric constant tensor:
#      x y z
#    x 1.765560 0.000000 0.000000 
#    y 0.000000 1.735300 0.000000 
#    z 0.000000 0.000000 1.700010 
# 
# From -- ./inp_files/8337.got.cif
#   From: 2010.05.17/outbox.cif.g08.bks.cpg/sg51_5_cif.got.tgz:8337.got - 2010.06.03 11:52:47.
