data_PCOD9405567
_publ_section_title
;
Structure prediction by ZEFSAII (Michael W. Deem and Ramdas Pophale) SiO2 
 PCOD9405567
Probable space group: P M M A
;
_chemical_formula_sum "Si O2"
_cell_formula_units_Z 48
_cell_length_a 18.901004
_cell_length_b 21.364231
_cell_length_c 5.596504
_cell_angle_alpha 90.000000
_cell_angle_beta 90.000000
_cell_angle_gamma 90.000000
_cell_volume 2259.898624
_symmetry_space_group_name_H-M "P M M A"
_symmetry_group_IT_number 51
_symmetry_cell_setting 'orthorhombic'
loop_
_space_group_symop_operation_xyz
x,y,z
1/2-x,-y,z
1/2+x,-y,-z
-x,y,-z
-x,-y,-z
1/2+x,y,-z
1/2-x,y,z
x,-y,z
loop_
_atom_site_type_symbol
_atom_site_label
_atom_site_fract_x
_atom_site_fract_y
_atom_site_fract_z
Si Si1 0.670378 0.692329 0.733784
Si Si2 0.432003 0.364911 0.646937
Si Si3 0.571826 0.760640 0.087785
Si Si4 0.335545 0.859043 0.673528
Si Si5 0.664551 0.071394 0.822844
Si Si6 0.173078 0.568039 0.942405
O O1 0.750000 0.714019 0.685454
O O2 0.629358 0.666975 0.507865
O O3 0.625888 0.744466 0.874016
O O4 0.673448 0.629711 0.896372
O O5 0.500000 0.384632 0.500000
O O6 0.453459 0.306282 0.810078
O O7 0.394738 0.421830 0.779250
O O8 0.616711 0.797990 0.284027
O O9 0.500000 0.793743 0.000000
O O10 0.250000 0.847364 0.673019
O O11 0.354905 0.891827 0.421453
O O12 0.351743 0.898479 0.917629
O O13 0.750000 0.069325 0.815318
O O14 0.638033 0.000000 0.812291
O O15 0.250000 0.568986 0.813831
O O16 0.168902 0.500000 0.065071
#
# Coordination Sequence:
#
# PCOD9405567 Si02
#       6
#     8   8   8   8   8   8
#     4  10  21  38  60  83 112 153 196 246 301 363
#     4  11  22  37  59  84 115 156 199 246 305 366
#     4  11  23  39  57  82 120 158 196 248 306 366
#     4  10  21  35  59  92 121 159 210 257 306 367
#     4   9  18  35  59  89 124 160 203 258 310 358
#     4   9  20  38  58  84 116 150 194 247 304 367
#
# _framework density 21.239889999999999
#
# number of rings (size 3 to 8) (size 9 to 14) (size 15 to 20)
#    0.000    2.000    1.667    1.500    2.333    5.000 
#    0.000    2.500    0.000    3.000    0.000    0.000 
#    0.000    0.000    0.000    0.000    0.000    0.000 
#
# Total GULP energy -267710.013355 kJ/mol
# GULP energy per Si atom -5577.291945 kJ/mol
# Density = 2.119155 g / cm^3
# Si number density = 21.239890 Si / 1000 Ang^3
#
#
#
# Elastic Constant Matrix: (Units=GPa)
#
#
# Indices 1 2 3 4 5 6 
#
# 1 93.8456 19.9209 25.5023 0.0000 0.0000 0.0000
# 2 19.9209 89.6432 27.1188 0.0000 0.0000 0.0000
# 3 25.5023 27.1188 83.8353 0.0000 0.0000 0.0000
# 4 0.0000 0.0000 0.0000 8.1643 0.0000 0.0000
# 5 0.0000 0.0000 0.0000 0.0000 22.9437 0.0000
# 6 0.0000 0.0000 0.0000 0.0000 0.0000 15.1778
#
#
#
# Elastic Compliance Matrix: (Units=1/GPa)
#
#
# Indices 1 2 3 4 5 6 
#
# 1 0.011848 -0.001710 -0.003051 0.000000 0.000000 0.000000
# 2 -0.001710 0.012612 -0.003560 0.000000 0.000000 0.000000
# 3 -0.003051 -0.003560 0.014008 0.000000 0.000000 0.000000
# 4 0.000000 0.000000 0.000000 0.122484 0.000000 0.000000
# 5 0.000000 0.000000 0.000000 0.000000 0.043585 0.000000
# 6 0.000000 0.000000 0.000000 0.000000 0.000000 0.065886
#
#
# Mechanical properties :
#
#
# Convention : Reuss Voigt Hill
#
# Bulk Modulus (GPa) = 45.81526 45.82312 45.81919
# Shear Modulus (GPa) = 16.98725 22.24265 19.61495
#
# Velocity S-wave (km/s) = 2.83111 3.23957 3.04220
# Velocity P-wave (km/s) = 5.68367 5.96775 5.82744
#
# Compressibility (1/GPa) = 0.02182679
#
# Stress axis : x y z
#
# Youngs Moduli (GPa) = 84.40343 79.28846 71.38934
#
# Poissons Ratio (x) = 0.13558 0.21780
# Poissons Ratio (y) = 0.14432 0.25412
# Poissons Ratio (z) = 0.25751 0.28224
#
# Static dielectric constant tensor:
#      x y z
#    x 1.771380 0.000000 0.000000 
#    y 0.000000 1.787150 0.000000 
#    z 0.000000 0.000000 1.822980 
# 
# From -- ./inp_files/2049.got.cif
#   From: 2010.05.17/outbox.cif.g08.bks.cpg/sg51_2_cif.got.tgz:2049.got - 2010.06.03 11:52:47.
