data_PCOD9405750
_publ_section_title
;
Structure prediction by ZEFSAII (Michael W. Deem and Ramdas Pophale) SiO2 
 PCOD9405750
Probable space group: P M M A
;
_chemical_formula_sum "Si O2"
_cell_formula_units_Z 38
_cell_length_a 9.336487
_cell_length_b 10.572196
_cell_length_c 20.614722
_cell_angle_alpha 90.000000
_cell_angle_beta 90.000000
_cell_angle_gamma 90.000000
_cell_volume 2034.820880
_symmetry_space_group_name_H-M "P M M A"
_symmetry_group_IT_number 51
_symmetry_cell_setting 'orthorhombic'
loop_
_space_group_symop_operation_xyz
x,y,z
1/2-x,-y,z
1/2+x,-y,-z
-x,y,-z
-x,-y,-z
1/2+x,y,-z
1/2-x,y,z
x,-y,z
loop_
_atom_site_type_symbol
_atom_site_label
_atom_site_fract_x
_atom_site_fract_y
_atom_site_fract_z
Si Si1 0.584198 0.653743 0.064334
Si Si2 0.919943 0.652637 0.803368
Si Si3 0.461566 0.000000 0.602208
Si Si4 0.090860 0.648504 0.441306
Si Si5 0.750000 0.000000 0.522374
Si Si6 0.583184 0.260181 0.322599
O O1 0.750000 0.696118 0.066209
O O2 0.587537 0.500000 0.062160
O O3 0.495464 0.686886 0.128744
O O4 0.500000 0.696400 0.000000
O O5 0.750000 0.680414 0.803692
O O6 0.934583 0.500000 0.794593
O O7 0.002750 0.720938 0.745139
O O8 0.623861 0.000000 0.578056
O O9 0.427614 0.121359 0.646576
O O10 0.369122 0.000000 0.537121
O O11 0.250000 0.706661 0.438373
O O12 0.108022 0.500000 0.455466
O O13 0.000000 0.706992 0.500000
O O14 0.003649 0.658758 0.375585
O O15 0.750000 0.297366 0.317763
#
# Coordination Sequence:
#
# PCOD9405750 Si02
#       6
#     8   8   4   8   2   8
#     4   9  16  28  49  78 112 150 189 226 266 314
#     4  10  21  36  54  80 115 152 188 226 271 324
#     4  11  26  42  62  86 103 136 176 232 287 334
#     4  10  22  37  53  75 102 134 173 215 262 320
#     4  10  24  46  64  78 106 130 178 234 288 336
#     4  12  24  38  56  78 108 139 177 223 276 332
#
# _framework density 18.674861
#
# number of rings (size 3 to 8) (size 9 to 14) (size 15 to 20)
#    0.000    1.684    1.053    3.158    5.895    7.579 
#    0.000    0.000    0.000    0.000    0.000    0.737 
#    0.000    0.000    0.000    0.000    0.000    0.000 
#
# Total GULP energy -211677.454450 kJ/mol
# GULP energy per Si atom -5570.459328 kJ/mol
# Density = 1.863236 g / cm^3
# Si number density = 18.674861 Si / 1000 Ang^3
#
#
#
# Elastic Constant Matrix: (Units=GPa)
#
#
# Indices 1 2 3 4 5 6 
#
# 1 232.9749 17.8687 106.0066 0.0000 0.0000 0.0000
# 2 17.8687 26.3398 11.3701 0.0000 0.0000 0.0000
# 3 106.0066 11.3701 181.7201 0.0000 0.0000 0.0000
# 4 0.0000 0.0000 0.0000 42.1173 0.0000 0.0000
# 5 0.0000 0.0000 0.0000 0.0000 40.0327 0.0000
# 6 0.0000 0.0000 0.0000 0.0000 0.0000 2.4485
#
#
#
# Elastic Compliance Matrix: (Units=1/GPa)
#
#
# Indices 1 2 3 4 5 6 
#
# 1 0.006016 -0.002638 -0.003345 0.000000 0.000000 0.000000
# 2 -0.002638 0.040176 -0.000975 0.000000 0.000000 0.000000
# 3 -0.003345 -0.000975 0.007515 0.000000 0.000000 0.000000
# 4 0.000000 0.000000 0.000000 0.023743 0.000000 0.000000
# 5 0.000000 0.000000 0.000000 0.000000 0.024980 0.000000
# 6 0.000000 0.000000 0.000000 0.000000 0.000000 0.408414
#
#
# Mechanical properties :
#
#
# Convention : Reuss Voigt Hill
#
# Bulk Modulus (GPa) = 25.13045 79.05840 52.09442
# Shear Modulus (GPa) = 9.29328 37.30566 23.29947
#
# Velocity S-wave (km/s) = 2.23320 4.47435 3.53602
# Velocity P-wave (km/s) = 4.48727 8.31379 6.68037
#
# Compressibility (1/GPa) = 0.03979236
#
# Stress axis : x y z
#
# Youngs Moduli (GPa) = 166.20983 24.89068 133.06540
#
# Poissons Ratio (x) = 0.06566 0.44506
# Poissons Ratio (y) = 0.43842 0.12974
# Poissons Ratio (z) = 0.55592 0.02427
#
# Static dielectric constant tensor:
#      x y z
#    x 1.673390 0.000000 0.000000 
#    y 0.000000 1.801230 0.000000 
#    z 0.000000 0.000000 1.611240 
# 
# From -- ./inp_files/27057.got.cif
#   From: 2010.05.17/outbox.cif.g08.bks.cpg/sg51_14_cif.got.tgz:27057.got - 2010.06.03 11:52:47.
