data_PCOD9405423
_publ_section_title
;
Structure prediction by ZEFSAII (Michael W. Deem and Ramdas Pophale) SiO2 
 PCOD9405423
Probable space group: P M M A
;
_chemical_formula_sum "Si O2"
_cell_formula_units_Z 64
_cell_length_a 14.567131
_cell_length_b 8.997020
_cell_length_c 28.613763
_cell_angle_alpha 90.000000
_cell_angle_beta 90.000000
_cell_angle_gamma 90.000000
_cell_volume 3750.141781
_symmetry_space_group_name_H-M "P M M A"
_symmetry_group_IT_number 51
_symmetry_cell_setting 'orthorhombic'
loop_
_space_group_symop_operation_xyz
x,y,z
1/2-x,-y,z
1/2+x,-y,-z
-x,y,-z
-x,-y,-z
1/2+x,y,-z
1/2-x,y,z
x,-y,z
loop_
_atom_site_type_symbol
_atom_site_label
_atom_site_fract_x
_atom_site_fract_y
_atom_site_fract_z
Si Si1 0.469718 0.676028 0.384250
Si Si2 0.857406 0.822780 0.699179
Si Si3 0.141480 0.825557 0.024736
Si Si4 0.640216 0.173270 0.533592
Si Si5 0.142766 0.677551 0.199887
Si Si6 0.642504 0.676715 0.073898
Si Si7 0.526905 0.822082 0.882587
Si Si8 0.643192 0.177785 0.424558
O O1 0.468072 0.500000 0.378806
O O2 0.421354 0.753737 0.340352
O O3 0.413157 0.725571 0.430221
O O4 0.572328 0.735748 0.392489
O O5 0.750000 0.794769 0.687253
O O6 0.874917 0.748785 0.749431
O O7 0.870023 0.000000 0.701934
O O8 0.250000 0.808943 0.034802
O O9 0.083773 0.784415 0.070230
O O10 0.124158 0.000000 0.014207
O O11 0.120047 0.731853 0.978627
O O12 0.750000 0.184428 0.540603
O O13 0.622076 0.208898 0.479300
O O14 0.614302 0.000000 0.541468
O O15 0.250000 0.708528 0.188224
O O16 0.131074 0.500000 0.201870
O O17 0.077722 0.748455 0.161040
O O18 0.750000 0.711819 0.081856
O O19 0.630330 0.500000 0.077097
O O20 0.574687 0.759543 0.109021
O O21 0.526498 0.000000 0.877804
O O22 0.750000 0.214871 0.416477
O O23 0.632912 0.000000 0.418455
#
# Coordination Sequence:
#
# PCOD9405423 Si02
#       8
#     8   8   8   8   8   8   8   8
#     4  12  23  32  49  78 109 139 171 211 261 313
#     4  10  21  38  59  80 104 136 173 211 251 301
#     4   9  18  32  49  72 104 139 174 212 254 304
#     4   9  18  33  52  74 102 138 179 218 255 301
#     4  10  21  37  57  82 111 137 163 204 258 310
#     4  10  21  35  50  71 102 139 178 221 266 307
#     4  11  21  33  53  78 104 138 178 214 252 306
#     4   9  19  36  55  73  98 137 182 222 257 299
#
# _framework density 17.066020000000002
#
# number of rings (size 3 to 8) (size 9 to 14) (size 15 to 20)
#    0.000    2.000    0.000    4.875    0.000    9.250 
#    0.000    2.500    0.000    0.750    0.000    0.000 
#    0.000    0.000    0.000    0.000    0.000    0.000 
#
# Total GULP energy -357549.593717 kJ/mol
# GULP energy per Si atom -5586.712402 kJ/mol
# Density = 1.702718 g / cm^3
# Si number density = 17.066020 Si / 1000 Ang^3
#
#
#
# Elastic Constant Matrix: (Units=GPa)
#
#
# Indices 1 2 3 4 5 6 
#
# 1 102.9252 69.8387 86.3499 0.0000 0.0000 0.0000
# 2 69.8387 85.0890 72.3934 0.0000 0.0000 0.0000
# 3 86.3499 72.3934 104.2124 0.0000 0.0000 0.0000
# 4 0.0000 0.0000 0.0000 47.4812 0.0000 0.0000
# 5 0.0000 0.0000 0.0000 0.0000 32.2267 0.0000
# 6 0.0000 0.0000 0.0000 0.0000 0.0000 17.9642
#
#
#
# Elastic Compliance Matrix: (Units=1/GPa)
#
#
# Indices 1 2 3 4 5 6 
#
# 1 0.034982 -0.009906 -0.022105 0.000000 0.000000 0.000000
# 2 -0.009906 0.031541 -0.013703 0.000000 0.000000 0.000000
# 3 -0.022105 -0.013703 0.037431 0.000000 0.000000 0.000000
# 4 0.000000 0.000000 0.000000 0.021061 0.000000 0.000000
# 5 0.000000 0.000000 0.000000 0.000000 0.031030 0.000000
# 6 0.000000 0.000000 0.000000 0.000000 0.000000 0.055666
#
#
# Mechanical properties :
#
#
# Convention : Reuss Voigt Hill
#
# Bulk Modulus (GPa) = 79.82656 83.26563 81.54609
# Shear Modulus (GPa) = 16.26995 23.77738 20.02367
#
# Velocity S-wave (km/s) = 3.09099 3.73669 3.42907
# Velocity P-wave (km/s) = 7.72112 8.21665 7.97273
#
# Compressibility (1/GPa) = 0.01252716
#
# Stress axis : x y z
#
# Youngs Moduli (GPa) = 28.58581 31.70465 26.71587
#
# Poissons Ratio (x) = 0.31406 0.59056
# Poissons Ratio (y) = 0.28316 0.36609
# Poissons Ratio (z) = 0.63189 0.43445
#
# Static dielectric constant tensor:
#      x y z
#    x 1.587500 0.000000 0.000000 
#    y 0.000000 1.563810 0.000000 
#    z 0.000000 0.000000 1.544430 
# 
# From -- ./inp_files/35633.got.cif
#   From: 2010.05.17/outbox.cif.g08.bks.cpg/sg51_18_cif.got.tgz:35633.got - 2010.06.03 11:52:47.
