data_PCOD9405110
_publ_section_title
;
Structure prediction by ZEFSAII (Michael W. Deem and Ramdas Pophale) SiO2 
 PCOD9405110
Probable space group: P M M A
;
_chemical_formula_sum "Si O2"
_cell_formula_units_Z 48
_cell_length_a 14.782988
_cell_length_b 8.648074
_cell_length_c 20.911054
_cell_angle_alpha 90.000000
_cell_angle_beta 90.000000
_cell_angle_gamma 90.000000
_cell_volume 2673.360612
_symmetry_space_group_name_H-M "P M M A"
_symmetry_group_IT_number 51
_symmetry_cell_setting 'orthorhombic'
loop_
_space_group_symop_operation_xyz
x,y,z
1/2-x,-y,z
1/2+x,-y,-z
-x,y,-z
-x,-y,-z
1/2+x,y,-z
1/2-x,y,z
x,-y,z
loop_
_atom_site_type_symbol
_atom_site_label
_atom_site_fract_x
_atom_site_fract_y
_atom_site_fract_z
Si Si1 0.250000 0.683714 0.516252
Si Si2 0.562555 0.686409 0.820122
Si Si3 0.559975 0.313342 0.061496
Si Si4 0.062528 0.184992 0.561571
Si Si5 0.750000 0.184916 0.020626
Si Si6 0.250000 0.184831 0.372989
Si Si7 0.059339 0.685788 0.325419
Si Si8 0.750000 0.185149 0.871856
O O1 0.250000 0.500000 0.506181
O O2 0.340705 0.735101 0.552567
O O3 0.250000 0.767947 0.447511
O O4 0.568700 0.500000 0.823130
O O5 0.491043 0.736426 0.874004
O O6 0.537247 0.728304 0.747762
O O7 0.660193 0.753124 0.838075
O O8 0.565208 0.500000 0.061246
O O9 0.659585 0.246588 0.053572
O O10 0.500000 0.266321 0.000000
O O11 0.000000 0.223117 0.500000
O O12 0.009796 0.241613 0.624089
O O13 0.074013 0.000000 0.562905
O O14 0.750000 0.000000 0.021247
O O15 0.750000 0.236738 0.946162
O O16 0.340280 0.253799 0.341657
O O17 0.250000 0.000000 0.367257
O O18 0.058077 0.500000 0.331618
O O19 0.750000 0.000000 0.870326
#
# Coordination Sequence:
#
# PCOD9405110 Si02
#       8
#     4   8   8   8   4   4   8   4
#     4  12  24  39  64  93 120 152 198 247 292 340
#     4  10  22  39  59  86 118 154 197 244 289 344
#     4  10  20  37  62  85 111 152 199 241 286 342
#     4  11  23  40  63  89 121 156 195 242 292 349
#     4  11  23  36  55  88 122 150 190 244 295 344
#     4  12  23  37  58  88 124 158 195 238 293 354
#     4  11  23  39  60  88 121 156 197 243 295 349
#     4  11  22  34  55  87 122 156 189 237 298 354
#
# _framework density 17.954929
#
# number of rings (size 3 to 8) (size 9 to 14) (size 15 to 20)
#    0.000    1.167    3.333    3.500    0.000    5.667 
#    0.000    0.833    0.000    2.000    0.000    0.000 
#    0.000    0.000    0.000    0.000    0.000    0.000 
#
# Total GULP energy -268374.500970 kJ/mol
# GULP energy per Si atom -5591.135437 kJ/mol
# Density = 1.791406 g / cm^3
# Si number density = 17.954929 Si / 1000 Ang^3
#
#
#
# Elastic Constant Matrix: (Units=GPa)
#
#
# Indices 1 2 3 4 5 6 
#
# 1 136.1325 27.9721 67.4612 0.0000 0.0000 0.0000
# 2 27.9721 32.9194 28.8582 0.0000 0.0000 0.0000
# 3 67.4612 28.8582 149.6368 0.0000 0.0000 0.0000
# 4 0.0000 0.0000 0.0000 15.7520 0.0000 0.0000
# 5 0.0000 0.0000 0.0000 0.0000 -2.0427 0.0000
# 6 0.0000 0.0000 0.0000 0.0000 0.0000 84.0668
#
#
#
# Elastic Compliance Matrix: (Units=1/GPa)
#
#
# Indices 1 2 3 4 5 6 
#
# 1 0.010253 -0.005608 -0.003541 0.000000 0.000000 0.000000
# 2 -0.005608 0.039625 -0.005114 0.000000 0.000000 0.000000
# 3 -0.003541 -0.005114 0.009265 0.000000 0.000000 0.000000
# 4 0.000000 0.000000 0.000000 0.063484 0.000000 0.000000
# 5 0.000000 0.000000 0.000000 0.000000 -0.489547 0.000000
# 6 0.000000 0.000000 0.000000 0.000000 0.000000 0.011895
#
#
# Mechanical properties :
#
#
# Convention : Reuss Voigt Hill
#
# Bulk Modulus (GPa) = 32.65994 63.03016 47.84505
# Shear Modulus (GPa) = -15.80810 32.51503 8.35346
#
# Velocity S-wave (km/s) = -2.97043 4.26011 2.15930
# Velocity P-wave (km/s) = 2.54261 7.70577 5.73776
#
# Compressibility (1/GPa) = 0.03061855
#
# Stress axis : x y z
#
# Youngs Moduli (GPa) = 97.53500 25.23645 107.92926
#
# Poissons Ratio (x) = 0.14153 0.38215
# Poissons Ratio (y) = 0.54697 0.55191
# Poissons Ratio (z) = 0.34535 0.12905
#
# Static dielectric constant tensor:
#      x y z
#    x 1.570380 0.000000 0.000000 
#    y 0.000000 1.600110 0.000000 
#    z 0.000000 0.000000 1.612090 
# 
# From -- ./inp_files/29701.got.cif
#   From: 2010.05.17/outbox.cif.g08.bks.cpg/sg51_15_cif.got.tgz:29701.got - 2010.06.03 11:52:47.
