data_PCOD9405934
_publ_section_title
;
Structure prediction by ZEFSAII (Michael W. Deem and Ramdas Pophale) SiO2 
 PCOD9405934
Probable space group: P M M A
;
_chemical_formula_sum "Si O2"
_cell_formula_units_Z 48
_cell_length_a 16.460000
_cell_length_b 18.563154
_cell_length_c 8.297769
_cell_angle_alpha 90.000000
_cell_angle_beta 90.000000
_cell_angle_gamma 90.000000
_cell_volume 2535.379292
_symmetry_space_group_name_H-M "P M M A"
_symmetry_group_IT_number 51
_symmetry_cell_setting 'orthorhombic'
loop_
_space_group_symop_operation_xyz
x,y,z
1/2-x,-y,z
1/2+x,-y,-z
-x,y,-z
-x,-y,-z
1/2+x,y,-z
1/2-x,y,z
x,-y,z
loop_
_atom_site_type_symbol
_atom_site_label
_atom_site_fract_x
_atom_site_fract_y
_atom_site_fract_z
Si Si1 0.158573 0.330456 0.182109
Si Si2 0.153143 0.160511 0.160753
Si Si3 0.661414 0.413658 0.155163
Si Si4 0.347839 0.916684 0.834569
Si Si5 0.509387 0.418923 0.689585
Si Si6 0.903397 0.082572 0.515103
O O1 0.250000 0.337968 0.253910
O O2 0.140883 0.246116 0.160821
O O3 0.085003 0.368199 0.273578
O O4 0.161186 0.370298 0.010518
O O5 0.250000 0.147711 0.164562
O O6 0.118989 0.125673 0.324101
O O7 0.122233 0.125740 0.992855
O O8 0.750000 0.399195 0.235556
O O9 0.658500 0.500000 0.127713
O O10 0.578091 0.394129 0.244216
O O11 0.250000 0.916549 0.839877
O O12 0.371826 0.888165 0.657327
O O13 0.376107 0.000000 0.843957
O O14 0.500000 0.424069 0.500000
O O15 0.525558 0.500000 0.755299
O O16 0.000000 0.080302 0.500000
O O17 0.872178 0.000000 0.531154
#
# Coordination Sequence:
#
# PCOD9405934 Si02
#       6
#     8   8   8   8   8   8
#     4  10  21  37  55  81 115 151 190 234 287 343
#     4  10  21  38  57  82 115 149 190 236 285 341
#     4   9  18  36  61  84 109 146 191 237 283 335
#     4   9  18  35  60  84 106 143 194 239 282 336
#     4  10  21  37  58  85 115 148 189 236 285 342
#     4  10  21  37  57  83 115 149 188 238 292 342
#
# _framework density 18.932079000000002
#
# number of rings (size 3 to 8) (size 9 to 14) (size 15 to 20)
#    0.000    2.333    0.000    2.000    0.000    6.000 
#    9.000    4.167    0.000    0.000    0.000    0.000 
#    0.000    0.000    0.000    0.000    0.000    0.000 
#
# Total GULP energy -267543.890126 kJ/mol
# GULP energy per Si atom -5573.831044 kJ/mol
# Density = 1.888899 g / cm^3
# Si number density = 18.932079 Si / 1000 Ang^3
#
#
#
# Elastic Constant Matrix: (Units=GPa)
#
#
# Indices 1 2 3 4 5 6 
#
# 1 89.8660 55.6797 54.4824 0.0000 0.0000 0.0000
# 2 55.6797 47.2913 42.7965 0.0000 0.0000 0.0000
# 3 54.4824 42.7965 117.9031 0.0000 0.0000 0.0000
# 4 0.0000 0.0000 0.0000 56.5782 0.0000 0.0000
# 5 0.0000 0.0000 0.0000 0.0000 -22.3230 0.0000
# 6 0.0000 0.0000 0.0000 0.0000 0.0000 108.3810
#
#
#
# Elastic Compliance Matrix: (Units=1/GPa)
#
#
# Indices 1 2 3 4 5 6 
#
# 1 0.041497 -0.046915 -0.002146 0.000000 0.000000 0.000000
# 2 -0.046915 0.084531 -0.009004 0.000000 0.000000 0.000000
# 3 -0.002146 -0.009004 0.012741 0.000000 0.000000 0.000000
# 4 0.000000 0.000000 0.000000 0.017675 0.000000 0.000000
# 5 0.000000 0.000000 0.000000 0.000000 -0.044797 0.000000
# 6 0.000000 0.000000 0.000000 0.000000 0.000000 0.009227
#
#
# Mechanical properties :
#
#
# Convention : Reuss Voigt Hill
#
# Bulk Modulus (GPa) = 44.17234 62.33087 53.25160
# Shear Modulus (GPa) = 20.44573 35.33401 27.88987
#
# Velocity S-wave (km/s) = 3.28983 4.32482 3.84233
# Velocity P-wave (km/s) = 6.14925 7.61142 6.91907
#
# Compressibility (1/GPa) = 0.02263860
#
# Stress axis : x y z
#
# Youngs Moduli (GPa) = 24.09814 11.83005 78.48440
#
# Poissons Ratio (x) = 0.55501 0.16844
# Poissons Ratio (y) = 1.13057 0.70664
# Poissons Ratio (z) = 0.05172 0.10651
#
# Static dielectric constant tensor:
#      x y z
#    x 1.685840 0.000000 0.000000 
#    y 0.000000 1.658030 0.000000 
#    z 0.000000 0.000000 1.643060 
# 
# From -- ./inp_files/8279.got.cif
#   From: 2010.05.17/outbox.cif.g08.bks.cpg/sg51_5_cif.got.tgz:8279.got - 2010.06.03 11:52:47.
