data_PCOD9405788
_publ_section_title
;
Structure prediction by ZEFSAII (Michael W. Deem and Ramdas Pophale) SiO2 
 PCOD9405788
Probable space group: P M M A
;
_chemical_formula_sum "Si O2"
_cell_formula_units_Z 48
_cell_length_a 10.136129
_cell_length_b 29.716164
_cell_length_c 8.812767
_cell_angle_alpha 90.000000
_cell_angle_beta 90.000000
_cell_angle_gamma 90.000000
_cell_volume 2654.465979
_symmetry_space_group_name_H-M "P M M A"
_symmetry_group_IT_number 51
_symmetry_cell_setting 'orthorhombic'
loop_
_space_group_symop_operation_xyz
x,y,z
1/2-x,-y,z
1/2+x,-y,-z
-x,y,-z
-x,-y,-z
1/2+x,y,-z
1/2-x,y,z
x,-y,z
loop_
_atom_site_type_symbol
_atom_site_label
_atom_site_fract_x
_atom_site_fract_y
_atom_site_fract_z
Si Si1 0.095934 0.552238 0.359131
Si Si2 0.404803 0.365340 0.141907
Si Si3 0.592601 0.193004 0.852633
Si Si4 0.250000 0.053147 0.178614
Si Si5 0.402269 0.280543 0.359384
Si Si6 0.004778 0.103221 0.318987
Si Si7 0.750000 0.054721 0.180619
O O1 0.250000 0.557721 0.404114
O O2 0.077016 0.500000 0.314412
O O3 0.070618 0.587114 0.224536
O O4 0.000000 0.561642 0.500000
O O5 0.250000 0.363243 0.097453
O O6 0.427347 0.325770 0.263669
O O7 0.500000 0.359480 0.000000
O O8 0.750000 0.185413 0.886480
O O9 0.583832 0.238110 0.752687
O O10 0.534445 0.151467 0.756377
O O11 0.500000 0.197300 0.000000
O O12 0.124325 0.072544 0.263057
O O13 0.250000 0.000000 0.187513
O O14 0.250000 0.064698 0.999751
O O15 0.500000 0.276894 0.500000
O O16 0.250000 0.281707 0.412363
O O17 0.000000 0.107214 0.500000
O O18 0.875378 0.078671 0.255614
O O19 0.750000 0.000000 0.200328
#
# Coordination Sequence:
#
# PCOD9405788 Si02
#       7
#     8   8   8   4   8   8   4
#     4   9  18  33  53  79 111 149 195 246 299 355
#     4  10  21  36  55  81 116 154 196 245 296 355
#     4  11  24  42  64  90 120 155 196 240 291 354
#     4  11  23  43  65  89 123 159 201 245 290 353
#     4  10  22  40  61  88 120 152 195 244 295 350
#     4  12  25  41  63  92 125 157 197 247 296 350
#     4  11  25  43  67  93 121 163 203 241 296 353
#
# _framework density 18.082733999999999
#
# number of rings (size 3 to 8) (size 9 to 14) (size 15 to 20)
#    0.000    1.500    0.833    4.000    1.167    5.667 
#    0.000    0.000    0.000    0.000    0.000    0.000 
#    0.000    0.000    0.000    0.000    0.000    0.000 
#
# Total GULP energy -268157.462059 kJ/mol
# GULP energy per Si atom -5586.613793 kJ/mol
# Density = 1.804158 g / cm^3
# Si number density = 18.082734 Si / 1000 Ang^3
#
#
#
# Elastic Constant Matrix: (Units=GPa)
#
#
# Indices 1 2 3 4 5 6 
#
# 1 153.7459 66.9520 105.9533 0.0000 0.0000 0.0000
# 2 66.9520 94.2714 66.3219 0.0000 0.0000 0.0000
# 3 105.9533 66.3219 149.7470 0.0000 0.0000 0.0000
# 4 0.0000 0.0000 0.0000 22.6202 0.0000 0.0000
# 5 0.0000 0.0000 0.0000 0.0000 43.5082 0.0000
# 6 0.0000 0.0000 0.0000 0.0000 0.0000 27.9856
#
#
#
# Elastic Compliance Matrix: (Units=1/GPa)
#
#
# Indices 1 2 3 4 5 6 
#
# 1 0.013774 -0.004250 -0.007863 0.000000 0.000000 0.000000
# 2 -0.004250 0.016720 -0.004398 0.000000 0.000000 0.000000
# 3 -0.007863 -0.004398 0.014190 0.000000 0.000000 0.000000
# 4 0.000000 0.000000 0.000000 0.044208 0.000000 0.000000
# 5 0.000000 0.000000 0.000000 0.000000 0.022984 0.000000
# 6 0.000000 0.000000 0.000000 0.000000 0.000000 0.035733
#
#
# Mechanical properties :
#
#
# Convention : Reuss Voigt Hill
#
# Bulk Modulus (GPa) = 85.75974 97.35761 91.55867
# Shear Modulus (GPa) = 27.09734 29.39194 28.24464
#
# Velocity S-wave (km/s) = 3.87527 4.03602 3.95646
# Velocity P-wave (km/s) = 8.21906 8.69921 8.46254
#
# Compressibility (1/GPa) = 0.01166048
#
# Stress axis : x y z
#
# Youngs Moduli (GPa) = 72.59921 59.80717 70.47441
#
# Poissons Ratio (x) = 0.25421 0.55417
# Poissons Ratio (y) = 0.30858 0.30994
# Poissons Ratio (z) = 0.57088 0.26303
#
# Static dielectric constant tensor:
#      x y z
#    x 1.599760 0.000000 0.000000 
#    y 0.000000 1.618320 0.000000 
#    z 0.000000 0.000000 1.574820 
# 
# From -- ./inp_files/6278.got.cif
#   From: 2010.05.17/outbox.cif.g08.bks.cpg/sg51_4_cif.got.tgz:6278.got - 2010.06.03 11:52:47.
