data_PCOD9405301
_publ_section_title
;
Structure prediction by ZEFSAII (Michael W. Deem and Ramdas Pophale) SiO2 
 PCOD9405301
Probable space group: P M M A
;
_chemical_formula_sum "Si O2"
_cell_formula_units_Z 44
_cell_length_a 8.236725
_cell_length_b 29.725808
_cell_length_c 9.559197
_cell_angle_alpha 90.000000
_cell_angle_beta 90.000000
_cell_angle_gamma 90.000000
_cell_volume 2340.505395
_symmetry_space_group_name_H-M "P M M A"
_symmetry_group_IT_number 51
_symmetry_cell_setting 'orthorhombic'
loop_
_space_group_symop_operation_xyz
x,y,z
1/2-x,-y,z
1/2+x,-y,-z
-x,y,-z
-x,-y,-z
1/2+x,y,-z
1/2-x,y,z
x,-y,z
loop_
_atom_site_type_symbol
_atom_site_label
_atom_site_fract_x
_atom_site_fract_y
_atom_site_fract_z
Si Si1 0.946661 0.718111 0.161317
Si Si2 0.553497 0.085559 0.161485
Si Si3 0.945661 0.183797 0.161649
Si Si4 0.443665 0.366403 0.659014
Si Si5 0.946477 0.000000 0.339842
Si Si6 0.444137 0.448961 0.156751
O O1 0.750000 0.717716 0.162661
O O2 0.001188 0.767472 0.216716
O O3 0.007029 0.676578 0.253530
O O4 0.000000 0.713265 0.000000
O O5 0.750000 0.085274 0.162014
O O6 0.498382 0.134994 0.215654
O O7 0.496388 0.044438 0.256923
O O8 0.500000 0.080108 0.000000
O O9 0.750000 0.183749 0.168510
O O10 0.000000 0.183917 0.000000
O O11 0.500000 0.365029 0.500000
O O12 0.250000 0.364321 0.661668
O O13 0.495765 0.412206 0.734626
O O14 0.000000 0.000000 0.500000
O O15 0.750000 0.000000 0.336148
O O16 0.250000 0.449422 0.158927
O O17 0.502922 0.500000 0.185885
O O18 0.500000 0.436932 0.000000
#
# Coordination Sequence:
#
# PCOD9405301 Si02
#       6
#     8   8   8   8   4   8
#     4   9  18  32  52  76 100 129 165 204 248 297
#     4   9  17  30  50  73  96 123 159 203 248 294
#     4   8  14  27  47  71  97 123 155 199 247 293
#     4  11  23  37  53  75 105 140 175 212 254 300
#     4  10  21  34  46  66  96 130 165 200 242 292
#     4  10  21  38  60  84 108 135 169 209 252 300
#
# _framework density 18.799358999999999
#
# number of rings (size 3 to 8) (size 9 to 14) (size 15 to 20)
#    0.000    2.545    0.000    1.909    0.000    5.091 
#    0.000    0.909    0.000    0.000    0.000    0.000 
#    0.000    0.000    0.000    0.000    0.000    0.000 
#
# Total GULP energy -245273.788038 kJ/mol
# GULP energy per Si atom -5574.404274 kJ/mol
# Density = 1.875657 g / cm^3
# Si number density = 18.799359 Si / 1000 Ang^3
#
#
#
# Elastic Constant Matrix: (Units=GPa)
#
#
# Indices 1 2 3 4 5 6 
#
# 1 16.7600 20.4193 10.3897 0.0000 0.0000 0.0000
# 2 20.4193 188.3295 108.2883 0.0000 0.0000 0.0000
# 3 10.3897 108.2883 108.9051 0.0000 0.0000 0.0000
# 4 0.0000 0.0000 0.0000 -3.8712 0.0000 0.0000
# 5 0.0000 0.0000 0.0000 0.0000 27.4856 0.0000
# 6 0.0000 0.0000 0.0000 0.0000 0.0000 9.3011
#
#
#
# Elastic Compliance Matrix: (Units=1/GPa)
#
#
# Indices 1 2 3 4 5 6 
#
# 1 0.068933 -0.008622 0.001997 0.000000 0.000000 0.000000
# 2 -0.008622 0.013477 -0.012578 0.000000 0.000000 0.000000
# 3 0.001997 -0.012578 0.021499 0.000000 0.000000 0.000000
# 4 0.000000 0.000000 0.000000 -0.258317 0.000000 0.000000
# 5 0.000000 0.000000 0.000000 0.000000 0.036383 0.000000
# 6 0.000000 0.000000 0.000000 0.000000 0.000000 0.107514
#
#
# Mechanical properties :
#
#
# Convention : Reuss Voigt Hill
#
# Bulk Modulus (GPa) = 15.26671 65.79877 40.53274
# Shear Modulus (GPa) = 100.54528 18.24291 59.39410
#
# Velocity S-wave (km/s) = 7.32117 3.11851 5.62692
# Velocity P-wave (km/s) = 8.92213 6.93133 7.98898
#
# Compressibility (1/GPa) = 0.06550199
#
# Stress axis : x y z
#
# Youngs Moduli (GPa) = 14.50688 74.20024 46.51447
#
# Poissons Ratio (x) = 0.63977 -0.09289
# Poissons Ratio (y) = 0.12508 0.58507
# Poissons Ratio (z) = -0.02897 0.93330
#
# Static dielectric constant tensor:
#      x y z
#    x 1.656700 0.000000 0.000000 
#    y 0.000000 1.718500 0.000000 
#    z 0.000000 0.000000 1.584520 
# 
# From -- ./inp_files/5876.got.cif
#   From: 2010.05.17/outbox.cif.g08.bks.cpg/sg51_3_cif.got.tgz:5876.got - 2010.06.03 11:52:47.
