data_PCOD9405852
_publ_section_title
;
Structure prediction by ZEFSAII (Michael W. Deem and Ramdas Pophale) SiO2 
 PCOD9405852
Probable space group: P M M A
;
_chemical_formula_sum "Si O2"
_cell_formula_units_Z 48
_cell_length_a 10.092710
_cell_length_b 9.122778
_cell_length_c 29.356664
_cell_angle_alpha 90.000000
_cell_angle_beta 90.000000
_cell_angle_gamma 90.000000
_cell_volume 2702.972351
_symmetry_space_group_name_H-M "P M M A"
_symmetry_group_IT_number 51
_symmetry_cell_setting 'orthorhombic'
loop_
_space_group_symop_operation_xyz
x,y,z
1/2-x,-y,z
1/2+x,-y,-z
-x,y,-z
-x,-y,-z
1/2+x,y,-z
1/2-x,y,z
x,-y,z
loop_
_atom_site_type_symbol
_atom_site_label
_atom_site_fract_x
_atom_site_fract_y
_atom_site_fract_z
Si Si1 0.405429 0.323971 0.041897
Si Si2 0.089155 0.168070 0.135513
Si Si3 0.250000 0.673229 0.428988
Si Si4 0.477677 0.825473 0.595462
Si Si5 0.905876 0.674899 0.771052
Si Si6 0.250000 0.326812 0.538162
Si Si7 0.901437 0.174156 0.299529
O O1 0.250000 0.287721 0.033248
O O2 0.412804 0.500000 0.047696
O O3 0.449281 0.247044 0.088661
O O4 0.500000 0.282567 0.000000
O O5 0.250000 0.168144 0.135473
O O6 0.049955 0.254103 0.181034
O O7 0.043935 0.000000 0.136911
O O8 0.250000 0.500000 0.418266
O O9 0.379878 0.751659 0.409860
O O10 0.250000 0.688714 0.483786
O O11 0.377457 0.749958 0.560266
O O12 0.425434 0.802459 0.646768
O O13 0.483783 0.000000 0.587185
O O14 0.750000 0.711353 0.764022
O O15 0.916850 0.500000 0.773601
O O16 0.994345 0.738570 0.730691
O O17 0.250000 0.500000 0.548885
O O18 0.750000 0.215056 0.288514
O O19 0.917369 0.000000 0.291088
#
# Coordination Sequence:
#
# PCOD9405852 Si02
#       7
#     8   8   4   8   8   4   8
#     4   9  17  30  49  73 103 139 178 222 271 323
#     4   9  17  31  52  77 105 141 182 225 274 324
#     4  11  25  41  59  89 123 151 189 237 286 333
#     4  11  23  41  63  88 116 152 194 235 281 338
#     4  10  21  36  57  86 113 141 183 231 277 331
#     4  11  23  41  63  87 119 157 189 231 286 339
#     4  10  22  41  60  81 112 147 183 226 279 335
#
# _framework density 17.758229
#
# number of rings (size 3 to 8) (size 9 to 14) (size 15 to 20)
#    0.000    2.000    0.833    2.500    1.167    8.333 
#    0.000    0.833    0.000    3.000    0.000    0.000 
#    0.000    0.000    0.000    0.000    0.000    0.000 
#
# Total GULP energy -268022.144932 kJ/mol
# GULP energy per Si atom -5583.794686 kJ/mol
# Density = 1.771781 g / cm^3
# Si number density = 17.758229 Si / 1000 Ang^3
#
#
#
# Elastic Constant Matrix: (Units=GPa)
#
#
# Indices 1 2 3 4 5 6 
#
# 1 90.0712 47.7370 32.8691 0.0000 0.0000 0.0000
# 2 47.7370 82.8817 57.5681 0.0000 0.0000 0.0000
# 3 32.8691 57.5681 74.0129 0.0000 0.0000 0.0000
# 4 0.0000 0.0000 0.0000 38.5216 0.0000 0.0000
# 5 0.0000 0.0000 0.0000 0.0000 34.9524 0.0000
# 6 0.0000 0.0000 0.0000 0.0000 0.0000 27.5342
#
#
#
# Elastic Compliance Matrix: (Units=1/GPa)
#
#
# Indices 1 2 3 4 5 6 
#
# 1 0.015981 -0.009299 0.000135 0.000000 0.000000 0.000000
# 2 -0.009299 0.031654 -0.020491 0.000000 0.000000 0.000000
# 3 0.000135 -0.020491 0.029389 0.000000 0.000000 0.000000
# 4 0.000000 0.000000 0.000000 0.025959 0.000000 0.000000
# 5 0.000000 0.000000 0.000000 0.000000 0.028610 0.000000
# 6 0.000000 0.000000 0.000000 0.000000 0.000000 0.036318
#
#
# Mechanical properties :
#
#
# Convention : Reuss Voigt Hill
#
# Bulk Modulus (GPa) = 56.44810 58.14603 57.29707
# Shear Modulus (GPa) = 21.44754 27.45443 24.45099
#
# Velocity S-wave (km/s) = 3.47904 3.93620 3.71466
# Velocity P-wave (km/s) = 6.92779 7.31249 7.12274
#
# Compressibility (1/GPa) = 0.01771539
#
# Stress axis : x y z
#
# Youngs Moduli (GPa) = 62.57390 31.59163 34.02578
#
# Poissons Ratio (x) = 0.29376 -0.00460
# Poissons Ratio (y) = 0.58185 0.69723
# Poissons Ratio (z) = -0.00847 0.64736
#
# Static dielectric constant tensor:
#      x y z
#    x 1.613970 0.000000 0.000000 
#    y 0.000000 1.592980 0.000000 
#    z 0.000000 0.000000 1.580760 
# 
# From -- ./inp_files/37154.got.cif
#   From: 2010.05.17/outbox.cif.g08.bks.cpg/sg51_19_cif.got.tgz:37154.got - 2010.06.03 11:52:47.
