data_PCOD9405006
_publ_section_title
;
Structure prediction by ZEFSAII (Michael W. Deem and Ramdas Pophale) SiO2 
 PCOD9405006
Probable space group: P M M A
;
_chemical_formula_sum "Si O2"
_cell_formula_units_Z 44
_cell_length_a 8.466723
_cell_length_b 29.728194
_cell_length_c 9.439538
_cell_angle_alpha 90.000000
_cell_angle_beta 90.000000
_cell_angle_gamma 90.000000
_cell_volume 2375.935338
_symmetry_space_group_name_H-M "P M M A"
_symmetry_group_IT_number 51
_symmetry_cell_setting 'orthorhombic'
loop_
_space_group_symop_operation_xyz
x,y,z
1/2-x,-y,z
1/2+x,-y,-z
-x,y,-z
-x,-y,-z
1/2+x,y,-z
1/2-x,y,z
x,-y,z
loop_
_atom_site_type_symbol
_atom_site_label
_atom_site_fract_x
_atom_site_fract_y
_atom_site_fract_z
Si Si1 0.559432 0.769277 0.158966
Si Si2 0.060030 0.667833 0.839202
Si Si3 0.438108 0.500000 0.839289
Si Si4 0.559118 0.951666 0.337348
Si Si5 0.438021 0.415435 0.339698
Si Si6 0.441213 0.146047 0.660796
O O1 0.750000 0.770073 0.159278
O O2 0.511948 0.718735 0.203551
O O3 0.501545 0.810475 0.254281
O O4 0.500000 0.775635 0.000000
O O5 0.250000 0.665034 0.839528
O O6 0.992119 0.630731 0.734249
O O7 0.000000 0.660245 0.000000
O O8 0.250000 0.500000 0.842625
O O9 0.496778 0.456269 0.754848
O O10 0.500000 0.500000 0.000000
O O11 0.500000 0.951619 0.500000
O O12 0.750000 0.951797 0.337639
O O13 0.508554 0.902994 0.278066
O O14 0.506578 0.000000 0.274528
O O15 0.500000 0.418530 0.500000
O O16 0.250000 0.417851 0.341484
O O17 0.500000 0.148590 0.500000
O O18 0.250000 0.146854 0.660538
#
# Coordination Sequence:
#
# PCOD9405006 Si02
#       6
#     8   8   4   8   8   8
#     4   9  19  34  52  73 100 134 173 213 255 307
#     4  10  20  37  58  81 107 140 181 223 266 317
#     4  12  25  44  67  92 120 154 192 228 265 312
#     4   8  13  22  38  60  87 119 155 197 247 301
#     4  12  25  42  62  88 119 151 184 224 272 318
#     4   9  17  29  45  69  97 125 161 207 256 307
#
# _framework density 18.519022
#
# number of rings (size 3 to 8) (size 9 to 14) (size 15 to 20)
#    0.000    2.182    0.000    3.818    0.000    2.182 
#    0.000    1.818    0.000    0.545    0.000    0.000 
#    0.000    0.000    0.000    0.000    0.000    0.000 
#
# Total GULP energy -245380.650335 kJ/mol
# GULP energy per Si atom -5576.832962 kJ/mol
# Density = 1.847687 g / cm^3
# Si number density = 18.519022 Si / 1000 Ang^3
#
#
#
# Elastic Constant Matrix: (Units=GPa)
#
#
# Indices 1 2 3 4 5 6 
#
# 1 71.2986 49.7707 34.2180 0.0000 0.0000 0.0000
# 2 49.7707 220.0819 107.8437 0.0000 0.0000 0.0000
# 3 34.2180 107.8437 98.9417 0.0000 0.0000 0.0000
# 4 0.0000 0.0000 0.0000 42.5066 0.0000 0.0000
# 5 0.0000 0.0000 0.0000 0.0000 27.7789 0.0000
# 6 0.0000 0.0000 0.0000 0.0000 0.0000 35.4479
#
#
#
# Elastic Compliance Matrix: (Units=1/GPa)
#
#
# Indices 1 2 3 4 5 6 
#
# 1 0.017257 -0.002099 -0.003680 0.000000 0.000000 0.000000
# 2 -0.002099 0.010008 -0.010183 0.000000 0.000000 0.000000
# 3 -0.003680 -0.010183 0.022478 0.000000 0.000000 0.000000
# 4 0.000000 0.000000 0.000000 0.023526 0.000000 0.000000
# 5 0.000000 0.000000 0.000000 0.000000 0.035999 0.000000
# 6 0.000000 0.000000 0.000000 0.000000 0.000000 0.028210
#
#
# Mechanical properties :
#
#
# Convention : Reuss Voigt Hill
#
# Bulk Modulus (GPa) = 56.11718 85.99856 71.05787
# Shear Modulus (GPa) = 28.51570 34.37933 31.44751
#
# Velocity S-wave (km/s) = 3.92829 4.31331 4.12530
# Velocity P-wave (km/s) = 7.13748 8.44659 7.81948
#
# Compressibility (1/GPa) = 0.01781986
#
# Stress axis : x y z
#
# Youngs Moduli (GPa) = 57.94706 99.91854 44.48732
#
# Poissons Ratio (x) = 0.20977 0.16371
# Poissons Ratio (y) = 0.12166 0.45299
# Poissons Ratio (z) = 0.21324 1.01743
#
# Static dielectric constant tensor:
#      x y z
#    x 1.622490 0.000000 0.000000 
#    y 0.000000 1.697490 0.000000 
#    z 0.000000 0.000000 1.587820 
# 
# From -- ./inp_files/5851.got.cif
#   From: 2010.05.17/outbox.cif.g08.bks.cpg/sg51_3_cif.got.tgz:5851.got - 2010.06.03 11:52:47.
