data_PCOD9405099
_publ_section_title
;
Structure prediction by ZEFSAII (Michael W. Deem and Ramdas Pophale) SiO2 
 PCOD9405099
Probable space group: P M M A
;
_chemical_formula_sum "Si O2"
_cell_formula_units_Z 40
_cell_length_a 15.839790
_cell_length_b 9.680851
_cell_length_c 13.620159
_cell_angle_alpha 90.000000
_cell_angle_beta 90.000000
_cell_angle_gamma 90.000000
_cell_volume 2088.551232
_symmetry_space_group_name_H-M "P M M A"
_symmetry_group_IT_number 51
_symmetry_cell_setting 'orthorhombic'
loop_
_space_group_symop_operation_xyz
x,y,z
1/2-x,-y,z
1/2+x,-y,-z
-x,y,-z
-x,-y,-z
1/2+x,y,-z
1/2-x,y,z
x,-y,z
loop_
_atom_site_type_symbol
_atom_site_label
_atom_site_fract_x
_atom_site_fract_y
_atom_site_fract_z
Si Si1 0.407233 0.346229 0.548981
Si Si2 0.847976 0.844167 0.611879
Si Si3 0.411009 0.339305 0.212859
Si Si4 0.900672 0.660380 0.216064
Si Si5 0.250000 0.661251 0.071782
Si Si6 0.250000 0.833580 0.874891
O O1 0.500000 0.341693 0.500000
O O2 0.372264 0.500000 0.529239
O O3 0.356084 0.229897 0.492559
O O4 0.409326 0.328186 0.665779
O O5 0.750000 0.846396 0.640549
O O6 0.895714 0.756478 0.693727
O O7 0.880468 0.000000 0.607025
O O8 0.408949 0.500000 0.245126
O O9 0.505438 0.315152 0.173033
O O10 0.334390 0.319939 0.137104
O O11 0.876507 0.500000 0.194525
O O12 0.831992 0.766977 0.177322
O O13 0.250000 0.500000 0.037847
O O14 0.250000 0.769807 0.984118
O O15 0.250000 0.000000 0.873030
#
# Coordination Sequence:
#
# PCOD9405099 Si02
#       6
#     8   8   8   8   4   4
#     4  10  20  37  61  88 119 159 208 255 297 353
#     4  11  23  35  52  87 132 170 201 243 300 367
#     4  10  20  39  69  97 121 155 204 260 309 360
#     4  10  22  42  66  92 123 161 209 259 303 356
#     4  10  22  42  71  98 119 150 199 260 316 370
#     4  12  28  46  63  86 125 168 205 252 310 376
#
# _framework density 19.152031999999998
#
# number of rings (size 3 to 8) (size 9 to 14) (size 15 to 20)
#    0.000    1.600    3.000    1.500    1.400    4.800 
#    0.000    4.000    0.000    0.000    0.000    0.000 
#    0.000    0.000    0.000    0.000    0.000    0.000 
#
# Total GULP energy -223360.317772 kJ/mol
# GULP energy per Si atom -5584.007944 kJ/mol
# Density = 1.910844 g / cm^3
# Si number density = 19.152032 Si / 1000 Ang^3
#
#
#
# Elastic Constant Matrix: (Units=GPa)
#
#
# Indices 1 2 3 4 5 6 
#
# 1 117.3631 84.3235 44.3761 0.0000 0.0000 0.0000
# 2 84.3235 147.5707 68.4496 0.0000 0.0000 0.0000
# 3 44.3761 68.4496 71.7598 0.0000 0.0000 0.0000
# 4 0.0000 0.0000 0.0000 -64.5294 0.0000 0.0000
# 5 0.0000 0.0000 0.0000 0.0000 16.9501 0.0000
# 6 0.0000 0.0000 0.0000 0.0000 0.0000 13.0314
#
#
#
# Elastic Compliance Matrix: (Units=1/GPa)
#
#
# Indices 1 2 3 4 5 6 
#
# 1 0.014601 -0.007452 -0.001921 0.000000 0.000000 0.000000
# 2 -0.007452 0.015958 -0.010613 0.000000 0.000000 0.000000
# 3 -0.001921 -0.010613 0.025246 0.000000 0.000000 0.000000
# 4 0.000000 0.000000 0.000000 -0.015497 0.000000 0.000000
# 5 0.000000 0.000000 0.000000 0.000000 0.058997 0.000000
# 6 0.000000 0.000000 0.000000 0.000000 0.000000 0.076738
#
#
# Mechanical properties :
#
#
# Convention : Reuss Voigt Hill
#
# Bulk Modulus (GPa) = 63.15838 81.22134 72.18986
# Shear Modulus (GPa) = 22.59453 2.39338 12.49396
#
# Velocity S-wave (km/s) = 3.43847 1.11910 2.55690
# Velocity P-wave (km/s) = 6.98663 6.64610 6.81849
#
# Compressibility (1/GPa) = 0.01583321
#
# Stress axis : x y z
#
# Youngs Moduli (GPa) = 68.48731 62.66644 39.60949
#
# Poissons Ratio (x) = 0.46701 0.07608
# Poissons Ratio (y) = 0.51039 0.42037
# Poissons Ratio (z) = 0.13155 0.66507
#
# Static dielectric constant tensor:
#      x y z
#    x 1.702380 0.000000 0.000000 
#    y 0.000000 1.653360 0.000000 
#    z 0.000000 0.000000 1.648070 
# 
# From -- ./inp_files/23746.got.cif
#   From: 2010.05.17/outbox.cif.g08.bks.cpg/sg51_12_cif.got.tgz:23746.got - 2010.06.03 11:52:47.
