data_PCOD9405232
_publ_section_title
;
Structure prediction by ZEFSAII (Michael W. Deem and Ramdas Pophale) SiO2 
 PCOD9405232
Probable space group: P M M A
;
_chemical_formula_sum "Si O2"
_cell_formula_units_Z 52
_cell_length_a 9.817894
_cell_length_b 10.667646
_cell_length_c 28.868100
_cell_angle_alpha 90.000000
_cell_angle_beta 90.000000
_cell_angle_gamma 90.000000
_cell_volume 3023.466322
_symmetry_space_group_name_H-M "P M M A"
_symmetry_group_IT_number 51
_symmetry_cell_setting 'orthorhombic'
loop_
_space_group_symop_operation_xyz
x,y,z
1/2-x,-y,z
1/2+x,-y,-z
-x,y,-z
-x,-y,-z
1/2+x,y,-z
1/2-x,y,z
x,-y,z
loop_
_atom_site_type_symbol
_atom_site_label
_atom_site_fract_x
_atom_site_fract_y
_atom_site_fract_z
Si Si1 0.494528 0.260903 0.101774
Si Si2 0.750000 0.140472 0.942111
Si Si3 0.588716 0.648019 0.802226
Si Si4 0.750000 0.847716 0.047458
Si Si5 0.592552 0.848799 0.368506
Si Si6 0.090719 0.853046 0.278823
Si Si7 0.090640 0.152715 0.455369
Si Si8 0.593864 0.500000 0.955930
O O1 0.377436 0.162913 0.090464
O O2 0.500612 0.300173 0.155133
O O3 0.623725 0.208073 0.075392
O O4 0.440027 0.382084 0.075295
O O5 0.750000 0.000000 0.957304
O O6 0.750000 0.202210 0.993788
O O7 0.750000 0.652306 0.815914
O O8 0.559336 0.500000 0.792269
O O9 0.572649 0.746797 0.760335
O O10 0.750000 0.000000 0.050519
O O11 0.750000 0.803166 0.369927
O O12 0.513604 0.825901 0.320466
O O13 0.494789 0.804954 0.410312
O O14 0.600126 0.000000 0.373172
O O15 0.250000 0.846347 0.294256
O O16 0.069753 0.000000 0.263811
O O17 0.250000 0.193331 0.456610
O O18 0.000000 0.188389 0.500000
O O19 0.094850 0.000000 0.454570
O O20 0.750000 0.500000 0.969516
O O21 0.500000 0.500000 0.000000
#
# Coordination Sequence:
#
# PCOD9405232 Si02
#       8
#     8   4   8   4   8   8   8   4
#     4  12  23  40  61  83 113 145 181 222 272 327
#     4  11  22  39  63  85 111 148 183 219 266 325
#     4  10  20  39  60  82 110 139 178 227 278 332
#     4  11  26  43  57  85 119 148 181 223 270 325
#     4   9  16  27  43  65  97 135 175 222 273 323
#     4   9  18  32  53  77  99 131 178 224 270 325
#     4   9  15  22  35  59  95 139 184 225 268 319
#     4  12  24  38  62  90 114 142 182 222 263 324
#
# _framework density 17.198802000000001
#
# number of rings (size 3 to 8) (size 9 to 14) (size 15 to 20)
#    0.000    1.846    2.308    2.769    1.077    6.154 
#    1.385    0.000    0.000    0.000    0.000    0.000 
#    0.000    0.615    0.000    1.692    0.000    3.077 
#
# Total GULP energy -289550.672708 kJ/mol
# GULP energy per Si atom -5568.282167 kJ/mol
# Density = 1.715966 g / cm^3
# Si number density = 17.198802 Si / 1000 Ang^3
#
#
#
# Elastic Constant Matrix: (Units=GPa)
#
#
# Indices 1 2 3 4 5 6 
#
# 1 115.3408 25.0577 44.7981 0.0000 0.0000 0.0000
# 2 25.0577 60.5980 33.6813 0.0000 0.0000 0.0000
# 3 44.7981 33.6813 96.9038 0.0000 0.0000 0.0000
# 4 0.0000 0.0000 0.0000 12.3985 0.0000 0.0000
# 5 0.0000 0.0000 0.0000 0.0000 50.1511 0.0000
# 6 0.0000 0.0000 0.0000 0.0000 0.0000 -18.1133
#
#
#
# Elastic Compliance Matrix: (Units=1/GPa)
#
#
# Indices 1 2 3 4 5 6 
#
# 1 0.010777 -0.002091 -0.004255 0.000000 0.000000 0.000000
# 2 -0.002091 0.020859 -0.006283 0.000000 0.000000 0.000000
# 3 -0.004255 -0.006283 0.014471 0.000000 0.000000 0.000000
# 4 0.000000 0.000000 0.000000 0.080655 0.000000 0.000000
# 5 0.000000 0.000000 0.000000 0.000000 0.019940 0.000000
# 6 0.000000 0.000000 0.000000 0.000000 0.000000 -0.055208
#
#
# Mechanical properties :
#
#
# Convention : Reuss Voigt Hill
#
# Bulk Modulus (GPa) = 47.96818 53.32411 50.64614
# Shear Modulus (GPa) = 40.41941 20.17429 30.29685
#
# Velocity S-wave (km/s) = 4.85307 3.42863 4.20166
# Velocity P-wave (km/s) = 7.70416 6.83710 7.28354
#
# Compressibility (1/GPa) = 0.02084715
#
# Stress axis : x y z
#
# Youngs Moduli (GPa) = 92.78996 47.94018 69.10531
#
# Poissons Ratio (x) = 0.10025 0.29406
# Poissons Ratio (y) = 0.19404 0.43422
# Poissons Ratio (z) = 0.39485 0.30123
#
# Static dielectric constant tensor:
#      x y z
#    x 1.548770 0.000000 0.000000 
#    y 0.000000 1.541680 0.000000 
#    z 0.000000 0.000000 1.583050 
# 
# From -- ./inp_files/36271.got.cif
#   From: 2010.05.17/outbox.cif.g08.bks.cpg/sg51_19_cif.got.tgz:36271.got - 2010.06.03 11:52:47.
