data_PCOD9405776
_publ_section_title
;
Structure prediction by ZEFSAII (Michael W. Deem and Ramdas Pophale) SiO2 
 PCOD9405776
Probable space group: P M M A
;
_chemical_formula_sum "Si O2"
_cell_formula_units_Z 48
_cell_length_a 14.758462
_cell_length_b 8.953407
_cell_length_c 18.263989
_cell_angle_alpha 90.000000
_cell_angle_beta 90.000000
_cell_angle_gamma 90.000000
_cell_volume 2413.376421
_symmetry_space_group_name_H-M "P M M A"
_symmetry_group_IT_number 51
_symmetry_cell_setting 'orthorhombic'
loop_
_space_group_symop_operation_xyz
x,y,z
1/2-x,-y,z
1/2+x,-y,-z
-x,y,-z
-x,-y,-z
1/2+x,y,-z
1/2-x,y,z
x,-y,z
loop_
_atom_site_type_symbol
_atom_site_label
_atom_site_fract_x
_atom_site_fract_y
_atom_site_fract_z
Si Si1 0.470530 0.177971 0.320306
Si Si2 0.854973 0.322423 0.380288
Si Si3 0.602676 0.168855 0.969108
Si Si4 0.348571 0.819307 0.871773
Si Si5 0.039169 0.677153 0.172129
Si Si6 0.856825 0.825754 0.535547
O O1 0.572574 0.236769 0.331279
O O2 0.429030 0.254222 0.248757
O O3 0.415643 0.215703 0.394118
O O4 0.470150 0.000000 0.311558
O O5 0.750000 0.282742 0.365036
O O6 0.865497 0.500000 0.371963
O O7 0.873743 0.273474 0.464173
O O8 0.598506 0.267789 0.896837
O O9 0.630846 0.000000 0.950083
O O10 0.500000 0.162023 0.000000
O O11 0.654095 0.219956 0.041666
O O12 0.250000 0.781722 0.839064
O O13 0.436975 0.740537 0.839857
O O14 0.360774 0.000000 0.867435
O O15 0.036775 0.500000 0.174842
O O16 0.750000 0.815617 0.553123
O O17 0.876572 0.000000 0.516961
#
# Coordination Sequence:
#
# PCOD9405776 Si02
#       6
#     8   8   8   8   8   8
#     4  11  22  36  56  79 106 144 184 222 266 316
#     4  10  21  36  55  81 112 143 175 216 267 321
#     4   8  15  31  53  73  95 126 165 204 242 293
#     4   9  18  34  56  79 102 132 171 213 257 308
#     4  11  22  34  50  74 106 140 171 210 261 313
#     4   9  19  37  59  81 104 134 178 227 270 316
#
# _framework density 19.889147999999999
#
# number of rings (size 3 to 8) (size 9 to 14) (size 15 to 20)
#    0.000    2.333    0.000    4.000    0.000    8.333 
#    0.000    0.833    0.000    5.000    0.000    0.000 
#    0.000    0.000    0.000    0.000    0.000    0.000 
#
# Total GULP energy -267950.644699 kJ/mol
# GULP energy per Si atom -5582.305098 kJ/mol
# Density = 1.984388 g / cm^3
# Si number density = 19.889148 Si / 1000 Ang^3
#
#
#
# Elastic Constant Matrix: (Units=GPa)
#
#
# Indices 1 2 3 4 5 6 
#
# 1 29.4768 4.1146 2.7575 0.0000 0.0000 0.0000
# 2 4.1146 54.0478 30.1573 0.0000 0.0000 0.0000
# 3 2.7575 30.1573 73.6438 0.0000 0.0000 0.0000
# 4 0.0000 0.0000 0.0000 80.9457 0.0000 0.0000
# 5 0.0000 0.0000 0.0000 0.0000 11.7679 0.0000
# 6 0.0000 0.0000 0.0000 0.0000 0.0000 14.6485
#
#
#
# Elastic Compliance Matrix: (Units=1/GPa)
#
#
# Indices 1 2 3 4 5 6 
#
# 1 0.034294 -0.002455 -0.000279 0.000000 0.000000 0.000000
# 2 -0.002455 0.024158 -0.009801 0.000000 0.000000 0.000000
# 3 -0.000279 -0.009801 0.017603 0.000000 0.000000 0.000000
# 4 0.000000 0.000000 0.000000 0.012354 0.000000 0.000000
# 5 0.000000 0.000000 0.000000 0.000000 0.084977 0.000000
# 6 0.000000 0.000000 0.000000 0.000000 0.000000 0.068266
#
#
# Mechanical properties :
#
#
# Convention : Reuss Voigt Hill
#
# Bulk Modulus (GPa) = 19.61365 25.69191 22.65278
# Shear Modulus (GPa) = 17.62332 29.48170 23.55251
#
# Velocity S-wave (km/s) = 2.97993 3.85424 3.44494
# Velocity P-wave (km/s) = 4.66078 5.72298 5.21898
#
# Compressibility (1/GPa) = 0.05098491
#
# Stress axis : x y z
#
# Youngs Moduli (GPa) = 29.15983 41.39493 56.80953
#
# Poissons Ratio (x) = 0.10164 0.01583
# Poissons Ratio (y) = 0.07160 0.55677
# Poissons Ratio (z) = 0.00812 0.40570
#
# Static dielectric constant tensor:
#      x y z
#    x 1.735390 0.000000 0.000000 
#    y 0.000000 1.662510 0.000000 
#    z 0.000000 0.000000 1.710180 
# 
# From -- ./inp_files/29438.got.cif
#   From: 2010.05.17/outbox.cif.g08.bks.cpg/sg51_15_cif.got.tgz:29438.got - 2010.06.03 11:52:47.
