data_PCOD9405903
_publ_section_title
;
Structure prediction by ZEFSAII (Michael W. Deem and Ramdas Pophale) SiO2 
 PCOD9405903
Probable space group: P M M A
;
_chemical_formula_sum "Si O2"
_cell_formula_units_Z 56
_cell_length_a 14.029605
_cell_length_b 8.601020
_cell_length_c 22.107530
_cell_angle_alpha 90.000000
_cell_angle_beta 90.000000
_cell_angle_gamma 90.000000
_cell_volume 2667.691619
_symmetry_space_group_name_H-M "P M M A"
_symmetry_group_IT_number 51
_symmetry_cell_setting 'orthorhombic'
loop_
_space_group_symop_operation_xyz
x,y,z
1/2-x,-y,z
1/2+x,-y,-z
-x,y,-z
-x,-y,-z
1/2+x,y,-z
1/2-x,y,z
x,-y,z
loop_
_atom_site_type_symbol
_atom_site_label
_atom_site_fract_x
_atom_site_fract_y
_atom_site_fract_z
Si Si1 0.459100 0.317200 0.775817
Si Si2 0.359922 0.187102 0.657875
Si Si3 0.355090 0.689509 0.032814
Si Si4 0.051954 0.689660 0.908399
Si Si5 0.133878 0.675600 0.400515
Si Si6 0.133551 0.181617 0.526872
Si Si7 0.861660 0.181905 0.726763
O O1 0.440954 0.500000 0.772334
O O2 0.412924 0.238650 0.717695
O O3 0.423753 0.257691 0.840917
O O4 0.571455 0.283197 0.769429
O O5 0.250000 0.237476 0.663012
O O6 0.398050 0.243837 0.592545
O O7 0.361540 0.000000 0.654136
O O8 0.250000 0.743454 0.050956
O O9 0.354949 0.500000 0.034204
O O10 0.379530 0.734969 0.963554
O O11 0.444806 0.739236 0.073170
O O12 0.051897 0.500000 0.907221
O O13 0.250000 0.674841 0.403480
O O14 0.102129 0.500000 0.387896
O O15 0.101594 0.732977 0.466231
O O16 0.111138 0.782960 0.343207
O O17 0.250000 0.188157 0.528559
O O18 0.108449 0.000000 0.521372
O O19 0.750000 0.218730 0.733660
O O20 0.876401 0.000000 0.738737
#
# Coordination Sequence:
#
# PCOD9405903 Si02
#       7
#     8   8   8   8   8   8   8
#     4  11  22  34  51  78 112 142 170 215 269 314
#     4   9  19  36  55  74 101 141 185 222 258 311
#     4   8  13  25  46  69  98 136 171 202 241 297
#     4   8  16  28  42  69 105 136 167 203 250 305
#     4   9  16  27  47  75 103 129 162 213 275 326
#     4   8  14  27  48  71  95 128 171 216 262 313
#     4  10  21  37  55  73  98 138 184 222 259 313
#
# _framework density 20.991931999999998
#
# number of rings (size 3 to 8) (size 9 to 14) (size 15 to 20)
#    0.000    3.000    0.000    3.000    0.000    4.571 
#    0.000    5.000    0.000    4.286    0.000    8.000 
#    0.000   13.714    0.000    0.000    0.000    0.000 
#
# Total GULP energy -312498.127382 kJ/mol
# GULP energy per Si atom -5580.323703 kJ/mol
# Density = 2.094415 g / cm^3
# Si number density = 20.991932 Si / 1000 Ang^3
#
#
#
# Elastic Constant Matrix: (Units=GPa)
#
#
# Indices 1 2 3 4 5 6 
#
# 1 46.2175 -3.4505 -4.8742 0.0000 0.0000 0.0000
# 2 -3.4505 7.4654 -0.4563 0.0000 0.0000 0.0000
# 3 -4.8742 -0.4563 65.9986 0.0000 0.0000 0.0000
# 4 0.0000 0.0000 0.0000 39.8415 0.0000 0.0000
# 5 0.0000 0.0000 0.0000 0.0000 12.7726 0.0000
# 6 0.0000 0.0000 0.0000 0.0000 0.0000 16.0520
#
#
#
# Elastic Compliance Matrix: (Units=1/GPa)
#
#
# Indices 1 2 3 4 5 6 
#
# 1 0.022609 0.010556 0.001743 0.000000 0.000000 0.000000
# 2 0.010556 0.138937 0.001740 0.000000 0.000000 0.000000
# 3 0.001743 0.001740 0.015293 0.000000 0.000000 0.000000
# 4 0.000000 0.000000 0.000000 0.025099 0.000000 0.000000
# 5 0.000000 0.000000 0.000000 0.000000 0.078293 0.000000
# 6 0.000000 0.000000 0.000000 0.000000 0.000000 0.062297
#
#
# Mechanical properties :
#
#
# Convention : Reuss Voigt Hill
#
# Bulk Modulus (GPa) = 4.88004 11.34661 8.11333
# Shear Modulus (GPa) = 13.06321 22.29740 17.68031
#
# Velocity S-wave (km/s) = 2.49729 3.26266 2.90529
# Velocity P-wave (km/s) = 3.26268 4.42834 3.88943
#
# Compressibility (1/GPa) = 0.20491636
#
# Stress axis : x y z
#
# Youngs Moduli (GPa) = 44.23073 7.19753 65.39121
#
# Poissons Ratio (x) = -0.07598 -0.11396
# Poissons Ratio (y) = -0.46691 -0.11379
# Poissons Ratio (z) = -0.07708 -0.01253
#
# Static dielectric constant tensor:
#      x y z
#    x 1.813760 0.000000 0.000000 
#    y 0.000000 1.712190 0.000000 
#    z 0.000000 0.000000 1.755030 
# 
# From -- ./inp_files/33427.got.cif
#   From: 2010.05.17/outbox.cif.g08.bks.cpg/sg51_17_cif.got.tgz:33427.got - 2010.06.03 11:52:47.
