data_PCOD9405076
_publ_section_title
;
Structure prediction by ZEFSAII (Michael W. Deem and Ramdas Pophale) SiO2 
 PCOD9405076
Probable space group: P M M A
;
_chemical_formula_sum "Si O2"
_cell_formula_units_Z 64
_cell_length_a 24.578428
_cell_length_b 8.183373
_cell_length_c 15.857338
_cell_angle_alpha 90.000000
_cell_angle_beta 90.000000
_cell_angle_gamma 90.000000
_cell_volume 3189.456863
_symmetry_space_group_name_H-M "P M M A"
_symmetry_group_IT_number 51
_symmetry_cell_setting 'orthorhombic'
loop_
_space_group_symop_operation_xyz
x,y,z
1/2-x,-y,z
1/2+x,-y,-z
-x,y,-z
-x,-y,-z
1/2+x,y,-z
1/2-x,y,z
x,-y,z
loop_
_atom_site_type_symbol
_atom_site_label
_atom_site_fract_x
_atom_site_fract_y
_atom_site_fract_z
Si Si1 0.111015 0.301779 0.404993
Si Si2 0.376224 0.190471 0.090691
Si Si3 0.115354 0.302159 0.595223
Si Si4 0.994131 0.691454 0.859571
Si Si5 0.687702 0.300101 0.247652
Si Si6 0.498487 0.808264 0.670924
Si Si7 0.387036 0.695837 0.907200
Si Si8 0.311646 0.696032 0.253878
O O1 0.109032 0.500000 0.401905
O O2 0.127885 0.253481 0.499365
O O3 0.152095 0.243459 0.332254
O O4 0.051082 0.237291 0.383719
O O5 0.439898 0.220621 0.109924
O O6 0.341891 0.266824 0.166626
O O7 0.364847 0.000000 0.089067
O O8 0.364407 0.263199 0.998866
O O9 0.112570 0.500000 0.597666
O O10 0.159269 0.250346 0.664967
O O11 0.056713 0.235844 0.622869
O O12 0.988019 0.500000 0.881575
O O13 0.998819 0.710540 0.758795
O O14 0.050766 0.756013 0.897702
O O15 0.750000 0.245954 0.241139
O O16 0.687936 0.500000 0.246128
O O17 0.650688 0.244167 0.169199
O O18 0.499545 0.000000 0.691002
O O19 0.390311 0.500000 0.898537
O O20 0.250000 0.759884 0.254703
O O21 0.309084 0.500000 0.262268
#
# Coordination Sequence:
#
# PCOD9405076 Si02
#       8
#     8   8   8   8   8   8   8   8
#     4  10  21  37  61  88 119 155 195 244 294 348
#     4  12  25  39  59  90 123 155 193 240 299 356
#     4  10  20  37  60  89 120 156 196 240 294 349
#     4  11  21  38  63  88 118 154 195 241 294 355
#     4   9  18  35  60  88 116 149 196 248 290 334
#     4  12  23  35  57  88 122 158 194 238 295 353
#     4  10  21  38  61  88 118 156 197 238 290 349
#     4  10  22  41  63  86 115 157 206 250 292 344
#
# _framework density 20.066112
#
# number of rings (size 3 to 8) (size 9 to 14) (size 15 to 20)
#    0.000    1.500    2.500    3.375    0.000    5.750 
#    0.000    3.750    0.000    1.125    0.000    1.750 
#    0.000    0.000    0.000    0.000    0.000    0.000 
#
# Total GULP energy -357738.611914 kJ/mol
# GULP energy per Si atom -5589.665811 kJ/mol
# Density = 2.002044 g / cm^3
# Si number density = 20.066112 Si / 1000 Ang^3
#
#
#
# Elastic Constant Matrix: (Units=GPa)
#
#
# Indices 1 2 3 4 5 6 
#
# 1 122.6548 0.0102 44.3567 0.0000 0.0000 0.0000
# 2 0.0102 7.4906 -12.8284 0.0000 0.0000 0.0000
# 3 44.3567 -12.8284 122.0974 0.0000 0.0000 0.0000
# 4 0.0000 0.0000 0.0000 -13.5323 0.0000 0.0000
# 5 0.0000 0.0000 0.0000 0.0000 0.1540 0.0000
# 6 0.0000 0.0000 0.0000 0.0000 0.0000 -29.0806
#
#
#
# Elastic Compliance Matrix: (Units=1/GPa)
#
#
# Indices 1 2 3 4 5 6 
#
# 1 0.009710 -0.007383 -0.004303 0.000000 0.000000 0.000000
# 2 -0.007383 0.168407 0.020376 0.000000 0.000000 0.000000
# 3 -0.004303 0.020376 0.011894 0.000000 0.000000 0.000000
# 4 0.000000 0.000000 0.000000 -0.073897 0.000000 0.000000
# 5 0.000000 0.000000 0.000000 0.000000 6.491857 0.000000
# 6 0.000000 0.000000 0.000000 0.000000 0.000000 -0.034387
#
#
# Mechanical properties :
#
#
# Convention : Reuss Voigt Hill
#
# Bulk Modulus (GPa) = 4.82180 35.03555 19.92868
# Shear Modulus (GPa) = 0.75468 6.22186 3.48827
#
# Velocity S-wave (km/s) = 0.61393 1.76278 1.31991
# Velocity P-wave (km/s) = 1.70608 4.65201 3.50371
#
# Compressibility (1/GPa) = 0.20739136
#
# Stress axis : x y z
#
# Youngs Moduli (GPa) = 102.98912 5.93799 84.07375
#
# Poissons Ratio (x) = 0.04384 0.36178
# Poissons Ratio (y) = 0.76035 -1.71309
# Poissons Ratio (z) = 0.44318 -0.12099
#
# Static dielectric constant tensor:
#      x y z
#    x 1.693250 0.000000 0.000000 
#    y 0.000000 1.691690 0.000000 
#    z 0.000000 0.000000 1.714010 
# 
# From -- ./inp_files/26237.got.cif
#   From: 2010.05.17/outbox.cif.g08.bks.cpg/sg51_14_cif.got.tgz:26237.got - 2010.06.03 11:52:47.
