data_PCOD9405412
_publ_section_title
;
Structure prediction by ZEFSAII (Michael W. Deem and Ramdas Pophale) SiO2 
 PCOD9405412
Probable space group: P M M A
;
_chemical_formula_sum "Si O2"
_cell_formula_units_Z 64
_cell_length_a 14.719866
_cell_length_b 8.952229
_cell_length_c 28.989843
_cell_angle_alpha 90.000000
_cell_angle_beta 90.000000
_cell_angle_gamma 90.000000
_cell_volume 3820.154282
_symmetry_space_group_name_H-M "P M M A"
_symmetry_group_IT_number 51
_symmetry_cell_setting 'orthorhombic'
loop_
_space_group_symop_operation_xyz
x,y,z
1/2-x,-y,z
1/2+x,-y,-z
-x,y,-z
-x,-y,-z
1/2+x,y,-z
1/2-x,y,z
x,-y,z
loop_
_atom_site_type_symbol
_atom_site_label
_atom_site_fract_x
_atom_site_fract_y
_atom_site_fract_z
Si Si1 0.358564 0.675842 0.466345
Si Si2 0.643035 0.323371 0.974708
Si Si3 0.854633 0.320178 0.427443
Si Si4 0.855566 0.178164 0.073029
Si Si5 0.644129 0.820114 0.805160
Si Si6 0.525603 0.678835 0.885146
Si Si7 0.474087 0.821378 0.385912
Si Si8 0.646736 0.818291 0.699333
O O1 0.250000 0.690676 0.459759
O O2 0.381778 0.500000 0.461287
O O3 0.378007 0.719568 0.519338
O O4 0.412914 0.769032 0.428991
O O5 0.750000 0.302724 0.964123
O O6 0.628001 0.500000 0.983681
O O7 0.583320 0.278944 0.930943
O O8 0.622217 0.234644 0.021310
O O9 0.750000 0.276643 0.418976
O O10 0.859589 0.500000 0.424704
O O11 0.926852 0.246933 0.393786
O O12 0.750000 0.218371 0.081645
O O13 0.925713 0.254655 0.107605
O O14 0.864140 0.000000 0.075171
O O15 0.750000 0.783469 0.815109
O O16 0.577668 0.743297 0.841131
O O17 0.625829 0.775340 0.752024
O O18 0.635406 0.000000 0.808297
O O19 0.522440 0.500000 0.882952
O O20 0.424131 0.768556 0.339232
O O21 0.479361 0.000000 0.385086
O O22 0.750000 0.769724 0.688207
O O23 0.647599 0.000000 0.698677
#
# Coordination Sequence:
#
# PCOD9405412 Si02
#       8
#     8   8   8   8   8   8   8   8
#     4   9  18  32  48  67  95 132 169 199 232 283
#     4   9  18  32  48  69 101 136 163 191 237 293
#     4   9  19  35  50  64  91 133 172 203 237 281
#     4  10  21  35  50  70  97 130 170 211 242 275
#     4   9  18  34  55  75  97 128 163 197 235 284
#     4  11  21  32  50  75 102 131 162 199 245 294
#     4  11  20  29  48  76 101 125 157 201 248 290
#     4   8  16  32  51  72 100 130 156 187 236 294
#
# _framework density 16.753250000000001
#
# number of rings (size 3 to 8) (size 9 to 14) (size 15 to 20)
#    0.000    2.500    0.000    4.125    0.000    7.000 
#    0.000    3.750    0.000    2.250    0.000    1.750 
#    0.000    0.000    0.000    0.000    0.000    0.000 
#
# Total GULP energy -357137.830163 kJ/mol
# GULP energy per Si atom -5580.278596 kJ/mol
# Density = 1.671512 g / cm^3
# Si number density = 16.753250 Si / 1000 Ang^3
#
#
#
# Elastic Constant Matrix: (Units=GPa)
#
#
# Indices 1 2 3 4 5 6 
#
# 1 112.3315 43.3857 97.3903 0.0000 0.0000 0.0000
# 2 43.3857 28.7132 41.2036 0.0000 0.0000 0.0000
# 3 97.3903 41.2036 115.2004 0.0000 0.0000 0.0000
# 4 0.0000 0.0000 0.0000 46.1481 0.0000 0.0000
# 5 0.0000 0.0000 0.0000 0.0000 32.9920 0.0000
# 6 0.0000 0.0000 0.0000 0.0000 0.0000 27.4125
#
#
#
# Elastic Compliance Matrix: (Units=1/GPa)
#
#
# Indices 1 2 3 4 5 6 
#
# 1 0.040381 -0.024710 -0.025300 0.000000 0.000000 0.000000
# 2 -0.024710 0.086672 -0.010110 0.000000 0.000000 0.000000
# 3 -0.025300 -0.010110 0.033685 0.000000 0.000000 0.000000
# 4 0.000000 0.000000 0.000000 0.021669 0.000000 0.000000
# 5 0.000000 0.000000 0.000000 0.000000 0.030310 0.000000
# 6 0.000000 0.000000 0.000000 0.000000 0.000000 0.036480
#
#
# Mechanical properties :
#
#
# Convention : Reuss Voigt Hill
#
# Bulk Modulus (GPa) = 24.69258 68.91159 46.80208
# Shear Modulus (GPa) = 13.05703 26.26156 19.65930
#
# Velocity S-wave (km/s) = 2.79475 3.96353 3.42930
# Velocity P-wave (km/s) = 5.01848 7.88471 6.60885
#
# Compressibility (1/GPa) = 0.04049800
#
# Stress axis : x y z
#
# Youngs Moduli (GPa) = 24.76442 11.53776 29.68684
#
# Poissons Ratio (x) = 0.28510 0.75107
# Poissons Ratio (y) = 0.61193 0.30014
# Poissons Ratio (z) = 0.62653 0.11665
#
# Static dielectric constant tensor:
#      x y z
#    x 1.573150 0.000000 0.000000 
#    y 0.000000 1.558850 0.000000 
#    z 0.000000 0.000000 1.545140 
# 
# From -- ./inp_files/37796.got.cif
#   From: 2010.05.17/outbox.cif.g08.bks.cpg/sg51_19_cif.got.tgz:37796.got - 2010.06.03 11:52:47.
