data_PCOD9405626
_publ_section_title
;
Structure prediction by ZEFSAII (Michael W. Deem and Ramdas Pophale) SiO2 
 PCOD9405626
Probable space group: P M M A
;
_chemical_formula_sum "Si O2"
_cell_formula_units_Z 48
_cell_length_a 7.955112
_cell_length_b 10.243321
_cell_length_c 31.489345
_cell_angle_alpha 90.000000
_cell_angle_beta 90.000000
_cell_angle_gamma 90.000000
_cell_volume 2565.964881
_symmetry_space_group_name_H-M "P M M A"
_symmetry_group_IT_number 51
_symmetry_cell_setting 'orthorhombic'
loop_
_space_group_symop_operation_xyz
x,y,z
1/2-x,-y,z
1/2+x,-y,-z
-x,y,-z
-x,-y,-z
1/2+x,y,-z
1/2-x,y,z
x,-y,z
loop_
_atom_site_type_symbol
_atom_site_label
_atom_site_fract_x
_atom_site_fract_y
_atom_site_fract_z
Si Si1 0.452850 0.648973 0.714053
Si Si2 0.547296 0.648900 0.618488
Si Si3 0.452044 0.147439 0.881138
Si Si4 0.544620 0.149712 0.214888
Si Si5 0.547194 0.148830 0.547885
Si Si6 0.550147 0.647463 0.952591
O O1 0.250000 0.646756 0.716315
O O2 0.513187 0.500000 0.720691
O O3 0.500966 0.688776 0.666335
O O4 0.514866 0.748467 0.749876
O O5 0.750000 0.645847 0.615801
O O6 0.485851 0.500000 0.611915
O O7 0.484675 0.749768 0.583115
O O8 0.250000 0.141827 0.879467
O O9 0.509426 0.181915 0.833293
O O10 0.497459 0.252143 0.916454
O O11 0.512658 0.000000 0.890998
O O12 0.750000 0.152357 0.215293
O O13 0.495091 0.000000 0.223963
O O14 0.500000 0.187543 0.500000
O O15 0.750000 0.146182 0.550397
O O16 0.486286 0.000000 0.554835
O O17 0.750000 0.639547 0.951551
O O18 0.480856 0.500000 0.946049
O O19 0.500000 0.690287 0.000000
#
# Coordination Sequence:
#
# PCOD9405626 Si02
#       6
#     8   8   8   8   8   8
#     4   9  17  29  46  69  94 120 154 193 228 266
#     4   9  18  32  47  64  90 122 151 182 225 273
#     4   9  18  33  53  76 101 130 164 201 243 291
#     4   8  15  29  48  70  96 124 155 192 232 275
#     4   9  18  32  48  66  89 116 147 184 225 270
#     4  10  21  36  53  74 100 130 165 204 245 290
#
# _framework density 18.706412
#
# number of rings (size 3 to 8) (size 9 to 14) (size 15 to 20)
#    0.000    3.000    0.000    1.500    0.000    4.000 
#    0.000    2.500    0.000    3.000    0.000    0.000 
#    0.000    0.000    0.000    0.000    0.000    0.000 
#
# Total GULP energy -267596.689791 kJ/mol
# GULP energy per Si atom -5574.931037 kJ/mol
# Density = 1.866384 g / cm^3
# Si number density = 18.706412 Si / 1000 Ang^3
#
#
#
# Elastic Constant Matrix: (Units=GPa)
#
#
# Indices 1 2 3 4 5 6 
#
# 1 14.3198 9.6310 8.6728 0.0000 0.0000 0.0000
# 2 9.6310 127.8419 145.6330 0.0000 0.0000 0.0000
# 3 8.6728 145.6330 201.7528 0.0000 0.0000 0.0000
# 4 0.0000 0.0000 0.0000 46.0990 0.0000 0.0000
# 5 0.0000 0.0000 0.0000 0.0000 24.7366 0.0000
# 6 0.0000 0.0000 0.0000 0.0000 0.0000 9.9774
#
#
#
# Elastic Compliance Matrix: (Units=1/GPa)
#
#
# Indices 1 2 3 4 5 6 
#
# 1 0.074366 -0.011033 0.004767 0.000000 0.000000 0.000000
# 2 -0.011033 0.045654 -0.032481 0.000000 0.000000 0.000000
# 3 0.004767 -0.032481 0.028197 0.000000 0.000000 0.000000
# 4 0.000000 0.000000 0.000000 0.021692 0.000000 0.000000
# 5 0.000000 0.000000 0.000000 0.000000 0.040426 0.000000
# 6 0.000000 0.000000 0.000000 0.000000 0.000000 0.100227
#
#
# Mechanical properties :
#
#
# Convention : Reuss Voigt Hill
#
# Bulk Modulus (GPa) = 14.13928 74.64312 44.39120
# Shear Modulus (GPa) = 12.14680 28.16112 20.15396
#
# Velocity S-wave (km/s) = 2.55098 3.88419 3.28591
# Velocity P-wave (km/s) = 4.03132 7.75274 6.17886
#
# Compressibility (1/GPa) = 0.07072495
#
# Stress axis : x y z
#
# Youngs Moduli (GPa) = 13.44694 21.90379 35.46422
#
# Poissons Ratio (x) = 0.24167 -0.16908
# Poissons Ratio (y) = 0.14836 1.15190
# Poissons Ratio (z) = -0.06411 0.71145
#
# Static dielectric constant tensor:
#      x y z
#    x 1.673360 0.000000 0.000000 
#    y 0.000000 1.660320 0.000000 
#    z 0.000000 0.000000 1.622990 
# 
# From -- ./inp_files/34546.got.cif
#   From: 2010.05.17/outbox.cif.g08.bks.cpg/sg51_18_cif.got.tgz:34546.got - 2010.06.03 11:52:47.
