data_PCOD9405468
_publ_section_title
;
Structure prediction by ZEFSAII (Michael W. Deem and Ramdas Pophale) SiO2 
 PCOD9405468
Probable space group: P M M A
;
_chemical_formula_sum "Si O2"
_cell_formula_units_Z 48
_cell_length_a 10.236377
_cell_length_b 8.570737
_cell_length_c 31.311360
_cell_angle_alpha 90.000000
_cell_angle_beta 90.000000
_cell_angle_gamma 90.000000
_cell_volume 2747.048787
_symmetry_space_group_name_H-M "P M M A"
_symmetry_group_IT_number 51
_symmetry_cell_setting 'orthorhombic'
loop_
_space_group_symop_operation_xyz
x,y,z
1/2-x,-y,z
1/2+x,-y,-z
-x,y,-z
-x,-y,-z
1/2+x,y,-z
1/2-x,y,z
x,-y,z
loop_
_atom_site_type_symbol
_atom_site_label
_atom_site_fract_x
_atom_site_fract_y
_atom_site_fract_z
Si Si1 0.900136 0.811813 0.367052
Si Si2 0.400109 0.186617 0.869711
Si Si3 0.599608 0.311656 0.799893
Si Si4 0.399760 0.190340 0.535951
Si Si5 0.900294 0.688519 0.036594
Si Si6 0.600692 0.688137 0.702340
O O1 0.750000 0.763324 0.358633
O O2 0.933889 0.762190 0.415595
O O3 0.999365 0.749770 0.332068
O O4 0.902903 0.000000 0.366333
O O5 0.250000 0.237837 0.861171
O O6 0.498475 0.245865 0.833806
O O7 0.436253 0.249872 0.916574
O O8 0.402118 0.000000 0.870704
O O9 0.750000 0.265429 0.809059
O O10 0.594888 0.500000 0.801291
O O11 0.569272 0.263196 0.751065
O O12 0.500000 0.245471 0.500000
O O13 0.250000 0.237248 0.527272
O O14 0.401658 0.000000 0.535492
O O15 0.750000 0.736201 0.027762
O O16 0.903517 0.500000 0.037738
O O17 0.000000 0.741500 0.000000
O O18 0.750000 0.738044 0.693048
O O19 0.598826 0.500000 0.701696
#
# Coordination Sequence:
#
# PCOD9405468 Si02
#       6
#     8   8   8   8   8   8
#     4   9  18  31  47  71 101 128 157 197 243 290
#     4  10  21  35  51  75 106 135 163 199 244 292
#     4   9  19  36  55  73  95 126 165 206 245 288
#     4   8  14  25  41  63  92 123 155 193 235 280
#     4   9  18  33  52  73  98 130 168 206 241 281
#     4   9  19  35  52  71  96 126 162 203 244 288
#
# _framework density 17.473298
#
# number of rings (size 3 to 8) (size 9 to 14) (size 15 to 20)
#    0.000    3.000    0.000    2.500    0.000    5.000 
#    0.000    8.333    0.000    0.500    0.000    0.000 
#    0.000    0.000    0.000    0.000    0.000    0.000 
#
# Total GULP energy -267559.289158 kJ/mol
# GULP energy per Si atom -5574.151857 kJ/mol
# Density = 1.743353 g / cm^3
# Si number density = 17.473298 Si / 1000 Ang^3
#
#
#
# Elastic Constant Matrix: (Units=GPa)
#
#
# Indices 1 2 3 4 5 6 
#
# 1 135.3545 26.0019 145.0250 0.0000 0.0000 0.0000
# 2 26.0019 6.8542 29.4989 0.0000 0.0000 0.0000
# 3 145.0250 29.4989 187.3170 0.0000 0.0000 0.0000
# 4 0.0000 0.0000 0.0000 26.1005 0.0000 0.0000
# 5 0.0000 0.0000 0.0000 0.0000 44.0863 0.0000
# 6 0.0000 0.0000 0.0000 0.0000 0.0000 23.3123
#
#
#
# Elastic Compliance Matrix: (Units=1/GPa)
#
#
# Indices 1 2 3 4 5 6 
#
# 1 0.053930 -0.077239 -0.029590 0.000000 0.000000 0.000000
# 2 -0.077239 0.563380 -0.028922 0.000000 0.000000 0.000000
# 3 -0.029590 -0.028922 0.032803 0.000000 0.000000 0.000000
# 4 0.000000 0.000000 0.000000 0.038314 0.000000 0.000000
# 5 0.000000 0.000000 0.000000 0.000000 0.022683 0.000000
# 6 0.000000 0.000000 0.000000 0.000000 0.000000 0.042896
#
#
# Mechanical properties :
#
#
# Convention : Reuss Voigt Hill
#
# Bulk Modulus (GPa) = 2.64123 81.17525 41.90824
# Shear Modulus (GPa) = 4.34137 27.29980 15.82059
#
# Velocity S-wave (km/s) = 1.57796 3.95697 3.01228
# Velocity P-wave (km/s) = 2.19882 8.21185 6.01121
#
# Compressibility (1/GPa) = 0.37861132
#
# Stress axis : x y z
#
# Youngs Moduli (GPa) = 18.54251 1.77500 30.48535
#
# Poissons Ratio (x) = 0.13710 0.90207
# Poissons Ratio (y) = 1.43220 0.88169
# Poissons Ratio (z) = 0.54868 0.05134
#
# Static dielectric constant tensor:
#      x y z
#    x 1.586130 0.000000 0.000000 
#    y 0.000000 1.602450 0.000000 
#    z 0.000000 0.000000 1.572350 
# 
# From -- ./inp_files/36902.got.cif
#   From: 2010.05.17/outbox.cif.g08.bks.cpg/sg51_19_cif.got.tgz:36902.got - 2010.06.03 11:52:47.
