data_PCOD9405976
_publ_section_title
;
Structure prediction by ZEFSAII (Michael W. Deem and Ramdas Pophale) SiO2 
 PCOD9405976
Probable space group: P M M A
;
_chemical_formula_sum "Si O2"
_cell_formula_units_Z 64
_cell_length_a 8.452851
_cell_length_b 19.688589
_cell_length_c 20.068354
_cell_angle_alpha 90.000000
_cell_angle_beta 90.000000
_cell_angle_gamma 90.000000
_cell_volume 3339.869979
_symmetry_space_group_name_H-M "P M M A"
_symmetry_group_IT_number 51
_symmetry_cell_setting 'orthorhombic'
loop_
_space_group_symop_operation_xyz
x,y,z
1/2-x,-y,z
1/2+x,-y,-z
-x,y,-z
-x,-y,-z
1/2+x,y,-z
1/2-x,y,z
x,-y,z
loop_
_atom_site_type_symbol
_atom_site_label
_atom_site_fract_x
_atom_site_fract_y
_atom_site_fract_z
Si Si1 0.059382 0.422840 0.429397
Si Si2 0.561286 0.921861 0.321365
Si Si3 0.434756 0.846153 0.191754
Si Si4 0.569896 0.081463 0.069658
Si Si5 0.557268 0.305905 0.821429
Si Si6 0.442948 0.307515 0.331652
Si Si7 0.439140 0.181687 0.424415
Si Si8 0.441544 0.421939 0.075173
O O1 0.250000 0.423688 0.430229
O O2 0.002209 0.500000 0.422080
O O3 0.006695 0.374275 0.370952
O O4 0.000000 0.395846 0.500000
O O5 0.750000 0.922610 0.327050
O O6 0.516425 0.875836 0.257556
O O7 0.491042 0.887104 0.387314
O O8 0.506659 0.000000 0.312022
O O9 0.250000 0.839771 0.208753
O O10 0.464344 0.896849 0.131382
O O11 0.488923 0.772280 0.165221
O O12 0.750000 0.105206 0.079535
O O13 0.573316 0.000000 0.066485
O O14 0.500000 0.107105 0.000000
O O15 0.750000 0.309317 0.823196
O O16 0.505923 0.313601 0.744596
O O17 0.502650 0.364412 0.872375
O O18 0.250000 0.304603 0.330478
O O19 0.495359 0.242609 0.375136
O O20 0.500000 0.187812 0.500000
O O21 0.250000 0.184970 0.426671
O O22 0.250000 0.420763 0.074791
O O23 0.489498 0.500000 0.092382
O O24 0.500000 0.408000 0.000000
#
# Coordination Sequence:
#
# PCOD9405976 Si02
#       8
#     8   8   8   8   8   8   8   8
#     4   9  17  29  48  74 104 139 176 216 263 317
#     4  11  24  41  60  83 111 144 186 235 284 340
#     4  11  21  36  58  83 114 150 184 229 285 341
#     4  10  21  37  56  80 111 146 186 231 276 329
#     4   9  18  33  54  81 110 140 181 228 271 320
#     4   9  17  32  53  78 109 141 180 228 273 323
#     4  11  22  38  60  84 111 146 185 231 285 341
#     4   9  18  34  57  82 111 149 190 232 276 323
#
# _framework density 19.162421999999999
#
# number of rings (size 3 to 8) (size 9 to 14) (size 15 to 20)
#    0.000    2.125    1.250    2.250    0.000    4.500 
#    0.000    5.625    0.000    0.000    0.000    3.500 
#    0.000    0.000    0.000    0.000    0.000    0.000 
#
# Total GULP energy -356952.331526 kJ/mol
# GULP energy per Si atom -5577.380180 kJ/mol
# Density = 1.911881 g / cm^3
# Si number density = 19.162422 Si / 1000 Ang^3
#
#
#
# Elastic Constant Matrix: (Units=GPa)
#
#
# Indices 1 2 3 4 5 6 
#
# 1 19.3200 22.4276 16.6957 0.0000 0.0000 0.0000
# 2 22.4276 98.9927 64.6663 0.0000 0.0000 0.0000
# 3 16.6957 64.6663 129.5091 0.0000 0.0000 0.0000
# 4 0.0000 0.0000 0.0000 28.7843 0.0000 0.0000
# 5 0.0000 0.0000 0.0000 0.0000 30.6331 0.0000
# 6 0.0000 0.0000 0.0000 0.0000 0.0000 9.3972
#
#
#
# Elastic Compliance Matrix: (Units=1/GPa)
#
#
# Indices 1 2 3 4 5 6 
#
# 1 0.070468 -0.014886 -0.001651 0.000000 0.000000 0.000000
# 2 -0.014886 0.018136 -0.007137 0.000000 0.000000 0.000000
# 3 -0.001651 -0.007137 0.011498 0.000000 0.000000 0.000000
# 4 0.000000 0.000000 0.000000 0.034741 0.000000 0.000000
# 5 0.000000 0.000000 0.000000 0.000000 0.032644 0.000000
# 6 0.000000 0.000000 0.000000 0.000000 0.000000 0.106414
#
#
# Mechanical properties :
#
#
# Convention : Reuss Voigt Hill
#
# Bulk Modulus (GPa) = 18.95625 50.60010 34.77818
# Shear Modulus (GPa) = 14.75645 23.36508 19.06076
#
# Velocity S-wave (km/s) = 2.77803 3.49566 3.15730
# Velocity P-wave (km/s) = 4.49486 6.53881 5.61070
#
# Compressibility (1/GPa) = 0.05275305
#
# Stress axis : x y z
#
# Youngs Moduli (GPa) = 14.19093 55.13773 86.97264
#
# Poissons Ratio (x) = 0.82079 0.14362
# Poissons Ratio (y) = 0.21125 0.62070
# Poissons Ratio (z) = 0.02343 0.39351
#
# Static dielectric constant tensor:
#      x y z
#    x 1.673630 0.000000 0.000000 
#    y 0.000000 1.694110 0.000000 
#    z 0.000000 0.000000 1.650120 
# 
# From -- ./inp_files/32395.got.cif
#   From: 2010.05.17/outbox.cif.g08.bks.cpg/sg51_17_cif.got.tgz:32395.got - 2010.06.03 11:52:47.
