data_PCOD9405559
_publ_section_title
;
Structure prediction by ZEFSAII (Michael W. Deem and Ramdas Pophale) SiO2 
 PCOD9405559
Probable space group: P M M A
;
_chemical_formula_sum "Si O2"
_cell_formula_units_Z 56
_cell_length_a 15.702500
_cell_length_b 21.116690
_cell_length_c 9.424911
_cell_angle_alpha 90.000000
_cell_angle_beta 90.000000
_cell_angle_gamma 90.000000
_cell_volume 3125.157462
_symmetry_space_group_name_H-M "P M M A"
_symmetry_group_IT_number 51
_symmetry_cell_setting 'orthorhombic'
loop_
_space_group_symop_operation_xyz
x,y,z
1/2-x,-y,z
1/2+x,-y,-z
-x,y,-z
-x,-y,-z
1/2+x,y,-z
1/2-x,y,z
x,-y,z
loop_
_atom_site_type_symbol
_atom_site_label
_atom_site_fract_x
_atom_site_fract_y
_atom_site_fract_z
Si Si1 0.648928 0.206627 0.638581
Si Si2 0.153791 0.424207 0.647246
Si Si3 0.427201 0.111362 0.593316
Si Si4 0.649834 0.354178 0.651882
Si Si5 0.549092 0.869977 0.853346
Si Si6 0.154415 0.000000 0.747675
Si Si7 0.990132 0.424290 0.833714
Si Si8 0.644005 0.000000 0.929601
O O1 0.750000 0.199530 0.629488
O O2 0.609077 0.165898 0.508717
O O3 0.627519 0.280623 0.629167
O O4 0.616224 0.179888 0.789405
O O5 0.250000 0.408390 0.697475
O O6 0.150707 0.500000 0.626200
O O7 0.140004 0.390453 0.497209
O O8 0.078131 0.407438 0.753985
O O9 0.500000 0.077818 0.500000
O O10 0.475877 0.132934 0.733994
O O11 0.361987 0.060600 0.651205
O O12 0.750000 0.358196 0.692681
O O13 0.587633 0.386555 0.764413
O O14 0.500000 0.857712 0.000000
O O15 0.600410 0.936887 0.863853
O O16 0.250000 0.000000 0.793018
O O17 0.111840 0.000000 0.903926
O O18 0.976100 0.500000 0.815070
O O19 0.000000 0.411624 0.000000
O O20 0.750000 0.000000 0.912777
#
# Coordination Sequence:
#
# PCOD9405559 Si02
#       8
#     8   8   8   8   8   4   8   4
#     4  10  23  41  57  80 113 149 189 233 282 334
#     4   9  18  34  58  86 114 148 192 240 285 333
#     4  10  21  36  56  80 108 141 178 230 284 334
#     4  10  21  38  59  81 112 154 198 239 281 338
#     4  11  21  38  59  83 112 142 184 230 281 339
#     4  11  20  33  55  82 108 140 181 226 280 341
#     4  10  21  35  56  88 121 152 187 235 290 342
#     4  11  22  36  59  85 112 146 181 228 288 343
#
# _framework density 17.919097000000001
#
# number of rings (size 3 to 8) (size 9 to 14) (size 15 to 20)
#    0.000    1.857    1.429    2.571    0.000    8.286 
#    0.000    5.000    0.000    3.429    0.000    0.000 
#    0.000    0.000    0.000    0.000    0.000    0.000 
#
# Total GULP energy -312072.978364 kJ/mol
# GULP energy per Si atom -5572.731756 kJ/mol
# Density = 1.787831 g / cm^3
# Si number density = 17.919097 Si / 1000 Ang^3
#
#
#
# Elastic Constant Matrix: (Units=GPa)
#
#
# Indices 1 2 3 4 5 6 
#
# 1 97.8802 64.3580 65.3970 0.0000 0.0000 0.0000
# 2 64.3580 70.7270 54.5138 0.0000 0.0000 0.0000
# 3 65.3970 54.5138 113.3715 0.0000 0.0000 0.0000
# 4 0.0000 0.0000 0.0000 -4.0787 0.0000 0.0000
# 5 0.0000 0.0000 0.0000 0.0000 21.9871 0.0000
# 6 0.0000 0.0000 0.0000 0.0000 0.0000 21.5472
#
#
#
# Elastic Compliance Matrix: (Units=1/GPa)
#
#
# Indices 1 2 3 4 5 6 
#
# 1 0.027915 -0.020640 -0.006178 0.000000 0.000000 0.000000
# 2 -0.020640 0.037725 -0.006234 0.000000 0.000000 0.000000
# 3 -0.006178 -0.006234 0.015382 0.000000 0.000000 0.000000
# 4 0.000000 0.000000 0.000000 -0.245177 0.000000 0.000000
# 5 0.000000 0.000000 0.000000 0.000000 0.045481 0.000000
# 6 0.000000 0.000000 0.000000 0.000000 0.000000 0.046410
#
#
# Mechanical properties :
#
#
# Convention : Reuss Voigt Hill
#
# Bulk Modulus (GPa) = 67.03095 72.27959 69.65527
# Shear Modulus (GPa) = -4209.87917 14.40513 -2097.73702
#
# Velocity S-wave (km/s) = -48.52300 2.83839 -34.25219
# Velocity P-wave (km/s) = 55.69399 7.15305 39.05544
#
# Compressibility (1/GPa) = 0.01491848
#
# Stress axis : x y z
#
# Youngs Moduli (GPa) = 35.82251 26.50774 65.01130
#
# Poissons Ratio (x) = 0.54711 0.40166
# Poissons Ratio (y) = 0.73936 0.40528
# Poissons Ratio (z) = 0.22132 0.16525
#
# Static dielectric constant tensor:
#      x y z
#    x 1.648250 0.000000 0.000000 
#    y 0.000000 1.610990 0.000000 
#    z 0.000000 0.000000 1.610450 
# 
# From -- ./inp_files/8617.got.cif
#   From: 2010.05.17/outbox.cif.g08.bks.cpg/sg51_5_cif.got.tgz:8617.got - 2010.06.03 11:52:47.
