data_PCOD9405908
_publ_section_title
;
Structure prediction by ZEFSAII (Michael W. Deem and Ramdas Pophale) SiO2 
 PCOD9405908
Probable space group: P M M A
;
_chemical_formula_sum "Si O2"
_cell_formula_units_Z 48
_cell_length_a 13.672757
_cell_length_b 8.745998
_cell_length_c 18.963451
_cell_angle_alpha 90.000000
_cell_angle_beta 90.000000
_cell_angle_gamma 90.000000
_cell_volume 2267.685603
_symmetry_space_group_name_H-M "P M M A"
_symmetry_group_IT_number 51
_symmetry_cell_setting 'orthorhombic'
loop_
_space_group_symop_operation_xyz
x,y,z
1/2-x,-y,z
1/2+x,-y,-z
-x,y,-z
-x,-y,-z
1/2+x,y,-z
1/2-x,y,z
x,-y,z
loop_
_atom_site_type_symbol
_atom_site_label
_atom_site_fract_x
_atom_site_fract_y
_atom_site_fract_z
Si Si1 0.936189 0.186258 0.895988
Si Si2 0.367874 0.326034 0.400070
Si Si3 0.368895 0.171988 0.544129
Si Si4 0.143855 0.186318 0.954412
Si Si5 0.553067 0.181237 0.742206
Si Si6 0.864309 0.319909 0.308361
O O1 0.872438 0.230851 0.963620
O O2 0.906386 0.235176 0.817843
O O3 0.936071 0.000000 0.895133
O O4 0.047623 0.236119 0.912520
O O5 0.250000 0.325828 0.401690
O O6 0.401649 0.500000 0.408184
O O7 0.401577 0.228666 0.467476
O O8 0.400049 0.260447 0.325308
O O9 0.250000 0.168063 0.540896
O O10 0.390485 0.280764 0.610168
O O11 0.402946 0.000000 0.559568
O O12 0.250000 0.238957 0.928912
O O13 0.143303 0.000000 0.952448
O O14 0.438071 0.222230 0.738589
O O15 0.566756 0.000000 0.736262
O O16 0.750000 0.281398 0.297915
O O17 0.877510 0.500000 0.295991
#
# Coordination Sequence:
#
# PCOD9405908 Si02
#       6
#     8   8   8   8   8   8
#     4   8  16  28  42  69 105 134 165 206 252 306
#     4  10  21  37  55  75 103 141 182 221 264 317
#     4   9  17  32  55  80 104 131 171 226 277 316
#     4   8  13  25  46  69  97 134 168 200 248 308
#     4  11  22  34  51  78 111 142 174 217 266 314
#     4  10  21  37  55  75 103 141 182 221 264 317
#
# _framework density 21.166955000000002
#
# number of rings (size 3 to 8) (size 9 to 14) (size 15 to 20)
#    0.000    2.667    0.000    3.000    0.000    6.000 
#    0.000    6.667    0.000    0.000    0.000    9.333 
#    0.000   16.000    0.000    0.000    0.000    0.000 
#
# Total GULP energy -268002.229926 kJ/mol
# GULP energy per Si atom -5583.379790 kJ/mol
# Density = 2.111878 g / cm^3
# Si number density = 21.166955 Si / 1000 Ang^3
#
#
#
# Elastic Constant Matrix: (Units=GPa)
#
#
# Indices 1 2 3 4 5 6 
#
# 1 40.6541 -0.0265 -16.1242 0.0000 0.0000 0.0000
# 2 -0.0265 38.0060 2.0005 0.0000 0.0000 0.0000
# 3 -16.1242 2.0005 66.0776 0.0000 0.0000 0.0000
# 4 0.0000 0.0000 0.0000 -18.6869 0.0000 0.0000
# 5 0.0000 0.0000 0.0000 0.0000 9.4469 0.0000
# 6 0.0000 0.0000 0.0000 0.0000 0.0000 22.3329
#
#
#
# Elastic Compliance Matrix: (Units=1/GPa)
#
#
# Indices 1 2 3 4 5 6 
#
# 1 0.027238 -0.000331 0.006657 0.000000 0.000000 0.000000
# 2 -0.000331 0.026358 -0.000879 0.000000 0.000000 0.000000
# 3 0.006657 -0.000879 0.016785 0.000000 0.000000 0.000000
# 4 0.000000 0.000000 0.000000 -0.053513 0.000000 0.000000
# 5 0.000000 0.000000 0.000000 0.000000 0.105855 0.000000
# 6 0.000000 0.000000 0.000000 0.000000 0.000000 0.044777
#
#
# Mechanical properties :
#
#
# Convention : Reuss Voigt Hill
#
# Bulk Modulus (GPa) = 12.30426 12.93747 12.62087
# Shear Modulus (GPa) = 27.21873 13.21111 20.21492
#
# Velocity S-wave (km/s) = 3.58984 2.50099 3.09370
# Velocity P-wave (km/s) = 4.79669 3.80333 4.32860
#
# Compressibility (1/GPa) = 0.08127263
#
# Stress axis : x y z
#
# Youngs Moduli (GPa) = 36.71385 37.93961 59.57827
#
# Poissons Ratio (x) = 0.01257 -0.39659
# Poissons Ratio (y) = 0.01217 0.05236
# Poissons Ratio (z) = -0.24439 0.03334
#
# Static dielectric constant tensor:
#      x y z
#    x 1.825950 0.000000 0.000000 
#    y 0.000000 1.716290 0.000000 
#    z 0.000000 0.000000 1.752960 
# 
# From -- ./inp_files/29402.got.cif
#   From: 2010.05.17/outbox.cif.g08.bks.cpg/sg51_15_cif.got.tgz:29402.got - 2010.06.03 11:52:47.
