data_PCOD9405163
_publ_section_title
;
Structure prediction by ZEFSAII (Michael W. Deem and Ramdas Pophale) SiO2 
 PCOD9405163
Probable space group: P M M A
;
_chemical_formula_sum "Si O2"
_cell_formula_units_Z 34
_cell_length_a 9.033999
_cell_length_b 17.234886
_cell_length_c 10.722939
_cell_angle_alpha 90.000000
_cell_angle_beta 90.000000
_cell_angle_gamma 90.000000
_cell_volume 1669.560990
_symmetry_space_group_name_H-M "P M M A"
_symmetry_group_IT_number 51
_symmetry_cell_setting 'orthorhombic'
loop_
_space_group_symop_operation_xyz
x,y,z
1/2-x,-y,z
1/2+x,-y,-z
-x,y,-z
-x,-y,-z
1/2+x,y,-z
1/2-x,y,z
x,-y,z
loop_
_atom_site_type_symbol
_atom_site_label
_atom_site_fract_x
_atom_site_fract_y
_atom_site_fract_z
Si Si1 0.428031 0.310211 0.372210
Si Si2 0.500000 0.873509 0.000000
Si Si3 0.250000 0.000000 0.052605
Si Si4 0.075108 0.841289 0.732404
Si Si5 0.931216 0.000000 0.638110
Si Si6 0.927302 0.590729 0.871723
O O1 0.500000 0.340202 0.500000
O O2 0.250000 0.306492 0.383078
O O3 0.495563 0.225435 0.345608
O O4 0.467644 0.362165 0.252166
O O5 0.625821 0.931688 0.955193
O O6 0.447001 0.826114 0.879678
O O7 0.250000 0.846010 0.704373
O O8 0.997922 0.923256 0.701431
O O9 0.000000 0.000000 0.500000
O O10 0.750000 0.000000 0.644771
O O11 0.750000 0.595362 0.884790
O O12 0.968242 0.500000 0.856545
O O13 0.000000 0.619355 0.000000
#
# Coordination Sequence:
#
# PCOD9405163 Si02
#       6
#     8   4   2   8   4   8
#     4  11  25  44  66  95 134 174 218 269 324 388
#     4  11  24  38  62  90 121 158 200 270 325 392
#     4  10  20  38  58  84 122 150 210 266 336 380
#     4  12  26  42  63  89 126 168 215 266 323 384
#     4  12  26  43  65  86 116 161 215 267 323 384
#     4   9  20  41  70 102 135 171 214 263 318 385
#
# _framework density 20.364633999999999
#
# number of rings (size 3 to 8) (size 9 to 14) (size 15 to 20)
#    0.000    1.176    1.176    4.588    6.588    2.353 
#    0.000    0.000    0.000    0.000    0.000    0.000 
#    0.000    0.000    0.000    0.000    0.000    0.000 
#
# Total GULP energy -189517.303815 kJ/mol
# GULP energy per Si atom -5574.038348 kJ/mol
# Density = 2.031828 g / cm^3
# Si number density = 20.364634 Si / 1000 Ang^3
#
#
#
# Elastic Constant Matrix: (Units=GPa)
#
#
# Indices 1 2 3 4 5 6 
#
# 1 138.6871 43.9776 58.6540 0.0000 0.0000 0.0000
# 2 43.9776 76.6330 60.2840 0.0000 0.0000 0.0000
# 3 58.6540 60.2840 175.4826 0.0000 0.0000 0.0000
# 4 0.0000 0.0000 0.0000 19.5712 0.0000 0.0000
# 5 0.0000 0.0000 0.0000 0.0000 -160.1213 0.0000
# 6 0.0000 0.0000 0.0000 0.0000 0.0000 20.6716
#
#
#
# Elastic Compliance Matrix: (Units=1/GPa)
#
#
# Indices 1 2 3 4 5 6 
#
# 1 0.009180 -0.003912 -0.001725 0.000000 0.000000 0.000000
# 2 -0.003912 0.019548 -0.005408 0.000000 0.000000 0.000000
# 3 -0.001725 -0.005408 0.008133 0.000000 0.000000 0.000000
# 4 0.000000 0.000000 0.000000 0.051096 0.000000 0.000000
# 5 0.000000 0.000000 0.000000 0.000000 -0.006245 0.000000
# 6 0.000000 0.000000 0.000000 0.000000 0.000000 0.048376
#
#
# Mechanical properties :
#
#
# Convention : Reuss Voigt Hill
#
# Bulk Modulus (GPa) = 67.69211 79.62600 73.65905
# Shear Modulus (GPa) = 31.82688 -8.78322 11.52183
#
# Velocity S-wave (km/s) = 3.95758 -2.07902 2.38119
# Velocity P-wave (km/s) = 7.36176 5.78117 6.61881
#
# Compressibility (1/GPa) = 0.01477277
#
# Stress axis : x y z
#
# Youngs Moduli (GPa) = 108.92968 51.15562 122.95776
#
# Poissons Ratio (x) = 0.20010 0.21207
# Poissons Ratio (y) = 0.42608 0.66496
# Poissons Ratio (z) = 0.18787 0.27665
#
# Static dielectric constant tensor:
#      x y z
#    x 1.685080 0.000000 0.000000 
#    y 0.000000 1.706470 0.000000 
#    z 0.000000 0.000000 1.787850 
# 
# From -- ./inp_files/13846.got.cif
#   From: 2010.05.17/outbox.cif.g08.bks.cpg/sg51_7_cif.got.tgz:13846.got - 2010.06.03 11:52:47.
