data_PCOD9405742
_publ_section_title
;
Structure prediction by ZEFSAII (Michael W. Deem and Ramdas Pophale) SiO2 
 PCOD9405742
Probable space group: P M M A
;
_chemical_formula_sum "Si O2"
_cell_formula_units_Z 56
_cell_length_a 9.049263
_cell_length_b 19.464050
_cell_length_c 18.735450
_cell_angle_alpha 90.000000
_cell_angle_beta 90.000000
_cell_angle_gamma 90.000000
_cell_volume 3299.974247
_symmetry_space_group_name_H-M "P M M A"
_symmetry_group_IT_number 51
_symmetry_cell_setting 'orthorhombic'
loop_
_space_group_symop_operation_xyz
x,y,z
1/2-x,-y,z
1/2+x,-y,-z
-x,y,-z
-x,-y,-z
1/2+x,y,-z
1/2-x,y,z
x,-y,z
loop_
_atom_site_type_symbol
_atom_site_label
_atom_site_fract_x
_atom_site_fract_y
_atom_site_fract_z
Si Si1 0.425978 0.214087 0.648066
Si Si2 0.572721 0.354974 0.425324
Si Si3 0.926687 0.921480 0.847868
Si Si4 0.572735 0.923265 0.678990
Si Si5 0.572938 0.701189 0.209940
Si Si6 0.925718 0.420270 0.713004
Si Si7 0.073423 0.206218 0.924193
O O1 0.250000 0.203964 0.646767
O O2 0.462895 0.275109 0.593153
O O3 0.503992 0.141335 0.638752
O O4 0.465096 0.245941 0.725834
O O5 0.500000 0.374419 0.500000
O O6 0.750000 0.361982 0.426906
O O7 0.506322 0.398899 0.360424
O O8 0.750000 0.910699 0.854867
O O9 0.963208 0.915821 0.763509
O O10 0.013018 0.865554 0.893105
O O11 0.959013 0.000000 0.869626
O O12 0.750000 0.920957 0.673279
O O13 0.523847 0.000000 0.656645
O O14 0.750000 0.690034 0.214184
O O15 0.489364 0.631049 0.227477
O O16 0.536710 0.736194 0.135010
O O17 0.750000 0.410028 0.705052
O O18 0.953436 0.500000 0.728979
O O19 0.250000 0.202945 0.930916
O O20 0.000000 0.220373 0.000000
#
# Coordination Sequence:
#
# PCOD9405742 Si02
#       7
#     8   8   8   8   8   8   8
#     4   9  17  31  50  73  99 129 169 214 256 301
#     4  10  21  36  54  79 111 143 175 207 246 298
#     4   9  18  32  48  69  99 134 173 216 263 313
#     4   9  17  28  45  71  99 128 167 214 261 306
#     4   9  19  35  53  75 103 133 170 213 255 304
#     4  10  21  36  57  85 111 137 169 203 245 298
#     4  11  22  35  51  73 101 135 176 218 264 313
#
# _framework density 16.969830999999999
#
# number of rings (size 3 to 8) (size 9 to 14) (size 15 to 20)
#    0.000    2.429    1.429    3.000    0.000    6.286 
#    0.000    1.429    0.000    0.857    0.000    0.000 
#    0.000    0.000    0.000    0.000    0.000    0.000 
#
# Total GULP energy -312373.558049 kJ/mol
# GULP energy per Si atom -5578.099251 kJ/mol
# Density = 1.693121 g / cm^3
# Si number density = 16.969831 Si / 1000 Ang^3
#
#
#
# Elastic Constant Matrix: (Units=GPa)
#
#
# Indices 1 2 3 4 5 6 
#
# 1 43.9769 52.4026 28.9186 0.0000 0.0000 0.0000
# 2 52.4026 117.6620 28.8902 0.0000 0.0000 0.0000
# 3 28.9186 28.8902 46.0939 0.0000 0.0000 0.0000
# 4 0.0000 0.0000 0.0000 13.9872 0.0000 0.0000
# 5 0.0000 0.0000 0.0000 0.0000 23.3670 0.0000
# 6 0.0000 0.0000 0.0000 0.0000 0.0000 30.6173
#
#
#
# Elastic Compliance Matrix: (Units=1/GPa)
#
#
# Indices 1 2 3 4 5 6 
#
# 1 0.071266 -0.024538 -0.029332 0.000000 0.000000 0.000000
# 2 -0.024538 0.018493 0.003803 0.000000 0.000000 0.000000
# 3 -0.029332 0.003803 0.037713 0.000000 0.000000 0.000000
# 4 0.000000 0.000000 0.000000 0.071494 0.000000 0.000000
# 5 0.000000 0.000000 0.000000 0.000000 0.042795 0.000000
# 6 0.000000 0.000000 0.000000 0.000000 0.000000 0.032661
#
#
# Mechanical properties :
#
#
# Convention : Reuss Voigt Hill
#
# Bulk Modulus (GPa) = 36.57536 47.57286 42.07411
# Shear Modulus (GPa) = 13.03207 20.09573 16.56390
#
# Velocity S-wave (km/s) = 2.77421 3.44496 3.12762
# Velocity P-wave (km/s) = 5.64461 6.62709 6.15548
#
# Compressibility (1/GPa) = 0.02734081
#
# Stress axis : x y z
#
# Youngs Moduli (GPa) = 14.03189 54.07392 26.51586
#
# Poissons Ratio (x) = 1.32684 0.77776
# Poissons Ratio (y) = 0.34431 -0.10085
# Poissons Ratio (z) = 0.41158 -0.20567
#
# Static dielectric constant tensor:
#      x y z
#    x 1.563350 0.000000 0.000000 
#    y 0.000000 1.571070 0.000000 
#    z 0.000000 0.000000 1.557630 
# 
# From -- ./inp_files/32244.got.cif
#   From: 2010.05.17/outbox.cif.g08.bks.cpg/sg51_17_cif.got.tgz:32244.got - 2010.06.03 11:52:47.
