data_PCOD9405341
_publ_section_title
;
Structure prediction by ZEFSAII (Michael W. Deem and Ramdas Pophale) SiO2 
 PCOD9405341
Probable space group: P M M A
;
_chemical_formula_sum "Si O2"
_cell_formula_units_Z 64
_cell_length_a 15.026690
_cell_length_b 7.858287
_cell_length_c 27.338865
_cell_angle_alpha 90.000000
_cell_angle_beta 90.000000
_cell_angle_gamma 90.000000
_cell_volume 3228.283701
_symmetry_space_group_name_H-M "P M M A"
_symmetry_group_IT_number 51
_symmetry_cell_setting 'orthorhombic'
loop_
_space_group_symop_operation_xyz
x,y,z
1/2-x,-y,z
1/2+x,-y,-z
-x,y,-z
-x,-y,-z
1/2+x,y,-z
1/2-x,y,z
x,-y,z
loop_
_atom_site_type_symbol
_atom_site_label
_atom_site_fract_x
_atom_site_fract_y
_atom_site_fract_z
Si Si1 0.352376 0.207601 0.501308
Si Si2 0.351476 0.702528 0.757344
Si Si3 0.645577 0.294972 0.875590
Si Si4 0.647585 0.794208 0.133598
Si Si5 0.991200 0.199891 0.054305
Si Si6 0.998344 0.208182 0.577275
Si Si7 0.506864 0.801416 0.687516
Si Si8 0.650177 0.297040 0.766995
O O1 0.250000 0.266538 0.501530
O O2 0.411298 0.258017 0.454101
O O3 0.412819 0.260354 0.547714
O O4 0.349945 0.000000 0.501508
O O5 0.250000 0.766940 0.754001
O O6 0.351010 0.500000 0.751391
O O7 0.383971 0.740858 0.812387
O O8 0.414782 0.776911 0.716192
O O9 0.750000 0.256949 0.882297
O O10 0.635230 0.500000 0.878097
O O11 0.582968 0.216635 0.916370
O O12 0.620512 0.234226 0.820707
O O13 0.750000 0.736963 0.128082
O O14 0.584761 0.728478 0.090321
O O15 0.646919 0.000000 0.132806
O O16 0.969371 0.000000 0.048321
O O17 0.000000 0.274682 0.000000
O O18 0.995577 0.271702 0.632801
O O19 0.999819 0.000000 0.577419
O O20 0.583029 0.734712 0.723365
O O21 0.524344 0.000000 0.681874
O O22 0.750000 0.231346 0.757092
O O23 0.656650 0.500000 0.772602
#
# Coordination Sequence:
#
# PCOD9405341 Si02
#       8
#     8   8   8   8   8   8   8   8
#     4   8  13  25  44  61  86 128 168 200 239 288
#     4  10  21  36  53  73  98 132 173 210 247 297
#     4   9  19  36  55  73  95 127 168 210 247 285
#     4   9  18  34  54  74  99 131 166 205 248 294
#     4  10  21  34  50  76 105 131 160 196 245 302
#     4   8  16  27  39  65  99 127 160 199 243 294
#     4  11  21  31  48  77 111 137 160 203 256 301
#     4   9  19  36  55  74 100 136 173 206 245 296
#
# _framework density 19.824776
#
# number of rings (size 3 to 8) (size 9 to 14) (size 15 to 20)
#    0.000    2.750    0.000    3.000    0.000    6.000 
#    0.000    5.000    0.000    1.500    0.000    7.000 
#    0.000   12.000    0.000    0.000    0.000    0.000 
#
# Total GULP energy -357006.357088 kJ/mol
# GULP energy per Si atom -5578.224330 kJ/mol
# Density = 1.977965 g / cm^3
# Si number density = 19.824776 Si / 1000 Ang^3
#
#
#
# Elastic Constant Matrix: (Units=GPa)
#
#
# Indices 1 2 3 4 5 6 
#
# 1 100.3802 -10.2744 72.2263 0.0000 0.0000 0.0000
# 2 -10.2744 14.9829 -6.4913 0.0000 0.0000 0.0000
# 3 72.2263 -6.4913 176.8406 0.0000 0.0000 0.0000
# 4 0.0000 0.0000 0.0000 8.6781 0.0000 0.0000
# 5 0.0000 0.0000 0.0000 0.0000 137.3491 0.0000
# 6 0.0000 0.0000 0.0000 0.0000 0.0000 17.7379
#
#
#
# Elastic Compliance Matrix: (Units=1/GPa)
#
#
# Indices 1 2 3 4 5 6 
#
# 1 0.014939 0.007724 -0.005818 0.000000 0.000000 0.000000
# 2 0.007724 0.071815 -0.000518 0.000000 0.000000 0.000000
# 3 -0.005818 -0.000518 0.008012 0.000000 0.000000 0.000000
# 4 0.000000 0.000000 0.000000 0.115232 0.000000 0.000000
# 5 0.000000 0.000000 0.000000 0.000000 0.007281 0.000000
# 6 0.000000 0.000000 0.000000 0.000000 0.000000 0.056376
#
#
# Mechanical properties :
#
#
# Convention : Reuss Voigt Hill
#
# Bulk Modulus (GPa) = 10.25220 44.79165 27.52193
# Shear Modulus (GPa) = 16.48026 48.53591 32.50808
#
# Velocity S-wave (km/s) = 2.88635 4.95334 4.05380
# Velocity P-wave (km/s) = 4.03617 7.44023 5.98530
#
# Compressibility (1/GPa) = 0.09754003
#
# Stress axis : x y z
#
# Youngs Moduli (GPa) = 66.93980 13.92472 124.81348
#
# Poissons Ratio (x) = -0.10755 0.72615
# Poissons Ratio (y) = -0.51701 0.06470
# Poissons Ratio (z) = 0.38945 0.00722
#
# Static dielectric constant tensor:
#      x y z
#    x 1.698360 0.000000 0.000000 
#    y 0.000000 1.717690 0.000000 
#    z 0.000000 0.000000 1.702560 
# 
# From -- ./inp_files/35624.got.cif
#   From: 2010.05.17/outbox.cif.g08.bks.cpg/sg51_18_cif.got.tgz:35624.got - 2010.06.03 11:52:47.
