data_PCOD9405521
_publ_section_title
;
Structure prediction by ZEFSAII (Michael W. Deem and Ramdas Pophale) SiO2 
 PCOD9405521
Probable space group: P M M A
;
_chemical_formula_sum "Si O2"
_cell_formula_units_Z 48
_cell_length_a 9.687297
_cell_length_b 7.826622
_cell_length_c 29.634603
_cell_angle_alpha 90.000000
_cell_angle_beta 90.000000
_cell_angle_gamma 90.000000
_cell_volume 2246.860388
_symmetry_space_group_name_H-M "P M M A"
_symmetry_group_IT_number 51
_symmetry_cell_setting 'orthorhombic'
loop_
_space_group_symop_operation_xyz
x,y,z
1/2-x,-y,z
1/2+x,-y,-z
-x,y,-z
-x,-y,-z
1/2+x,y,-z
1/2-x,y,z
x,-y,z
loop_
_atom_site_type_symbol
_atom_site_label
_atom_site_fract_x
_atom_site_fract_y
_atom_site_fract_z
Si Si1 0.093637 0.796075 0.285859
Si Si2 0.543503 0.301077 0.105319
Si Si3 0.250000 0.206634 0.072185
Si Si4 0.401094 0.293321 0.794467
Si Si5 0.909926 0.790884 0.369440
Si Si6 0.250000 0.802291 0.970837
Si Si7 0.089245 0.208662 0.456506
O O1 0.250000 0.727786 0.288990
O O2 0.023516 0.764547 0.237684
O O3 0.989491 0.731532 0.324485
O O4 0.102449 0.000000 0.292376
O O5 0.578194 0.500000 0.106736
O O6 0.383866 0.271450 0.097566
O O7 0.585788 0.229274 0.154018
O O8 0.620673 0.233349 0.061225
O O9 0.250000 0.000000 0.073021
O O10 0.250000 0.277176 0.020567
O O11 0.250000 0.240365 0.776651
O O12 0.404851 0.500000 0.795548
O O13 0.750000 0.734765 0.371928
O O14 0.003611 0.739899 0.412134
O O15 0.906587 0.000000 0.369191
O O16 0.250000 0.000000 0.980611
O O17 0.250000 0.264703 0.456940
O O18 0.000000 0.262131 0.500000
O O19 0.092914 0.000000 0.456828
#
# Coordination Sequence:
#
# PCOD9405521 Si02
#       7
#     8   8   4   8   8   4   8
#     4  10  21  35  53  80 109 139 178 223 274 333
#     4  11  23  41  63  87 115 152 195 235 280 339
#     4  11  25  41  59  89 125 153 187 233 286 337
#     4  10  22  41  60  80 108 141 180 227 275 324
#     4   9  16  27  43  64  95 134 176 223 273 327
#     4  11  23  41  63  89 121 155 187 233 286 335
#     4   9  15  22  34  55  87 130 178 225 275 331
#
# _framework density 21.363143000000001
#
# number of rings (size 3 to 8) (size 9 to 14) (size 15 to 20)
#    0.000    2.000    0.833    3.000    1.167   10.000 
#    0.000    0.000    0.000    0.000    0.000    0.000 
#    0.000    0.667    0.000    2.500    0.000    5.500 
#
# Total GULP energy -268064.262676 kJ/mol
# GULP energy per Si atom -5584.672139 kJ/mol
# Density = 2.131452 g / cm^3
# Si number density = 21.363143 Si / 1000 Ang^3
#
#
#
# Elastic Constant Matrix: (Units=GPa)
#
#
# Indices 1 2 3 4 5 6 
#
# 1 203.0754 -1.4127 65.5563 0.0000 0.0000 0.0000
# 2 -1.4127 22.0386 0.1334 0.0000 0.0000 0.0000
# 3 65.5563 0.1334 120.1313 0.0000 0.0000 0.0000
# 4 0.0000 0.0000 0.0000 21.1940 0.0000 0.0000
# 5 0.0000 0.0000 0.0000 0.0000 32.1570 0.0000
# 6 0.0000 0.0000 0.0000 0.0000 0.0000 14.6530
#
#
#
# Elastic Compliance Matrix: (Units=1/GPa)
#
#
# Indices 1 2 3 4 5 6 
#
# 1 0.005981 0.000403 -0.003264 0.000000 0.000000 0.000000
# 2 0.000403 0.045402 -0.000270 0.000000 0.000000 0.000000
# 3 -0.003264 -0.000270 0.010106 0.000000 0.000000 0.000000
# 4 0.000000 0.000000 0.000000 0.047183 0.000000 0.000000
# 5 0.000000 0.000000 0.000000 0.000000 0.031097 0.000000
# 6 0.000000 0.000000 0.000000 0.000000 0.000000 0.068246
#
#
# Mechanical properties :
#
#
# Convention : Reuss Voigt Hill
#
# Bulk Modulus (GPa) = 18.10741 52.64437 35.37589
# Shear Modulus (GPa) = 21.48811 32.33201 26.91006
#
# Velocity S-wave (km/s) = 3.17495 3.89453 3.55300
# Velocity P-wave (km/s) = 4.68347 6.70218 5.78161
#
# Compressibility (1/GPa) = 0.05522601
#
# Stress axis : x y z
#
# Youngs Moduli (GPa) = 167.20076 22.02531 98.95277
#
# Poissons Ratio (x) = -0.00888 0.32300
# Poissons Ratio (y) = -0.06740 0.02676
# Poissons Ratio (z) = 0.54578 0.00596
#
# Static dielectric constant tensor:
#      x y z
#    x 1.786950 0.000000 0.000000 
#    y 0.000000 1.794630 0.000000 
#    z 0.000000 0.000000 1.765850 
# 
# From -- ./inp_files/37147.got.cif
#   From: 2010.05.17/outbox.cif.g08.bks.cpg/sg51_19_cif.got.tgz:37147.got - 2010.06.03 11:52:47.
