data_PCOD9405008
_publ_section_title
;
Structure prediction by ZEFSAII (Michael W. Deem and Ramdas Pophale) SiO2 
 PCOD9405008
Probable space group: P M M A
;
_chemical_formula_sum "Si O2"
_cell_formula_units_Z 40
_cell_length_a 8.499935
_cell_length_b 26.798608
_cell_length_c 9.454854
_cell_angle_alpha 90.000000
_cell_angle_beta 90.000000
_cell_angle_gamma 90.000000
_cell_volume 2153.687402
_symmetry_space_group_name_H-M "P M M A"
_symmetry_group_IT_number 51
_symmetry_cell_setting 'orthorhombic'
loop_
_space_group_symop_operation_xyz
x,y,z
1/2-x,-y,z
1/2+x,-y,-z
-x,y,-z
-x,-y,-z
1/2+x,y,-z
1/2-x,y,z
x,-y,z
loop_
_atom_site_type_symbol
_atom_site_label
_atom_site_fract_x
_atom_site_fract_y
_atom_site_fract_z
Si Si1 0.062471 0.906546 0.840054
Si Si2 0.437660 0.000000 0.339609
Si Si3 0.059519 0.391679 0.160263
Si Si4 0.560216 0.500000 0.838360
Si Si5 0.439758 0.701919 0.341730
Si Si6 0.439341 0.185285 0.339706
O O1 0.250000 0.909337 0.842080
O O2 0.996703 0.951613 0.745078
O O3 0.008348 0.855366 0.766049
O O4 0.000000 0.910019 0.000000
O O5 0.500000 0.000000 0.500000
O O6 0.250000 0.000000 0.343130
O O7 0.250000 0.390687 0.159281
O O8 0.009884 0.446086 0.221621
O O9 0.002745 0.343516 0.245479
O O10 0.000000 0.388896 0.000000
O O11 0.750000 0.500000 0.839243
O O12 0.500000 0.500000 0.000000
O O13 0.500000 0.694629 0.500000
O O14 0.250000 0.700898 0.342250
O O15 0.486162 0.758100 0.297702
O O16 0.500000 0.176718 0.500000
O O17 0.250000 0.181788 0.340193
#
# Coordination Sequence:
#
# PCOD9405008 Si02
#       6
#     8   4   8   4   8   8
#     4  12  25  42  62  88 119 151 185 228 276 322
#     4  12  25  44  67  92 120 154 192 228 267 320
#     4   9  17  30  48  72  98 130 170 216 264 317
#     4   8  14  26  45  66  94 128 166 210 261 314
#     4   9  19  34  52  74 104 138 176 217 264 317
#     4  10  20  37  58  81 108 144 185 226 270 325
#
# _framework density 18.572797000000001
#
# number of rings (size 3 to 8) (size 9 to 14) (size 15 to 20)
#    0.000    2.000    0.000    4.200    0.000    2.400 
#    0.000    2.500    0.000    0.000    0.000    0.000 
#    0.000    0.000    0.000    0.000    0.000    0.000 
#
# Total GULP energy -223221.891731 kJ/mol
# GULP energy per Si atom -5580.547293 kJ/mol
# Density = 1.853052 g / cm^3
# Si number density = 18.572797 Si / 1000 Ang^3
#
#
#
# Elastic Constant Matrix: (Units=GPa)
#
#
# Indices 1 2 3 4 5 6 
#
# 1 81.6718 54.0578 41.6643 0.0000 0.0000 0.0000
# 2 54.0578 209.5307 115.9283 0.0000 0.0000 0.0000
# 3 41.6643 115.9283 116.7867 0.0000 0.0000 0.0000
# 4 0.0000 0.0000 0.0000 37.2512 0.0000 0.0000
# 5 0.0000 0.0000 0.0000 0.0000 31.1261 0.0000
# 6 0.0000 0.0000 0.0000 0.0000 0.0000 46.6648
#
#
#
# Elastic Compliance Matrix: (Units=1/GPa)
#
#
# Indices 1 2 3 4 5 6 
#
# 1 0.015361 -0.002065 -0.003430 0.000000 0.000000 0.000000
# 2 -0.002065 0.010865 -0.010048 0.000000 0.000000 0.000000
# 3 -0.003430 -0.010048 0.019761 0.000000 0.000000 0.000000
# 4 0.000000 0.000000 0.000000 0.026845 0.000000 0.000000
# 5 0.000000 0.000000 0.000000 0.000000 0.032127 0.000000
# 6 0.000000 0.000000 0.000000 0.000000 0.000000 0.021429
#
#
# Mechanical properties :
#
#
# Convention : Reuss Voigt Hill
#
# Bulk Modulus (GPa) = 67.11657 92.36558 79.74107
# Shear Modulus (GPa) = 30.78040 36.09768 33.43904
#
# Velocity S-wave (km/s) = 4.07539 4.41339 4.24775
# Velocity P-wave (km/s) = 7.63941 8.70691 8.19057
#
# Compressibility (1/GPa) = 0.01489945
#
# Stress axis : x y z
#
# Youngs Moduli (GPa) = 65.10031 92.04048 50.60597
#
# Poissons Ratio (x) = 0.19009 0.17358
# Poissons Ratio (y) = 0.13445 0.50849
# Poissons Ratio (z) = 0.22329 0.92483
#
# Static dielectric constant tensor:
#      x y z
#    x 1.623990 0.000000 0.000000 
#    y 0.000000 1.683740 0.000000 
#    z 0.000000 0.000000 1.610850 
# 
# From -- ./inp_files/5631.got.cif
#   From: 2010.05.17/outbox.cif.g08.bks.cpg/sg51_3_cif.got.tgz:5631.got - 2010.06.03 11:52:47.
