data_PCOD9405820
_publ_section_title
;
Structure prediction by ZEFSAII (Michael W. Deem and Ramdas Pophale) SiO2 
 PCOD9405820
Probable space group: P M M A
;
_chemical_formula_sum "Si O2"
_cell_formula_units_Z 64
_cell_length_a 15.075225
_cell_length_b 7.827648
_cell_length_c 25.082174
_cell_angle_alpha 90.000000
_cell_angle_beta 90.000000
_cell_angle_gamma 90.000000
_cell_volume 2959.785695
_symmetry_space_group_name_H-M "P M M A"
_symmetry_group_IT_number 51
_symmetry_cell_setting 'orthorhombic'
loop_
_space_group_symop_operation_xyz
x,y,z
1/2-x,-y,z
1/2+x,-y,-z
-x,y,-z
-x,-y,-z
1/2+x,y,-z
1/2-x,y,z
x,-y,z
loop_
_atom_site_type_symbol
_atom_site_label
_atom_site_fract_x
_atom_site_fract_y
_atom_site_fract_z
Si Si1 0.541629 0.792466 0.257038
Si Si2 0.022342 0.303901 0.942720
Si Si3 0.848251 0.296989 0.470887
Si Si4 0.649127 0.293047 0.591820
Si Si5 0.351428 0.705888 0.849936
Si Si6 0.037653 0.199300 0.628766
Si Si7 0.153510 0.798303 0.110569
Si Si8 0.844993 0.797272 0.761430
O O1 0.597397 0.745204 0.205039
O O2 0.575520 0.733052 0.315043
O O3 0.440379 0.725874 0.254078
O O4 0.538059 0.000000 0.257356
O O5 0.050830 0.500000 0.953262
O O6 0.093996 0.227909 0.901494
O O7 0.929324 0.300979 0.911934
O O8 0.000000 0.222354 0.000000
O O9 0.750000 0.232057 0.455438
O O10 0.841964 0.500000 0.477410
O O11 0.868418 0.233466 0.530612
O O12 0.918855 0.269317 0.424807
O O13 0.750000 0.241234 0.605744
O O14 0.645976 0.500000 0.593714
O O15 0.568357 0.225598 0.626665
O O16 0.250000 0.767766 0.848602
O O17 0.349931 0.500000 0.854187
O O18 0.056434 0.000000 0.627655
O O19 0.250000 0.741964 0.090101
O O20 0.155251 0.784733 0.174393
O O21 0.142735 0.000000 0.098246
O O22 0.750000 0.725237 0.741928
O O23 0.844868 0.000000 0.748230
#
# Coordination Sequence:
#
# PCOD9405820 Si02
#       8
#     8   8   8   8   8   8   8   8
#     4  10  21  37  56  79 109 146 185 224 269 325
#     4  10  21  36  56  83 113 144 177 219 273 329
#     4   9  19  37  59  79 103 144 194 235 276 330
#     4   9  19  37  59  81 108 146 190 232 274 328
#     4  10  22  40  59  79 107 145 188 230 271 318
#     4  11  23  34  51  84 118 145 179 229 286 338
#     4   9  17  31  54  81 106 135 173 215 259 311
#     4   8  14  28  52  76  98 130 169 209 257 311
#
# _framework density 21.623187000000001
#
# number of rings (size 3 to 8) (size 9 to 14) (size 15 to 20)
#    0.000    2.500    1.250    2.250    0.000    5.750 
#    0.000    6.250    0.000    0.375    0.000    0.000 
#    0.000    0.000    0.000    0.000    0.000    0.000 
#
# Total GULP energy -356912.014108 kJ/mol
# GULP energy per Si atom -5576.750220 kJ/mol
# Density = 2.157397 g / cm^3
# Si number density = 21.623187 Si / 1000 Ang^3
#
#
#
# Elastic Constant Matrix: (Units=GPa)
#
#
# Indices 1 2 3 4 5 6 
#
# 1 112.3372 -6.1409 57.1431 0.0000 0.0000 0.0000
# 2 -6.1409 21.9052 2.6355 0.0000 0.0000 0.0000
# 3 57.1431 2.6355 123.6685 0.0000 0.0000 0.0000
# 4 0.0000 0.0000 0.0000 6.9503 0.0000 0.0000
# 5 0.0000 0.0000 0.0000 0.0000 -7.5464 0.0000
# 6 0.0000 0.0000 0.0000 0.0000 0.0000 26.2788
#
#
#
# Elastic Compliance Matrix: (Units=1/GPa)
#
#
# Indices 1 2 3 4 5 6 
#
# 1 0.011983 0.004036 -0.005623 0.000000 0.000000 0.000000
# 2 0.004036 0.047128 -0.002869 0.000000 0.000000 0.000000
# 3 -0.005623 -0.002869 0.010745 0.000000 0.000000 0.000000
# 4 0.000000 0.000000 0.000000 0.143878 0.000000 0.000000
# 5 0.000000 0.000000 0.000000 0.000000 -0.132514 0.000000
# 6 0.000000 0.000000 0.000000 0.000000 0.000000 0.038053
#
#
# Mechanical properties :
#
#
# Convention : Reuss Voigt Hill
#
# Bulk Modulus (GPa) = 16.40868 40.57625 28.49247
# Shear Modulus (GPa) = 33.67019 18.75479 26.21249
#
# Velocity S-wave (km/s) = 3.95033 2.94827 3.48550
# Velocity P-wave (km/s) = 5.33027 5.51322 5.42252
#
# Compressibility (1/GPa) = 0.06094335
#
# Stress axis : x y z
#
# Youngs Moduli (GPa) = 83.45500 21.21891 93.06358
#
# Poissons Ratio (x) = -0.08563 0.52327
# Poissons Ratio (y) = -0.33680 0.26701
# Poissons Ratio (z) = 0.46924 0.06088
#
# Static dielectric constant tensor:
#      x y z
#    x 1.797410 0.000000 0.000000 
#    y 0.000000 1.793440 0.000000 
#    z 0.000000 0.000000 1.807040 
# 
# From -- ./inp_files/35654.got.cif
#   From: 2010.05.17/outbox.cif.g08.bks.cpg/sg51_18_cif.got.tgz:35654.got - 2010.06.03 11:52:47.
