data_PCOD9405462
_publ_section_title
;
Structure prediction by ZEFSAII (Michael W. Deem and Ramdas Pophale) SiO2 
 PCOD9405462
Probable space group: P M M A
;
_chemical_formula_sum "Si O2"
_cell_formula_units_Z 40
_cell_length_a 13.596585
_cell_length_b 7.903214
_cell_length_c 16.182955
_cell_angle_alpha 90.000000
_cell_angle_beta 90.000000
_cell_angle_gamma 90.000000
_cell_volume 1738.967279
_symmetry_space_group_name_H-M "P M M A"
_symmetry_group_IT_number 51
_symmetry_cell_setting 'orthorhombic'
loop_
_space_group_symop_operation_xyz
x,y,z
1/2-x,-y,z
1/2+x,-y,-z
-x,y,-z
-x,-y,-z
1/2+x,y,-z
1/2-x,y,z
x,-y,z
loop_
_atom_site_type_symbol
_atom_site_label
_atom_site_fract_x
_atom_site_fract_y
_atom_site_fract_z
Si Si1 0.440905 0.802464 0.290152
Si Si2 0.137736 0.301641 0.646108
Si Si3 0.140619 0.303025 0.936198
Si Si4 0.074271 0.801794 0.111409
Si Si5 0.367236 0.802493 0.462341
O O1 0.558668 0.789402 0.297068
O O2 0.404422 0.732850 0.202944
O O3 0.403547 0.725470 0.376117
O O4 0.411693 0.000000 0.290947
O O5 0.250000 0.238930 0.653961
O O6 0.136675 0.500000 0.665646
O O7 0.106256 0.278281 0.550088
O O8 0.250000 0.239442 0.914027
O O9 0.134764 0.500000 0.911831
O O10 0.043912 0.212346 0.901303
O O11 0.126207 0.289672 0.035357
O O12 0.100925 0.000000 0.106881
O O13 0.250000 0.797256 0.458747
O O14 0.397578 0.000000 0.466164
#
# Coordination Sequence:
#
# PCOD9405462 Si02
#       5
#     8   8   8   8   8
#     4  10  21  35  53  79 107 136 172 214 261 309
#     4  10  21  35  51  74 104 139 179 219 259 304
#     4  10  21  38  59  80 106 141 175 210 259 318
#     4  10  21  36  56  83 110 136 173 220 263 310
#     4   9  18  34  54  74 101 138 176 214 258 308
#
# _framework density 23.002158000000001
#
# number of rings (size 3 to 8) (size 9 to 14) (size 15 to 20)
#    0.000    2.200    0.000    3.600    0.000    9.200 
#    0.000    6.000    0.000    2.400    0.000    0.000 
#    0.000    0.000    0.000    0.000    0.000    0.000 
#
# Total GULP energy -223397.919374 kJ/mol
# GULP energy per Si atom -5584.947984 kJ/mol
# Density = 2.294980 g / cm^3
# Si number density = 23.002158 Si / 1000 Ang^3
#
#
#
# Elastic Constant Matrix: (Units=GPa)
#
#
# Indices 1 2 3 4 5 6 
#
# 1 32.3663 -10.8802 -4.9702 0.0000 0.0000 0.0000
# 2 -10.8802 36.1802 -8.2821 0.0000 0.0000 0.0000
# 3 -4.9702 -8.2821 70.3936 0.0000 0.0000 0.0000
# 4 0.0000 0.0000 0.0000 32.6101 0.0000 0.0000
# 5 0.0000 0.0000 0.0000 0.0000 6.5158 0.0000
# 6 0.0000 0.0000 0.0000 0.0000 0.0000 15.1856
#
#
#
# Elastic Compliance Matrix: (Units=1/GPa)
#
#
# Indices 1 2 3 4 5 6 
#
# 1 0.035359 0.011515 0.003851 0.000000 0.000000 0.000000
# 2 0.011515 0.032154 0.004596 0.000000 0.000000 0.000000
# 3 0.003851 0.004596 0.015019 0.000000 0.000000 0.000000
# 4 0.000000 0.000000 0.000000 0.030665 0.000000 0.000000
# 5 0.000000 0.000000 0.000000 0.000000 0.153473 0.000000
# 6 0.000000 0.000000 0.000000 0.000000 0.000000 0.065852
#
#
# Mechanical properties :
#
#
# Convention : Reuss Voigt Hill
#
# Bulk Modulus (GPa) = 8.16621 10.07499 9.12060
# Shear Modulus (GPa) = 14.99629 21.73382 18.36505
#
# Velocity S-wave (km/s) = 2.55610 3.07719 2.82867
# Velocity P-wave (km/s) = 3.50278 4.12493 3.82652
#
# Compressibility (1/GPa) = 0.12245575
#
# Stress axis : x y z
#
# Youngs Moduli (GPa) = 28.28167 31.10001 66.58448
#
# Poissons Ratio (x) = -0.35811 -0.25644
# Poissons Ratio (y) = -0.32566 -0.30603
# Poissons Ratio (z) = -0.10892 -0.14294
#
# Static dielectric constant tensor:
#      x y z
#    x 1.878060 0.000000 0.000000 
#    y 0.000000 1.807550 0.000000 
#    z 0.000000 0.000000 1.888770 
# 
# From -- ./inp_files/23701.got.cif
#   From: 2010.05.17/outbox.cif.g08.bks.cpg/sg51_12_cif.got.tgz:23701.got - 2010.06.03 11:52:47.
