data_PCOD9405274
_publ_section_title
;
Structure prediction by ZEFSAII (Michael W. Deem and Ramdas Pophale) SiO2 
 PCOD9405274
Probable space group: P M M A
;
_chemical_formula_sum "Si O2"
_cell_formula_units_Z 48
_cell_length_a 8.253052
_cell_length_b 30.320615
_cell_length_c 9.378341
_cell_angle_alpha 90.000000
_cell_angle_beta 90.000000
_cell_angle_gamma 90.000000
_cell_volume 2346.813659
_symmetry_space_group_name_H-M "P M M A"
_symmetry_group_IT_number 51
_symmetry_cell_setting 'orthorhombic'
loop_
_space_group_symop_operation_xyz
x,y,z
1/2-x,-y,z
1/2+x,-y,-z
-x,y,-z
-x,-y,-z
1/2+x,y,-z
1/2-x,y,z
x,-y,z
loop_
_atom_site_type_symbol
_atom_site_label
_atom_site_fract_x
_atom_site_fract_y
_atom_site_fract_z
Si Si1 0.445418 0.867612 0.837821
Si Si2 0.445192 0.768692 0.835800
Si Si3 0.941205 0.684908 0.663246
Si Si4 0.250000 0.447459 0.200914
Si Si5 0.054183 0.048377 0.663221
Si Si6 0.250000 0.552633 0.537798
Si Si7 0.572406 0.403759 0.215236
O O1 0.250000 0.868023 0.833027
O O2 0.495980 0.818374 0.791204
O O3 0.507007 0.908975 0.747389
O O4 0.500000 0.872910 0.000000
O O5 0.250000 0.765621 0.829578
O O6 0.520691 0.731570 0.735964
O O7 0.500000 0.762527 0.000000
O O8 0.750000 0.675950 0.666894
O O9 0.000000 0.684226 0.500000
O O10 0.031973 0.646795 0.751430
O O11 0.250000 0.500000 0.182603
O O12 0.250000 0.436506 0.371679
O O13 0.417237 0.426615 0.146845
O O14 0.250000 0.049004 0.668098
O O15 0.000000 0.051288 0.500000
O O16 0.001115 0.000000 0.718778
O O17 0.250000 0.500000 0.550175
O O18 0.103280 0.572287 0.631610
O O19 0.750000 0.407797 0.144918
#
# Coordination Sequence:
#
# PCOD9405274 Si02
#       7
#     8   8   8   4   8   4   8
#     4   9  19  35  55  79 108 141 181 229 281 332
#     4  10  21  39  59  81 109 144 185 234 286 341
#     4  12  23  37  56  81 111 147 186 231 287 345
#     4  11  18  28  44  66  99 143 185 223 274 339
#     4   9  18  33  52  77 111 149 187 229 275 328
#     4   9  18  28  42  64  97 139 179 217 268 329
#     4  10  21  31  45  69 104 142 182 229 280 337
#
# _framework density 20.453264000000001
#
# number of rings (size 3 to 8) (size 9 to 14) (size 15 to 20)
#    0.500    1.500    0.833    4.000    0.000    3.667 
#    0.000    1.667    0.000    0.000    0.000    0.000 
#    0.000    4.000    0.000    0.000    0.000    0.000 
#
# Total GULP energy -267988.064524 kJ/mol
# GULP energy per Si atom -5583.084678 kJ/mol
# Density = 2.040671 g / cm^3
# Si number density = 20.453264 Si / 1000 Ang^3
#
#
#
# Elastic Constant Matrix: (Units=GPa)
#
#
# Indices 1 2 3 4 5 6 
#
# 1 113.3889 47.2930 26.1506 0.0000 0.0000 0.0000
# 2 47.2930 164.0180 48.6011 0.0000 0.0000 0.0000
# 3 26.1506 48.6011 43.6125 0.0000 0.0000 0.0000
# 4 0.0000 0.0000 0.0000 130.6669 0.0000 0.0000
# 5 0.0000 0.0000 0.0000 0.0000 85.7235 0.0000
# 6 0.0000 0.0000 0.0000 0.0000 0.0000 16.8513
#
#
#
# Elastic Compliance Matrix: (Units=1/GPa)
#
#
# Indices 1 2 3 4 5 6 
#
# 1 0.010559 -0.001745 -0.004387 0.000000 0.000000 0.000000
# 2 -0.001745 0.009391 -0.009419 0.000000 0.000000 0.000000
# 3 -0.004387 -0.009419 0.036056 0.000000 0.000000 0.000000
# 4 0.000000 0.000000 0.000000 0.007653 0.000000 0.000000
# 5 0.000000 0.000000 0.000000 0.000000 0.011665 0.000000
# 6 0.000000 0.000000 0.000000 0.000000 0.000000 0.059343
#
#
# Mechanical properties :
#
#
# Convention : Reuss Voigt Hill
#
# Bulk Modulus (GPa) = 40.15334 62.78984 51.47159
# Shear Modulus (GPa) = 28.72418 59.91332 44.31875
#
# Velocity S-wave (km/s) = 3.75157 5.41815 4.65997
# Velocity P-wave (km/s) = 6.20001 8.36108 7.36029
#
# Compressibility (1/GPa) = 0.02490453
#
# Stress axis : x y z
#
# Youngs Moduli (GPa) = 94.70967 106.48581 27.73454
#
# Poissons Ratio (x) = 0.18577 0.12167
# Poissons Ratio (y) = 0.16522 0.26123
# Poissons Ratio (z) = 0.41549 1.00300
#
# Static dielectric constant tensor:
#      x y z
#    x 1.746920 0.000000 0.000000 
#    y 0.000000 1.725350 0.000000 
#    z 0.000000 0.000000 1.713180 
# 
# From -- ./inp_files/6103.got.cif
#   From: 2010.05.17/outbox.cif.g08.bks.cpg/sg51_4_cif.got.tgz:6103.got - 2010.06.03 11:52:47.
