data_PCOD9405198
_publ_section_title
;
Structure prediction by ZEFSAII (Michael W. Deem and Ramdas Pophale) SiO2 
 PCOD9405198
Probable space group: P M M A
;
_chemical_formula_sum "Si O2"
_cell_formula_units_Z 64
_cell_length_a 18.761139
_cell_length_b 14.290125
_cell_length_c 12.057612
_cell_angle_alpha 90.000000
_cell_angle_beta 90.000000
_cell_angle_gamma 90.000000
_cell_volume 3232.633978
_symmetry_space_group_name_H-M "P M M A"
_symmetry_group_IT_number 51
_symmetry_cell_setting 'orthorhombic'
loop_
_space_group_symop_operation_xyz
x,y,z
1/2-x,-y,z
1/2+x,-y,-z
-x,y,-z
-x,-y,-z
1/2+x,y,-z
1/2-x,y,z
x,-y,z
loop_
_atom_site_type_symbol
_atom_site_label
_atom_site_fract_x
_atom_site_fract_y
_atom_site_fract_z
Si Si1 0.461881 0.111997 0.731232
Si Si2 0.918082 0.385905 0.491699
Si Si3 0.667084 0.768900 0.869716
Si Si4 0.568284 0.755838 0.068640
Si Si5 0.078877 0.390538 0.751621
Si Si6 0.380585 0.112350 0.336799
Si Si7 0.905959 0.390687 0.734326
Si Si8 0.329244 0.114042 0.578638
O O1 0.459354 0.164700 0.847680
O O2 0.535321 0.136033 0.668856
O O3 0.393275 0.140658 0.659776
O O4 0.460687 0.000000 0.745990
O O5 0.920266 0.500000 0.491770
O O6 0.890944 0.360892 0.369323
O O7 0.883568 0.360423 0.609178
O O8 0.000000 0.353253 0.500000
O O9 0.750000 0.757660 0.891342
O O10 0.654761 0.842662 0.770873
O O11 0.632079 0.673748 0.823092
O O12 0.624719 0.794254 0.980855
O O13 0.599998 0.674697 0.146642
O O14 0.500000 0.719671 0.000000
O O15 0.094908 0.500000 0.769578
O O16 0.992114 0.382084 0.742634
O O17 0.347182 0.143350 0.453134
O O18 0.374156 0.000000 0.331500
O O19 0.889139 0.500000 0.748697
O O20 0.250000 0.145454 0.611155
O O21 0.328972 0.000000 0.578344
#
# Coordination Sequence:
#
# PCOD9405198 Si02
#       8
#     8   8   8   8   8   8   8   8
#     4  10  21  37  61  86 114 151 192 237 283 333
#     4   7  12  25  49  83 112 134 168 216 273 331
#     4  12  26  40  54  79 113 150 194 238 285 343
#     4  12  23  39  55  80 110 149 200 243 278 325
#     4   9  17  32  58  86 110 140 182 234 285 331
#     4  10  20  38  62  86 114 149 188 234 284 337
#     4   9  17  33  57  83 114 144 174 224 286 345
#     4   9  18  34  58  90 123 150 182 227 286 352
#
# _framework density 19.798096999999999
#
# number of rings (size 3 to 8) (size 9 to 14) (size 15 to 20)
#    0.000    2.250    2.500    2.250    0.000    5.500 
#    0.000    2.500    0.000    0.750    0.000    1.750 
#    0.000    0.000    0.000    0.000    0.000    0.000 
#
# Total GULP energy -357251.138402 kJ/mol
# GULP energy per Si atom -5582.049038 kJ/mol
# Density = 1.975304 g / cm^3
# Si number density = 19.798097 Si / 1000 Ang^3
#
#
#
# Elastic Constant Matrix: (Units=GPa)
#
#
# Indices 1 2 3 4 5 6 
#
# 1 46.8939 -7.2739 -2.1118 0.0000 0.0000 0.0000
# 2 -7.2739 40.2654 -2.3462 0.0000 0.0000 0.0000
# 3 -2.1118 -2.3462 73.6714 0.0000 0.0000 0.0000
# 4 0.0000 0.0000 0.0000 33.5093 0.0000 0.0000
# 5 0.0000 0.0000 0.0000 0.0000 18.8370 0.0000
# 6 0.0000 0.0000 0.0000 0.0000 0.0000 33.3170
#
#
#
# Elastic Compliance Matrix: (Units=1/GPa)
#
#
# Indices 1 2 3 4 5 6 
#
# 1 0.021982 0.004015 0.000758 0.000000 0.000000 0.000000
# 2 0.004015 0.025615 0.000931 0.000000 0.000000 0.000000
# 3 0.000758 0.000931 0.013625 0.000000 0.000000 0.000000
# 4 0.000000 0.000000 0.000000 0.029842 0.000000 0.000000
# 5 0.000000 0.000000 0.000000 0.000000 0.053087 0.000000
# 6 0.000000 0.000000 0.000000 0.000000 0.000000 0.030015
#
#
# Mechanical properties :
#
#
# Convention : Reuss Voigt Hill
#
# Bulk Modulus (GPa) = 13.76849 15.26297 14.51573
# Shear Modulus (GPa) = 26.74259 28.63684 27.68972
#
# Velocity S-wave (km/s) = 3.67926 3.80734 3.74385
# Velocity P-wave (km/s) = 5.00189 5.20133 5.10258
#
# Compressibility (1/GPa) = 0.07262959
#
# Stress axis : x y z
#
# Youngs Moduli (GPa) = 45.49243 39.03991 73.39362
#
# Poissons Ratio (x) = -0.15675 -0.05563
# Poissons Ratio (y) = -0.18266 -0.06832
# Poissons Ratio (z) = -0.03448 -0.03634
#
# Static dielectric constant tensor:
#      x y z
#    x 1.683770 0.000000 0.000000 
#    y 0.000000 1.724390 0.000000 
#    z 0.000000 0.000000 1.697510 
# 
# From -- ./inp_files/17582.got.cif
#   From: 2010.05.17/outbox.cif.g08.bks.cpg/sg51_9_cif.got.tgz:17582.got - 2010.06.03 11:52:47.
