data_PCOD9405117
_publ_section_title
;
Structure prediction by ZEFSAII (Michael W. Deem and Ramdas Pophale) SiO2 
 PCOD9405117
Probable space group: P M M A
;
_chemical_formula_sum "Si O2"
_cell_formula_units_Z 64
_cell_length_a 23.116258
_cell_length_b 14.475225
_cell_length_c 8.961797
_cell_angle_alpha 90.000000
_cell_angle_beta 90.000000
_cell_angle_gamma 90.000000
_cell_volume 2998.734100
_symmetry_space_group_name_H-M "P M M A"
_symmetry_group_IT_number 51
_symmetry_cell_setting 'orthorhombic'
loop_
_space_group_symop_operation_xyz
x,y,z
1/2-x,-y,z
1/2+x,-y,-z
-x,y,-z
-x,-y,-z
1/2+x,y,-z
1/2-x,y,z
x,-y,z
loop_
_atom_site_type_symbol
_atom_site_label
_atom_site_fract_x
_atom_site_fract_y
_atom_site_fract_z
Si Si1 0.523293 0.110936 0.668207
Si Si2 0.920740 0.605599 0.814290
Si Si3 0.312239 0.780296 0.977879
Si Si4 0.033493 0.389614 0.647132
Si Si5 0.906816 0.105793 0.181154
Si Si6 0.867787 0.390527 0.141430
Si Si7 0.184742 0.102627 0.551264
Si Si8 0.859567 0.225951 0.700204
O O1 0.500000 0.129079 0.500000
O O2 0.470658 0.139145 0.776731
O O3 0.582444 0.162600 0.705631
O O4 0.531058 0.000000 0.679136
O O5 0.908764 0.500000 0.775140
O O6 0.884050 0.670673 0.705515
O O7 0.987520 0.623224 0.779775
O O8 0.905033 0.617801 0.987562
O O9 0.250000 0.823123 0.941612
O O10 0.369492 0.834666 0.930422
O O11 0.317198 0.681361 0.895269
O O12 0.319162 0.776093 0.155050
O O13 0.040800 0.500000 0.622696
O O14 0.094715 0.358085 0.714806
O O15 0.000000 0.352649 0.500000
O O16 0.866189 0.105618 0.328141
O O17 0.911854 0.000000 0.128954
O O18 0.853403 0.500000 0.157004
O O19 0.250000 0.107624 0.613192
O O20 0.174647 0.185869 0.438813
O O21 0.179988 0.000000 0.477843
#
# Coordination Sequence:
#
# PCOD9405117 Si02
#       8
#     8   8   8   8   8   8   8   8
#     4  10  20  38  63  92 123 150 190 243 301 369
#     4   9  19  34  52  79 118 158 192 233 289 357
#     4  11  25  41  57  84 120 156 203 253 294 347
#     4   9  17  30  51  82 115 143 181 236 291 344
#     4  10  22  40  61  85 118 157 192 234 296 363
#     4   9  19  37  59  80 110 155 199 240 293 354
#     4  10  20  37  62  88 114 153 204 247 290 356
#     4  11  22  36  60  89 120 154 196 248 304 350
#
# _framework density 21.342338999999999
#
# number of rings (size 3 to 8) (size 9 to 14) (size 15 to 20)
#    0.000    2.125    1.250    1.500    1.750    5.500 
#    0.000    1.250    0.000    1.125    0.000    0.000 
#    0.000    5.000    0.000    0.000    0.000    0.000 
#
# Total GULP energy -357053.551524 kJ/mol
# GULP energy per Si atom -5578.961743 kJ/mol
# Density = 2.129376 g / cm^3
# Si number density = 21.342339 Si / 1000 Ang^3
#
#
#
# Elastic Constant Matrix: (Units=GPa)
#
#
# Indices 1 2 3 4 5 6 
#
# 1 97.0896 9.4513 3.3192 0.0000 0.0000 0.0000
# 2 9.4513 56.5260 6.4397 0.0000 0.0000 0.0000
# 3 3.3192 6.4397 26.4370 0.0000 0.0000 0.0000
# 4 0.0000 0.0000 0.0000 -29.1005 0.0000 0.0000
# 5 0.0000 0.0000 0.0000 0.0000 -5.0569 0.0000
# 6 0.0000 0.0000 0.0000 0.0000 0.0000 24.3315
#
#
#
# Elastic Compliance Matrix: (Units=1/GPa)
#
#
# Indices 1 2 3 4 5 6 
#
# 1 0.010492 -0.001650 -0.000915 0.000000 0.000000 0.000000
# 2 -0.001650 0.018455 -0.004288 0.000000 0.000000 0.000000
# 3 -0.000915 -0.004288 0.038985 0.000000 0.000000 0.000000
# 4 0.000000 0.000000 0.000000 -0.034364 0.000000 0.000000
# 5 0.000000 0.000000 0.000000 0.000000 -0.197748 0.000000
# 6 0.000000 0.000000 0.000000 0.000000 0.000000 0.041099
#
#
# Mechanical properties :
#
#
# Convention : Reuss Voigt Hill
#
# Bulk Modulus (GPa) = 18.44164 24.27478 21.35821
# Shear Modulus (GPa) = -54.76567 8.75764 -23.00401
#
# Velocity S-wave (km/s) = -5.07112 2.02789 -3.28664
# Velocity P-wave (km/s) = 5.06248 4.10875 2.09129
#
# Compressibility (1/GPa) = 0.05422511
#
# Stress axis : x y z
#
# Youngs Moduli (GPa) = 95.31372 54.18475 25.65072
#
# Poissons Ratio (x) = 0.08940 0.02348
# Poissons Ratio (y) = 0.15726 0.11000
# Poissons Ratio (z) = 0.08724 0.23236
#
# Static dielectric constant tensor:
#      x y z
#    x 1.690240 0.000000 0.000000 
#    y 0.000000 1.802080 0.000000 
#    z 0.000000 0.000000 1.798230 
# 
# From -- ./inp_files/11867.got.cif
#   From: 2010.05.17/outbox.cif.g08.bks.cpg/sg51_6_cif.got.tgz:11867.got - 2010.06.03 11:52:47.
