data_PCOD9405879
_publ_section_title
;
Structure prediction by ZEFSAII (Michael W. Deem and Ramdas Pophale) SiO2 
 PCOD9405879
Probable space group: P M M A
;
_chemical_formula_sum "Si O2"
_cell_formula_units_Z 32
_cell_length_a 15.258377
_cell_length_b 12.418073
_cell_length_c 7.683732
_cell_angle_alpha 90.000000
_cell_angle_beta 90.000000
_cell_angle_gamma 90.000000
_cell_volume 1455.910769
_symmetry_space_group_name_H-M "P M M A"
_symmetry_group_IT_number 51
_symmetry_cell_setting 'orthorhombic'
loop_
_space_group_symop_operation_xyz
x,y,z
1/2-x,-y,z
1/2+x,-y,-z
-x,y,-z
-x,-y,-z
1/2+x,y,-z
1/2-x,y,z
x,-y,z
loop_
_atom_site_type_symbol
_atom_site_label
_atom_site_fract_x
_atom_site_fract_y
_atom_site_fract_z
Si Si1 0.845257 0.268128 0.286548
Si Si2 0.151253 0.500000 0.739035
Si Si3 0.649568 0.296301 0.696821
Si Si4 0.964515 0.500000 0.801573
Si Si5 0.989433 0.878192 0.793058
O O1 0.750000 0.217049 0.253069
O O2 0.849454 0.379774 0.177450
O O3 0.847968 0.305626 0.487377
O O4 0.926253 0.189769 0.265511
O O5 0.250000 0.500000 0.654058
O O6 0.050286 0.500000 0.675964
O O7 0.750000 0.295888 0.758896
O O8 0.593736 0.395552 0.767735
O O9 0.597388 0.187890 0.744300
O O10 0.000000 0.500000 0.000000
O O11 0.988054 0.000000 0.723998
O O12 0.000000 0.882968 0.000000
#
# Coordination Sequence:
#
# PCOD9405879 Si02
#       5
#     8   4   8   4   8
#     4  10  22  41  66  97 130 167 213 267 323 382
#     4  10  21  36  61  94 127 162 202 248 310 379
#     4  11  24  41  65  96 130 170 214 264 321 383
#     4  12  24  40  63  98 137 174 210 258 319 384
#     4  11  25  44  64  91 126 169 218 271 329 387
#
# _framework density 21.979368000000001
#
# number of rings (size 3 to 8) (size 9 to 14) (size 15 to 20)
#    0.000    1.250    2.500    2.625    0.000    8.000 
#    0.000    5.000    0.000    0.000    0.000    0.000 
#    0.000    0.000    0.000    0.000    0.000    0.000 
#
# Total GULP energy -178586.166568 kJ/mol
# GULP energy per Si atom -5580.817705 kJ/mol
# Density = 2.192934 g / cm^3
# Si number density = 21.979368 Si / 1000 Ang^3
#
#
#
# Elastic Constant Matrix: (Units=GPa)
#
#
# Indices 1 2 3 4 5 6 
#
# 1 252.9127 112.3430 30.4350 0.0000 0.0000 0.0000
# 2 112.3430 188.4964 16.7974 0.0000 0.0000 0.0000
# 3 30.4350 16.7974 66.1088 0.0000 0.0000 0.0000
# 4 0.0000 0.0000 0.0000 24.1102 0.0000 0.0000
# 5 0.0000 0.0000 0.0000 0.0000 10.7077 0.0000
# 6 0.0000 0.0000 0.0000 0.0000 0.0000 33.8629
#
#
#
# Elastic Compliance Matrix: (Units=1/GPa)
#
#
# Indices 1 2 3 4 5 6 
#
# 1 0.005571 -0.003163 -0.001761 0.000000 0.000000 0.000000
# 2 -0.003163 0.007224 -0.000379 0.000000 0.000000 0.000000
# 3 -0.001761 -0.000379 0.016034 0.000000 0.000000 0.000000
# 4 0.000000 0.000000 0.000000 0.041476 0.000000 0.000000
# 5 0.000000 0.000000 0.000000 0.000000 0.093391 0.000000
# 6 0.000000 0.000000 0.000000 0.000000 0.000000 0.029531
#
#
# Mechanical properties :
#
#
# Convention : Reuss Voigt Hill
#
# Bulk Modulus (GPa) = 54.87954 91.85208 73.36581
# Shear Modulus (GPa) = 23.81999 36.93233 30.37616
#
# Velocity S-wave (km/s) = 3.29560 4.10362 3.72160
# Velocity P-wave (km/s) = 6.28523 8.02083 7.20548
#
# Compressibility (1/GPa) = 0.01822173
#
# Stress axis : x y z
#
# Youngs Moduli (GPa) = 179.50081 138.42190 62.36875
#
# Poissons Ratio (x) = 0.43788 0.10983
# Poissons Ratio (y) = 0.56783 0.02365
# Poissons Ratio (z) = 0.31610 0.05250
#
# Static dielectric constant tensor:
#      x y z
#    x 1.795060 0.000000 0.000000 
#    y 0.000000 1.804490 0.000000 
#    z 0.000000 0.000000 1.913070 
# 
# From -- ./inp_files/7513.got.cif
#   From: 2010.05.17/outbox.cif.g08.bks.cpg/sg51_4_cif.got.tgz:7513.got - 2010.06.03 11:52:47.
