data_PCOD9405915
_publ_section_title
;
Structure prediction by ZEFSAII (Michael W. Deem and Ramdas Pophale) SiO2 
 PCOD9405915
Probable space group: P M M A
;
_chemical_formula_sum "Si O2"
_cell_formula_units_Z 48
_cell_length_a 10.195096
_cell_length_b 8.831535
_cell_length_c 30.220165
_cell_angle_alpha 90.000000
_cell_angle_beta 90.000000
_cell_angle_gamma 90.000000
_cell_volume 2720.973707
_symmetry_space_group_name_H-M "P M M A"
_symmetry_group_IT_number 51
_symmetry_cell_setting 'orthorhombic'
loop_
_space_group_symop_operation_xyz
x,y,z
1/2-x,-y,z
1/2+x,-y,-z
-x,y,-z
-x,-y,-z
1/2+x,y,-z
1/2-x,y,z
x,-y,z
loop_
_atom_site_type_symbol
_atom_site_label
_atom_site_fract_x
_atom_site_fract_y
_atom_site_fract_z
Si Si1 0.098828 0.817898 0.271524
Si Si2 0.530046 0.319072 0.099825
Si Si3 0.250000 0.319295 0.059472
Si Si4 0.400565 0.182702 0.805066
Si Si5 0.090764 0.674067 0.363742
Si Si6 0.250000 0.819682 0.962418
Si Si7 0.098228 0.314878 0.461392
O O1 0.250000 0.766194 0.264690
O O2 0.053014 0.763579 0.319855
O O3 0.002391 0.766451 0.232600
O O4 0.099858 0.000000 0.271270
O O5 0.548015 0.500000 0.099452
O O6 0.380493 0.283994 0.086949
O O7 0.566008 0.254721 0.147749
O O8 0.624516 0.246172 0.063279
O O9 0.250000 0.500000 0.050278
O O10 0.250000 0.233950 0.012937
O O11 0.250000 0.219206 0.793325
O O12 0.410055 0.000000 0.809083
O O13 0.250000 0.673684 0.364958
O O14 0.047182 0.500000 0.359519
O O15 0.052523 0.733938 0.412262
O O16 0.250000 0.000000 0.959648
O O17 0.250000 0.268761 0.468692
O O18 0.098423 0.500000 0.460388
O O19 0.000000 0.266410 0.500000
#
# Coordination Sequence:
#
# PCOD9405915 Si02
#       7
#     8   8   4   8   8   4   8
#     4   9  18  32  51  74  98 129 169 212 255 301
#     4  11  23  40  61  84 113 146 178 217 266 315
#     4  10  24  42  60  86 116 144 178 220 265 310
#     4  10  21  37  55  76 105 138 172 210 258 315
#     4   8  14  26  44  67  94 124 159 202 251 301
#     4  12  24  40  62  88 114 146 184 218 257 310
#     4   8  13  22  38  60  87 119 155 196 244 294
#
# _framework density 17.640744000000002
#
# number of rings (size 3 to 8) (size 9 to 14) (size 15 to 20)
#    0.000    2.500    0.833    2.750    1.167    4.000 
#    0.000    0.833    0.000    1.500    0.000    0.000 
#    0.000    0.000    0.000    0.000    0.000    0.000 
#
# Total GULP energy -267673.262099 kJ/mol
# GULP energy per Si atom -5576.526294 kJ/mol
# Density = 1.760059 g / cm^3
# Si number density = 17.640744 Si / 1000 Ang^3
#
#
#
# Elastic Constant Matrix: (Units=GPa)
#
#
# Indices 1 2 3 4 5 6 
#
# 1 106.8954 33.4352 62.4687 0.0000 0.0000 0.0000
# 2 33.4352 15.9505 28.2457 0.0000 0.0000 0.0000
# 3 62.4687 28.2457 133.1168 0.0000 0.0000 0.0000
# 4 0.0000 0.0000 0.0000 38.0073 0.0000 0.0000
# 5 0.0000 0.0000 0.0000 0.0000 34.4076 0.0000
# 6 0.0000 0.0000 0.0000 0.0000 0.0000 11.4802
#
#
#
# Elastic Compliance Matrix: (Units=1/GPa)
#
#
# Indices 1 2 3 4 5 6 
#
# 1 0.027262 -0.055252 -0.001070 0.000000 0.000000 0.000000
# 2 -0.055252 0.212410 -0.019142 0.000000 0.000000 0.000000
# 3 -0.001070 -0.019142 0.012076 0.000000 0.000000 0.000000
# 4 0.000000 0.000000 0.000000 0.026311 0.000000 0.000000
# 5 0.000000 0.000000 0.000000 0.000000 0.029063 0.000000
# 6 0.000000 0.000000 0.000000 0.000000 0.000000 0.087106
#
#
# Mechanical properties :
#
#
# Convention : Reuss Voigt Hill
#
# Bulk Modulus (GPa) = 9.91863 56.02909 32.97386
# Shear Modulus (GPa) = 8.63912 25.56657 17.10284
#
# Velocity S-wave (km/s) = 2.21537 3.81109 3.11707
# Velocity P-wave (km/s) = 3.48979 7.15514 5.62915
#
# Compressibility (1/GPa) = 0.10082037
#
# Stress axis : x y z
#
# Youngs Moduli (GPa) = 36.68118 4.70787 82.80951
#
# Poissons Ratio (x) = 0.26012 0.08858
# Poissons Ratio (y) = 2.02671 1.58516
# Poissons Ratio (z) = 0.03924 0.09012
#
# Static dielectric constant tensor:
#      x y z
#    x 1.602990 0.000000 0.000000 
#    y 0.000000 1.599360 0.000000 
#    z 0.000000 0.000000 1.587300 
# 
# From -- ./inp_files/37144.got.cif
#   From: 2010.05.17/outbox.cif.g08.bks.cpg/sg51_19_cif.got.tgz:37144.got - 2010.06.03 11:52:47.
