data_PCOD9405339
_publ_section_title
;
Structure prediction by ZEFSAII (Michael W. Deem and Ramdas Pophale) SiO2 
 PCOD9405339
Probable space group: P M M A
;
_chemical_formula_sum "Si O2"
_cell_formula_units_Z 56
_cell_length_a 18.120716
_cell_length_b 14.114030
_cell_length_c 12.651058
_cell_angle_alpha 90.000000
_cell_angle_beta 90.000000
_cell_angle_gamma 90.000000
_cell_volume 3235.588155
_symmetry_space_group_name_H-M "P M M A"
_symmetry_group_IT_number 51
_symmetry_cell_setting 'orthorhombic'
loop_
_space_group_symop_operation_xyz
x,y,z
1/2-x,-y,z
1/2+x,-y,-z
-x,y,-z
-x,-y,-z
1/2+x,y,-z
1/2-x,y,z
x,-y,z
loop_
_atom_site_type_symbol
_atom_site_label
_atom_site_fract_x
_atom_site_fract_y
_atom_site_fract_z
Si Si1 0.563840 0.108482 0.345216
Si Si2 0.835435 0.695272 0.645773
Si Si3 0.063163 0.387875 0.170584
Si Si4 0.665369 0.609923 0.032836
Si Si5 0.892575 0.891231 0.584710
Si Si6 0.090512 0.707771 0.781076
Si Si7 0.835832 0.387015 0.417019
O O1 0.604960 0.123970 0.457643
O O2 0.476925 0.117861 0.373861
O O3 0.585712 0.184125 0.257234
O O4 0.577072 0.000000 0.312975
O O5 0.750000 0.671592 0.664494
O O6 0.885937 0.648188 0.733966
O O7 0.846664 0.808358 0.639017
O O8 0.856684 0.655062 0.530643
O O9 0.047711 0.500000 0.180763
O O10 0.987645 0.329781 0.176188
O O11 0.108488 0.374132 0.062355
O O12 0.750000 0.619469 0.996335
O O13 0.655927 0.500000 0.069346
O O14 0.648522 0.680315 0.128635
O O15 0.868896 0.000000 0.603782
O O16 0.112866 0.651352 0.675359
O O17 0.750000 0.360127 0.396048
O O18 0.839632 0.500000 0.421562
#
# Coordination Sequence:
#
# PCOD9405339 Si02
#       7
#     8   8   8   8   8   8   8
#     4   9  18  33  56  82 111 143 177 222 280 331
#     4  11  21  34  52  77 112 153 186 221 275 330
#     4  11  23  37  55  81 111 145 188 231 264 316
#     4  10  22  40  59  79 108 147 186 223 270 327
#     4   9  17  34  54  77 110 147 186 226 269 326
#     4  12  20  34  60  84 108 137 182 234 278 319
#     4  10  21  34  49  77 117 152 178 213 271 338
#
# _framework density 17.307517000000001
#
# number of rings (size 3 to 8) (size 9 to 14) (size 15 to 20)
#    0.000    1.714    2.857    3.857    0.000    4.571 
#    0.000    1.429    0.000    4.286    0.000    0.000 
#    0.000    0.000    0.000    0.000    0.000    0.000 
#
# Total GULP energy -312642.754777 kJ/mol
# GULP energy per Si atom -5582.906335 kJ/mol
# Density = 1.726812 g / cm^3
# Si number density = 17.307517 Si / 1000 Ang^3
#
#
#
# Elastic Constant Matrix: (Units=GPa)
#
#
# Indices 1 2 3 4 5 6 
#
# 1 24.4295 6.1937 14.7235 0.0000 0.0000 0.0000
# 2 6.1937 88.5265 35.1812 0.0000 0.0000 0.0000
# 3 14.7235 35.1812 55.3667 0.0000 0.0000 0.0000
# 4 0.0000 0.0000 0.0000 23.7823 0.0000 0.0000
# 5 0.0000 0.0000 0.0000 0.0000 26.1825 0.0000
# 6 0.0000 0.0000 0.0000 0.0000 0.0000 15.5016
#
#
#
# Elastic Compliance Matrix: (Units=1/GPa)
#
#
# Indices 1 2 3 4 5 6 
#
# 1 0.049108 0.002347 -0.014550 0.000000 0.000000 0.000000
# 2 0.002347 0.015224 -0.010298 0.000000 0.000000 0.000000
# 3 -0.014550 -0.010298 0.028474 0.000000 0.000000 0.000000
# 4 0.000000 0.000000 0.000000 0.042048 0.000000 0.000000
# 5 0.000000 0.000000 0.000000 0.000000 0.038193 0.000000
# 6 0.000000 0.000000 0.000000 0.000000 0.000000 0.064509
#
#
# Mechanical properties :
#
#
# Convention : Reuss Voigt Hill
#
# Bulk Modulus (GPa) = 20.91884 31.16884 26.04384
# Shear Modulus (GPa) = 16.75065 20.57490 18.66277
#
# Velocity S-wave (km/s) = 3.11436 3.45162 3.28732
# Velocity P-wave (km/s) = 5.00451 5.82519 5.43038
#
# Compressibility (1/GPa) = 0.04780379
#
# Stress axis : x y z
#
# Youngs Moduli (GPa) = 20.36308 65.68425 35.11949
#
# Poissons Ratio (x) = -0.15414 0.51100
# Poissons Ratio (y) = -0.04778 0.36166
# Poissons Ratio (z) = 0.29629 0.67641
#
# Static dielectric constant tensor:
#      x y z
#    x 1.597060 0.000000 0.000000 
#    y 0.000000 1.580310 0.000000 
#    z 0.000000 0.000000 1.562760 
# 
# From -- ./inp_files/16645.got.cif
#   From: 2010.05.17/outbox.cif.g08.bks.cpg/sg51_9_cif.got.tgz:16645.got - 2010.06.03 11:52:47.
