data_PCOD9405514
_publ_section_title
;
Structure prediction by ZEFSAII (Michael W. Deem and Ramdas Pophale) SiO2 
 PCOD9405514
Probable space group: P M M A
;
_chemical_formula_sum "Si O2"
_cell_formula_units_Z 52
_cell_length_a 8.065733
_cell_length_b 16.382306
_cell_length_c 21.851784
_cell_angle_alpha 90.000000
_cell_angle_beta 90.000000
_cell_angle_gamma 90.000000
_cell_volume 2887.392168
_symmetry_space_group_name_H-M "P M M A"
_symmetry_group_IT_number 51
_symmetry_cell_setting 'orthorhombic'
loop_
_space_group_symop_operation_xyz
x,y,z
1/2-x,-y,z
1/2+x,-y,-z
-x,y,-z
-x,-y,-z
1/2+x,y,-z
1/2-x,y,z
x,-y,z
loop_
_atom_site_type_symbol
_atom_site_label
_atom_site_fract_x
_atom_site_fract_y
_atom_site_fract_z
Si Si1 0.447506 0.654371 0.696173
Si Si2 0.060687 0.500000 0.908214
Si Si3 0.445409 0.228045 0.204941
Si Si4 0.442860 0.677035 0.084833
Si Si5 0.554487 0.094614 0.111426
Si Si6 0.500000 0.807772 0.000000
Si Si7 0.560519 0.500000 0.773953
Si Si8 0.949230 0.594098 0.432847
O O1 0.250000 0.641566 0.698340
O O2 0.487139 0.738181 0.731273
O O3 0.529003 0.579458 0.732878
O O4 0.503342 0.646536 0.625688
O O5 0.250000 0.500000 0.928686
O O6 0.973817 0.416755 0.928169
O O7 0.051985 0.500000 0.834172
O O8 0.250000 0.213593 0.210295
O O9 0.470212 0.301486 0.155781
O O10 0.523725 0.149909 0.171209
O O11 0.250000 0.699277 0.071656
O O12 0.562474 0.737504 0.047550
O O13 0.750000 0.101269 0.093536
O O14 0.517438 0.000000 0.122356
O O15 0.449038 0.129766 0.054032
O O16 0.750000 0.500000 0.796616
O O17 0.750000 0.591347 0.431689
O O18 0.009660 0.500000 0.425873
O O19 0.000000 0.623555 0.500000
#
# Coordination Sequence:
#
# PCOD9405514 Si02
#       8
#     8   4   8   8   8   4   4   8
#     4  11  20  33  52  74 103 138 180 221 260 301
#     4  12  24  35  51  69  93 131 173 218 264 302
#     4  10  21  35  53  78 104 131 166 211 261 308
#     4  10  21  36  52  71  98 128 166 213 258 303
#     4  10  21  38  60  83 105 130 161 201 255 317
#     4  10  21  37  58  78 100 128 168 205 257 304
#     4  12  22  32  48  72 100 132 176 219 263 306
#     4   9  18  31  45  68 101 141 184 224 259 294
#
# _framework density 18.009332000000001
#
# number of rings (size 3 to 8) (size 9 to 14) (size 15 to 20)
#    0.000    1.692    2.308    3.000    0.000    5.538 
#    0.000    0.000    0.000    0.000    0.000    0.000 
#    0.000    0.615    0.000    2.000    0.000    2.462 
#
# Total GULP energy -289713.811970 kJ/mol
# GULP energy per Si atom -5571.419461 kJ/mol
# Density = 1.796834 g / cm^3
# Si number density = 18.009332 Si / 1000 Ang^3
#
#
#
# Elastic Constant Matrix: (Units=GPa)
#
#
# Indices 1 2 3 4 5 6 
#
# 1 56.1781 18.5705 14.5688 0.0000 0.0000 0.0000
# 2 18.5705 131.0347 47.4686 0.0000 0.0000 0.0000
# 3 14.5688 47.4686 139.1539 0.0000 0.0000 0.0000
# 4 0.0000 0.0000 0.0000 21.1724 0.0000 0.0000
# 5 0.0000 0.0000 0.0000 0.0000 -3.7975 0.0000
# 6 0.0000 0.0000 0.0000 0.0000 0.0000 13.4849
#
#
#
# Elastic Compliance Matrix: (Units=1/GPa)
#
#
# Indices 1 2 3 4 5 6 
#
# 1 0.018853 -0.002233 -0.001212 0.000000 0.000000 0.000000
# 2 -0.002233 0.008972 -0.002827 0.000000 0.000000 0.000000
# 3 -0.001212 -0.002827 0.008277 0.000000 0.000000 0.000000
# 4 0.000000 0.000000 0.000000 0.047231 0.000000 0.000000
# 5 0.000000 0.000000 0.000000 0.000000 -0.263334 0.000000
# 6 0.000000 0.000000 0.000000 0.000000 0.000000 0.074157
#
#
# Mechanical properties :
#
#
# Convention : Reuss Voigt Hill
#
# Bulk Modulus (GPa) = 42.44662 54.17584 48.31123
# Shear Modulus (GPa) = -58.51622 22.55588 -17.98017
#
# Velocity S-wave (km/s) = -5.70637 3.54284 -3.16314
# Velocity P-wave (km/s) = 4.44933 6.84712 3.68012
#
# Compressibility (1/GPa) = 0.02355900
#
# Stress axis : x y z
#
# Youngs Moduli (GPa) = 53.04206 111.45743 120.80959
#
# Poissons Ratio (x) = 0.24886 0.14644
# Poissons Ratio (y) = 0.11843 0.34151
# Poissons Ratio (z) = 0.06430 0.31507
#
# Static dielectric constant tensor:
#      x y z
#    x 1.716470 0.000000 0.000000 
#    y 0.000000 1.609100 0.000000 
#    z 0.000000 0.000000 1.649240 
# 
# From -- ./inp_files/31828.got.cif
#   From: 2010.05.17/outbox.cif.g08.bks.cpg/sg51_16_cif.got.tgz:31828.got - 2010.06.03 11:52:47.
