data_PCOD9405638
_publ_section_title
;
Structure prediction by ZEFSAII (Michael W. Deem and Ramdas Pophale) SiO2 
 PCOD9405638
Probable space group: P M M A
;
_chemical_formula_sum "Si O2"
_cell_formula_units_Z 44
_cell_length_a 8.676621
_cell_length_b 19.684389
_cell_length_c 15.031026
_cell_angle_alpha 90.000000
_cell_angle_beta 90.000000
_cell_angle_gamma 90.000000
_cell_volume 2567.208799
_symmetry_space_group_name_H-M "P M M A"
_symmetry_group_IT_number 51
_symmetry_cell_setting 'orthorhombic'
loop_
_space_group_symop_operation_xyz
x,y,z
1/2-x,-y,z
1/2+x,-y,-z
-x,y,-z
-x,-y,-z
1/2+x,y,-z
1/2-x,y,z
x,-y,z
loop_
_atom_site_type_symbol
_atom_site_label
_atom_site_fract_x
_atom_site_fract_y
_atom_site_fract_z
Si Si1 0.564313 0.500000 0.099533
Si Si2 0.564737 0.649923 0.100934
Si Si3 0.570886 0.868131 0.916530
Si Si4 0.068890 0.000000 0.342054
Si Si5 0.066555 0.145557 0.595679
Si Si6 0.427180 0.000000 0.849623
Si Si7 0.065023 0.224273 0.772562
O O1 0.750000 0.500000 0.099925
O O2 0.515893 0.574311 0.133945
O O3 0.500000 0.500000 0.000000
O O4 0.750000 0.650912 0.090829
O O5 0.528501 0.704483 0.178376
O O6 0.500000 0.661549 0.000000
O O7 0.750000 0.882635 0.928125
O O8 0.467178 0.934618 0.906574
O O9 0.538254 0.827922 0.827456
O O10 0.500000 0.828052 0.000000
O O11 0.998597 0.929238 0.378219
O O12 0.250000 0.000000 0.360479
O O13 0.034735 0.000000 0.236763
O O14 0.250000 0.138348 0.590543
O O15 0.034378 0.203410 0.670351
O O16 0.000000 0.164444 0.500000
O O17 0.250000 0.000000 0.820794
O O18 0.250000 0.212180 0.786516
#
# Coordination Sequence:
#
# PCOD9405638 Si02
#       7
#     4   8   8   4   8   4   8
#     4   8  14  26  46  72 105 138 174 210 243 290
#     4   9  17  30  49  76 107 142 175 208 249 296
#     4  12  24  37  53  73 100 135 174 212 254 304
#     4  12  23  38  59  81 101 127 168 214 267 324
#     4  11  23  39  58  77 101 131 168 218 271 321
#     4  12  23  38  55  73  99 131 170 212 257 302
#     4  10  21  36  53  74 103 135 170 212 260 310
#
# _framework density 17.139237999999999
#
# number of rings (size 3 to 8) (size 9 to 14) (size 15 to 20)
#    0.000    1.455    1.818    4.909    0.000    2.909 
#    0.000    0.000    0.000    0.000    0.000    0.636 
#    0.000    0.000    0.000    0.000    0.000    0.000 
#
# Total GULP energy -245226.582564 kJ/mol
# GULP energy per Si atom -5573.331422 kJ/mol
# Density = 1.710023 g / cm^3
# Si number density = 17.139238 Si / 1000 Ang^3
#
#
#
# Elastic Constant Matrix: (Units=GPa)
#
#
# Indices 1 2 3 4 5 6 
#
# 1 46.9060 29.8658 29.1154 0.0000 0.0000 0.0000
# 2 29.8658 120.8921 47.3882 0.0000 0.0000 0.0000
# 3 29.1154 47.3882 119.0042 0.0000 0.0000 0.0000
# 4 0.0000 0.0000 0.0000 0.2013 0.0000 0.0000
# 5 0.0000 0.0000 0.0000 0.0000 27.4555 0.0000
# 6 0.0000 0.0000 0.0000 0.0000 0.0000 32.7409
#
#
#
# Elastic Compliance Matrix: (Units=1/GPa)
#
#
# Indices 1 2 3 4 5 6 
#
# 1 0.027390 -0.004905 -0.004748 0.000000 0.000000 0.000000
# 2 -0.004905 0.010680 -0.003053 0.000000 0.000000 0.000000
# 3 -0.004748 -0.003053 0.010780 0.000000 0.000000 0.000000
# 4 0.000000 0.000000 0.000000 4.967247 0.000000 0.000000
# 5 0.000000 0.000000 0.000000 0.000000 0.036423 0.000000
# 6 0.000000 0.000000 0.000000 0.000000 0.000000 0.030543
#
#
# Mechanical properties :
#
#
# Convention : Reuss Voigt Hill
#
# Bulk Modulus (GPa) = 42.66522 55.50456 49.08489
# Shear Modulus (GPa) = 0.97727 24.10841 12.54284
#
# Velocity S-wave (km/s) = 0.75593 3.75456 2.70815
# Velocity P-wave (km/s) = 5.07043 7.15894 6.20321
#
# Compressibility (1/GPa) = 0.02343829
#
# Stress axis : x y z
#
# Youngs Moduli (GPa) = 36.51020 93.62970 92.76179
#
# Poissons Ratio (x) = 0.45929 0.44041
# Poissons Ratio (y) = 0.17910 0.28319
# Poissons Ratio (z) = 0.17334 0.28584
#
# Static dielectric constant tensor:
#      x y z
#    x 1.570470 0.000000 0.000000 
#    y 0.000000 1.643870 0.000000 
#    z 0.000000 0.000000 1.587520 
# 
# From -- ./inp_files/21003.got.cif
#   From: 2010.05.17/outbox.cif.g08.bks.cpg/sg51_11_cif.got.tgz:21003.got - 2010.06.03 11:52:47.
