data_PCOD9405280
_publ_section_title
;
Structure prediction by ZEFSAII (Michael W. Deem and Ramdas Pophale) SiO2 
 PCOD9405280
Probable space group: P M M A
;
_chemical_formula_sum "Si O2"
_cell_formula_units_Z 64
_cell_length_a 15.044743
_cell_length_b 8.967425
_cell_length_c 25.417691
_cell_angle_alpha 90.000000
_cell_angle_beta 90.000000
_cell_angle_gamma 90.000000
_cell_volume 3429.166893
_symmetry_space_group_name_H-M "P M M A"
_symmetry_group_IT_number 51
_symmetry_cell_setting 'orthorhombic'
loop_
_space_group_symop_operation_xyz
x,y,z
1/2-x,-y,z
1/2+x,-y,-z
-x,y,-z
-x,-y,-z
1/2+x,y,-z
1/2-x,y,z
x,-y,z
loop_
_atom_site_type_symbol
_atom_site_label
_atom_site_fract_x
_atom_site_fract_y
_atom_site_fract_z
Si Si1 0.143328 0.175636 0.780174
Si Si2 0.852414 0.318188 0.502487
Si Si3 0.605265 0.333024 0.998693
Si Si4 0.355583 0.669455 0.887267
Si Si5 0.996532 0.679351 0.295796
Si Si6 0.645761 0.180917 0.776073
Si Si7 0.996104 0.681246 0.417097
Si Si8 0.143915 0.833476 0.108796
O O1 0.250000 0.197150 0.775009
O O2 0.113607 0.236260 0.837454
O O3 0.089030 0.262369 0.735874
O O4 0.124833 0.000000 0.776697
O O5 0.750000 0.266899 0.503512
O O6 0.850021 0.500000 0.502569
O O7 0.914201 0.272723 0.551953
O O8 0.909921 0.272638 0.451239
O O9 0.644365 0.500000 0.998609
O O10 0.628821 0.254121 0.944648
O O11 0.500000 0.343469 0.000000
O O12 0.630223 0.262239 0.054839
O O13 0.250000 0.656776 0.881062
O O14 0.393692 0.500000 0.886710
O O15 0.999665 0.500000 0.293803
O O16 0.082463 0.747087 0.266920
O O17 0.993497 0.728120 0.356691
O O18 0.750000 0.218729 0.768376
O O19 0.614952 0.230831 0.834818
O O20 0.639111 0.000000 0.775366
O O21 0.996027 0.500000 0.417678
O O22 0.250000 0.845928 0.114936
O O23 0.106052 0.000000 0.102925
#
# Coordination Sequence:
#
# PCOD9405280 Si02
#       8
#     8   8   8   8   8   8   8   8
#     4  10  22  39  57  77 103 141 188 230 271 324
#     4   8  13  25  46  69 102 146 180 211 256 309
#     4  10  21  33  48  76 108 131 158 202 262 330
#     4   9  18  34  53  72  99 134 169 212 268 324
#     4  11  22  34  54  83 116 147 178 225 276 322
#     4   9  20  39  58  77 106 145 187 228 271 322
#     4   8  16  28  42  72 110 141 177 215 259 315
#     4   9  19  36  55  73  95 127 170 217 261 310
#
# _framework density 18.663423999999999
#
# number of rings (size 3 to 8) (size 9 to 14) (size 15 to 20)
#    0.000    2.750    0.000    2.625    1.750    4.000 
#    0.000    5.000    0.000    0.000    0.000    7.000 
#    0.000   12.000    0.000    0.000    0.000    0.000 
#
# Total GULP energy -356646.514167 kJ/mol
# GULP energy per Si atom -5572.601784 kJ/mol
# Density = 1.862094 g / cm^3
# Si number density = 18.663424 Si / 1000 Ang^3
#
#
#
# Elastic Constant Matrix: (Units=GPa)
#
#
# Indices 1 2 3 4 5 6 
#
# 1 81.5746 24.9956 47.4298 0.0000 0.0000 0.0000
# 2 24.9956 30.6332 45.7912 0.0000 0.0000 0.0000
# 3 47.4298 45.7912 179.5473 0.0000 0.0000 0.0000
# 4 0.0000 0.0000 0.0000 -7.6372 0.0000 0.0000
# 5 0.0000 0.0000 0.0000 0.0000 20.8580 0.0000
# 6 0.0000 0.0000 0.0000 0.0000 0.0000 22.9302
#
#
#
# Elastic Compliance Matrix: (Units=1/GPa)
#
#
# Indices 1 2 3 4 5 6 
#
# 1 0.016593 -0.011292 -0.001503 0.000000 0.000000 0.000000
# 2 -0.011292 0.060442 -0.012432 0.000000 0.000000 0.000000
# 3 -0.001503 -0.012432 0.009137 0.000000 0.000000 0.000000
# 4 0.000000 0.000000 0.000000 -0.130939 0.000000 0.000000
# 5 0.000000 0.000000 0.000000 0.000000 0.047943 0.000000
# 6 0.000000 0.000000 0.000000 0.000000 0.000000 0.043611
#
#
# Mechanical properties :
#
#
# Convention : Reuss Voigt Hill
#
# Bulk Modulus (GPa) = 27.99759 58.68758 43.34258
# Shear Modulus (GPa) = 45.80979 18.79945 32.30462
#
# Velocity S-wave (km/s) = 4.95969 3.17722 4.16493
# Velocity P-wave (km/s) = 6.91606 6.70620 6.81194
#
# Compressibility (1/GPa) = 0.03571736
#
# Stress axis : x y z
#
# Youngs Moduli (GPa) = 60.26711 16.54490 109.44154
#
# Poissons Ratio (x) = 0.18682 0.16453
# Poissons Ratio (y) = 0.68053 1.36057
# Poissons Ratio (z) = 0.09060 0.20569
#
# Static dielectric constant tensor:
#      x y z
#    x 1.652110 0.000000 0.000000 
#    y 0.000000 1.662300 0.000000 
#    z 0.000000 0.000000 1.661620 
# 
# From -- ./inp_files/35646.got.cif
#   From: 2010.05.17/outbox.cif.g08.bks.cpg/sg51_18_cif.got.tgz:35646.got - 2010.06.03 11:52:47.
