data_PCOD9405328
_publ_section_title
;
Structure prediction by ZEFSAII (Michael W. Deem and Ramdas Pophale) SiO2 
 PCOD9405328
Probable space group: P M M A
;
_chemical_formula_sum "Si O2"
_cell_formula_units_Z 44
_cell_length_a 10.077119
_cell_length_b 7.736259
_cell_length_c 30.654569
_cell_angle_alpha 90.000000
_cell_angle_beta 90.000000
_cell_angle_gamma 90.000000
_cell_volume 2389.805754
_symmetry_space_group_name_H-M "P M M A"
_symmetry_group_IT_number 51
_symmetry_cell_setting 'orthorhombic'
loop_
_space_group_symop_operation_xyz
x,y,z
1/2-x,-y,z
1/2+x,-y,-z
-x,y,-z
-x,-y,-z
1/2+x,y,-z
1/2-x,y,z
x,-y,z
loop_
_atom_site_type_symbol
_atom_site_label
_atom_site_fract_x
_atom_site_fract_y
_atom_site_fract_z
Si Si1 0.405854 0.705158 0.387524
Si Si2 0.599433 0.293732 0.310054
Si Si3 0.399986 0.292658 0.135718
Si Si4 0.899541 0.794839 0.212509
Si Si5 0.903174 0.288908 0.961970
Si Si6 0.593633 0.000000 0.541769
O O1 0.250000 0.722735 0.375915
O O2 0.429224 0.500000 0.396649
O O3 0.498705 0.763607 0.347478
O O4 0.430606 0.830181 0.428449
O O5 0.750000 0.223284 0.314641
O O6 0.607334 0.500000 0.314608
O O7 0.553576 0.258651 0.260718
O O8 0.250000 0.228709 0.144695
O O9 0.392531 0.500000 0.133149
O O10 0.502026 0.252021 0.173770
O O11 0.440360 0.232318 0.087128
O O12 0.750000 0.722338 0.206269
O O13 0.889840 0.000000 0.212938
O O14 0.750000 0.239701 0.969564
O O15 0.907252 0.500000 0.962428
O O16 0.000000 0.227251 0.000000
O O17 0.500000 0.000000 0.500000
O O18 0.750000 0.000000 0.529764
#
# Coordination Sequence:
#
# PCOD9405328 Si02
#       6
#     8   8   8   8   8   4
#     4   9  19  36  56  79 109 142 177 220 265 312
#     4   9  18  33  53  77 103 132 169 211 255 304
#     4   9  18  32  49  70  97 128 163 204 249 301
#     4  10  21  34  48  71 102 134 168 208 252 301
#     4   8  14  25  42  66  93 118 150 196 247 298
#     4  10  22  38  56  82 112 144 182 222 265 312
#
# _framework density 18.411538
#
# number of rings (size 3 to 8) (size 9 to 14) (size 15 to 20)
#    0.000    2.909    0.000    1.636    1.273    4.000 
#    0.000    3.636    0.000    0.545    0.000    0.000 
#    0.000    0.000    0.000    0.000    0.000    0.000 
#
# Total GULP energy -245244.669671 kJ/mol
# GULP energy per Si atom -5573.742493 kJ/mol
# Density = 1.836963 g / cm^3
# Si number density = 18.411538 Si / 1000 Ang^3
#
#
#
# Elastic Constant Matrix: (Units=GPa)
#
#
# Indices 1 2 3 4 5 6 
#
# 1 104.2006 27.8790 128.1900 0.0000 0.0000 0.0000
# 2 27.8790 44.0196 34.9471 0.0000 0.0000 0.0000
# 3 128.1900 34.9471 195.1113 0.0000 0.0000 0.0000
# 4 0.0000 0.0000 0.0000 57.8905 0.0000 0.0000
# 5 0.0000 0.0000 0.0000 0.0000 49.7593 0.0000
# 6 0.0000 0.0000 0.0000 0.0000 0.0000 12.8702
#
#
#
# Elastic Compliance Matrix: (Units=1/GPa)
#
#
# Indices 1 2 3 4 5 6 
#
# 1 0.051712 -0.006736 -0.032769 0.000000 0.000000 0.000000
# 2 -0.006736 0.027360 -0.000475 0.000000 0.000000 0.000000
# 3 -0.032769 -0.000475 0.026740 0.000000 0.000000 0.000000
# 4 0.000000 0.000000 0.000000 0.017274 0.000000 0.000000
# 5 0.000000 0.000000 0.000000 0.000000 0.020097 0.000000
# 6 0.000000 0.000000 0.000000 0.000000 0.000000 0.077699
#
#
# Mechanical properties :
#
#
# Convention : Reuss Voigt Hill
#
# Bulk Modulus (GPa) = 38.68066 80.59596 59.63831
# Shear Modulus (GPa) = 16.15727 34.25835 25.20781
#
# Velocity S-wave (km/s) = 2.96558 4.31826 3.70419
# Velocity P-wave (km/s) = 5.72545 8.29053 7.12438
#
# Compressibility (1/GPa) = 0.02585271
#
# Stress axis : x y z
#
# Youngs Moduli (GPa) = 19.33791 36.54926 37.39751
#
# Poissons Ratio (x) = 0.24619 1.22547
# Poissons Ratio (y) = 0.13025 0.01777
# Poissons Ratio (z) = 0.63368 0.01737
#
# Static dielectric constant tensor:
#      x y z
#    x 1.431500 0.000000 0.000000 
#    y 0.000000 1.666330 0.000000 
#    z 0.000000 0.000000 1.614470 
# 
# From -- ./inp_files/36760.got.cif
#   From: 2010.05.17/outbox.cif.g08.bks.cpg/sg51_19_cif.got.tgz:36760.got - 2010.06.03 11:52:47.
