data_PCOD9405393
_publ_section_title
;
Structure prediction by ZEFSAII (Michael W. Deem and Ramdas Pophale) SiO2 
 PCOD9405393
Probable space group: P M M A
;
_chemical_formula_sum "Si O2"
_cell_formula_units_Z 52
_cell_length_a 9.327855
_cell_length_b 19.463528
_cell_length_c 15.971794
_cell_angle_alpha 90.000000
_cell_angle_beta 90.000000
_cell_angle_gamma 90.000000
_cell_volume 2899.726589
_symmetry_space_group_name_H-M "P M M A"
_symmetry_group_IT_number 51
_symmetry_cell_setting 'orthorhombic'
loop_
_space_group_symop_operation_xyz
x,y,z
1/2-x,-y,z
1/2+x,-y,-z
-x,y,-z
-x,-y,-z
1/2+x,y,-z
1/2-x,y,z
x,-y,z
loop_
_atom_site_type_symbol
_atom_site_label
_atom_site_fract_x
_atom_site_fract_y
_atom_site_fract_z
Si Si1 0.418369 0.926667 0.912880
Si Si2 0.917230 0.417135 0.085345
Si Si3 0.919022 0.339011 0.770275
Si Si4 0.406131 0.183868 0.175031
Si Si5 0.088522 0.866113 0.364523
Si Si6 0.076972 0.712069 0.415470
Si Si7 0.421454 0.000000 0.588831
O O1 0.250000 0.924648 0.925842
O O2 0.471313 0.858720 0.868394
O O3 0.452479 0.000000 0.868048
O O4 0.500000 0.928674 0.000000
O O5 0.750000 0.396422 0.081000
O O6 0.923263 0.500000 0.087338
O O7 0.990343 0.388778 0.170143
O O8 0.000000 0.394906 0.000000
O O9 0.750000 0.358455 0.770255
O O10 0.930113 0.264408 0.814135
O O11 0.961794 0.326241 0.672401
O O12 0.250000 0.172493 0.133787
O O13 0.398030 0.153743 0.267990
O O14 0.250000 0.884630 0.395812
O O15 0.042780 0.793722 0.405989
O O16 0.980892 0.929381 0.371742
O O17 0.250000 0.707435 0.422730
O O18 0.000000 0.686661 0.500000
O O19 0.500000 0.000000 0.500000
O O20 0.250000 0.000000 0.585353
#
# Coordination Sequence:
#
# PCOD9405393 Si02
#       7
#     8   8   8   8   8   8   4
#     4  10  21  35  50  69  94 126 170 219 266 321
#     4  10  21  37  59  88 119 151 184 217 260 316
#     4   9  19  36  56  82 113 144 182 224 267 321
#     4   9  19  35  54  74  99 132 169 212 264 318
#     4   9  19  35  51  70  96 129 168 212 266 324
#     4   9  18  33  54  78 106 140 181 226 273 325
#     4  12  24  34  46  66  93 124 163 210 260 314
#
# _framework density 17.932724
#
# number of rings (size 3 to 8) (size 9 to 14) (size 15 to 20)
#    0.000    2.462    0.000    3.923    1.077    6.154 
#    0.000    3.077    0.000    0.462    0.000    0.000 
#    0.000    0.000    0.000    0.000    0.000    0.000 
#
# Total GULP energy -289632.304943 kJ/mol
# GULP energy per Si atom -5569.852018 kJ/mol
# Density = 1.789191 g / cm^3
# Si number density = 17.932724 Si / 1000 Ang^3
#
#
#
# Elastic Constant Matrix: (Units=GPa)
#
#
# Indices 1 2 3 4 5 6 
#
# 1 91.6873 38.4603 47.8951 0.0000 0.0000 0.0000
# 2 38.4603 35.8491 31.5814 0.0000 0.0000 0.0000
# 3 47.8951 31.5814 88.6335 0.0000 0.0000 0.0000
# 4 0.0000 0.0000 0.0000 -17.6744 0.0000 0.0000
# 5 0.0000 0.0000 0.0000 0.0000 32.6346 0.0000
# 6 0.0000 0.0000 0.0000 0.0000 0.0000 34.5584
#
#
#
# Elastic Compliance Matrix: (Units=1/GPa)
#
#
# Indices 1 2 3 4 5 6 
#
# 1 0.021188 -0.018430 -0.004883 0.000000 0.000000 0.000000
# 2 -0.018430 0.056688 -0.010240 0.000000 0.000000 0.000000
# 3 -0.004883 -0.010240 0.017569 0.000000 0.000000 0.000000
# 4 0.000000 0.000000 0.000000 -0.056579 0.000000 0.000000
# 5 0.000000 0.000000 0.000000 0.000000 0.030642 0.000000
# 6 0.000000 0.000000 0.000000 0.000000 0.000000 0.028937
#
#
# Mechanical properties :
#
#
# Convention : Reuss Voigt Hill
#
# Bulk Modulus (GPa) = 35.28481 50.22707 42.75594
# Shear Modulus (GPa) = 28.57197 16.45259 22.51228
#
# Velocity S-wave (km/s) = 3.99593 3.03225 3.54697
# Velocity P-wave (km/s) = 6.40382 6.35050 6.37721
#
# Compressibility (1/GPa) = 0.02834081
#
# Stress axis : x y z
#
# Youngs Moduli (GPa) = 47.19635 17.64043 56.91739
#
# Poissons Ratio (x) = 0.32512 0.27790
# Poissons Ratio (y) = 0.86984 0.58281
# Poissons Ratio (z) = 0.23044 0.18063
#
# Static dielectric constant tensor:
#      x y z
#    x 1.622100 0.000000 0.000000 
#    y 0.000000 1.597570 0.000000 
#    z 0.000000 0.000000 1.667150 
# 
# From -- ./inp_files/21646.got.cif
#   From: 2010.05.17/outbox.cif.g08.bks.cpg/sg51_11_cif.got.tgz:21646.got - 2010.06.03 11:52:47.
