data_PCOD9405313
_publ_section_title
;
Structure prediction by ZEFSAII (Michael W. Deem and Ramdas Pophale) SiO2 
 PCOD9405313
Probable space group: P M M A
;
_chemical_formula_sum "Si O2"
_cell_formula_units_Z 56
_cell_length_a 14.507984
_cell_length_b 7.541794
_cell_length_c 21.405375
_cell_angle_alpha 90.000000
_cell_angle_beta 90.000000
_cell_angle_gamma 90.000000
_cell_volume 2342.095363
_symmetry_space_group_name_H-M "P M M A"
_symmetry_group_IT_number 51
_symmetry_cell_setting 'orthorhombic'
loop_
_space_group_symop_operation_xyz
x,y,z
1/2-x,-y,z
1/2+x,-y,-z
-x,y,-z
-x,-y,-z
1/2+x,y,-z
1/2-x,y,z
x,-y,z
loop_
_atom_site_type_symbol
_atom_site_label
_atom_site_fract_x
_atom_site_fract_y
_atom_site_fract_z
Si Si1 0.446897 0.787735 0.146712
Si Si2 0.856888 0.209763 0.460262
Si Si3 0.151835 0.217321 0.882234
Si Si4 0.855158 0.712747 0.595912
Si Si5 0.146722 0.705269 0.677169
Si Si6 0.391413 0.202835 0.017440
Si Si7 0.959008 0.713335 0.718313
O O1 0.553329 0.721524 0.143955
O O2 0.390122 0.717630 0.086932
O O3 0.411594 0.752755 0.215947
O O4 0.450537 0.000000 0.137774
O O5 0.750000 0.272519 0.465368
O O6 0.898744 0.246156 0.528255
O O7 0.888758 0.290530 0.394941
O O8 0.857880 0.000000 0.451025
O O9 0.250000 0.270177 0.852425
O O10 0.149481 0.000000 0.881829
O O11 0.152190 0.278275 0.954745
O O12 0.750000 0.781069 0.596155
O O13 0.851608 0.500000 0.600008
O O14 0.907173 0.780297 0.656882
O O15 0.250000 0.784188 0.679823
O O16 0.155478 0.500000 0.694880
O O17 0.063903 0.785911 0.716911
O O18 0.357580 0.000000 0.021727
O O19 0.500000 0.196820 0.000000
O O20 0.964155 0.500000 0.713049
#
# Coordination Sequence:
#
# PCOD9405313 Si02
#       7
#     8   8   8   8   8   8   8
#     4   9  17  29  45  66  93 123 153 188 232 276
#     4   9  17  30  50  75  98 118 146 192 246 286
#     4   8  13  23  43  70  94 117 151 192 229 270
#     4   9  18  34  53  68  86 118 159 198 234 276
#     4   9  18  33  50  67  92 126 159 189 225 276
#     4   7  11  22  40  60  83 111 141 175 216 261
#     4  10  21  34  48  68  93 126 165 194 223 273
#
# _framework density 23.910212999999999
#
# number of rings (size 3 to 8) (size 9 to 14) (size 15 to 20)
#    0.000    3.286    0.000    2.143    0.000    4.000 
#    0.000    3.571    0.000    4.714    0.000    0.000 
#    0.000    0.000    0.000    0.000    0.000    0.000 
#
# Total GULP energy -312224.062056 kJ/mol
# GULP energy per Si atom -5575.429680 kJ/mol
# Density = 2.385579 g / cm^3
# Si number density = 23.910213 Si / 1000 Ang^3
#
#
#
# Elastic Constant Matrix: (Units=GPa)
#
#
# Indices 1 2 3 4 5 6 
#
# 1 42.0978 0.1867 5.6866 0.0000 0.0000 0.0000
# 2 0.1867 61.9067 -11.0368 0.0000 0.0000 0.0000
# 3 5.6866 -11.0368 123.7845 0.0000 0.0000 0.0000
# 4 0.0000 0.0000 0.0000 14.3661 0.0000 0.0000
# 5 0.0000 0.0000 0.0000 0.0000 14.9023 0.0000
# 6 0.0000 0.0000 0.0000 0.0000 0.0000 -2.9402
#
#
#
# Elastic Compliance Matrix: (Units=1/GPa)
#
#
# Indices 1 2 3 4 5 6 
#
# 1 0.023907 -0.000272 -0.001123 0.000000 0.000000 0.000000
# 2 -0.000272 0.016417 0.001476 0.000000 0.000000 0.000000
# 3 -0.001123 0.001476 0.008262 0.000000 0.000000 0.000000
# 4 0.000000 0.000000 0.000000 0.069608 0.000000 0.000000
# 5 0.000000 0.000000 0.000000 0.000000 0.067104 0.000000
# 6 0.000000 0.000000 0.000000 0.000000 0.000000 -0.340108
#
#
# Mechanical properties :
#
#
# Convention : Reuss Voigt Hill
#
# Bulk Modulus (GPa) = 20.51315 24.16243 22.33779
# Shear Modulus (GPa) = -36.04304 20.79581 -7.62362
#
# Velocity S-wave (km/s) = -3.88678 2.95234 -1.78756
# Velocity P-wave (km/s) = 3.39777 4.66360 2.25880
#
# Compressibility (1/GPa) = 0.04874921
#
# Stress axis : x y z
#
# Youngs Moduli (GPa) = 41.82870 60.91112 121.03970
#
# Poissons Ratio (x) = 0.01658 0.13587
# Poissons Ratio (y) = 0.01139 -0.17869
# Poissons Ratio (z) = 0.04695 -0.08992
#
# Static dielectric constant tensor:
#      x y z
#    x 1.963290 0.000000 0.000000 
#    y 0.000000 1.896560 0.000000 
#    z 0.000000 0.000000 1.937880 
# 
# From -- ./inp_files/33726.got.cif
#   From: 2010.05.17/outbox.cif.g08.bks.cpg/sg51_17_cif.got.tgz:33726.got - 2010.06.03 11:52:47.
