data_PCOD9405049
_publ_section_title
;
Structure prediction by ZEFSAII (Michael W. Deem and Ramdas Pophale) SiO2 
 PCOD9405049
Probable space group: P M M A
;
_chemical_formula_sum "Si O2"
_cell_formula_units_Z 40
_cell_length_a 19.045023
_cell_length_b 11.695100
_cell_length_c 9.109847
_cell_angle_alpha 90.000000
_cell_angle_beta 90.000000
_cell_angle_gamma 90.000000
_cell_volume 2029.067638
_symmetry_space_group_name_H-M "P M M A"
_symmetry_group_IT_number 51
_symmetry_cell_setting 'orthorhombic'
loop_
_space_group_symop_operation_xyz
x,y,z
1/2-x,-y,z
1/2+x,-y,-z
-x,y,-z
-x,-y,-z
1/2+x,y,-z
1/2-x,y,z
x,-y,z
loop_
_atom_site_type_symbol
_atom_site_label
_atom_site_fract_x
_atom_site_fract_y
_atom_site_fract_z
Si Si1 0.926257 0.687022 0.944492
Si Si2 0.334633 0.500000 0.590621
Si Si3 0.333132 0.240063 0.541638
Si Si4 0.543138 0.781609 0.639868
Si Si5 0.166896 0.500000 0.925170
Si Si6 0.589233 0.131161 0.192285
O O1 0.933260 0.700481 0.771436
O O2 0.862381 0.609082 0.991296
O O3 0.918641 0.804646 0.037104
O O4 0.000000 0.636090 0.000000
O O5 0.250000 0.500000 0.596426
O O6 0.351812 0.375632 0.524105
O O7 0.361331 0.500000 0.758291
O O8 0.250000 0.224704 0.519552
O O9 0.384815 0.172448 0.431354
O O10 0.356122 0.199718 0.704257
O O11 0.500000 0.733037 0.500000
O O12 0.485541 0.860982 0.721136
O O13 0.250000 0.500000 0.919516
O O14 0.609660 0.000000 0.175804
#
# Coordination Sequence:
#
# PCOD9405049 Si02
#       6
#     8   4   8   8   4   8
#     4  10  21  38  60  88 116 150 196 241 286 340
#     4   9  18  34  58  83 114 152 187 227 282 342
#     4  10  20  37  59  86 119 155 193 235 290 353
#     4   9  21  38  56  86 117 151 188 234 291 345
#     4  11  21  36  60  88 120 153 189 237 288 342
#     4  10  21  39  62  84 112 151 199 247 291 340
#
# _framework density 19.713488999999999
#
# number of rings (size 3 to 8) (size 9 to 14) (size 15 to 20)
#    0.000    2.200    2.000    0.300    0.000    9.200 
#    0.000    7.000    0.000    0.000    0.000    5.600 
#    0.000    0.000    0.000    0.000    0.000    0.000 
#
# Total GULP energy -222796.663966 kJ/mol
# GULP energy per Si atom -5569.916599 kJ/mol
# Density = 1.966862 g / cm^3
# Si number density = 19.713489 Si / 1000 Ang^3
#
#
#
# Elastic Constant Matrix: (Units=GPa)
#
#
# Indices 1 2 3 4 5 6 
#
# 1 106.9360 14.0451 28.1749 0.0000 0.0000 0.0000
# 2 14.0451 86.3936 15.0236 0.0000 0.0000 0.0000
# 3 28.1749 15.0236 121.6493 0.0000 0.0000 0.0000
# 4 0.0000 0.0000 0.0000 9.4208 0.0000 0.0000
# 5 0.0000 0.0000 0.0000 0.0000 24.6396 0.0000
# 6 0.0000 0.0000 0.0000 0.0000 0.0000 12.5673
#
#
#
# Elastic Compliance Matrix: (Units=1/GPa)
#
#
# Indices 1 2 3 4 5 6 
#
# 1 0.010092 -0.001261 -0.002182 0.000000 0.000000 0.000000
# 2 -0.001261 0.011987 -0.001188 0.000000 0.000000 0.000000
# 3 -0.002182 -0.001188 0.008872 0.000000 0.000000 0.000000
# 4 0.000000 0.000000 0.000000 0.106149 0.000000 0.000000
# 5 0.000000 0.000000 0.000000 0.000000 0.040585 0.000000
# 6 0.000000 0.000000 0.000000 0.000000 0.000000 0.079572
#
#
# Mechanical properties :
#
#
# Convention : Reuss Voigt Hill
#
# Bulk Modulus (GPa) = 46.10702 47.71846 46.91274
# Shear Modulus (GPa) = 18.26498 26.50788 22.38643
#
# Velocity S-wave (km/s) = 3.04718 3.67093 3.37351
# Velocity P-wave (km/s) = 5.98496 6.49817 6.24684
#
# Compressibility (1/GPa) = 0.02168867
#
# Stress axis : x y z
#
# Youngs Moduli (GPa) = 99.09000 83.42649 112.70950
#
# Poissons Ratio (x) = 0.10522 0.24588
# Poissons Ratio (y) = 0.12498 0.13392
# Poissons Ratio (z) = 0.21617 0.09913
#
# Static dielectric constant tensor:
#      x y z
#    x 1.703110 0.000000 0.000000 
#    y 0.000000 1.719340 0.000000 
#    z 0.000000 0.000000 1.714700 
# 
# From -- ./inp_files/10710.got.cif
#   From: 2010.05.17/outbox.cif.g08.bks.cpg/sg51_6_cif.got.tgz:10710.got - 2010.06.03 11:52:47.
