data_PCOD9405191
_publ_section_title
;
Structure prediction by ZEFSAII (Michael W. Deem and Ramdas Pophale) SiO2 
 PCOD9405191
Probable space group: P M M A
;
_chemical_formula_sum "Si O2"
_cell_formula_units_Z 20
_cell_length_a 16.696134
_cell_length_b 11.696938
_cell_length_c 5.016170
_cell_angle_alpha 90.000000
_cell_angle_beta 90.000000
_cell_angle_gamma 90.000000
_cell_volume 979.626119
_symmetry_space_group_name_H-M "P M M A"
_symmetry_group_IT_number 51
_symmetry_cell_setting 'orthorhombic'
loop_
_space_group_symop_operation_xyz
x,y,z
1/2-x,-y,z
1/2+x,-y,-z
-x,y,-z
-x,-y,-z
1/2+x,y,-z
1/2-x,y,z
x,-y,z
loop_
_atom_site_type_symbol
_atom_site_label
_atom_site_fract_x
_atom_site_fract_y
_atom_site_fract_z
Si Si1 0.842603 0.631835 0.117538
Si Si2 0.559378 0.000000 0.748502
Si Si3 0.410155 0.752535 0.380909
O O1 0.750000 0.639787 0.030489
O O2 0.859358 0.500000 0.189347
O O3 0.856130 0.710304 0.375281
O O4 0.897460 0.671942 0.873231
O O5 0.500000 0.000000 0.500000
O O6 0.606574 0.118719 0.722996
O O7 0.500000 0.000000 0.000000
O O8 0.500000 0.748171 0.500000
#
# Coordination Sequence:
#
# PCOD9405191 Si02
#       3
#     8   4   8
#     4  11  24  41  59  85 125 163 195 245 311 361
#     4  10  20  38  61  88 121 152 187 244 307 346
#     4  11  22  39  64  90 116 155 206 250 293 359
#
# _framework density 20.415952999999998
#
# number of rings (size 3 to 8) (size 9 to 14) (size 15 to 20)
#    0.000    1.200    0.000    8.400    0.000    8.000 
#    0.000    6.000    0.000    0.000    0.000    0.000 
#    0.000    0.000    0.000    0.000    0.000    0.000 
#
# Total GULP energy -111735.597388 kJ/mol
# GULP energy per Si atom -5586.779869 kJ/mol
# Density = 2.036949 g / cm^3
# Si number density = 20.415953 Si / 1000 Ang^3
#
#
#
# Elastic Constant Matrix: (Units=GPa)
#
#
# Indices 1 2 3 4 5 6 
#
# 1 46.1340 49.1962 17.2597 0.0000 0.0000 0.0000
# 2 49.1962 141.3457 48.4287 0.0000 0.0000 0.0000
# 3 17.2597 48.4287 140.3568 0.0000 0.0000 0.0000
# 4 0.0000 0.0000 0.0000 38.1526 0.0000 0.0000
# 5 0.0000 0.0000 0.0000 0.0000 37.5169 0.0000
# 6 0.0000 0.0000 0.0000 0.0000 0.0000 81.2224
#
#
#
# Elastic Compliance Matrix: (Units=1/GPa)
#
#
# Indices 1 2 3 4 5 6 
#
# 1 0.034471 -0.011959 -0.000112 0.000000 0.000000 0.000000
# 2 -0.011959 0.012173 -0.002729 0.000000 0.000000 0.000000
# 3 -0.000112 -0.002729 0.008080 0.000000 0.000000 0.000000
# 4 0.000000 0.000000 0.000000 0.026211 0.000000 0.000000
# 5 0.000000 0.000000 0.000000 0.000000 0.026655 0.000000
# 6 0.000000 0.000000 0.000000 0.000000 0.000000 0.012312
#
#
# Mechanical properties :
#
#
# Convention : Reuss Voigt Hill
#
# Bulk Modulus (GPa) = 39.80634 61.95618 50.88126
# Shear Modulus (GPa) = 31.67012 45.57516 38.62264
#
# Velocity S-wave (km/s) = 3.94286 4.72988 4.35419
# Velocity P-wave (km/s) = 6.34572 7.76156 7.08908
#
# Compressibility (1/GPa) = 0.02512163
#
# Stress axis : x y z
#
# Youngs Moduli (GPa) = 29.00966 82.15215 123.75822
#
# Poissons Ratio (x) = 0.98249 0.01392
# Poissons Ratio (y) = 0.34694 0.33778
# Poissons Ratio (z) = 0.00326 0.22422
#
# Static dielectric constant tensor:
#      x y z
#    x 1.730790 0.000000 0.000000 
#    y 0.000000 1.792340 0.000000 
#    z 0.000000 0.000000 1.684180 
# 
# From -- ./inp_files/1085.got.cif
#   From: 2010.05.17/outbox.cif.g08.bks.cpg/sg51_1_cif.got.tgz:1085.got - 2010.06.03 11:52:47.
