data_PCOD9405368
_publ_section_title
;
Structure prediction by ZEFSAII (Michael W. Deem and Ramdas Pophale) SiO2 
 PCOD9405368
Probable space group: P M M A
;
_chemical_formula_sum "Si O2"
_cell_formula_units_Z 48
_cell_length_a 19.054042
_cell_length_b 7.624290
_cell_length_c 17.055059
_cell_angle_alpha 90.000000
_cell_angle_beta 90.000000
_cell_angle_gamma 90.000000
_cell_volume 2477.648828
_symmetry_space_group_name_H-M "P M M A"
_symmetry_group_IT_number 51
_symmetry_cell_setting 'orthorhombic'
loop_
_space_group_symop_operation_xyz
x,y,z
1/2-x,-y,z
1/2+x,-y,-z
-x,y,-z
-x,-y,-z
1/2+x,y,-z
1/2-x,y,z
x,-y,z
loop_
_atom_site_type_symbol
_atom_site_label
_atom_site_fract_x
_atom_site_fract_y
_atom_site_fract_z
Si Si1 0.671086 0.207748 0.156401
Si Si2 0.970921 0.285340 0.583518
Si Si3 0.903293 0.285675 0.826422
Si Si4 0.958899 0.709156 0.257907
Si Si5 0.671105 0.713620 0.665597
Si Si6 0.329963 0.709575 0.017542
O O1 0.750000 0.282599 0.165017
O O2 0.617486 0.256024 0.224413
O O3 0.676664 0.000000 0.156463
O O4 0.643147 0.259100 0.070288
O O5 0.970605 0.500000 0.581908
O O6 0.891741 0.231363 0.607475
O O7 0.000000 0.225510 0.500000
O O8 0.020909 0.227665 0.655320
O O9 0.904146 0.500000 0.828767
O O10 0.852442 0.237414 0.753952
O O11 0.875675 0.222661 0.910145
O O12 0.980876 0.225587 0.801711
O O13 0.967196 0.500000 0.261084
O O14 0.750000 0.774125 0.647927
O O15 0.671900 0.500000 0.663917
O O16 0.250000 0.778944 0.021178
O O17 0.325977 0.500000 0.027135
#
# Coordination Sequence:
#
# PCOD9405368 Si02
#       6
#     8   8   8   8   8   8
#     4  10  21  35  47  60  84 117 151 188 225 258
#     4   8  14  25  41  63  92 120 144 177 220 260
#     4   8  14  24  40  64  89 111 139 178 220 260
#     4   9  17  30  48  67  88 116 147 179 219 267
#     4   8  12  19  34  57  86 117 144 172 213 263
#     4   9  16  27  45  66  87 114 149 185 218 256
#
# _framework density 19.373204999999999
#
# number of rings (size 3 to 8) (size 9 to 14) (size 15 to 20)
#    0.000    3.333    0.000    3.000    0.000    3.667 
#    0.000    5.000    0.000    3.500    0.000    0.000 
#    0.000    6.000    0.000    1.000    0.000    0.000 
#
# Total GULP energy -267477.805816 kJ/mol
# GULP energy per Si atom -5572.454288 kJ/mol
# Density = 1.932911 g / cm^3
# Si number density = 19.373205 Si / 1000 Ang^3
#
#
#
# Elastic Constant Matrix: (Units=GPa)
#
#
# Indices 1 2 3 4 5 6 
#
# 1 129.1353 2.1618 102.7162 0.0000 0.0000 0.0000
# 2 2.1618 34.5407 4.5967 0.0000 0.0000 0.0000
# 3 102.7162 4.5967 148.9054 0.0000 0.0000 0.0000
# 4 0.0000 0.0000 0.0000 -48.4541 0.0000 0.0000
# 5 0.0000 0.0000 0.0000 0.0000 27.9130 0.0000
# 6 0.0000 0.0000 0.0000 0.0000 0.0000 -6.1251
#
#
#
# Elastic Compliance Matrix: (Units=1/GPa)
#
#
# Indices 1 2 3 4 5 6 
#
# 1 0.017167 0.000504 -0.011858 0.000000 0.000000 0.000000
# 2 0.000504 0.029086 -0.001245 0.000000 0.000000 0.000000
# 3 -0.011858 -0.001245 0.014934 0.000000 0.000000 0.000000
# 4 0.000000 0.000000 0.000000 -0.020638 0.000000 0.000000
# 5 0.000000 0.000000 0.000000 0.000000 0.035826 0.000000
# 6 0.000000 0.000000 0.000000 0.000000 0.000000 -0.163261
#
#
# Mechanical properties :
#
#
# Convention : Reuss Voigt Hill
#
# Bulk Modulus (GPa) = 27.78721 59.05897 43.42309
# Shear Modulus (GPa) = -100.61677 8.20720 -46.20479
#
# Velocity S-wave (km/s) = -7.21449 2.06048 -4.88893
# Velocity P-wave (km/s) = 7.41783 6.01762 3.06695
#
# Compressibility (1/GPa) = 0.03598779
#
# Stress axis : x y z
#
# Youngs Moduli (GPa) = 58.25119 34.38131 66.96345
#
# Poissons Ratio (x) = -0.01731 0.79402
# Poissons Ratio (y) = -0.02933 0.08339
# Poissons Ratio (z) = 0.69071 0.04281
#
# Static dielectric constant tensor:
#      x y z
#    x 1.662650 0.000000 0.000000 
#    y 0.000000 1.724740 0.000000 
#    z 0.000000 0.000000 1.660310 
# 
# From -- ./inp_files/30038.got.cif
#   From: 2010.05.17/outbox.cif.g08.bks.cpg/sg51_16_cif.got.tgz:30038.got - 2010.06.03 11:52:47.
