data_PCOD9405724
_publ_section_title
;
Structure prediction by ZEFSAII (Michael W. Deem and Ramdas Pophale) SiO2 
 PCOD9405724
Probable space group: P M M A
;
_chemical_formula_sum "Si O2"
_cell_formula_units_Z 40
_cell_length_a 7.978656
_cell_length_b 9.846566
_cell_length_c 26.334993
_cell_angle_alpha 90.000000
_cell_angle_beta 90.000000
_cell_angle_gamma 90.000000
_cell_volume 2068.939277
_symmetry_space_group_name_H-M "P M M A"
_symmetry_group_IT_number 51
_symmetry_cell_setting 'orthorhombic'
loop_
_space_group_symop_operation_xyz
x,y,z
1/2-x,-y,z
1/2+x,-y,-z
-x,y,-z
-x,-y,-z
1/2+x,y,-z
1/2-x,y,z
x,-y,z
loop_
_atom_site_type_symbol
_atom_site_label
_atom_site_fract_x
_atom_site_fract_y
_atom_site_fract_z
Si Si1 0.950232 0.153548 0.557922
Si Si2 0.950920 0.654061 0.351058
Si Si3 0.547884 0.344523 0.943966
Si Si4 0.452416 0.155325 0.147203
Si Si5 0.548135 0.844622 0.260576
O O1 0.750000 0.151412 0.560936
O O2 0.000000 0.184166 0.500000
O O3 0.014680 0.263031 0.597706
O O4 0.013063 0.000000 0.569774
O O5 0.750000 0.645808 0.345306
O O6 0.016749 0.500000 0.352308
O O7 0.016144 0.743145 0.303738
O O8 0.750000 0.347486 0.941421
O O9 0.486544 0.500000 0.939289
O O10 0.486208 0.251351 0.897986
O O11 0.500000 0.293880 0.000000
O O12 0.250000 0.153958 0.145327
O O13 0.503165 0.200048 0.203642
O O14 0.511733 0.000000 0.140647
O O15 0.750000 0.849100 0.264252
O O16 0.485993 0.000000 0.267689
#
# Coordination Sequence:
#
# PCOD9405724 Si02
#       5
#     8   8   8   8   8
#     4  10  21  37  58  82 106 136 175 215 256 304
#     4  10  21  36  54  78 108 140 173 211 256 304
#     4   9  18  32  48  67  93 125 159 195 239 291
#     4   9  18  32  49  70  96 125 159 201 247 293
#     4   9  18  33  52  73  99 132 168 206 249 297
#
# _framework density 19.333576999999998
#
# number of rings (size 3 to 8) (size 9 to 14) (size 15 to 20)
#    0.000    2.600    0.000    1.200    0.000    5.600 
#    0.000    2.000    0.000    0.000    0.000    0.000 
#    0.000    0.000    0.000    0.000    0.000    0.000 
#
# Total GULP energy -223197.532832 kJ/mol
# GULP energy per Si atom -5579.938321 kJ/mol
# Density = 1.928957 g / cm^3
# Si number density = 19.333577 Si / 1000 Ang^3
#
#
#
# Elastic Constant Matrix: (Units=GPa)
#
#
# Indices 1 2 3 4 5 6 
#
# 1 12.8788 8.9635 -0.0760 0.0000 0.0000 0.0000
# 2 8.9635 130.7730 128.4860 0.0000 0.0000 0.0000
# 3 -0.0760 128.4860 175.4762 0.0000 0.0000 0.0000
# 4 0.0000 0.0000 0.0000 -46.5474 0.0000 0.0000
# 5 0.0000 0.0000 0.0000 0.0000 29.3967 0.0000
# 6 0.0000 0.0000 0.0000 0.0000 0.0000 0.6676
#
#
#
# Elastic Compliance Matrix: (Units=1/GPa)
#
#
# Indices 1 2 3 4 5 6 
#
# 1 0.093792 -0.023054 0.016921 0.000000 0.000000 0.000000
# 2 -0.023054 0.032919 -0.024114 0.000000 0.000000 0.000000
# 3 0.016921 -0.024114 0.023362 0.000000 0.000000 0.000000
# 4 0.000000 0.000000 0.000000 -0.021483 0.000000 0.000000
# 5 0.000000 0.000000 0.000000 0.000000 0.034017 0.000000
# 6 0.000000 0.000000 0.000000 0.000000 0.000000 1.497880
#
#
# Mechanical properties :
#
#
# Convention : Reuss Voigt Hill
#
# Bulk Modulus (GPa) = 11.16314 65.98611 38.57462
# Shear Modulus (GPa) = 2.85577 8.82035 5.83806
#
# Velocity S-wave (km/s) = 1.21668 2.13825 1.73960
# Velocity P-wave (km/s) = 2.78572 6.34827 4.90208
#
# Compressibility (1/GPa) = 0.08958052
#
# Stress axis : x y z
#
# Youngs Moduli (GPa) = 10.66188 30.37764 42.80373
#
# Poissons Ratio (x) = 0.70031 -0.72427
# Poissons Ratio (y) = 0.24579 1.03215
# Poissons Ratio (z) = -0.18041 0.73252
#
# Static dielectric constant tensor:
#      x y z
#    x 1.688570 0.000000 0.000000 
#    y 0.000000 1.683580 0.000000 
#    z 0.000000 0.000000 1.645150 
# 
# From -- ./inp_files/32803.got.cif
#   From: 2010.05.17/outbox.cif.g08.bks.cpg/sg51_17_cif.got.tgz:32803.got - 2010.06.03 11:52:47.
