data_PCOD9405574
_publ_section_title
;
Structure prediction by ZEFSAII (Michael W. Deem and Ramdas Pophale) SiO2 
 PCOD9405574
Probable space group: P M M A
;
_chemical_formula_sum "Si O2"
_cell_formula_units_Z 64
_cell_length_a 8.623776
_cell_length_b 15.067463
_cell_length_c 29.568802
_cell_angle_alpha 90.000000
_cell_angle_beta 90.000000
_cell_angle_gamma 90.000000
_cell_volume 3842.123585
_symmetry_space_group_name_H-M "P M M A"
_symmetry_group_IT_number 51
_symmetry_cell_setting 'orthorhombic'
loop_
_space_group_symop_operation_xyz
x,y,z
1/2-x,-y,z
1/2+x,-y,-z
-x,y,-z
-x,-y,-z
1/2+x,y,-z
1/2-x,y,z
x,-y,z
loop_
_atom_site_type_symbol
_atom_site_label
_atom_site_fract_x
_atom_site_fract_y
_atom_site_fract_z
Si Si1 0.060612 0.217761 0.771854
Si Si2 0.934748 0.723963 0.452351
Si Si3 0.929074 0.892250 0.952662
Si Si4 0.065804 0.101163 0.414150
Si Si5 0.932718 0.104408 0.315362
Si Si6 0.936763 0.897558 0.143379
Si Si7 0.561466 0.601899 0.370353
Si Si8 0.439146 0.600740 0.732879
O O1 0.250000 0.216817 0.772861
O O2 0.016094 0.163245 0.726889
O O3 0.007117 0.166274 0.816530
O O4 0.010626 0.319615 0.765412
O O5 0.750000 0.717997 0.453308
O O6 0.993870 0.667369 0.409402
O O7 0.000000 0.691392 0.500000
O O8 0.984361 0.825204 0.444231
O O9 0.750000 0.867392 0.950283
O O10 0.013143 0.866141 0.906366
O O11 0.938833 0.000000 0.953731
O O12 0.000000 0.860160 0.000000
O O13 0.250000 0.106206 0.420202
O O14 0.023139 0.119889 0.361770
O O15 0.014434 0.000000 0.423605
O O16 0.750000 0.123332 0.324017
O O17 0.945783 0.000000 0.303706
O O18 0.750000 0.899403 0.144880
O O19 0.990209 0.000000 0.149988
O O20 0.750000 0.605732 0.370279
O O21 0.517707 0.500000 0.379825
O O22 0.513679 0.622846 0.318890
O O23 0.250000 0.599706 0.733161
O O24 0.489625 0.500000 0.743420
#
# Coordination Sequence:
#
# PCOD9405574 Si02
#       8
#     8   8   8   8   8   8   8   8
#     4   9  15  23  38  61  89 119 148 178 214 255
#     4  11  22  35  52  72  93 116 142 175 216 262
#     4   9  16  26  40  57  79 111 151 190 224 259
#     4  10  21  36  51  67  89 117 149 184 219 256
#     4   9  16  27  45  67  88 113 147 182 215 255
#     4   9  16  25  37  56  85 119 152 185 219 254
#     4   8  15  29  49  72  95 117 142 174 214 260
#     4   8  13  22  38  61  87 113 142 175 208 245
#
# _framework density 16.657454000000001
#
# number of rings (size 3 to 8) (size 9 to 14) (size 15 to 20)
#    0.000    2.875    0.000    3.000    0.000    6.250 
#    0.000    0.625    0.000    4.125    0.000    0.000 
#    0.000    2.000    0.000    0.875    0.000    1.250 
#
# Total GULP energy -356691.359589 kJ/mol
# GULP energy per Si atom -5573.302494 kJ/mol
# Density = 1.661954 g / cm^3
# Si number density = 16.657454 Si / 1000 Ang^3
#
#
#
# Elastic Constant Matrix: (Units=GPa)
#
#
# Indices 1 2 3 4 5 6 
#
# 1 10.4183 12.6973 11.2121 0.0000 0.0000 0.0000
# 2 12.6973 75.1419 62.7002 0.0000 0.0000 0.0000
# 3 11.2121 62.7002 85.7614 0.0000 0.0000 0.0000
# 4 0.0000 0.0000 0.0000 15.3571 0.0000 0.0000
# 5 0.0000 0.0000 0.0000 0.0000 20.2039 0.0000
# 6 0.0000 0.0000 0.0000 0.0000 0.0000 4.3547
#
#
#
# Elastic Compliance Matrix: (Units=1/GPa)
#
#
# Indices 1 2 3 4 5 6 
#
# 1 0.121046 -0.018590 -0.002234 0.000000 0.000000 0.000000
# 2 -0.018590 0.036983 -0.024608 0.000000 0.000000 0.000000
# 3 -0.002234 -0.024608 0.029943 0.000000 0.000000 0.000000
# 4 0.000000 0.000000 0.000000 0.065116 0.000000 0.000000
# 5 0.000000 0.000000 0.000000 0.000000 0.049495 0.000000
# 6 0.000000 0.000000 0.000000 0.000000 0.000000 0.229636
#
#
# Mechanical properties :
#
#
# Convention : Reuss Voigt Hill
#
# Bulk Modulus (GPa) = 10.29775 38.28231 24.29003
# Shear Modulus (GPa) = 7.62832 13.63060 10.62946
#
# Velocity S-wave (km/s) = 2.14230 2.86368 2.52884
# Velocity P-wave (km/s) = 3.50924 5.82805 4.81045
#
# Compressibility (1/GPa) = 0.09710854
#
# Stress axis : x y z
#
# Youngs Moduli (GPa) = 8.26130 27.03966 33.39687
#
# Poissons Ratio (x) = 0.50268 0.07460
# Poissons Ratio (y) = 0.15358 0.82182
# Poissons Ratio (z) = 0.01845 0.66538
#
# Static dielectric constant tensor:
#      x y z
#    x 1.569210 0.000000 0.000000 
#    y 0.000000 1.570800 0.000000 
#    z 0.000000 0.000000 1.557040 
# 
# From -- ./inp_files/37539.got.cif
#   From: 2010.05.17/outbox.cif.g08.bks.cpg/sg51_19_cif.got.tgz:37539.got - 2010.06.03 11:52:47.
