data_PCOD9405706
_publ_section_title
;
Structure prediction by ZEFSAII (Michael W. Deem and Ramdas Pophale) SiO2 
 PCOD9405706
Probable space group: P M M A
;
_chemical_formula_sum "Si O2"
_cell_formula_units_Z 48
_cell_length_a 7.732279
_cell_length_b 9.799058
_cell_length_c 31.475801
_cell_angle_alpha 90.000000
_cell_angle_beta 90.000000
_cell_angle_gamma 90.000000
_cell_volume 2384.891552
_symmetry_space_group_name_H-M "P M M A"
_symmetry_group_IT_number 51
_symmetry_cell_setting 'orthorhombic'
loop_
_space_group_symop_operation_xyz
x,y,z
1/2-x,-y,z
1/2+x,-y,-z
-x,y,-z
-x,-y,-z
1/2+x,y,-z
1/2-x,y,z
x,-y,z
loop_
_atom_site_type_symbol
_atom_site_label
_atom_site_fract_x
_atom_site_fract_y
_atom_site_fract_z
Si Si1 0.462135 0.156877 0.874471
Si Si2 0.044107 0.346006 0.548594
Si Si3 0.542008 0.344420 0.203044
Si Si4 0.955786 0.153497 0.625797
Si Si5 0.042067 0.655043 0.299297
Si Si6 0.457792 0.655307 0.951792
O O1 0.250000 0.156106 0.874474
O O2 0.519273 0.240383 0.832856
O O3 0.519582 0.239872 0.916169
O O4 0.518382 0.000000 0.874386
O O5 0.250000 0.351081 0.552206
O O6 0.975333 0.500000 0.556919
O O7 0.000000 0.310750 0.500000
O O8 0.980203 0.237739 0.582641
O O9 0.750000 0.349408 0.199807
O O10 0.477628 0.500000 0.196414
O O11 0.497851 0.303032 0.251073
O O12 0.750000 0.142486 0.632545
O O13 0.026345 0.242295 0.665102
O O14 0.026717 0.000000 0.623493
O O15 0.250000 0.649456 0.303362
O O16 0.975992 0.500000 0.305436
O O17 0.250000 0.649928 0.948140
O O18 0.522996 0.500000 0.945083
O O19 0.500000 0.695850 0.000000
#
# Coordination Sequence:
#
# PCOD9405706 Si02
#       6
#     8   8   8   8   8   8
#     4   9  17  29  46  68  93 122 155 191 234 284
#     4  10  21  37  58  82 106 135 173 215 257 301
#     4   9  17  30  49  71  93 120 158 201 240 282
#     4  10  21  36  54  77 106 140 174 208 251 303
#     4   9  18  33  52  73  99 132 167 204 248 295
#     4   9  17  30  48  68  90 118 153 192 233 278
#
# _framework density 20.126701000000001
#
# number of rings (size 3 to 8) (size 9 to 14) (size 15 to 20)
#    0.000    2.667    0.000    1.500    0.000    6.000 
#    0.000    2.500    0.000    5.000    0.000    0.000 
#    0.000    0.000    0.000    0.000    0.000    0.000 
#
# Total GULP energy -267909.707764 kJ/mol
# GULP energy per Si atom -5581.452245 kJ/mol
# Density = 2.008089 g / cm^3
# Si number density = 20.126701 Si / 1000 Ang^3
#
#
#
# Elastic Constant Matrix: (Units=GPa)
#
#
# Indices 1 2 3 4 5 6 
#
# 1 29.4761 6.6276 -3.1196 0.0000 0.0000 0.0000
# 2 6.6276 170.4190 155.4629 0.0000 0.0000 0.0000
# 3 -3.1196 155.4629 188.0431 0.0000 0.0000 0.0000
# 4 0.0000 0.0000 0.0000 -22.0066 0.0000 0.0000
# 5 0.0000 0.0000 0.0000 0.0000 26.5160 0.0000
# 6 0.0000 0.0000 0.0000 0.0000 0.0000 6.3484
#
#
#
# Elastic Compliance Matrix: (Units=1/GPa)
#
#
# Indices 1 2 3 4 5 6 
#
# 1 0.036495 -0.008021 0.007237 0.000000 0.000000 0.000000
# 2 -0.008021 0.025634 -0.021326 0.000000 0.000000 0.000000
# 3 0.007237 -0.021326 0.023069 0.000000 0.000000 0.000000
# 4 0.000000 0.000000 0.000000 -0.045441 0.000000 0.000000
# 5 0.000000 0.000000 0.000000 0.000000 0.037713 0.000000
# 6 0.000000 0.000000 0.000000 0.000000 0.000000 0.157521
#
#
# Mechanical properties :
#
#
# Convention : Reuss Voigt Hill
#
# Bulk Modulus (GPa) = 24.40328 78.43112 51.41720
# Shear Modulus (GPa) = 17.07240 17.43603 17.25422
#
# Velocity S-wave (km/s) = 2.91563 2.94651 2.93111
# Velocity P-wave (km/s) = 4.84620 7.11542 6.08748
#
# Compressibility (1/GPa) = 0.04097810
#
# Stress axis : x y z
#
# Youngs Moduli (GPa) = 27.40088 39.01065 43.34848
#
# Poissons Ratio (x) = 0.31290 -0.31369
# Poissons Ratio (y) = 0.21978 0.92444
# Poissons Ratio (z) = -0.19829 0.83193
#
# Static dielectric constant tensor:
#      x y z
#    x 1.740850 0.000000 0.000000 
#    y 0.000000 1.709830 0.000000 
#    z 0.000000 0.000000 1.680960 
# 
# From -- ./inp_files/36911.got.cif
#   From: 2010.05.17/outbox.cif.g08.bks.cpg/sg51_19_cif.got.tgz:36911.got - 2010.06.03 11:52:47.
