data_PCOD9405346
_publ_section_title
;
Structure prediction by ZEFSAII (Michael W. Deem and Ramdas Pophale) SiO2 
 PCOD9405346
Probable space group: P M M A
;
_chemical_formula_sum "Si O2"
_cell_formula_units_Z 34
_cell_length_a 26.912475
_cell_length_b 7.503647
_cell_length_c 7.114075
_cell_angle_alpha 90.000000
_cell_angle_beta 90.000000
_cell_angle_gamma 90.000000
_cell_volume 1436.628487
_symmetry_space_group_name_H-M "P M M A"
_symmetry_group_IT_number 51
_symmetry_cell_setting 'orthorhombic'
loop_
_space_group_symop_operation_xyz
x,y,z
1/2-x,-y,z
1/2+x,-y,-z
-x,y,-z
-x,-y,-z
1/2+x,y,-z
1/2-x,y,z
x,-y,z
loop_
_atom_site_type_symbol
_atom_site_label
_atom_site_fract_x
_atom_site_fract_y
_atom_site_fract_z
Si Si1 0.632020 0.788983 0.995557
Si Si2 0.805400 0.293525 0.334707
Si Si3 0.035694 0.212171 0.738133
Si Si4 0.896590 0.204819 0.593377
Si Si5 0.000000 0.500000 0.000000
O O1 0.677336 0.715280 0.117760
O O2 0.583421 0.762849 0.123791
O O3 0.641241 0.000000 0.978598
O O4 0.620145 0.712687 0.790504
O O5 0.750000 0.220571 0.359023
O O6 0.805301 0.500000 0.390788
O O7 0.848145 0.204848 0.459184
O O8 0.942271 0.269060 0.464343
O O9 0.023588 0.000000 0.736992
O O10 0.997250 0.342598 0.835602
O O11 0.909999 0.000000 0.635204
#
# Coordination Sequence:
#
# PCOD9405346 Si02
#       5
#     8   8   8   8   2
#     4   9  19  37  59  79 105 146 188 228 275 323
#     4  10  21  34  50  80 117 147 181 227 274 322
#     4   9  20  38  57  83 116 144 184 233 276 337
#     4   9  19  37  59  79 105 146 188 228 275 323
#     4  12  22  36  62  86 110 150 182 220 294 342
#
# _framework density 23.666525
#
# number of rings (size 3 to 8) (size 9 to 14) (size 15 to 20)
#    0.000    2.588    0.000    2.471    6.588    3.765 
#    0.000    7.059    0.000    5.647    0.000    0.000 
#    0.000    0.000    0.000    0.000    0.000    0.000 
#
# Total GULP energy -189400.460269 kJ/mol
# GULP energy per Si atom -5570.601773 kJ/mol
# Density = 2.361266 g / cm^3
# Si number density = 23.666525 Si / 1000 Ang^3
#
#
#
# Elastic Constant Matrix: (Units=GPa)
#
#
# Indices 1 2 3 4 5 6 
#
# 1 102.0235 -12.8139 27.9231 0.0000 0.0000 0.0000
# 2 -12.8139 33.3126 22.4937 0.0000 0.0000 0.0000
# 3 27.9231 22.4937 163.4866 0.0000 0.0000 0.0000
# 4 0.0000 0.0000 0.0000 -69.1538 0.0000 0.0000
# 5 0.0000 0.0000 0.0000 0.0000 22.2754 0.0000
# 6 0.0000 0.0000 0.0000 0.0000 0.0000 14.3200
#
#
#
# Elastic Compliance Matrix: (Units=1/GPa)
#
#
# Indices 1 2 3 4 5 6 
#
# 1 0.011354 0.006258 -0.002800 0.000000 0.000000 0.000000
# 2 0.006258 0.036543 -0.006097 0.000000 0.000000 0.000000
# 3 -0.002800 -0.006097 0.007434 0.000000 0.000000 0.000000
# 4 0.000000 0.000000 0.000000 -0.014461 0.000000 0.000000
# 5 0.000000 0.000000 0.000000 0.000000 0.044893 0.000000
# 6 0.000000 0.000000 0.000000 0.000000 0.000000 0.069833
#
#
# Mechanical properties :
#
#
# Convention : Reuss Voigt Hill
#
# Bulk Modulus (GPa) = 19.97880 41.55874 30.76877
# Shear Modulus (GPa) = 28.15998 10.90298 19.53148
#
# Velocity S-wave (km/s) = 3.45318 2.14870 2.87588
# Velocity P-wave (km/s) = 4.93553 4.87382 4.90477
#
# Compressibility (1/GPa) = 0.05005306
#
# Stress axis : x y z
#
# Youngs Moduli (GPa) = 88.07385 27.36533 134.52029
#
# Poissons Ratio (x) = -0.17126 0.37670
# Poissons Ratio (y) = -0.55119 0.82013
# Poissons Ratio (z) = 0.24663 0.16684
#
# Static dielectric constant tensor:
#      x y z
#    x 2.001890 0.000000 0.000000 
#    y 0.000000 1.960720 0.000000 
#    z 0.000000 0.000000 1.943590 
# 
# From -- ./inp_files/10427.got.cif
#   From: 2010.05.17/outbox.cif.g08.bks.cpg/sg51_6_cif.got.tgz:10427.got - 2010.06.03 11:52:47.
