data_PCOD9405984
_publ_section_title
;
Structure prediction by ZEFSAII (Michael W. Deem and Ramdas Pophale) SiO2 
 PCOD9405984
Probable space group: P M M A
;
_chemical_formula_sum "Si O2"
_cell_formula_units_Z 48
_cell_length_a 8.679333
_cell_length_b 14.797532
_cell_length_c 21.142986
_cell_angle_alpha 90.000000
_cell_angle_beta 90.000000
_cell_angle_gamma 90.000000
_cell_volume 2715.450943
_symmetry_space_group_name_H-M "P M M A"
_symmetry_group_IT_number 51
_symmetry_cell_setting 'orthorhombic'
loop_
_space_group_symop_operation_xyz
x,y,z
1/2-x,-y,z
1/2+x,-y,-z
-x,y,-z
-x,-y,-z
1/2+x,y,-z
1/2-x,y,z
x,-y,z
loop_
_atom_site_type_symbol
_atom_site_label
_atom_site_fract_x
_atom_site_fract_y
_atom_site_fract_z
Si Si1 0.565537 0.604971 0.931141
Si Si2 0.564348 0.898317 0.388257
Si Si3 0.937049 0.099674 0.239573
Si Si4 0.934999 0.289029 0.187497
Si Si5 0.563944 0.605887 0.691628
Si Si6 0.066364 0.713007 0.434127
O O1 0.750000 0.609600 0.932407
O O2 0.521244 0.500000 0.918626
O O3 0.501560 0.667476 0.875805
O O4 0.500000 0.629264 0.000000
O O5 0.750000 0.891549 0.393241
O O6 0.523361 0.888907 0.313736
O O7 0.488103 0.816107 0.424662
O O8 0.519613 0.000000 0.408374
O O9 0.750000 0.098866 0.237395
O O10 0.989115 0.186050 0.200062
O O11 0.990790 0.000000 0.219026
O O12 0.750000 0.289741 0.184594
O O13 0.989021 0.346992 0.247832
O O14 0.750000 0.613789 0.696969
O O15 0.525605 0.500000 0.689302
O O16 0.515116 0.656341 0.627292
O O17 0.250000 0.710054 0.436668
O O18 0.000000 0.677519 0.500000
#
# Coordination Sequence:
#
# PCOD9405984 Si02
#       6
#     8   8   8   8   8   8
#     4  10  21  37  56  80 114 151 184 220 263 311
#     4   9  17  33  56  78 103 135 171 214 265 319
#     4   8  15  29  51  79 109 139 171 211 260 311
#     4  11  20  32  57  87 112 140 177 218 262 313
#     4  10  22  39  55  74 103 138 176 220 269 318
#     4  11  23  37  54  74 101 136 176 222 272 323
#
# _framework density 17.676621999999998
#
# number of rings (size 3 to 8) (size 9 to 14) (size 15 to 20)
#    0.000    2.167    1.667    3.000    0.000    5.000 
#    0.000    0.000    0.000    2.500    0.000    0.000 
#    0.000    0.000    0.000    0.000    0.000    0.000 
#
# Total GULP energy -267929.785693 kJ/mol
# GULP energy per Si atom -5581.870535 kJ/mol
# Density = 1.763639 g / cm^3
# Si number density = 17.676622 Si / 1000 Ang^3
#
#
#
# Elastic Constant Matrix: (Units=GPa)
#
#
# Indices 1 2 3 4 5 6 
#
# 1 27.0516 29.9476 34.0027 0.0000 0.0000 0.0000
# 2 29.9476 120.7578 79.4986 0.0000 0.0000 0.0000
# 3 34.0027 79.4986 133.4488 0.0000 0.0000 0.0000
# 4 0.0000 0.0000 0.0000 9.5051 0.0000 0.0000
# 5 0.0000 0.0000 0.0000 0.0000 31.5040 0.0000
# 6 0.0000 0.0000 0.0000 0.0000 0.0000 36.3892
#
#
#
# Elastic Compliance Matrix: (Units=1/GPa)
#
#
# Indices 1 2 3 4 5 6 
#
# 1 0.058452 -0.007718 -0.010296 0.000000 0.000000 0.000000
# 2 -0.007718 0.014643 -0.006757 0.000000 0.000000 0.000000
# 3 -0.010296 -0.006757 0.014142 0.000000 0.000000 0.000000
# 4 0.000000 0.000000 0.000000 0.105207 0.000000 0.000000
# 5 0.000000 0.000000 0.000000 0.000000 0.031742 0.000000
# 6 0.000000 0.000000 0.000000 0.000000 0.000000 0.027481
#
#
# Mechanical properties :
#
#
# Convention : Reuss Voigt Hill
#
# Bulk Modulus (GPa) = 26.52785 63.12843 44.82814
# Shear Modulus (GPa) = 15.93508 24.66695 20.30101
#
# Velocity S-wave (km/s) = 3.00572 3.73963 3.39258
# Velocity P-wave (km/s) = 5.20439 7.37814 6.38446
#
# Compressibility (1/GPa) = 0.03769624
#
# Stress axis : x y z
#
# Youngs Moduli (GPa) = 17.10812 68.29075 70.71098
#
# Poissons Ratio (x) = 0.52706 0.72802
# Poissons Ratio (y) = 0.13204 0.47778
# Poissons Ratio (z) = 0.17614 0.46143
#
# Static dielectric constant tensor:
#      x y z
#    x 1.597780 0.000000 0.000000 
#    y 0.000000 1.611270 0.000000 
#    z 0.000000 0.000000 1.578470 
# 
# From -- ./inp_files/27566.got.cif
#   From: 2010.05.17/outbox.cif.g08.bks.cpg/sg51_14_cif.got.tgz:27566.got - 2010.06.03 11:52:47.
