data_PCOD9405428
_publ_section_title
;
Structure prediction by ZEFSAII (Michael W. Deem and Ramdas Pophale) SiO2 
 PCOD9405428
Probable space group: P M M A
;
_chemical_formula_sum "Si O2"
_cell_formula_units_Z 32
_cell_length_a 7.515336
_cell_length_b 21.923151
_cell_length_c 9.100826
_cell_angle_alpha 90.000000
_cell_angle_beta 90.000000
_cell_angle_gamma 90.000000
_cell_volume 1499.450690
_symmetry_space_group_name_H-M "P M M A"
_symmetry_group_IT_number 51
_symmetry_cell_setting 'orthorhombic'
loop_
_space_group_symop_operation_xyz
x,y,z
1/2-x,-y,z
1/2+x,-y,-z
-x,y,-z
-x,-y,-z
1/2+x,y,-z
1/2-x,y,z
x,-y,z
loop_
_atom_site_type_symbol
_atom_site_label
_atom_site_fract_x
_atom_site_fract_y
_atom_site_fract_z
Si Si1 0.462987 0.000000 0.674909
Si Si2 0.463422 0.745414 0.827731
Si Si3 0.963707 0.867625 0.325984
Si Si4 0.536592 0.500000 0.172703
Si Si5 0.036617 0.622790 0.672614
O O1 0.500000 0.000000 0.500000
O O2 0.531622 0.065908 0.727303
O O3 0.250000 0.000000 0.696302
O O4 0.250000 0.746222 0.807275
O O5 0.533031 0.808543 0.758932
O O6 0.532320 0.685114 0.745525
O O7 0.500000 0.741791 0.000000
O O8 0.750000 0.868966 0.308944
O O9 0.000000 0.861561 0.500000
O O10 0.750000 0.500000 0.192398
O O11 0.467610 0.438309 0.248700
O O12 0.500000 0.500000 0.000000
O O13 0.250000 0.623048 0.692450
O O14 0.000000 0.621359 0.500000
#
# Coordination Sequence:
#
# PCOD9405428 Si02
#       5
#     4   8   8   4   8
#     4   8  14  26  45  68  94 122 154 196 241 284
#     4  10  21  35  50  71  99 130 164 201 243 291
#     4   9  17  30  49  72  96 124 160 200 242 289
#     4  10  21  36  54  78 106 134 165 200 240 288
#     4  10  21  36  54  77 102 129 165 205 243 287
#
# _framework density 21.341146999999999
#
# number of rings (size 3 to 8) (size 9 to 14) (size 15 to 20)
#    0.000    2.500    0.000    1.875    0.000    3.000 
#    0.000    0.625    0.000    0.000    0.000    0.000 
#    0.000    0.000    0.000    0.000    0.000    0.000 
#
# Total GULP energy -178636.691273 kJ/mol
# GULP energy per Si atom -5582.396602 kJ/mol
# Density = 2.129257 g / cm^3
# Si number density = 21.341147 Si / 1000 Ang^3
#
#
#
# Elastic Constant Matrix: (Units=GPa)
#
#
# Indices 1 2 3 4 5 6 
#
# 1 59.3114 16.1099 -13.2389 0.0000 0.0000 0.0000
# 2 16.1099 296.0964 130.6708 0.0000 0.0000 0.0000
# 3 -13.2389 130.6708 141.1415 0.0000 0.0000 0.0000
# 4 0.0000 0.0000 0.0000 -30.9415 0.0000 0.0000
# 5 0.0000 0.0000 0.0000 0.0000 26.6148 0.0000
# 6 0.0000 0.0000 0.0000 0.0000 0.0000 -33.7968
#
#
#
# Elastic Compliance Matrix: (Units=1/GPa)
#
#
# Indices 1 2 3 4 5 6 
#
# 1 0.018700 -0.003029 0.004559 0.000000 0.000000 0.000000
# 2 -0.003029 0.006201 -0.006025 0.000000 0.000000 0.000000
# 3 0.004559 -0.006025 0.013091 0.000000 0.000000 0.000000
# 4 0.000000 0.000000 0.000000 -0.032319 0.000000 0.000000
# 5 0.000000 0.000000 0.000000 0.000000 0.037573 0.000000
# 6 0.000000 0.000000 0.000000 0.000000 0.000000 -0.029589
#
#
# Mechanical properties :
#
#
# Convention : Reuss Voigt Hill
#
# Bulk Modulus (GPa) = 34.48185 84.84810 59.66498
# Shear Modulus (GPa) = 154.72024 16.57579 85.64801
#
# Velocity S-wave (km/s) = 8.52385 2.78997 6.34192
# Velocity P-wave (km/s) = 10.63330 7.08681 9.03576
#
# Compressibility (1/GPa) = 0.02900077
#
# Stress axis : x y z
#
# Youngs Moduli (GPa) = 53.47461 161.26263 76.38919
#
# Poissons Ratio (x) = 0.48849 -0.34822
# Poissons Ratio (y) = 0.16198 0.46026
# Poissons Ratio (z) = -0.24377 0.97163
#
# Static dielectric constant tensor:
#      x y z
#    x 1.776860 0.000000 0.000000 
#    y 0.000000 1.820960 0.000000 
#    z 0.000000 0.000000 1.682200 
# 
# From -- ./inp_files/756.got.cif
#   From: 2010.05.17/outbox.cif.g08.bks.cpg/sg51_1_cif.got.tgz:756.got - 2010.06.03 11:52:47.
