data_PCOD9405225
_publ_section_title
;
Structure prediction by ZEFSAII (Michael W. Deem and Ramdas Pophale) SiO2 
 PCOD9405225
Probable space group: P M M A
;
_chemical_formula_sum "Si O2"
_cell_formula_units_Z 56
_cell_length_a 14.594585
_cell_length_b 14.363904
_cell_length_c 12.005782
_cell_angle_alpha 90.000000
_cell_angle_beta 90.000000
_cell_angle_gamma 90.000000
_cell_volume 2516.834725
_symmetry_space_group_name_H-M "P M M A"
_symmetry_group_IT_number 51
_symmetry_cell_setting 'orthorhombic'
loop_
_space_group_symop_operation_xyz
x,y,z
1/2-x,-y,z
1/2+x,-y,-z
-x,y,-z
-x,-y,-z
1/2+x,y,-z
1/2-x,y,z
x,-y,z
loop_
_atom_site_type_symbol
_atom_site_label
_atom_site_fract_x
_atom_site_fract_y
_atom_site_fract_z
Si Si1 0.351993 0.772494 0.294563
Si Si2 0.361965 0.392531 0.444566
Si Si3 0.646156 0.611027 0.309030
Si Si4 0.984169 0.398823 0.867759
Si Si5 0.852864 0.891419 0.242053
Si Si6 0.609673 0.107808 0.497569
Si Si7 0.479648 0.808301 0.126132
O O1 0.250000 0.754635 0.250489
O O2 0.392334 0.673711 0.343342
O O3 0.347569 0.826785 0.411297
O O4 0.406020 0.845258 0.214188
O O5 0.250000 0.392276 0.444526
O O6 0.392564 0.500000 0.430668
O O7 0.388595 0.356557 0.568743
O O8 0.750000 0.647532 0.287144
O O9 0.655566 0.500000 0.326220
O O10 0.575695 0.617425 0.206589
O O11 0.944176 0.500000 0.832712
O O12 0.938830 0.296935 0.869294
O O13 0.000000 0.408609 0.000000
O O14 0.750000 0.880493 0.199895
O O15 0.856267 0.873492 0.373236
O O16 0.923543 0.823471 0.184363
O O17 0.880615 0.000000 0.224717
O O18 0.500000 0.120157 0.500000
O O19 0.629711 0.000000 0.521809
O O20 0.500000 0.837469 0.000000
#
# Coordination Sequence:
#
# PCOD9405225 Si02
#       7
#     8   8   8   8   8   8   8
#     4  11  23  38  61  91 124 162 204 248 305 369
#     4   8  16  31  52  84 123 156 192 244 305 367
#     4   8  14  27  50  79 108 141 188 247 305 358
#     4   9  19  36  54  76 113 160 208 253 296 346
#     4  10  22  42  68  95 122 156 200 249 305 370
#     4  10  20  38  65  96 129 160 191 239 304 372
#     4  11  25  42  61  87 123 165 209 260 306 354
#
# _framework density 22.250169
#
# number of rings (size 3 to 8) (size 9 to 14) (size 15 to 20)
#    0.000    2.429    1.429    1.286    2.000    2.857 
#    0.000    2.143    0.000    3.857    0.000    0.000 
#    0.000    0.000    0.000    0.000    0.000    0.000 
#
# Total GULP energy -311895.341072 kJ/mol
# GULP energy per Si atom -5569.559662 kJ/mol
# Density = 2.219953 g / cm^3
# Si number density = 22.250169 Si / 1000 Ang^3
#
#
#
# Elastic Constant Matrix: (Units=GPa)
#
#
# Indices 1 2 3 4 5 6 
#
# 1 66.2124 1.3086 22.9944 0.0000 0.0000 0.0000
# 2 1.3086 56.4866 6.1489 0.0000 0.0000 0.0000
# 3 22.9944 6.1489 110.6283 0.0000 0.0000 0.0000
# 4 0.0000 0.0000 0.0000 -5.0254 0.0000 0.0000
# 5 0.0000 0.0000 0.0000 0.0000 -13.9223 0.0000
# 6 0.0000 0.0000 0.0000 0.0000 0.0000 9.7554
#
#
#
# Elastic Compliance Matrix: (Units=1/GPa)
#
#
# Indices 1 2 3 4 5 6 
#
# 1 0.016278 -0.000009 -0.003383 0.000000 0.000000 0.000000
# 2 -0.000009 0.017811 -0.000988 0.000000 0.000000 0.000000
# 3 -0.003383 -0.000988 0.009797 0.000000 0.000000 0.000000
# 4 0.000000 0.000000 0.000000 -0.198988 0.000000 0.000000
# 5 0.000000 0.000000 0.000000 0.000000 -0.071827 0.000000
# 6 0.000000 0.000000 0.000000 0.000000 0.000000 0.102507
#
#
# Mechanical properties :
#
#
# Convention : Reuss Voigt Hill
#
# Bulk Modulus (GPa) = 28.46850 32.69235 30.58043
# Shear Modulus (GPa) = -48.09871 11.68655 -18.20608
#
# Velocity S-wave (km/s) = -4.65448 2.29429 -2.86360
# Velocity P-wave (km/s) = 4.00787 4.66297 1.68527
#
# Compressibility (1/GPa) = 0.03512654
#
# Stress axis : x y z
#
# Youngs Moduli (GPa) = 61.43289 56.14480 102.06839
#
# Poissons Ratio (x) = 0.00050 0.34529
# Poissons Ratio (y) = 0.00054 0.10086
# Poissons Ratio (z) = 0.20782 0.05548
#
# Static dielectric constant tensor:
#      x y z
#    x 1.806220 0.000000 0.000000 
#    y 0.000000 2.011260 0.000000 
#    z 0.000000 0.000000 -11.992640 
# 
# From -- ./inp_files/16672.got.cif
#   From: 2010.05.17/outbox.cif.g08.bks.cpg/sg51_9_cif.got.tgz:16672.got - 2010.06.03 11:52:47.
