data_PCOD9405243
_publ_section_title
;
Structure prediction by ZEFSAII (Michael W. Deem and Ramdas Pophale) SiO2 
 PCOD9405243
Probable space group: P M M A
;
_chemical_formula_sum "Si O2"
_cell_formula_units_Z 64
_cell_length_a 24.352162
_cell_length_b 8.996385
_cell_length_c 15.073361
_cell_angle_alpha 90.000000
_cell_angle_beta 90.000000
_cell_angle_gamma 90.000000
_cell_volume 3302.293406
_symmetry_space_group_name_H-M "P M M A"
_symmetry_group_IT_number 51
_symmetry_cell_setting 'orthorhombic'
loop_
_space_group_symop_operation_xyz
x,y,z
1/2-x,-y,z
1/2+x,-y,-z
-x,y,-z
-x,-y,-z
1/2+x,y,-z
1/2-x,y,z
x,-y,z
loop_
_atom_site_type_symbol
_atom_site_label
_atom_site_fract_x
_atom_site_fract_y
_atom_site_fract_z
Si Si1 0.811866 0.323429 0.695383
Si Si2 0.613277 0.178830 0.843602
Si Si3 0.991650 0.824535 0.105960
Si Si4 0.186130 0.822072 0.984056
Si Si5 0.983249 0.669103 0.603939
Si Si6 0.905794 0.822392 0.348925
Si Si7 0.379720 0.323066 0.828217
Si Si8 0.873698 0.176597 0.550389
O O1 0.750000 0.287620 0.724215
O O2 0.818409 0.500000 0.692047
O O3 0.854392 0.253755 0.764049
O O4 0.823607 0.255500 0.598838
O O5 0.549390 0.222031 0.850352
O O6 0.614958 0.000000 0.834073
O O7 0.645986 0.215958 0.934158
O O8 0.939169 0.732702 0.136757
O O9 0.981906 0.000000 0.125441
O O10 0.000000 0.812264 0.000000
O O11 0.250000 0.789569 0.004004
O O12 0.164841 0.737423 0.897594
O O13 0.181154 0.000000 0.969598
O O14 0.975797 0.500000 0.636323
O O15 0.927593 0.762179 0.601092
O O16 0.000000 0.660714 0.500000
O O17 0.033042 0.752482 0.651730
O O18 0.872950 0.749990 0.268471
O O19 0.880819 0.789217 0.446155
O O20 0.909207 0.000000 0.339506
O O21 0.378489 0.500000 0.822599
O O22 0.870649 0.000000 0.560249
#
# Coordination Sequence:
#
# PCOD9405243 Si02
#       8
#     8   8   8   8   8   8   8   8
#     4  11  25  42  60  86 123 163 201 251 312 370
#     4  10  21  39  66  93 118 156 203 252 304 361
#     4  10  20  39  64  89 123 162 203 251 304 361
#     4  10  21  41  67  90 116 155 204 254 300 352
#     4   9  17  31  53  82 115 148 183 230 289 352
#     4  10  21  38  60  85 117 156 202 248 296 353
#     4  12  25  38  58  90 130 167 202 247 304 367
#     4  10  21  38  61  86 112 150 199 251 298 349
#
# _framework density 19.380471
#
# number of rings (size 3 to 8) (size 9 to 14) (size 15 to 20)
#    0.000    1.750    1.250    3.000    1.750    6.000 
#    0.000    0.625    0.000    0.750    0.000    0.000 
#    0.000    0.000    0.000    0.000    0.000    0.000 
#
# Total GULP energy -357699.556720 kJ/mol
# GULP energy per Si atom -5589.055574 kJ/mol
# Density = 1.933636 g / cm^3
# Si number density = 19.380471 Si / 1000 Ang^3
#
#
#
# Elastic Constant Matrix: (Units=GPa)
#
#
# Indices 1 2 3 4 5 6 
#
# 1 62.8544 15.3344 13.1436 0.0000 0.0000 0.0000
# 2 15.3344 33.6795 23.7368 0.0000 0.0000 0.0000
# 3 13.1436 23.7368 75.9495 0.0000 0.0000 0.0000
# 4 0.0000 0.0000 0.0000 20.3018 0.0000 0.0000
# 5 0.0000 0.0000 0.0000 0.0000 24.2242 0.0000
# 6 0.0000 0.0000 0.0000 0.0000 0.0000 -302.3608
#
#
#
# Elastic Compliance Matrix: (Units=1/GPa)
#
#
# Indices 1 2 3 4 5 6 
#
# 1 0.017927 -0.007664 -0.000707 0.000000 0.000000 0.000000
# 2 -0.007664 0.041356 -0.011599 0.000000 0.000000 0.000000
# 3 -0.000707 -0.011599 0.016914 0.000000 0.000000 0.000000
# 4 0.000000 0.000000 0.000000 0.049257 0.000000 0.000000
# 5 0.000000 0.000000 0.000000 0.000000 0.041281 0.000000
# 6 0.000000 0.000000 0.000000 0.000000 0.000000 -0.003307
#
#
# Mechanical properties :
#
#
# Convention : Reuss Voigt Hill
#
# Bulk Modulus (GPa) = 27.58069 30.76813 29.17441
# Shear Modulus (GPa) = 23.20688 -43.54907 -10.17110
#
# Velocity S-wave (km/s) = 3.46415 -4.74546 -2.29336
# Velocity P-wave (km/s) = 5.50114 3.75706 2.84139
#
# Compressibility (1/GPa) = 0.03625726
#
# Stress axis : x y z
#
# Youngs Moduli (GPa) = 55.78046 24.18046 59.12256
#
# Poissons Ratio (x) = 0.18532 0.04181
# Poissons Ratio (y) = 0.42750 0.68575
# Poissons Ratio (z) = 0.03945 0.28046
#
# Static dielectric constant tensor:
#      x y z
#    x 1.669400 0.000000 0.000000 
#    y 0.000000 1.644190 0.000000 
#    z 0.000000 0.000000 1.690950 
# 
# From -- ./inp_files/26214.got.cif
#   From: 2010.05.17/outbox.cif.g08.bks.cpg/sg51_14_cif.got.tgz:26214.got - 2010.06.03 11:52:47.
