data_PCOD9405640
_publ_section_title
;
Structure prediction by ZEFSAII (Michael W. Deem and Ramdas Pophale) SiO2 
 PCOD9405640
Probable space group: P M M A
;
_chemical_formula_sum "Si O2"
_cell_formula_units_Z 64
_cell_length_a 31.259187
_cell_length_b 8.336607
_cell_length_c 14.898596
_cell_angle_alpha 90.000000
_cell_angle_beta 90.000000
_cell_angle_gamma 90.000000
_cell_volume 3882.507925
_symmetry_space_group_name_H-M "P M M A"
_symmetry_group_IT_number 51
_symmetry_cell_setting 'orthorhombic'
loop_
_space_group_symop_operation_xyz
x,y,z
1/2-x,-y,z
1/2+x,-y,-z
-x,y,-z
-x,-y,-z
1/2+x,y,-z
1/2-x,y,z
x,-y,z
loop_
_atom_site_type_symbol
_atom_site_label
_atom_site_fract_x
_atom_site_fract_y
_atom_site_fract_z
Si Si1 0.457831 0.307350 0.445092
Si Si2 0.116338 0.809070 0.570132
Si Si3 0.577129 0.811732 0.239603
Si Si4 0.482615 0.690120 0.246553
Si Si5 0.616861 0.312992 0.061673
Si Si6 0.298636 0.695726 0.852663
Si Si7 0.458557 0.189702 0.058817
Si Si8 0.298650 0.306741 0.646480
O O1 0.500000 0.247806 0.500000
O O2 0.459048 0.500000 0.449595
O O3 0.414151 0.252971 0.491694
O O4 0.460998 0.261579 0.340557
O O5 0.094496 0.758049 0.664093
O O6 0.165082 0.751603 0.578793
O O7 0.115967 0.000000 0.567114
O O8 0.526580 0.786957 0.238568
O O9 0.596775 0.707218 0.160510
O O10 0.587412 0.000000 0.225291
O O11 0.492158 0.500000 0.251796
O O12 0.457566 0.725172 0.155071
O O13 0.617790 0.500000 0.036159
O O14 0.665200 0.251263 0.077402
O O15 0.584748 0.222653 0.995773
O O16 0.250000 0.743608 0.873772
O O17 0.299943 0.500000 0.851833
O O18 0.308016 0.747509 0.749575
O O19 0.464007 0.000000 0.072699
O O20 0.500000 0.245375 0.000000
O O21 0.250000 0.255948 0.625269
O O22 0.299316 0.500000 0.647662
#
# Coordination Sequence:
#
# PCOD9405640 Si02
#       8
#     8   8   8   8   8   8   8   8
#     4  10  21  36  53  74  99 130 170 213 253 295
#     4  11  22  32  48  74 105 140 172 204 249 307
#     4  11  21  31  45  70 105 138 167 203 249 295
#     4  11  22  36  54  73  95 129 175 216 246 288
#     4  11  20  31  52  75  97 133 175 210 242 292
#     4   8  15  28  47  73 101 128 162 205 250 291
#     4  11  23  36  50  71 103 136 165 204 254 303
#     4   9  17  31  51  73 100 135 172 209 250 296
#
# _framework density 16.484190000000002
#
# number of rings (size 3 to 8) (size 9 to 14) (size 15 to 20)
#    0.000    1.750    3.750    2.625    0.000    3.000 
#    0.000    0.000    0.000    1.500    0.000    0.875 
#    0.000    3.000    0.000    0.000    0.000    0.000 
#
# Total GULP energy -357037.662495 kJ/mol
# GULP energy per Si atom -5578.713476 kJ/mol
# Density = 1.644667 g / cm^3
# Si number density = 16.484190 Si / 1000 Ang^3
#
#
#
# Elastic Constant Matrix: (Units=GPa)
#
#
# Indices 1 2 3 4 5 6 
#
# 1 118.3666 3.0946 47.8330 0.0000 0.0000 0.0000
# 2 3.0946 14.7223 12.2521 0.0000 0.0000 0.0000
# 3 47.8330 12.2521 89.3867 0.0000 0.0000 0.0000
# 4 0.0000 0.0000 0.0000 16.0674 0.0000 0.0000
# 5 0.0000 0.0000 0.0000 0.0000 21.1783 0.0000
# 6 0.0000 0.0000 0.0000 0.0000 0.0000 4.2763
#
#
#
# Elastic Compliance Matrix: (Units=1/GPa)
#
#
# Indices 1 2 3 4 5 6 
#
# 1 0.010887 0.002890 -0.006222 0.000000 0.000000 0.000000
# 2 0.002890 0.077437 -0.012160 0.000000 0.000000 0.000000
# 3 -0.006222 -0.012160 0.016184 0.000000 0.000000 0.000000
# 4 0.000000 0.000000 0.000000 0.062238 0.000000 0.000000
# 5 0.000000 0.000000 0.000000 0.000000 0.047218 0.000000
# 6 0.000000 0.000000 0.000000 0.000000 0.000000 0.233849
#
#
# Mechanical properties :
#
#
# Convention : Reuss Voigt Hill
#
# Bulk Modulus (GPa) = 13.60141 38.75946 26.18044
# Shear Modulus (GPa) = 9.93432 18.92411 14.42922
#
# Velocity S-wave (km/s) = 2.45757 3.39191 2.96182
# Velocity P-wave (km/s) = 4.04005 6.23733 5.25482
#
# Compressibility (1/GPa) = 0.07352176
#
# Stress axis : x y z
#
# Youngs Moduli (GPa) = 91.85118 12.91379 61.79041
#
# Poissons Ratio (x) = -0.03732 0.38446
# Poissons Ratio (y) = -0.26541 0.75140
# Poissons Ratio (z) = 0.57150 0.15704
#
# Static dielectric constant tensor:
#      x y z
#    x 1.577050 0.000000 0.000000 
#    y 0.000000 1.560390 0.000000 
#    z 0.000000 0.000000 1.545620 
# 
# From -- ./inp_files/26717.got.cif
#   From: 2010.05.17/outbox.cif.g08.bks.cpg/sg51_14_cif.got.tgz:26717.got - 2010.06.03 11:52:47.
