data_PCOD9405827
_publ_section_title
;
Structure prediction by ZEFSAII (Michael W. Deem and Ramdas Pophale) SiO2 
 PCOD9405827
Probable space group: P M M A
;
_chemical_formula_sum "Si O2"
_cell_formula_units_Z 56
_cell_length_a 14.320184
_cell_length_b 8.982768
_cell_length_c 21.889998
_cell_angle_alpha 90.000000
_cell_angle_beta 90.000000
_cell_angle_gamma 90.000000
_cell_volume 2815.817498
_symmetry_space_group_name_H-M "P M M A"
_symmetry_group_IT_number 51
_symmetry_cell_setting 'orthorhombic'
loop_
_space_group_symop_operation_xyz
x,y,z
1/2-x,-y,z
1/2+x,-y,-z
-x,y,-z
-x,-y,-z
1/2+x,y,-z
1/2-x,y,z
x,-y,z
loop_
_atom_site_type_symbol
_atom_site_label
_atom_site_fract_x
_atom_site_fract_y
_atom_site_fract_z
Si Si1 0.525704 0.820941 0.345241
Si Si2 0.641480 0.677363 0.592481
Si Si3 0.860035 0.323435 0.844552
Si Si4 0.136435 0.830150 0.028377
Si Si5 0.533894 0.822244 0.209405
Si Si6 0.637138 0.326412 0.096385
Si Si7 0.361372 0.825189 0.535341
O O1 0.425168 0.750584 0.357894
O O2 0.563027 0.780808 0.278309
O O3 0.589622 0.774766 0.402435
O O4 0.518461 0.000000 0.346751
O O5 0.750000 0.718892 0.601124
O O6 0.633919 0.500000 0.594329
O O7 0.612108 0.736668 0.525540
O O8 0.750000 0.292436 0.835046
O O9 0.874549 0.500000 0.838198
O O10 0.885629 0.270819 0.913197
O O11 0.927895 0.232706 0.800569
O O12 0.250000 0.833644 0.025734
O O13 0.104127 0.000000 0.037017
O O14 0.104981 0.761451 0.964179
O O15 0.594127 0.743950 0.157083
O O16 0.539803 0.000000 0.202363
O O17 0.750000 0.316718 0.098990
O O18 0.611828 0.500000 0.091314
O O19 0.250000 0.811884 0.542699
O O20 0.383369 0.000000 0.525455
#
# Coordination Sequence:
#
# PCOD9405827 Si02
#       7
#     8   8   8   8   8   8   8
#     4  10  22  38  56  80 110 146 186 226 269 319
#     4  10  21  36  56  84 114 143 178 222 272 323
#     4  10  21  38  59  82 111 146 184 230 283 337
#     4   9  17  32  57  86 112 140 179 229 283 333
#     4  11  24  39  56  81 112 148 191 233 274 326
#     4  10  21  38  59  83 113 147 184 228 278 333
#     4   9  18  35  59  84 110 141 178 221 270 323
#
# _framework density 19.887653
#
# number of rings (size 3 to 8) (size 9 to 14) (size 15 to 20)
#    0.000    2.143    0.000    2.571    0.000    9.429 
#    0.000    7.143    0.000    1.714    0.000    0.000 
#    0.000    0.000    0.000    0.000    0.000    0.000 
#
# Total GULP energy -312945.951195 kJ/mol
# GULP energy per Si atom -5588.320557 kJ/mol
# Density = 1.984239 g / cm^3
# Si number density = 19.887653 Si / 1000 Ang^3
#
#
#
# Elastic Constant Matrix: (Units=GPa)
#
#
# Indices 1 2 3 4 5 6 
#
# 1 28.6953 1.6150 -0.7151 0.0000 0.0000 0.0000
# 2 1.6150 40.2504 11.0851 0.0000 0.0000 0.0000
# 3 -0.7151 11.0851 67.7068 0.0000 0.0000 0.0000
# 4 0.0000 0.0000 0.0000 407.0880 0.0000 0.0000
# 5 0.0000 0.0000 0.0000 0.0000 22.5918 0.0000
# 6 0.0000 0.0000 0.0000 0.0000 0.0000 26.4636
#
#
#
# Elastic Compliance Matrix: (Units=1/GPa)
#
#
# Indices 1 2 3 4 5 6 
#
# 1 0.034953 -0.001575 0.000627 0.000000 0.000000 0.000000
# 2 -0.001575 0.026089 -0.004288 0.000000 0.000000 0.000000
# 3 0.000627 -0.004288 0.015478 0.000000 0.000000 0.000000
# 4 0.000000 0.000000 0.000000 0.002456 0.000000 0.000000
# 5 0.000000 0.000000 0.000000 0.000000 0.044264 0.000000
# 6 0.000000 0.000000 0.000000 0.000000 0.000000 0.037788
#
#
# Mechanical properties :
#
#
# Convention : Reuss Voigt Hill
#
# Bulk Modulus (GPa) = 15.14050 17.84693 16.49371
# Shear Modulus (GPa) = 25.83765 99.53985 62.68875
#
# Velocity S-wave (km/s) = 3.60833 7.08235 5.62049
# Velocity P-wave (km/s) = 4.99896 8.71051 7.10150
#
# Compressibility (1/GPa) = 0.06604803
#
# Stress axis : x y z
#
# Youngs Moduli (GPa) = 28.60970 38.33095 64.60695
#
# Poissons Ratio (x) = 0.06038 -0.04051
# Poissons Ratio (y) = 0.04506 0.27703
# Poissons Ratio (z) = -0.01794 0.16436
#
# Static dielectric constant tensor:
#      x y z
#    x 1.733170 0.000000 0.000000 
#    y 0.000000 1.662300 0.000000 
#    z 0.000000 0.000000 1.680560 
# 
# From -- ./inp_files/33359.got.cif
#   From: 2010.05.17/outbox.cif.g08.bks.cpg/sg51_17_cif.got.tgz:33359.got - 2010.06.03 11:52:47.
