data_PCOD9405135
_publ_section_title
;
Structure prediction by ZEFSAII (Michael W. Deem and Ramdas Pophale) SiO2 
 PCOD9405135
Probable space group: P M M A
;
_chemical_formula_sum "Si O2"
_cell_formula_units_Z 64
_cell_length_a 17.105105
_cell_length_b 20.015268
_cell_length_c 8.903743
_cell_angle_alpha 90.000000
_cell_angle_beta 90.000000
_cell_angle_gamma 90.000000
_cell_volume 3048.314486
_symmetry_space_group_name_H-M "P M M A"
_symmetry_group_IT_number 51
_symmetry_cell_setting 'orthorhombic'
loop_
_space_group_symop_operation_xyz
x,y,z
1/2-x,-y,z
1/2+x,-y,-z
-x,y,-z
-x,-y,-z
1/2+x,y,-z
1/2-x,y,z
x,-y,z
loop_
_atom_site_type_symbol
_atom_site_label
_atom_site_fract_x
_atom_site_fract_y
_atom_site_fract_z
Si Si1 0.163446 0.746279 0.328846
Si Si2 0.664693 0.108529 0.554980
Si Si3 0.858049 0.074787 0.212838
Si Si4 0.577579 0.321416 0.100957
Si Si5 0.129310 0.185204 0.012207
Si Si6 0.035184 0.631399 0.344000
Si Si7 0.955953 0.926680 0.803034
Si Si8 0.840993 0.575991 0.888206
O O1 0.250000 0.716455 0.355483
O O2 0.155750 0.811733 0.431156
O O3 0.162920 0.774200 0.156413
O O4 0.091226 0.697018 0.357933
O O5 0.750000 0.091829 0.624591
O O6 0.666103 0.087147 0.383701
O O7 0.594619 0.077990 0.651169
O O8 0.952323 0.077954 0.221130
O O9 0.835924 0.000000 0.167564
O O10 0.830976 0.130884 0.095873
O O11 0.543638 0.348516 0.255225
O O12 0.500000 0.322026 0.000000
O O13 0.603745 0.244804 0.097860
O O14 0.638040 0.370336 0.017303
O O15 0.069031 0.136282 0.097674
O O16 0.093968 0.586153 0.243095
O O17 0.000000 0.605056 0.500000
O O18 0.938750 0.000000 0.871252
O O19 0.750000 0.585060 0.840801
O O20 0.848671 0.500000 0.944269
#
# Coordination Sequence:
#
# PCOD9405135 Si02
#       8
#     8   8   8   8   8   8   8   8
#     4  10  22  40  60  85 122 165 211 258 316 392
#     4  10  23  39  56  77 109 156 202 251 311 380
#     4  11  23  36  56  85 117 153 200 262 322 379
#     4  10  20  37  62  99 125 165 214 261 310 369
#     4  11  21  35  61  85 118 151 202 262 321 366
#     4  11  24  38  65 101 137 170 210 264 325 370
#     4  10  21  36  56  81 109 152 203 250 310 382
#     4  10  22  44  73  99 135 183 217 250 304 372
#
# _framework density 20.99521
#
# number of rings (size 3 to 8) (size 9 to 14) (size 15 to 20)
#    0.000    1.625    2.500    2.625    3.500    6.000 
#    0.000    1.250    0.000    3.750    0.000    0.000 
#    0.000    0.000    0.000    0.000    0.000    0.000 
#
# Total GULP energy -356881.702477 kJ/mol
# GULP energy per Si atom -5576.276601 kJ/mol
# Density = 2.094742 g / cm^3
# Si number density = 20.995210 Si / 1000 Ang^3
#
#
#
# Elastic Constant Matrix: (Units=GPa)
#
#
# Indices 1 2 3 4 5 6 
#
# 1 124.9706 36.7574 24.4744 0.0000 0.0000 0.0000
# 2 36.7574 125.1178 12.9935 0.0000 0.0000 0.0000
# 3 24.4744 12.9935 68.1757 0.0000 0.0000 0.0000
# 4 0.0000 0.0000 0.0000 2.9267 0.0000 0.0000
# 5 0.0000 0.0000 0.0000 0.0000 -23.0170 0.0000
# 6 0.0000 0.0000 0.0000 0.0000 0.0000 -55.1322
#
#
#
# Elastic Compliance Matrix: (Units=1/GPa)
#
#
# Indices 1 2 3 4 5 6 
#
# 1 0.009278 -0.002428 -0.002868 0.000000 0.000000 0.000000
# 2 -0.002428 0.008789 -0.000804 0.000000 0.000000 0.000000
# 3 -0.002868 -0.000804 0.015851 0.000000 0.000000 0.000000
# 4 0.000000 0.000000 0.000000 0.341678 0.000000 0.000000
# 5 0.000000 0.000000 0.000000 0.000000 -0.043446 0.000000
# 6 0.000000 0.000000 0.000000 0.000000 0.000000 -0.018138
#
#
# Mechanical properties :
#
#
# Convention : Reuss Voigt Hill
#
# Bulk Modulus (GPa) = 46.04258 51.85719 48.94989
# Shear Modulus (GPa) = 14.99480 1.22476 8.10978
#
# Velocity S-wave (km/s) = 2.67535 0.76460 1.96750
# Velocity P-wave (km/s) = 5.61436 5.05298 5.34105
#
# Compressibility (1/GPa) = 0.02171903
#
# Stress axis : x y z
#
# Youngs Moduli (GPa) = 107.78644 113.77664 63.08879
#
# Poissons Ratio (x) = 0.27622 0.18093
# Poissons Ratio (y) = 0.26168 0.05070
# Poissons Ratio (z) = 0.30912 0.09143
#
# Static dielectric constant tensor:
#      x y z
#    x 1.785930 0.000000 0.000000 
#    y 0.000000 1.758320 0.000000 
#    z 0.000000 0.000000 1.795090 
# 
# From -- ./inp_files/9996.got.cif
#   From: 2010.05.17/outbox.cif.g08.bks.cpg/sg51_5_cif.got.tgz:9996.got - 2010.06.03 11:52:47.
