data_PCOD9405857
_publ_section_title
;
Structure prediction by ZEFSAII (Michael W. Deem and Ramdas Pophale) SiO2 
 PCOD9405857
Probable space group: P M M A
;
_chemical_formula_sum "Si O2"
_cell_formula_units_Z 56
_cell_length_a 21.611257
_cell_length_b 24.727474
_cell_length_c 5.045203
_cell_angle_alpha 90.000000
_cell_angle_beta 90.000000
_cell_angle_gamma 90.000000
_cell_volume 2696.115090
_symmetry_space_group_name_H-M "P M M A"
_symmetry_group_IT_number 51
_symmetry_cell_setting 'orthorhombic'
loop_
_space_group_symop_operation_xyz
x,y,z
1/2-x,-y,z
1/2+x,-y,-z
-x,y,-z
-x,-y,-z
1/2+x,y,-z
1/2-x,y,z
x,-y,z
loop_
_atom_site_type_symbol
_atom_site_label
_atom_site_fract_x
_atom_site_fract_y
_atom_site_fract_z
Si Si1 0.184046 0.789169 0.802563
Si Si2 0.868188 0.872398 0.576999
Si Si3 0.316638 0.333341 0.824475
Si Si4 0.610050 0.667269 0.661096
Si Si5 0.562794 0.216770 0.828202
Si Si6 0.455983 0.442591 0.247791
Si Si7 0.323716 0.063549 0.904955
O O1 0.250000 0.801431 0.938241
O O2 0.176400 0.827152 0.550248
O O3 0.187229 0.727619 0.713698
O O4 0.122513 0.791553 0.980010
O O5 0.929207 0.836170 0.640996
O O6 0.865883 0.916226 0.339976
O O7 0.842815 0.901921 0.837906
O O8 0.250000 0.360402 0.791120
O O9 0.370716 0.352602 0.632214
O O10 0.332977 0.327174 0.132704
O O11 0.573229 0.724712 0.683437
O O12 0.576425 0.614873 0.774829
O O13 0.500000 0.217769 0.000000
O O14 0.500000 0.440533 0.500000
O O15 0.419011 0.500000 0.261972
O O16 0.500000 0.446320 0.000000
O O17 0.250000 0.071048 0.845877
O O18 0.332705 0.000000 0.954383
#
# Coordination Sequence:
#
# PCOD9405857 Si02
#       7
#     8   8   8   8   8   8   8
#     4  10  21  38  61  93 125 164 210 258 314 384
#     4  12  22  40  62  94 128 165 201 258 320 385
#     4  10  21  36  57  87 125 159 205 257 312 382
#     4  11  21  39  59  90 123 170 208 261 323 382
#     4  11  25  41  62  97 136 173 212 260 324 394
#     4  10  21  38  61  89 119 160 214 270 322 379
#     4  11  24  41  65  97 128 160 209 270 323 372
#
# _framework density 20.770626
#
# number of rings (size 3 to 8) (size 9 to 14) (size 15 to 20)
#    0.000    1.286    2.857    3.429    0.000    4.571 
#    0.000    0.000    0.000    5.143    0.000    0.000 
#    0.000    0.000    0.000    0.000    0.000    0.000 
#
# Total GULP energy -311964.668722 kJ/mol
# GULP energy per Si atom -5570.797656 kJ/mol
# Density = 2.072335 g / cm^3
# Si number density = 20.770626 Si / 1000 Ang^3
#
#
#
# Elastic Constant Matrix: (Units=GPa)
#
#
# Indices 1 2 3 4 5 6 
#
# 1 79.6842 19.9257 23.0183 0.0000 0.0000 0.0000
# 2 19.9257 113.9351 6.5010 0.0000 0.0000 0.0000
# 3 23.0183 6.5010 98.5856 0.0000 0.0000 0.0000
# 4 0.0000 0.0000 0.0000 26.7652 0.0000 0.0000
# 5 0.0000 0.0000 0.0000 0.0000 21.3363 0.0000
# 6 0.0000 0.0000 0.0000 0.0000 0.0000 16.7093
#
#
#
# Elastic Compliance Matrix: (Units=1/GPa)
#
#
# Indices 1 2 3 4 5 6 
#
# 1 0.014020 -0.002274 -0.003124 0.000000 0.000000 0.000000
# 2 -0.002274 0.009179 -0.000074 0.000000 0.000000 0.000000
# 3 -0.003124 -0.000074 0.010878 0.000000 0.000000 0.000000
# 4 0.000000 0.000000 0.000000 0.037362 0.000000 0.000000
# 5 0.000000 0.000000 0.000000 0.000000 0.046869 0.000000
# 6 0.000000 0.000000 0.000000 0.000000 0.000000 0.059847
#
#
# Mechanical properties :
#
#
# Convention : Reuss Voigt Hill
#
# Bulk Modulus (GPa) = 43.22752 43.45499 43.34126
# Shear Modulus (GPa) = 25.40537 29.14617 27.27577
#
# Velocity S-wave (km/s) = 3.50113 3.75005 3.62773
# Velocity P-wave (km/s) = 6.09926 6.30216 6.20154
#
# Compressibility (1/GPa) = 0.02313341
#
# Stress axis : x y z
#
# Youngs Moduli (GPa) = 71.32455 108.94650 91.93129
#
# Poissons Ratio (x) = 0.24772 0.28716
# Poissons Ratio (y) = 0.16217 0.00684
# Poissons Ratio (z) = 0.22279 0.00810
#
# Static dielectric constant tensor:
#      x y z
#    x 1.818050 0.000000 0.000000 
#    y 0.000000 1.813950 0.000000 
#    z 0.000000 0.000000 1.848660 
# 
# From -- ./inp_files/2671.got.cif
#   From: 2010.05.17/outbox.cif.g08.bks.cpg/sg51_2_cif.got.tgz:2671.got - 2010.06.03 11:52:47.
