data_PCOD9405729
_publ_section_title
;
Structure prediction by ZEFSAII (Michael W. Deem and Ramdas Pophale) SiO2 
 PCOD9405729
Probable space group: P M M A
;
_chemical_formula_sum "Si O2"
_cell_formula_units_Z 64
_cell_length_a 16.445009
_cell_length_b 9.162667
_cell_length_c 22.825921
_cell_angle_alpha 90.000000
_cell_angle_beta 90.000000
_cell_angle_gamma 90.000000
_cell_volume 3439.413001
_symmetry_space_group_name_H-M "P M M A"
_symmetry_group_IT_number 51
_symmetry_cell_setting 'orthorhombic'
loop_
_space_group_symop_operation_xyz
x,y,z
1/2-x,-y,z
1/2+x,-y,-z
-x,y,-z
-x,-y,-z
1/2+x,y,-z
1/2-x,y,z
x,-y,z
loop_
_atom_site_type_symbol
_atom_site_label
_atom_site_fract_x
_atom_site_fract_y
_atom_site_fract_z
Si Si1 0.846239 0.174373 0.634608
Si Si2 0.655228 0.324238 0.356433
Si Si3 0.153064 0.168549 0.765401
Si Si4 0.107059 0.674247 0.118286
Si Si5 0.346449 0.335819 0.248029
Si Si6 0.065571 0.176601 0.886418
Si Si7 0.343016 0.835152 0.004018
Si Si8 0.004713 0.674311 0.430525
O O1 0.750000 0.215344 0.623555
O O2 0.870534 0.229598 0.699689
O O3 0.914390 0.246931 0.593581
O O4 0.850348 0.000000 0.631032
O O5 0.750000 0.277418 0.370355
O O6 0.656581 0.500000 0.355855
O O7 0.634521 0.264291 0.291671
O O8 0.580900 0.279746 0.399502
O O9 0.250000 0.172728 0.773411
O O10 0.113256 0.213642 0.826769
O O11 0.129406 0.000000 0.753636
O O12 0.111317 0.500000 0.115913
O O13 0.137920 0.718944 0.182541
O O14 0.151429 0.740053 0.062123
O O15 0.017377 0.737073 0.114487
O O16 0.250000 0.349632 0.253329
O O17 0.382232 0.500000 0.254944
O O18 0.055513 0.000000 0.886851
O O19 0.108406 0.217055 0.947441
O O20 0.250000 0.843095 0.985135
O O21 0.371506 0.000000 0.018670
O O22 0.013540 0.500000 0.420031
O O23 0.000000 0.698442 0.500000
#
# Coordination Sequence:
#
# PCOD9405729 Si02
#       8
#     8   8   8   8   8   8   8   8
#     4  10  22  39  60  88 121 155 195 246 297 343
#     4   9  19  36  57  83 117 152 190 239 289 339
#     4   9  18  34  56  81 108 141 183 228 276 331
#     4  11  23  36  53  80 112 143 179 228 283 336
#     4   9  19  37  58  79 107 146 188 230 281 340
#     4  10  21  36  54  78 108 142 182 227 275 333
#     4  10  21  38  58  76 100 140 186 231 278 331
#     4  10  22  39  61  89 120 158 200 238 283 344
#
# _framework density 18.607825999999999
#
# number of rings (size 3 to 8) (size 9 to 14) (size 15 to 20)
#    0.000    2.250    0.000    1.875    1.750    7.750 
#    0.000    2.500    0.000    3.750    0.000    0.000 
#    0.000    0.000    0.000    0.000    0.000    0.000 
#
# Total GULP energy -356750.365199 kJ/mol
# GULP energy per Si atom -5574.224456 kJ/mol
# Density = 1.856547 g / cm^3
# Si number density = 18.607826 Si / 1000 Ang^3
#
#
#
# Elastic Constant Matrix: (Units=GPa)
#
#
# Indices 1 2 3 4 5 6 
#
# 1 73.3740 35.8315 55.9087 0.0000 0.0000 0.0000
# 2 35.8315 28.6449 44.3008 0.0000 0.0000 0.0000
# 3 55.9087 44.3008 112.8874 0.0000 0.0000 0.0000
# 4 0.0000 0.0000 0.0000 27.0805 0.0000 0.0000
# 5 0.0000 0.0000 0.0000 0.0000 43.1657 0.0000
# 6 0.0000 0.0000 0.0000 0.0000 0.0000 19.8674
#
#
#
# Elastic Compliance Matrix: (Units=1/GPa)
#
#
# Indices 1 2 3 4 5 6 
#
# 1 0.035029 -0.043215 -0.000389 0.000000 0.000000 0.000000
# 2 -0.043215 0.142127 -0.034372 0.000000 0.000000 0.000000
# 3 -0.000389 -0.034372 0.022540 0.000000 0.000000 0.000000
# 4 0.000000 0.000000 0.000000 0.036927 0.000000 0.000000
# 5 0.000000 0.000000 0.000000 0.000000 0.023167 0.000000
# 6 0.000000 0.000000 0.000000 0.000000 0.000000 0.050334
#
#
# Mechanical properties :
#
#
# Convention : Reuss Voigt Hill
#
# Bulk Modulus (GPa) = 22.86151 54.10982 38.48566
# Shear Modulus (GPa) = 10.40239 23.28040 16.84139
#
# Velocity S-wave (km/s) = 2.36695 3.54094 3.01170
# Velocity P-wave (km/s) = 4.44776 6.77199 5.72898
#
# Compressibility (1/GPa) = 0.04374164
#
# Stress axis : x y z
#
# Youngs Moduli (GPa) = 28.54745 7.03597 44.36515
#
# Poissons Ratio (x) = 0.30406 0.01728
# Poissons Ratio (y) = 1.23369 1.52494
# Poissons Ratio (z) = 0.01112 0.24184
#
# Static dielectric constant tensor:
#      x y z
#    x 1.704920 0.000000 0.000000 
#    y 0.000000 1.648450 0.000000 
#    z 0.000000 0.000000 1.638780 
# 
# From -- ./inp_files/35751.got.cif
#   From: 2010.05.17/outbox.cif.g08.bks.cpg/sg51_18_cif.got.tgz:35751.got - 2010.06.03 11:52:47.
