data_PCOD9405793
_publ_section_title
;
Structure prediction by ZEFSAII (Michael W. Deem and Ramdas Pophale) SiO2 
 PCOD9405793
Probable space group: P M M A
;
_chemical_formula_sum "Si O2"
_cell_formula_units_Z 64
_cell_length_a 20.463685
_cell_length_b 8.996684
_cell_length_c 19.087787
_cell_angle_alpha 90.000000
_cell_angle_beta 90.000000
_cell_angle_gamma 90.000000
_cell_volume 3514.162894
_symmetry_space_group_name_H-M "P M M A"
_symmetry_group_IT_number 51
_symmetry_cell_setting 'orthorhombic'
loop_
_space_group_symop_operation_xyz
x,y,z
1/2-x,-y,z
1/2+x,-y,-z
-x,y,-z
-x,-y,-z
1/2+x,y,-z
1/2-x,y,z
x,-y,z
loop_
_atom_site_type_symbol
_atom_site_label
_atom_site_fract_x
_atom_site_fract_y
_atom_site_fract_z
Si Si1 0.826790 0.177391 0.047972
Si Si2 0.433873 0.821685 0.707139
Si Si3 0.063737 0.820947 0.544467
Si Si4 0.326221 0.677446 0.451978
Si Si5 0.173303 0.676612 0.802159
Si Si6 0.825840 0.177989 0.697171
Si Si7 0.436198 0.322307 0.046297
Si Si8 0.440261 0.178445 0.197966
O O1 0.750000 0.208674 0.034610
O O2 0.843196 0.245141 0.124077
O O3 0.835558 0.000000 0.049521
O O4 0.873477 0.249418 0.990544
O O5 0.443115 0.780739 0.625987
O O6 0.372437 0.741344 0.742010
O O7 0.497951 0.786480 0.752803
O O8 0.424313 0.000000 0.710438
O O9 0.126819 0.747981 0.509469
O O10 0.000000 0.776624 0.500000
O O11 0.069402 0.000000 0.539973
O O12 0.250000 0.715151 0.464732
O O13 0.332554 0.500000 0.451439
O O14 0.343397 0.742318 0.375453
O O15 0.250000 0.705068 0.787976
O O16 0.164075 0.500000 0.809223
O O17 0.750000 0.211490 0.713436
O O18 0.874848 0.218987 0.759256
O O19 0.831648 0.000000 0.686376
O O20 0.429312 0.500000 0.047417
O O21 0.444475 0.260123 0.124253
O O22 0.500000 0.284958 0.000000
O O23 0.439545 0.000000 0.186383
#
# Coordination Sequence:
#
# PCOD9405793 Si02
#       8
#     8   8   8   8   8   8   8   8
#     4  10  21  38  61  86 111 143 185 230 274 323
#     4  10  21  36  56  81 109 143 183 229 276 324
#     4  10  21  38  59  82 109 143 186 233 278 326
#     4  10  21  36  55  82 115 148 183 224 272 328
#     4  10  21  37  57  81 111 145 179 221 274 329
#     4   9  18  35  59  83 109 144 184 225 270 322
#     4  11  24  39  56  82 115 149 185 225 272 328
#     4  10  21  37  57  82 111 143 183 230 276 322
#
# _framework density 18.212019000000002
#
# number of rings (size 3 to 8) (size 9 to 14) (size 15 to 20)
#    0.000    2.000    0.000    3.000    0.000   10.000 
#    0.000    5.000    0.000    0.000    0.000    0.000 
#    0.000    0.000    0.000    0.000    0.000    0.000 
#
# Total GULP energy -357567.375940 kJ/mol
# GULP energy per Si atom -5586.990249 kJ/mol
# Density = 1.817057 g / cm^3
# Si number density = 18.212019 Si / 1000 Ang^3
#
#
#
# Elastic Constant Matrix: (Units=GPa)
#
#
# Indices 1 2 3 4 5 6 
#
# 1 95.8920 54.1212 101.6839 0.0000 0.0000 0.0000
# 2 54.1212 41.1628 69.5733 0.0000 0.0000 0.0000
# 3 101.6839 69.5733 184.7551 0.0000 0.0000 0.0000
# 4 0.0000 0.0000 0.0000 -13.5911 0.0000 0.0000
# 5 0.0000 0.0000 0.0000 0.0000 40.7299 0.0000
# 6 0.0000 0.0000 0.0000 0.0000 0.0000 24.3651
#
#
#
# Elastic Compliance Matrix: (Units=1/GPa)
#
#
# Indices 1 2 3 4 5 6 
#
# 1 0.043138 -0.045636 -0.006557 0.000000 0.000000 0.000000
# 2 -0.045636 0.115108 -0.018229 0.000000 0.000000 0.000000
# 3 -0.006557 -0.018229 0.015886 0.000000 0.000000 0.000000
# 4 0.000000 0.000000 0.000000 -0.073578 0.000000 0.000000
# 5 0.000000 0.000000 0.000000 0.000000 0.024552 0.000000
# 6 0.000000 0.000000 0.000000 0.000000 0.000000 0.041042
#
#
# Mechanical properties :
#
#
# Convention : Reuss Voigt Hill
#
# Bulk Modulus (GPa) = 30.04156 85.84074 57.94115
# Shear Modulus (GPa) = 15.71889 16.72954 16.22422
#
# Velocity S-wave (km/s) = 2.94105 3.03413 2.98795
# Velocity P-wave (km/s) = 5.29758 7.71434 6.61723
#
# Compressibility (1/GPa) = 0.03328722
#
# Stress axis : x y z
#
# Youngs Moduli (GPa) = 23.18135 8.68751 62.94904
#
# Poissons Ratio (x) = 0.39646 0.41274
# Poissons Ratio (y) = 1.05791 1.14752
# Poissons Ratio (z) = 0.15199 0.15837
#
# Static dielectric constant tensor:
#      x y z
#    x 1.617160 0.000000 0.000000 
#    y 0.000000 1.605260 0.000000 
#    z 0.000000 0.000000 1.588320 
# 
# From -- ./inp_files/30570.got.cif
#   From: 2010.05.17/outbox.cif.g08.bks.cpg/sg51_16_cif.got.tgz:30570.got - 2010.06.03 11:52:47.
