data_PCOD9405108
_publ_section_title
;
Structure prediction by ZEFSAII (Michael W. Deem and Ramdas Pophale) SiO2 
 PCOD9405108
Probable space group: P M M A
;
_chemical_formula_sum "Si O2"
_cell_formula_units_Z 48
_cell_length_a 13.469298
_cell_length_b 12.081602
_cell_length_c 12.733459
_cell_angle_alpha 90.000000
_cell_angle_beta 90.000000
_cell_angle_gamma 90.000000
_cell_volume 2072.124667
_symmetry_space_group_name_H-M "P M M A"
_symmetry_group_IT_number 51
_symmetry_cell_setting 'orthorhombic'
loop_
_space_group_symop_operation_xyz
x,y,z
1/2-x,-y,z
1/2+x,-y,-z
-x,y,-z
-x,-y,-z
1/2+x,y,-z
1/2-x,y,z
x,-y,z
loop_
_atom_site_type_symbol
_atom_site_label
_atom_site_fract_x
_atom_site_fract_y
_atom_site_fract_z
Si Si1 0.863858 0.383589 0.133975
Si Si2 0.863105 0.846694 0.059117
Si Si3 0.061574 0.883054 0.172580
Si Si4 0.447444 0.626610 0.639258
Si Si5 0.865423 0.747184 0.637927
Si Si6 0.132393 0.127181 0.567760
O O1 0.750000 0.377743 0.175152
O O2 0.877781 0.500000 0.079550
O O3 0.875163 0.284591 0.055446
O O4 0.932220 0.376591 0.235162
O O5 0.750000 0.874779 0.086795
O O6 0.944014 0.879446 0.146183
O O7 0.890068 0.883950 0.942925
O O8 0.103220 0.789120 0.247201
O O9 0.085986 0.000000 0.223838
O O10 0.414465 0.500000 0.606382
O O11 0.562068 0.646376 0.608584
O O12 0.402529 0.750844 0.612588
O O13 0.750000 0.718585 0.632430
O O14 0.883779 0.847593 0.556016
O O15 0.250000 0.124725 0.589555
O O16 0.096505 0.000000 0.593744
#
# Coordination Sequence:
#
# PCOD9405108 Si02
#       6
#     8   8   8   8   8   8
#     4   9  18  36  62  90 122 159 201 254 321 390
#     4  10  20  37  61  91 123 157 208 268 324 383
#     4  11  23  39  60  89 126 170 217 264 323 392
#     4  11  23  42  68  97 129 169 216 271 329 386
#     4  11  24  42  63  89 128 174 218 266 324 390
#     4  10  23  43  67  97 131 170 217 267 323 393
#
# _framework density 23.164629999999999
#
# number of rings (size 3 to 8) (size 9 to 14) (size 15 to 20)
#    0.000    1.667    1.667    3.000    0.000    7.667 
#    0.000    4.167    0.000    2.000    0.000    0.000 
#    0.000    0.000    0.000    0.000    0.000    0.000 
#
# Total GULP energy -267434.650941 kJ/mol
# GULP energy per Si atom -5571.555228 kJ/mol
# Density = 2.311191 g / cm^3
# Si number density = 23.164630 Si / 1000 Ang^3
#
#
#
# Elastic Constant Matrix: (Units=GPa)
#
#
# Indices 1 2 3 4 5 6 
#
# 1 78.9076 47.7164 1.1135 0.0000 0.0000 0.0000
# 2 47.7164 214.4281 39.3935 0.0000 0.0000 0.0000
# 3 1.1135 39.3935 49.8554 0.0000 0.0000 0.0000
# 4 0.0000 0.0000 0.0000 -55.0426 0.0000 0.0000
# 5 0.0000 0.0000 0.0000 0.0000 23.0081 0.0000
# 6 0.0000 0.0000 0.0000 0.0000 0.0000 28.3608
#
#
#
# Elastic Compliance Matrix: (Units=1/GPa)
#
#
# Indices 1 2 3 4 5 6 
#
# 1 0.014944 -0.003819 0.002683 0.000000 0.000000 0.000000
# 2 -0.003819 0.006431 -0.004996 0.000000 0.000000 0.000000
# 3 0.002683 -0.004996 0.023946 0.000000 0.000000 0.000000
# 4 0.000000 0.000000 0.000000 -0.018168 0.000000 0.000000
# 5 0.000000 0.000000 0.000000 0.000000 0.043463 0.000000
# 6 0.000000 0.000000 0.000000 0.000000 0.000000 0.035260
#
#
# Mechanical properties :
#
#
# Convention : Reuss Voigt Hill
#
# Bulk Modulus (GPa) = 30.24936 57.73757 43.99346
# Shear Modulus (GPa) = 38.71195 16.26309 27.48752
#
# Velocity S-wave (km/s) = 4.09243 2.65253 3.44847
# Velocity P-wave (km/s) = 5.95125 5.86176 5.90667
#
# Compressibility (1/GPa) = 0.03305856
#
# Stress axis : x y z
#
# Youngs Moduli (GPa) = 66.91520 155.49198 41.76072
#
# Poissons Ratio (x) = 0.59375 -0.11206
# Poissons Ratio (y) = 0.25552 0.20865
# Poissons Ratio (z) = -0.17956 0.77689
#
# Static dielectric constant tensor:
#      x y z
#    x 1.922620 0.000000 0.000000 
#    y 0.000000 1.915190 0.000000 
#    z 0.000000 0.000000 1.851830 
# 
# From -- ./inp_files/24048.got.cif
#   From: 2010.05.17/outbox.cif.g08.bks.cpg/sg51_13_cif.got.tgz:24048.got - 2010.06.03 11:52:47.
