data_PCOD9405452
_publ_section_title
;
Structure prediction by ZEFSAII (Michael W. Deem and Ramdas Pophale) SiO2 
 PCOD9405452
Probable space group: P M M A
;
_chemical_formula_sum "Si O2"
_cell_formula_units_Z 44
_cell_length_a 7.540243
_cell_length_b 29.968061
_cell_length_c 9.249293
_cell_angle_alpha 90.000000
_cell_angle_beta 90.000000
_cell_angle_gamma 90.000000
_cell_volume 2090.030017
_symmetry_space_group_name_H-M "P M M A"
_symmetry_group_IT_number 51
_symmetry_cell_setting 'orthorhombic'
loop_
_space_group_symop_operation_xyz
x,y,z
1/2-x,-y,z
1/2+x,-y,-z
-x,y,-z
-x,-y,-z
1/2+x,y,-z
1/2-x,y,z
x,-y,z
loop_
_atom_site_type_symbol
_atom_site_label
_atom_site_fract_x
_atom_site_fract_y
_atom_site_fract_z
Si Si1 0.037076 0.000000 0.329651
Si Si2 0.037077 0.177559 0.330388
Si Si3 0.462895 0.088901 0.170202
Si Si4 0.462788 0.451237 0.329820
Si Si5 0.962701 0.636140 0.830305
Si Si6 0.462921 0.265443 0.170354
O O1 0.969225 0.044724 0.251513
O O2 0.000000 0.000000 0.500000
O O3 0.250000 0.000000 0.312722
O O4 0.250000 0.178129 0.312370
O O5 0.969214 0.134215 0.244564
O O6 0.968299 0.223742 0.262000
O O7 0.000000 0.174226 0.500000
O O8 0.250000 0.089074 0.187337
O O9 0.500000 0.087665 0.000000
O O10 0.500000 0.448011 0.500000
O O11 0.250000 0.451686 0.309988
O O12 0.529771 0.500000 0.279613
O O13 0.533686 0.407250 0.251441
O O14 0.750000 0.636820 0.809793
O O15 0.030481 0.685303 0.785972
O O16 0.000000 0.631616 0.000000
O O17 0.250000 0.266517 0.186537
O O18 0.500000 0.258987 0.000000
#
# Coordination Sequence:
#
# PCOD9405452 Si02
#       6
#     4   8   8   8   8   8
#     4  10  21  36  54  78 106 134 167 206 246 290
#     4  10  21  35  51  74 102 130 163 202 243 288
#     4  10  21  36  54  77 103 132 168 206 244 290
#     4   9  18  32  48  67  93 124 157 194 236 282
#     4   9  18  32  49  70  96 124 156 196 239 283
#     4   9  18  33  51  71  96 126 160 197 238 286
#
# _framework density 21.052327999999999
#
# number of rings (size 3 to 8) (size 9 to 14) (size 15 to 20)
#    0.000    2.545    0.000    1.364    0.000    4.000 
#    0.000    0.000    0.000    0.000    0.000    0.000 
#    0.000    0.000    0.000    0.000    0.000    0.000 
#
# Total GULP energy -245624.211032 kJ/mol
# GULP energy per Si atom -5582.368433 kJ/mol
# Density = 2.100441 g / cm^3
# Si number density = 21.052328 Si / 1000 Ang^3
#
#
#
# Elastic Constant Matrix: (Units=GPa)
#
#
# Indices 1 2 3 4 5 6 
#
# 1 54.2288 15.6957 -9.2844 0.0000 0.0000 0.0000
# 2 15.6957 280.7465 135.2677 0.0000 0.0000 0.0000
# 3 -9.2844 135.2677 129.1122 0.0000 0.0000 0.0000
# 4 0.0000 0.0000 0.0000 67.5309 0.0000 0.0000
# 5 0.0000 0.0000 0.0000 0.0000 28.5574 0.0000
# 6 0.0000 0.0000 0.0000 0.0000 0.0000 -13.1431
#
#
#
# Elastic Compliance Matrix: (Units=1/GPa)
#
#
# Indices 1 2 3 4 5 6 
#
# 1 0.020445 -0.003738 0.005387 0.000000 0.000000 0.000000
# 2 -0.003738 0.007876 -0.008521 0.000000 0.000000 0.000000
# 3 0.005387 -0.008521 0.017059 0.000000 0.000000 0.000000
# 4 0.000000 0.000000 0.000000 0.014808 0.000000 0.000000
# 5 0.000000 0.000000 0.000000 0.000000 0.035017 0.000000
# 6 0.000000 0.000000 0.000000 0.000000 0.000000 -0.076086
#
#
# Mechanical properties :
#
#
# Convention : Reuss Voigt Hill
#
# Bulk Modulus (GPa) = 31.60960 83.04948 57.32954
# Shear Modulus (GPa) = 115.18122 38.08294 76.63208
#
# Velocity S-wave (km/s) = 7.40477 4.25781 6.03985
# Velocity P-wave (km/s) = 9.38908 7.98164 8.71383
#
# Compressibility (1/GPa) = 0.03163595
#
# Stress axis : x y z
#
# Youngs Moduli (GPa) = 48.91244 126.96302 58.61856
#
# Poissons Ratio (x) = 0.47465 -0.31577
# Poissons Ratio (y) = 0.18286 0.49947
# Poissons Ratio (z) = -0.26348 1.08181
#
# Static dielectric constant tensor:
#      x y z
#    x 1.765840 0.000000 0.000000 
#    y 0.000000 1.799170 0.000000 
#    z 0.000000 0.000000 1.675840 
# 
# From -- ./inp_files/5822.got.cif
#   From: 2010.05.17/outbox.cif.g08.bks.cpg/sg51_3_cif.got.tgz:5822.got - 2010.06.03 11:52:47.
