data_PCOD9405917
_publ_section_title
;
Structure prediction by ZEFSAII (Michael W. Deem and Ramdas Pophale) SiO2 
 PCOD9405917
Probable space group: P M M A
;
_chemical_formula_sum "Si O2"
_cell_formula_units_Z 38
_cell_length_a 8.643117
_cell_length_b 18.459128
_cell_length_c 12.594208
_cell_angle_alpha 90.000000
_cell_angle_beta 90.000000
_cell_angle_gamma 90.000000
_cell_volume 2009.335397
_symmetry_space_group_name_H-M "P M M A"
_symmetry_group_IT_number 51
_symmetry_cell_setting 'orthorhombic'
loop_
_space_group_symop_operation_xyz
x,y,z
1/2-x,-y,z
1/2+x,-y,-z
-x,y,-z
-x,-y,-z
1/2+x,y,-z
1/2-x,y,z
x,-y,z
loop_
_atom_site_type_symbol
_atom_site_label
_atom_site_fract_x
_atom_site_fract_y
_atom_site_fract_z
Si Si1 0.072871 0.759697 0.665064
Si Si2 0.068308 0.389288 0.388346
Si Si3 0.000000 0.882762 0.500000
Si Si4 0.433770 0.734694 0.111966
Si Si5 0.250000 0.000000 0.435554
Si Si6 0.566273 0.420204 0.163301
O O1 0.250000 0.732064 0.665710
O O2 0.065471 0.829705 0.591148
O O3 0.960638 0.697390 0.619647
O O4 0.017187 0.770294 0.786232
O O5 0.250000 0.405070 0.379045
O O6 0.000000 0.414018 0.500000
O O7 0.974757 0.419366 0.288271
O O8 0.118751 0.936037 0.443423
O O9 0.250000 0.744023 0.118494
O O10 0.474538 0.648776 0.119042
O O11 0.500000 0.761582 0.000000
O O12 0.750000 0.409486 0.147377
O O13 0.522939 0.500000 0.122342
#
# Coordination Sequence:
#
# PCOD9405917 Si02
#       6
#     8   8   4   8   2   8
#     4  11  21  35  60  86 119 157 194 240 288 337
#     4  11  21  32  50  77 107 147 196 240 287 348
#     4  11  22  38  60  92 131 164 190 228 275 336
#     4  11  23  39  60  86 115 148 199 251 294 346
#     4  10  24  38  56  94 134 162 194 218 270 342
#     4  10  21  37  55  76 107 146 189 243 304 356
#
# _framework density 18.911725000000001
#
# number of rings (size 3 to 8) (size 9 to 14) (size 15 to 20)
#    0.000    1.263    2.105    7.579    2.947    2.526 
#    0.000    0.000    0.000    0.000    0.000    4.421 
#    0.000    0.000    0.000    0.000    0.000    0.000 
#
# Total GULP energy -211724.874908 kJ/mol
# GULP energy per Si atom -5571.707234 kJ/mol
# Density = 1.886868 g / cm^3
# Si number density = 18.911725 Si / 1000 Ang^3
#
#
#
# Elastic Constant Matrix: (Units=GPa)
#
#
# Indices 1 2 3 4 5 6 
#
# 1 90.5098 4.0820 1.8071 0.0000 0.0000 0.0000
# 2 4.0820 80.7997 9.4251 0.0000 0.0000 0.0000
# 3 1.8071 9.4251 111.9159 0.0000 0.0000 0.0000
# 4 0.0000 0.0000 0.0000 2.5666 0.0000 0.0000
# 5 0.0000 0.0000 0.0000 0.0000 -372.9449 0.0000
# 6 0.0000 0.0000 0.0000 0.0000 0.0000 15.8480
#
#
#
# Elastic Compliance Matrix: (Units=1/GPa)
#
#
# Indices 1 2 3 4 5 6 
#
# 1 0.011076 -0.000544 -0.000133 0.000000 0.000000 0.000000
# 2 -0.000544 0.012526 -0.001046 0.000000 0.000000 0.000000
# 3 -0.000133 -0.001046 0.009026 0.000000 0.000000 0.000000
# 4 0.000000 0.000000 0.000000 0.389618 0.000000 0.000000
# 5 0.000000 0.000000 0.000000 0.000000 -0.002681 0.000000
# 6 0.000000 0.000000 0.000000 0.000000 0.000000 0.063099
#
#
# Mechanical properties :
#
#
# Convention : Reuss Voigt Hill
#
# Bulk Modulus (GPa) = 34.26915 34.87264 34.57090
# Shear Modulus (GPa) = 10.08398 -53.04530 -21.48066
#
# Velocity S-wave (km/s) = 2.31165 -5.30187 -3.37388
# Velocity P-wave (km/s) = 5.02841 4.35890 1.77269
#
# Compressibility (1/GPa) = 0.02918076
#
# Stress axis : x y z
#
# Youngs Moduli (GPa) = 90.28762 79.83526 110.79682
#
# Poissons Ratio (x) = 0.04343 0.01474
# Poissons Ratio (y) = 0.04912 0.11590
# Poissons Ratio (z) = 0.01201 0.08352
#
# Static dielectric constant tensor:
#      x y z
#    x 1.637350 0.000000 0.000000 
#    y 0.000000 1.657140 0.000000 
#    z 0.000000 0.000000 1.695730 
# 
# From -- ./inp_files/20810.got.cif
#   From: 2010.05.17/outbox.cif.g08.bks.cpg/sg51_11_cif.got.tgz:20810.got - 2010.06.03 11:52:47.
