data_PCOD9405022
_publ_section_title
;
Structure prediction by ZEFSAII (Michael W. Deem and Ramdas Pophale) SiO2 
 PCOD9405022
Probable space group: P M M A
;
_chemical_formula_sum "Si O2"
_cell_formula_units_Z 48
_cell_length_a 14.740084
_cell_length_b 13.036196
_cell_length_c 9.981121
_cell_angle_alpha 90.000000
_cell_angle_beta 90.000000
_cell_angle_gamma 90.000000
_cell_volume 1917.918554
_symmetry_space_group_name_H-M "P M M A"
_symmetry_group_IT_number 51
_symmetry_cell_setting 'orthorhombic'
loop_
_space_group_symop_operation_xyz
x,y,z
1/2-x,-y,z
1/2+x,-y,-z
-x,y,-z
-x,-y,-z
1/2+x,y,-z
1/2-x,y,z
x,-y,z
loop_
_atom_site_type_symbol
_atom_site_label
_atom_site_fract_x
_atom_site_fract_y
_atom_site_fract_z
Si Si1 0.858838 0.888914 0.364840
Si Si2 0.599984 0.664696 0.456007
Si Si3 0.145013 0.338445 0.258607
Si Si4 0.556747 0.610800 0.165005
Si Si5 0.850602 0.109934 0.785802
Si Si6 0.405000 0.834019 0.936414
O O1 0.750000 0.885208 0.370882
O O2 0.892847 0.787482 0.437817
O O3 0.886024 0.878580 0.208815
O O4 0.888987 0.000000 0.417314
O O5 0.500000 0.636036 0.500000
O O6 0.654349 0.630202 0.586183
O O7 0.609625 0.620520 0.307243
O O8 0.250000 0.345937 0.201590
O O9 0.053050 0.385747 0.193798
O O10 0.112312 0.218594 0.260858
O O11 0.578448 0.500000 0.105045
O O12 0.588915 0.710548 0.082547
O O13 0.750000 0.105782 0.725370
O O14 0.895523 0.000000 0.758564
O O15 0.841844 0.126427 0.945565
O O16 0.500000 0.866736 0.000000
#
# Coordination Sequence:
#
# PCOD9405022 Si02
#       6
#     8   8   8   8   8   8
#     4  10  21  36  56  82 115 155 192 229 280 340
#     4   9  20  37  58  86 115 147 188 238 287 334
#     4  10  20  37  58  85 117 150 188 232 281 341
#     4  10  22  41  61  82 110 147 192 242 296 342
#     4  10  21  37  58  85 120 158 190 226 279 340
#     4  11  21  38  56  84 110 150 190 240 284 334
#
# _framework density 25.027132999999999
#
# number of rings (size 3 to 8) (size 9 to 14) (size 15 to 20)
#    0.000    2.000    1.667    1.500    0.000    7.333 
#    0.000    1.667    0.000   17.500    0.000    0.000 
#    0.000    0.000    0.000    0.000    0.000    0.000 
#
# Total GULP energy -267791.670539 kJ/mol
# GULP energy per Si atom -5578.993136 kJ/mol
# Density = 2.497017 g / cm^3
# Si number density = 25.027133 Si / 1000 Ang^3
#
#
#
# Elastic Constant Matrix: (Units=GPa)
#
#
# Indices 1 2 3 4 5 6 
#
# 1 66.4728 6.6323 -20.6294 0.0000 0.0000 0.0000
# 2 6.6323 162.3595 0.3152 0.0000 0.0000 0.0000
# 3 -20.6294 0.3152 80.7709 0.0000 0.0000 0.0000
# 4 0.0000 0.0000 0.0000 -20.3390 0.0000 0.0000
# 5 0.0000 0.0000 0.0000 0.0000 9.8798 0.0000
# 6 0.0000 0.0000 0.0000 0.0000 0.0000 15.0891
#
#
#
# Elastic Compliance Matrix: (Units=1/GPa)
#
#
# Indices 1 2 3 4 5 6 
#
# 1 0.016413 -0.000679 0.004195 0.000000 0.000000 0.000000
# 2 -0.000679 0.006187 -0.000197 0.000000 0.000000 0.000000
# 3 0.004195 -0.000197 0.013453 0.000000 0.000000 0.000000
# 4 0.000000 0.000000 0.000000 -0.049167 0.000000 0.000000
# 5 0.000000 0.000000 0.000000 0.000000 0.101216 0.000000
# 6 0.000000 0.000000 0.000000 0.000000 0.000000 0.066273
#
#
# Mechanical properties :
#
#
# Convention : Reuss Voigt Hill
#
# Bulk Modulus (GPa) = 23.42437 31.35994 27.39215
# Shear Modulus (GPa) = 30.87017 22.47834 26.67425
#
# Velocity S-wave (km/s) = 3.51589 3.00018 3.26822
# Velocity P-wave (km/s) = 5.08545 4.95571 5.02100
#
# Compressibility (1/GPa) = 0.04269059
#
# Stress axis : x y z
#
# Youngs Moduli (GPa) = 60.92635 161.62201 74.33386
#
# Poissons Ratio (x) = 0.10968 -0.31181
# Poissons Ratio (y) = 0.04135 0.01468
# Poissons Ratio (z) = -0.25557 0.03192
#
# Static dielectric constant tensor:
#      x y z
#    x 1.745150 0.000000 0.000000 
#    y 0.000000 2.052230 0.000000 
#    z 0.000000 0.000000 2.032090 
# 
# From -- ./inp_files/17287.got.cif
#   From: 2010.05.17/outbox.cif.g08.bks.cpg/sg51_9_cif.got.tgz:17287.got - 2010.06.03 11:52:47.
