data_PCOD9405930
_publ_section_title
;
Structure prediction by ZEFSAII (Michael W. Deem and Ramdas Pophale) SiO2 
 PCOD9405930
Probable space group: P M M A
;
_chemical_formula_sum "Si O2"
_cell_formula_units_Z 48
_cell_length_a 15.299579
_cell_length_b 7.529949
_cell_length_c 21.552580
_cell_angle_alpha 90.000000
_cell_angle_beta 90.000000
_cell_angle_gamma 90.000000
_cell_volume 2482.966048
_symmetry_space_group_name_H-M "P M M A"
_symmetry_group_IT_number 51
_symmetry_cell_setting 'orthorhombic'
loop_
_space_group_symop_operation_xyz
x,y,z
1/2-x,-y,z
1/2+x,-y,-z
-x,y,-z
-x,-y,-z
1/2+x,y,-z
1/2-x,y,z
x,-y,z
loop_
_atom_site_type_symbol
_atom_site_label
_atom_site_fract_x
_atom_site_fract_y
_atom_site_fract_z
Si Si1 0.351004 0.217207 0.500000
Si Si2 0.894878 0.000000 0.928972
Si Si3 0.150060 0.291119 0.830194
Si Si4 0.849940 0.291119 0.830194
Si Si5 1.000000 0.286961 0.263066
Si Si6 0.894878 0.000000 0.071028
Si Si7 0.500001 0.790583 0.407643
O O1 0.250000 0.278342 0.499999
O O2 0.411396 0.275075 0.558525
O O3 0.411396 0.275075 0.441475
O O4 0.346476 0.000000 0.500000
O O5 0.864228 0.828279 0.890668
O O6 0.000000 0.000000 0.928789
O O7 0.864504 0.000000 1.000000
O O8 0.250000 0.273328 0.809638
O O9 0.133216 0.500000 0.843293
O O10 0.084211 0.229628 0.776492
O O11 0.135772 0.171721 0.890669
O O12 0.750000 0.273328 0.809637
O O13 0.866784 0.500000 0.843292
O O14 0.915789 0.229628 0.776492
O O15 1.000000 0.500000 0.263014
O O16 0.999999 0.233755 0.334348
O O17 0.500000 0.000000 0.420030
#
# Coordination Sequence:
#
# PCOD9405930 Si02
#       7
#     8   4   8   8   8   4   8
#     4   8  15  31  50  74 108 140 178 226 275 329
#     4  11  23  39  63  90 117 151 192 240 291 347
#     4  10  22  40  60  83 116 156 194 238 291 344
#     4  10  22  40  60  83 116 156 194 238 291 344
#     4  10  21  37  55  79 114 149 186 233 284 340
#     4  11  23  39  63  90 117 151 192 240 291 347
#     4   9  18  30  52  78 103 141 182 227 277 327
#
# _framework density 19.331717000000001
#
# number of rings (size 3 to 8) (size 9 to 14) (size 15 to 20)
#    0.000    2.333    1.667    1.500    2.333    3.333 
#    0.000    5.000    0.000    1.000    0.000    0.000 
#    0.000    0.000    0.000    0.000    0.000    0.000 
#
# Total GULP energy -267785.402776 kJ/mol
# GULP energy per Si atom -5578.862558 kJ/mol
# Density = 1.928772 g / cm^3
# Si number density = 19.331717 Si / 1000 Ang^3
#
#
#
# Elastic Constant Matrix: (Units=GPa)
#
#
# Indices 1 2 3 4 5 6 
#
# 1 172.6514 41.8359 95.3763 0.0000 0.0000 0.0000
# 2 41.8359 63.1627 41.1278 0.0000 0.0000 0.0000
# 3 95.3763 41.1278 191.6715 0.0000 0.0000 0.0000
# 4 0.0000 0.0000 0.0000 78.7466 0.0000 0.0000
# 5 0.0000 0.0000 0.0000 0.0000 -8.9055 0.0000
# 6 0.0000 0.0000 0.0000 0.0000 0.0000 2.2844
#
#
#
# Elastic Compliance Matrix: (Units=1/GPa)
#
#
# Indices 1 2 3 4 5 6 
#
# 1 0.008563 -0.003368 -0.003538 0.000000 0.000000 0.000000
# 2 -0.003368 0.019728 -0.002557 0.000000 0.000000 0.000000
# 3 -0.003538 -0.002557 0.007527 0.000000 0.000000 0.000000
# 4 0.000000 0.000000 0.000000 0.012699 0.000000 0.000000
# 5 0.000000 0.000000 0.000000 0.000000 -0.112290 0.000000
# 6 0.000000 0.000000 0.000000 0.000000 0.000000 0.437746
#
#
# Mechanical properties :
#
#
# Convention : Reuss Voigt Hill
#
# Bulk Modulus (GPa) = 59.20387 87.12951 73.16669
# Shear Modulus (GPa) = 12.54616 31.03482 21.79049
#
# Velocity S-wave (km/s) = 2.55030 4.01107 3.36101
# Velocity P-wave (km/s) = 6.27406 8.16212 7.27956
#
# Compressibility (1/GPa) = 0.01689079
#
# Stress axis : x y z
#
# Youngs Moduli (GPa) = 116.78706 50.68975 132.86194
#
# Poissons Ratio (x) = 0.17070 0.47009
# Poissons Ratio (y) = 0.39329 0.33978
# Poissons Ratio (z) = 0.41321 0.12963
#
# Static dielectric constant tensor:
#      x y z
#    x 1.690700 0.000000 0.000000 
#    y 0.000000 1.701010 0.000000 
#    z 0.000000 0.000000 1.642210 
# 
# From -- ./inp_files/29636.got.cif
#   From: 2010.05.17/outbox.cif.g08.bks.cpg/sg51_15_cif.got.tgz:29636.got - 2010.06.03 11:52:47.
