data_PCOD9405385
_publ_section_title
;
Structure prediction by ZEFSAII (Michael W. Deem and Ramdas Pophale) SiO2 
 PCOD9405385
Probable space group: P M M A
;
_chemical_formula_sum "Si O2"
_cell_formula_units_Z 64
_cell_length_a 17.936434
_cell_length_b 21.342578
_cell_length_c 9.475874
_cell_angle_alpha 90.000000
_cell_angle_beta 90.000000
_cell_angle_gamma 90.000000
_cell_volume 3627.456878
_symmetry_space_group_name_H-M "P M M A"
_symmetry_group_IT_number 51
_symmetry_cell_setting 'orthorhombic'
loop_
_space_group_symop_operation_xyz
x,y,z
1/2-x,-y,z
1/2+x,-y,-z
-x,y,-z
-x,-y,-z
1/2+x,y,-z
1/2-x,y,z
x,-y,z
loop_
_atom_site_type_symbol
_atom_site_label
_atom_site_fract_x
_atom_site_fract_y
_atom_site_fract_z
Si Si1 0.420583 0.570769 0.923053
Si Si2 0.660309 0.817191 0.878181
Si Si3 0.339105 0.928848 0.656018
Si Si4 0.076326 0.571487 0.588745
Si Si5 0.912969 0.930147 0.040940
Si Si6 0.160556 0.677620 0.429614
Si Si7 0.339806 0.323772 0.101788
Si Si8 0.340455 0.182623 0.446731
O O1 0.388709 0.500000 0.940895
O O2 0.432686 0.581010 0.756255
O O3 0.500000 0.571509 0.000000
O O4 0.372516 0.624526 0.997597
O O5 0.750000 0.817905 0.880991
O O6 0.637200 0.748008 0.931073
O O7 0.636636 0.826105 0.715602
O O8 0.628988 0.873780 0.966768
O O9 0.250000 0.920487 0.691442
O O10 0.390562 0.925637 0.794554
O O11 0.362195 0.874124 0.548312
O O12 0.345608 0.000000 0.597786
O O13 0.103183 0.500000 0.567819
O O14 0.131339 0.622707 0.526684
O O15 0.000000 0.577515 0.500000
O O16 0.887864 0.000000 0.994846
O O17 0.000000 0.925472 0.000000
O O18 0.250000 0.678626 0.429201
O O19 0.137529 0.666703 0.266149
O O20 0.135032 0.746437 0.482540
O O21 0.250000 0.326618 0.096408
O O22 0.250000 0.182800 0.448617
#
# Coordination Sequence:
#
# PCOD9405385 Si02
#       8
#     8   8   8   8   8   8   8   8
#     4  10  21  36  54  76 103 137 175 213 255 304
#     4   9  18  34  55  77 100 129 169 211 250 299
#     4   9  17  31  52  76 101 131 168 208 250 298
#     4  10  21  36  53  74 101 132 170 215 254 295
#     4  10  21  35  49  70 103 138 170 207 252 301
#     4   9  18  34  54  75 103 136 166 202 253 308
#     4   9  19  35  54  78 107 135 166 210 260 307
#     4   8  16  32  53  77 102 127 162 209 252 293
#
# _framework density 17.643214
#
# number of rings (size 3 to 8) (size 9 to 14) (size 15 to 20)
#    0.000    2.750    0.000    2.625    0.000    5.250 
#    0.000    9.375    0.000    2.250    0.000    0.000 
#    0.000    0.000    0.000    0.000    0.000    0.000 
#
# Total GULP energy -356510.344608 kJ/mol
# GULP energy per Si atom -5570.474135 kJ/mol
# Density = 1.760306 g / cm^3
# Si number density = 17.643214 Si / 1000 Ang^3
#
#
#
# Elastic Constant Matrix: (Units=GPa)
#
#
# Indices 1 2 3 4 5 6 
#
# 1 22.1907 45.8359 29.3593 0.0000 0.0000 0.0000
# 2 45.8359 175.0745 107.4821 0.0000 0.0000 0.0000
# 3 29.3593 107.4821 98.8605 0.0000 0.0000 0.0000
# 4 0.0000 0.0000 0.0000 38.0892 0.0000 0.0000
# 5 0.0000 0.0000 0.0000 0.0000 22.6954 0.0000
# 6 0.0000 0.0000 0.0000 0.0000 0.0000 240.6432
#
#
#
# Elastic Compliance Matrix: (Units=1/GPa)
#
#
# Indices 1 2 3 4 5 6 
#
# 1 0.098569 -0.023561 -0.003657 0.000000 0.000000 0.000000
# 2 -0.023561 0.022808 -0.017800 0.000000 0.000000 0.000000
# 3 -0.003657 -0.017800 0.030554 0.000000 0.000000 0.000000
# 4 0.000000 0.000000 0.000000 0.026254 0.000000 0.000000
# 5 0.000000 0.000000 0.000000 0.000000 0.044062 0.000000
# 6 0.000000 0.000000 0.000000 0.000000 0.000000 0.004156
#
#
# Mechanical properties :
#
#
# Convention : Reuss Voigt Hill
#
# Bulk Modulus (GPa) = 16.15653 73.49780 44.82716
# Shear Modulus (GPa) = 14.83370 67.84880 41.34125
#
# Velocity S-wave (km/s) = 2.90273 6.20802 4.84589
# Velocity P-wave (km/s) = 4.51793 9.65061 7.53479
#
# Compressibility (1/GPa) = 0.06189448
#
# Stress axis : x y z
#
# Youngs Moduli (GPa) = 10.14522 43.84359 32.72892
#
# Poissons Ratio (x) = 1.03300 0.11969
# Poissons Ratio (y) = 0.23903 0.58259
# Poissons Ratio (z) = 0.03710 0.78043
#
# Static dielectric constant tensor:
#      x y z
#    x 1.586260 0.000000 0.000000 
#    y 0.000000 1.610090 0.000000 
#    z 0.000000 0.000000 1.589060 
# 
# From -- ./inp_files/10068.got.cif
#   From: 2010.05.17/outbox.cif.g08.bks.cpg/sg51_6_cif.got.tgz:10068.got - 2010.06.03 11:52:47.
