data_PCOD9405150
_publ_section_title
;
Structure prediction by ZEFSAII (Michael W. Deem and Ramdas Pophale) SiO2 
 PCOD9405150
Probable space group: P M M A
;
_chemical_formula_sum "Si O2"
_cell_formula_units_Z 56
_cell_length_a 21.239632
_cell_length_b 8.284497
_cell_length_c 15.245300
_cell_angle_alpha 90.000000
_cell_angle_beta 90.000000
_cell_angle_gamma 90.000000
_cell_volume 2682.557920
_symmetry_space_group_name_H-M "P M M A"
_symmetry_group_IT_number 51
_symmetry_cell_setting 'orthorhombic'
loop_
_space_group_symop_operation_xyz
x,y,z
1/2-x,-y,z
1/2+x,-y,-z
-x,y,-z
-x,-y,-z
1/2+x,y,-z
1/2-x,y,z
x,-y,z
loop_
_atom_site_type_symbol
_atom_site_label
_atom_site_fract_x
_atom_site_fract_y
_atom_site_fract_z
Si Si1 0.823129 0.195890 0.351729
Si Si2 0.075621 0.807012 0.495441
Si Si3 0.108103 0.315011 0.013049
Si Si4 0.175753 0.000000 0.077496
Si Si5 0.475868 0.683090 0.177902
Si Si6 0.368450 0.325091 0.324211
Si Si7 0.680223 0.000000 0.733273
Si Si8 0.397210 0.812880 0.820211
O O1 0.750000 0.249795 0.367476
O O2 0.877447 0.236997 0.423507
O O3 0.849879 0.244522 0.255781
O O4 0.821296 0.000000 0.351097
O O5 0.095481 0.695814 0.414754
O O6 0.000000 0.789291 0.500000
O O7 0.086318 0.000000 0.478513
O O8 0.128796 0.500000 0.030395
O O9 0.048690 0.289301 0.078678
O O10 0.153680 0.169255 0.037865
O O11 0.099972 0.289882 0.909352
O O12 0.143955 0.000000 0.174833
O O13 0.250000 0.000000 0.066398
O O14 0.500655 0.500000 0.182535
O O15 0.416791 0.686975 0.243252
O O16 0.530335 0.800740 0.211052
O O17 0.336602 0.500000 0.318963
O O18 0.328072 0.163816 0.318600
O O19 0.750000 0.000000 0.767315
O O20 0.382343 0.000000 0.840662
#
# Coordination Sequence:
#
# PCOD9405150 Si02
#       8
#     8   8   8   4   8   8   4   8
#     4   9  20  39  60  88 127 170 217 271 329 393
#     4  10  20  37  64  98 130 167 219 275 329 392
#     4  11  23  41  62  93 132 168 213 270 327 385
#     4  11  24  42  64  90 122 170 219 261 318 386
#     4  10  22  38  59  91 132 166 202 259 326 391
#     4  11  23  40  64  95 130 166 206 262 325 392
#     4  11  24  42  64  89 123 167 211 263 321 386
#     4  11  22  35  62  96 122 169 217 265 319 384
#
# _framework density 20.875599000000001
#
# number of rings (size 3 to 8) (size 9 to 14) (size 15 to 20)
#    0.000    1.571    2.857    1.714    2.000    4.857 
#    0.000    2.857    0.000    3.000    0.000    0.000 
#    0.000    0.000    0.000    0.000    0.000    0.000 
#
# Total GULP energy -311929.527447 kJ/mol
# GULP energy per Si atom -5570.170133 kJ/mol
# Density = 2.082808 g / cm^3
# Si number density = 20.875599 Si / 1000 Ang^3
#
#
#
# Elastic Constant Matrix: (Units=GPa)
#
#
# Indices 1 2 3 4 5 6 
#
# 1 91.8720 38.5856 37.2103 0.0000 0.0000 0.0000
# 2 38.5856 110.6251 19.3380 0.0000 0.0000 0.0000
# 3 37.2103 19.3380 105.6932 0.0000 0.0000 0.0000
# 4 0.0000 0.0000 0.0000 12.5477 0.0000 0.0000
# 5 0.0000 0.0000 0.0000 0.0000 17.3024 0.0000
# 6 0.0000 0.0000 0.0000 0.0000 0.0000 -45.5372
#
#
#
# Elastic Compliance Matrix: (Units=1/GPa)
#
#
# Indices 1 2 3 4 5 6 
#
# 1 0.014421 -0.004279 -0.004294 0.000000 0.000000 0.000000
# 2 -0.004279 0.010608 -0.000434 0.000000 0.000000 0.000000
# 3 -0.004294 -0.000434 0.011053 0.000000 0.000000 0.000000
# 4 0.000000 0.000000 0.000000 0.079696 0.000000 0.000000
# 5 0.000000 0.000000 0.000000 0.000000 0.057795 0.000000
# 6 0.000000 0.000000 0.000000 0.000000 0.000000 -0.021960
#
#
# Mechanical properties :
#
#
# Convention : Reuss Voigt Hill
#
# Bulk Modulus (GPa) = 55.35191 55.38422 55.36806
# Shear Modulus (GPa) = 28.46557 11.06635 19.76596
#
# Velocity S-wave (km/s) = 3.69668 2.30491 3.08042
# Velocity P-wave (km/s) = 6.69277 5.80273 6.26358
#
# Compressibility (1/GPa) = 0.01806623
#
# Stress axis : x y z
#
# Youngs Moduli (GPa) = 69.34198 94.26755 90.47639
#
# Poissons Ratio (x) = 0.40341 0.38852
# Poissons Ratio (y) = 0.29674 0.03929
# Poissons Ratio (z) = 0.29777 0.04094
#
# Static dielectric constant tensor:
#      x y z
#    x 1.786110 0.000000 0.000000 
#    y 0.000000 1.777630 0.000000 
#    z 0.000000 0.000000 1.905460 
# 
# From -- ./inp_files/25930.got.cif
#   From: 2010.05.17/outbox.cif.g08.bks.cpg/sg51_13_cif.got.tgz:25930.got - 2010.06.03 11:52:47.
