data_PCOD9405786
_publ_section_title
;
Structure prediction by ZEFSAII (Michael W. Deem and Ramdas Pophale) SiO2 
 PCOD9405786
Probable space group: P M M A
;
_chemical_formula_sum "Si O2"
_cell_formula_units_Z 64
_cell_length_a 15.111620
_cell_length_b 17.748574
_cell_length_c 11.520469
_cell_angle_alpha 90.000000
_cell_angle_beta 90.000000
_cell_angle_gamma 90.000000
_cell_volume 3089.901602
_symmetry_space_group_name_H-M "P M M A"
_symmetry_group_IT_number 51
_symmetry_cell_setting 'orthorhombic'
loop_
_space_group_symop_operation_xyz
x,y,z
1/2-x,-y,z
1/2+x,-y,-z
-x,y,-z
-x,-y,-z
1/2+x,y,-z
1/2-x,y,z
x,-y,z
loop_
_atom_site_type_symbol
_atom_site_label
_atom_site_fract_x
_atom_site_fract_y
_atom_site_fract_z
Si Si1 0.104847 0.916132 0.971064
Si Si2 0.651284 0.341454 0.776715
Si Si3 0.518033 0.916975 0.261920
Si Si4 0.991973 0.588163 0.361699
Si Si5 0.649022 0.706099 0.268986
Si Si6 0.893758 0.750179 0.004803
Si Si7 0.650494 0.142449 0.420292
Si Si8 0.347865 0.173429 0.307369
O O1 0.096392 0.906942 0.832101
O O2 0.141589 0.000000 0.998994
O O3 0.141150 0.836164 0.016486
O O4 0.000000 0.919290 0.000000
O O5 0.750000 0.373863 0.771241
O O6 0.579266 0.393547 0.714808
O O7 0.634032 0.310557 0.907713
O O8 0.648905 0.262861 0.706641
O O9 0.569705 0.908870 0.381359
O O10 0.436001 0.860871 0.250451
O O11 0.480284 0.000000 0.246579
O O12 0.970497 0.500000 0.350744
O O13 0.000000 0.604561 0.500000
O O14 0.917477 0.642043 0.309330
O O15 0.750000 0.681635 0.283933
O O16 0.636019 0.779626 0.349830
O O17 0.633372 0.726650 0.134268
O O18 0.000000 0.754622 0.000000
O O19 0.750000 0.114966 0.391608
O O20 0.647050 0.154771 0.557044
O O21 0.250000 0.147516 0.265693
#
# Coordination Sequence:
#
# PCOD9405786 Si02
#       8
#     8   8   8   8   8   8   8   8
#     4   9  18  32  54  85 119 160 209 260 315 371
#     4  11  23  41  66  97 128 163 209 258 312 374
#     4  11  21  35  54  77 112 157 202 255 316 371
#     4  11  25  45  70 100 133 167 202 247 307 376
#     4  11  22  40  65  95 127 165 212 261 313 374
#     4  11  19  37  66  92 127 171 214 267 319 370
#     4  10  21  36  55  81 115 154 202 257 308 364
#     4  10  21  36  55  82 115 153 202 258 308 366
#
# _framework density 20.712633
#
# number of rings (size 3 to 8) (size 9 to 14) (size 15 to 20)
#    0.000    1.500    2.500    3.750    0.000    3.500 
#    0.000    3.750    0.000    3.750    0.000    3.500 
#    0.000    0.000    0.000    0.000    0.000    0.000 
#
# Total GULP energy -357280.591165 kJ/mol
# GULP energy per Si atom -5582.509237 kJ/mol
# Density = 2.066549 g / cm^3
# Si number density = 20.712633 Si / 1000 Ang^3
#
#
#
# Elastic Constant Matrix: (Units=GPa)
#
#
# Indices 1 2 3 4 5 6 
#
# 1 94.9639 35.0672 20.1223 0.0000 0.0000 0.0000
# 2 35.0672 71.0223 27.4436 0.0000 0.0000 0.0000
# 3 20.1223 27.4436 93.5282 0.0000 0.0000 0.0000
# 4 0.0000 0.0000 0.0000 24.0418 0.0000 0.0000
# 5 0.0000 0.0000 0.0000 0.0000 20.7265 0.0000
# 6 0.0000 0.0000 0.0000 0.0000 0.0000 -29.8285
#
#
#
# Elastic Compliance Matrix: (Units=1/GPa)
#
#
# Indices 1 2 3 4 5 6 
#
# 1 0.012965 -0.006005 -0.001028 0.000000 0.000000 0.000000
# 2 -0.006005 0.018662 -0.004184 0.000000 0.000000 0.000000
# 3 -0.001028 -0.004184 0.012141 0.000000 0.000000 0.000000
# 4 0.000000 0.000000 0.000000 0.041594 0.000000 0.000000
# 5 0.000000 0.000000 0.000000 0.000000 0.048247 0.000000
# 6 0.000000 0.000000 0.000000 0.000000 0.000000 -0.033525
#
#
# Mechanical properties :
#
#
# Convention : Reuss Voigt Hill
#
# Bulk Modulus (GPa) = 46.87024 47.19785 47.03405
# Shear Modulus (GPa) = 38.57185 14.78004 26.67594
#
# Velocity S-wave (km/s) = 4.32005 2.67418 3.59264
# Velocity P-wave (km/s) = 6.89650 5.68959 6.32191
#
# Compressibility (1/GPa) = 0.02133550
#
# Stress axis : x y z
#
# Youngs Moduli (GPa) = 77.12867 53.58617 82.36750
#
# Poissons Ratio (x) = 0.32176 0.08464
# Poissons Ratio (y) = 0.46312 0.34462
# Poissons Ratio (z) = 0.07925 0.22420
#
# Static dielectric constant tensor:
#      x y z
#    x 1.754590 0.000000 0.000000 
#    y 0.000000 1.718740 0.000000 
#    z 0.000000 0.000000 1.841440 
# 
# From -- ./inp_files/16868.got.cif
#   From: 2010.05.17/outbox.cif.g08.bks.cpg/sg51_9_cif.got.tgz:16868.got - 2010.06.03 11:52:47.
