data_PCOD9405107
_publ_section_title
;
Structure prediction by ZEFSAII (Michael W. Deem and Ramdas Pophale) SiO2 
 PCOD9405107
Probable space group: P M M A
;
_chemical_formula_sum "Si O2"
_cell_formula_units_Z 48
_cell_length_a 15.419640
_cell_length_b 8.880226
_cell_length_c 19.401508
_cell_angle_alpha 90.000000
_cell_angle_beta 90.000000
_cell_angle_gamma 90.000000
_cell_volume 2656.646318
_symmetry_space_group_name_H-M "P M M A"
_symmetry_group_IT_number 51
_symmetry_cell_setting 'orthorhombic'
loop_
_space_group_symop_operation_xyz
x,y,z
1/2-x,-y,z
1/2+x,-y,-z
-x,y,-z
-x,-y,-z
1/2+x,y,-z
1/2-x,y,z
x,-y,z
loop_
_atom_site_type_symbol
_atom_site_label
_atom_site_fract_x
_atom_site_fract_y
_atom_site_fract_z
Si Si1 0.850246 0.818957 0.170368
Si Si2 0.250000 0.181606 0.575854
Si Si3 0.250000 0.681040 0.424651
Si Si4 0.497741 0.319813 0.080571
Si Si5 0.590945 0.181247 0.326704
Si Si6 0.095721 0.680572 0.321870
Si Si7 0.649113 0.179970 0.824930
O O1 0.750000 0.776819 0.158985
O O2 0.876955 0.783814 0.249165
O O3 0.916758 0.739733 0.119203
O O4 0.857389 0.000000 0.162466
O O5 0.250000 0.246853 0.499605
O O6 0.335094 0.226651 0.619190
O O7 0.250000 0.000000 0.572865
O O8 0.250000 0.500000 0.431424
O O9 0.165629 0.723819 0.379923
O O10 0.493233 0.500000 0.086852
O O11 0.415157 0.247858 0.118534
O O12 0.500000 0.279736 0.000000
O O13 0.499706 0.260489 0.339431
O O14 0.580132 0.000000 0.330440
O O15 0.095849 0.500000 0.315375
O O16 0.123897 0.751512 0.249073
O O17 0.750000 0.213248 0.839365
O O18 0.637833 0.000000 0.822105
#
# Coordination Sequence:
#
# PCOD9405107 Si02
#       7
#     8   4   4   8   8   8   8
#     4  10  20  37  63  91 120 156 199 249 300 354
#     4  10  22  40  62  88 123 160 199 246 301 355
#     4  10  24  42  58  84 125 162 197 244 303 359
#     4  11  25  42  60  88 126 162 199 247 301 357
#     4  10  20  37  61  90 119 153 198 247 298 353
#     4  11  22  38  61  89 120 158 200 246 300 359
#     4  11  23  39  63  92 119 154 203 252 299 359
#
# _framework density 18.067890999999999
#
# number of rings (size 3 to 8) (size 9 to 14) (size 15 to 20)
#    0.000    1.500    3.333    1.500    0.000    6.000 
#    0.000    6.667    0.000    0.000    0.000    0.000 
#    0.000    0.000    0.000    0.000    0.000    0.000 
#
# Total GULP energy -268267.417783 kJ/mol
# GULP energy per Si atom -5588.904537 kJ/mol
# Density = 1.802677 g / cm^3
# Si number density = 18.067891 Si / 1000 Ang^3
#
#
#
# Elastic Constant Matrix: (Units=GPa)
#
#
# Indices 1 2 3 4 5 6 
#
# 1 212.3068 73.3972 121.3968 0.0000 0.0000 0.0000
# 2 73.3972 44.3162 66.3689 0.0000 0.0000 0.0000
# 3 121.3968 66.3689 185.1513 0.0000 0.0000 0.0000
# 4 0.0000 0.0000 0.0000 34.5875 0.0000 0.0000
# 5 0.0000 0.0000 0.0000 0.0000 32.3347 0.0000
# 6 0.0000 0.0000 0.0000 0.0000 0.0000 17.9310
#
#
#
# Elastic Compliance Matrix: (Units=1/GPa)
#
#
# Indices 1 2 3 4 5 6 
#
# 1 0.011210 -0.016319 -0.001500 0.000000 0.000000 0.000000
# 2 -0.016319 0.072477 -0.015280 0.000000 0.000000 0.000000
# 3 -0.001500 -0.015280 0.011862 0.000000 0.000000 0.000000
# 4 0.000000 0.000000 0.000000 0.028912 0.000000 0.000000
# 5 0.000000 0.000000 0.000000 0.000000 0.030927 0.000000
# 6 0.000000 0.000000 0.000000 0.000000 0.000000 0.055769
#
#
# Mechanical properties :
#
#
# Convention : Reuss Voigt Hill
#
# Bulk Modulus (GPa) = 34.07173 107.12222 70.59698
# Shear Modulus (GPa) = 17.41325 29.01141 23.21233
#
# Velocity S-wave (km/s) = 3.10783 4.01145 3.58820
# Velocity P-wave (km/s) = 5.63708 8.99295 7.50499
#
# Compressibility (1/GPa) = 0.02934984
#
# Stress axis : x y z
#
# Youngs Moduli (GPa) = 89.20956 13.79753 84.30457
#
# Poissons Ratio (x) = 0.22516 0.12646
# Poissons Ratio (y) = 1.45581 1.28818
# Poissons Ratio (z) = 0.13382 0.21083
#
# Static dielectric constant tensor:
#      x y z
#    x 1.604100 0.000000 0.000000 
#    y 0.000000 1.606200 0.000000 
#    z 0.000000 0.000000 1.582920 
# 
# From -- ./inp_files/29537.got.cif
#   From: 2010.05.17/outbox.cif.g08.bks.cpg/sg51_15_cif.got.tgz:29537.got - 2010.06.03 11:52:47.
