data_PCOD9405741
_publ_section_title
;
Structure prediction by ZEFSAII (Michael W. Deem and Ramdas Pophale) SiO2 
 PCOD9405741
Probable space group: P M M A
;
_chemical_formula_sum "Si O2"
_cell_formula_units_Z 64
_cell_length_a 16.170297
_cell_length_b 21.739894
_cell_length_c 9.083914
_cell_angle_alpha 90.000000
_cell_angle_beta 90.000000
_cell_angle_gamma 90.000000
_cell_volume 3193.364058
_symmetry_space_group_name_H-M "P M M A"
_symmetry_group_IT_number 51
_symmetry_cell_setting 'orthorhombic'
loop_
_space_group_symop_operation_xyz
x,y,z
1/2-x,-y,z
1/2+x,-y,-z
-x,y,-z
-x,-y,-z
1/2+x,y,-z
1/2-x,y,z
x,-y,z
loop_
_atom_site_type_symbol
_atom_site_label
_atom_site_fract_x
_atom_site_fract_y
_atom_site_fract_z
Si Si1 0.349549 0.568023 0.890045
Si Si2 0.590561 0.811855 0.925665
Si Si3 0.345288 0.930611 0.612268
Si Si4 0.092970 0.567710 0.561845
Si Si5 0.906871 0.932140 0.067212
Si Si6 0.152982 0.690470 0.419837
Si Si7 0.348372 0.320847 0.091398
Si Si8 0.412023 0.177937 0.428463
O O1 0.250000 0.574909 0.859508
O O2 0.359672 0.500000 0.958572
O O3 0.398683 0.568797 0.737539
O O4 0.379108 0.623760 0.991191
O O5 0.632796 0.872760 0.991604
O O6 0.634385 0.747821 0.963912
O O7 0.586580 0.819750 0.748998
O O8 0.500000 0.807731 0.000000
O O9 0.250000 0.928792 0.664004
O O10 0.357166 0.877304 0.492899
O O11 0.361162 0.000000 0.554028
O O12 0.402612 0.922212 0.756765
O O13 0.126257 0.500000 0.514524
O O14 0.139777 0.628211 0.508245
O O15 0.000000 0.571765 0.500000
O O16 0.870167 0.000000 0.039774
O O17 0.000000 0.934129 0.000000
O O18 0.250000 0.703443 0.405970
O O19 0.117308 0.677599 0.256929
O O20 0.114456 0.753524 0.479507
O O21 0.250000 0.330003 0.100454
O O22 0.500000 0.165514 0.500000
#
# Coordination Sequence:
#
# PCOD9405741 Si02
#       8
#     8   8   8   8   8   8   8   8
#     4   9  18  34  55  78 104 136 177 222 268 323
#     4  10  21  36  55  81 111 144 185 232 280 336
#     4  10  22  40  61  88 121 155 195 243 293 348
#     4  10  21  36  54  79 110 142 180 227 276 331
#     4   9  18  35  58  83 112 146 188 235 282 338
#     4  10  21  37  56  80 111 145 184 230 280 336
#     4   9  20  36  54  78 106 138 177 223 273 327
#     4  11  22  37  59  85 116 153 193 238 288 343
#
# _framework density 20.041561000000002
#
# number of rings (size 3 to 8) (size 9 to 14) (size 15 to 20)
#    0.000    2.250    0.000    2.625    0.000    7.000 
#    0.000    2.500    0.000    4.125    0.000    0.000 
#    0.000    0.000    0.000    0.000    0.000    0.000 
#
# Total GULP energy -356740.785395 kJ/mol
# GULP energy per Si atom -5574.074772 kJ/mol
# Density = 1.999595 g / cm^3
# Si number density = 20.041561 Si / 1000 Ang^3
#
#
#
# Elastic Constant Matrix: (Units=GPa)
#
#
# Indices 1 2 3 4 5 6 
#
# 1 28.2425 0.8881 10.8331 0.0000 0.0000 0.0000
# 2 0.8881 164.2693 62.6870 0.0000 0.0000 0.0000
# 3 10.8331 62.6870 67.1032 0.0000 0.0000 0.0000
# 4 0.0000 0.0000 0.0000 43.2340 0.0000 0.0000
# 5 0.0000 0.0000 0.0000 0.0000 10.6494 0.0000
# 6 0.0000 0.0000 0.0000 0.0000 0.0000 31.3992
#
#
#
# Elastic Compliance Matrix: (Units=1/GPa)
#
#
# Indices 1 2 3 4 5 6 
#
# 1 0.038930 0.003400 -0.009461 0.000000 0.000000 0.000000
# 2 0.003400 0.009757 -0.009664 0.000000 0.000000 0.000000
# 3 -0.009461 -0.009664 0.025458 0.000000 0.000000 0.000000
# 4 0.000000 0.000000 0.000000 0.023130 0.000000 0.000000
# 5 0.000000 0.000000 0.000000 0.000000 0.093902 0.000000
# 6 0.000000 0.000000 0.000000 0.000000 0.000000 0.031848
#
#
# Mechanical properties :
#
#
# Convention : Reuss Voigt Hill
#
# Bulk Modulus (GPa) = 23.42214 45.38126 34.40170
# Shear Modulus (GPa) = 18.60776 29.40365 24.00571
#
# Velocity S-wave (km/s) = 3.05037 3.83447 3.46467
# Velocity P-wave (km/s) = 4.91106 6.50361 5.76262
#
# Compressibility (1/GPa) = 0.04269464
#
# Stress axis : x y z
#
# Youngs Moduli (GPa) = 25.68734 102.49088 39.28112
#
# Poissons Ratio (x) = -0.34847 0.37164
# Poissons Ratio (y) = -0.08734 0.37960
# Poissons Ratio (z) = 0.24303 0.99044
#
# Static dielectric constant tensor:
#      x y z
#    x 1.335230 0.000000 0.000000 
#    y 0.000000 1.750220 0.000000 
#    z 0.000000 0.000000 1.700730 
# 
# From -- ./inp_files/10066.got.cif
#   From: 2010.05.17/outbox.cif.g08.bks.cpg/sg51_6_cif.got.tgz:10066.got - 2010.06.03 11:52:47.
