data_PCOD9405999
_publ_section_title
;
Structure prediction by ZEFSAII (Michael W. Deem and Ramdas Pophale) SiO2 
 PCOD9405999
Probable space group: P M M A
;
_chemical_formula_sum "Si O2"
_cell_formula_units_Z 48
_cell_length_a 14.085680
_cell_length_b 13.152997
_cell_length_c 10.275473
_cell_angle_alpha 90.000000
_cell_angle_beta 90.000000
_cell_angle_gamma 90.000000
_cell_volume 1903.725649
_symmetry_space_group_name_H-M "P M M A"
_symmetry_group_IT_number 51
_symmetry_cell_setting 'orthorhombic'
loop_
_space_group_symop_operation_xyz
x,y,z
1/2-x,-y,z
1/2+x,-y,-z
-x,y,-z
-x,-y,-z
1/2+x,y,-z
1/2-x,y,z
x,-y,z
loop_
_atom_site_type_symbol
_atom_site_label
_atom_site_fract_x
_atom_site_fract_y
_atom_site_fract_z
Si Si1 0.602361 0.664921 0.953081
Si Si2 0.135198 0.108862 0.704245
Si Si3 0.855470 0.334788 0.231887
Si Si4 0.364880 0.110546 0.137049
Si Si5 0.864764 0.819040 0.578698
Si Si6 0.939726 0.390099 0.669666
O O1 0.605340 0.786898 0.934236
O O2 0.615897 0.622066 0.808424
O O3 0.500000 0.632034 0.000000
O O4 0.657117 0.633961 0.082080
O O5 0.250000 0.104180 0.709832
O O6 0.113589 0.215369 0.771776
O O7 0.108017 0.124729 0.553448
O O8 0.099797 0.000000 0.753863
O O9 0.750000 0.343725 0.295119
O O10 0.947456 0.384695 0.297704
O O11 0.250000 0.111475 0.132235
O O12 0.393124 0.124421 0.288523
O O13 0.395609 0.000000 0.087788
O O14 0.750000 0.812077 0.579519
O O15 0.907672 0.706264 0.586085
O O16 0.917357 0.500000 0.612585
#
# Coordination Sequence:
#
# PCOD9405999 Si02
#       6
#     8   8   8   8   8   8
#     4   9  19  34  52  75 105 138 179 231 277 326
#     4   9  18  35  60  87 118 157 192 223 271 338
#     4  10  21  37  56  82 116 150 186 228 275 335
#     4   9  16  27  47  74 103 136 172 215 271 328
#     4   9  18  35  57  82 112 144 186 238 282 325
#     4  10  22  40  60  82 108 143 191 243 292 336
#
# _framework density 25.213716000000002
#
# number of rings (size 3 to 8) (size 9 to 14) (size 15 to 20)
#    0.000    2.667    0.000    1.000    0.000    8.000 
#    0.000   11.667    0.000    3.000    0.000    0.000 
#    0.000    0.000    0.000    0.000    0.000    0.000 
#
# Total GULP energy -268193.326649 kJ/mol
# GULP energy per Si atom -5587.360972 kJ/mol
# Density = 2.515633 g / cm^3
# Si number density = 25.213716 Si / 1000 Ang^3
#
#
#
# Elastic Constant Matrix: (Units=GPa)
#
#
# Indices 1 2 3 4 5 6 
#
# 1 80.7908 3.9562 -4.6696 0.0000 0.0000 0.0000
# 2 3.9562 150.5491 -6.4660 0.0000 0.0000 0.0000
# 3 -4.6696 -6.4660 74.0500 0.0000 0.0000 0.0000
# 4 0.0000 0.0000 0.0000 7.3170 0.0000 0.0000
# 5 0.0000 0.0000 0.0000 0.0000 7.9378 0.0000
# 6 0.0000 0.0000 0.0000 0.0000 0.0000 13.9805
#
#
#
# Elastic Compliance Matrix: (Units=1/GPa)
#
#
# Indices 1 2 3 4 5 6 
#
# 1 0.012436 -0.000294 0.000759 0.000000 0.000000 0.000000
# 2 -0.000294 0.006674 0.000564 0.000000 0.000000 0.000000
# 3 0.000759 0.000564 0.013601 0.000000 0.000000 0.000000
# 4 0.000000 0.000000 0.000000 0.136667 0.000000 0.000000
# 5 0.000000 0.000000 0.000000 0.000000 0.125980 0.000000
# 6 0.000000 0.000000 0.000000 0.000000 0.000000 0.071528
#
#
# Mechanical properties :
#
#
# Convention : Reuss Voigt Hill
#
# Bulk Modulus (GPa) = 28.76141 32.33678 30.54910
# Shear Modulus (GPa) = 13.28307 26.68504 19.98405
#
# Velocity S-wave (km/s) = 2.29774 3.25676 2.81835
# Velocity P-wave (km/s) = 4.29783 5.19567 4.76793
#
# Compressibility (1/GPa) = 0.03476881
#
# Stress axis : x y z
#
# Youngs Moduli (GPa) = 80.41242 149.82807 73.52135
#
# Poissons Ratio (x) = 0.04408 -0.05577
# Poissons Ratio (y) = 0.02366 -0.04148
# Poissons Ratio (z) = -0.06099 -0.08454
#
# Static dielectric constant tensor:
#      x y z
#    x 2.042840 0.000000 0.000000 
#    y 0.000000 1.977310 0.000000 
#    z 0.000000 0.000000 1.988370 
# 
# From -- ./inp_files/16433.got.cif
#   From: 2010.05.17/outbox.cif.g08.bks.cpg/sg51_9_cif.got.tgz:16433.got - 2010.06.03 11:52:47.
