data_PCOD9405935
_publ_section_title
;
Structure prediction by ZEFSAII (Michael W. Deem and Ramdas Pophale) SiO2 
 PCOD9405935
Probable space group: P M M A
;
_chemical_formula_sum "Si O2"
_cell_formula_units_Z 48
_cell_length_a 28.747568
_cell_length_b 13.849152
_cell_length_c 5.472392
_cell_angle_alpha 90.000000
_cell_angle_beta 90.000000
_cell_angle_gamma 90.000000
_cell_volume 2178.720356
_symmetry_space_group_name_H-M "P M M A"
_symmetry_group_IT_number 51
_symmetry_cell_setting 'orthorhombic'
loop_
_space_group_symop_operation_xyz
x,y,z
1/2-x,-y,z
1/2+x,-y,-z
-x,y,-z
-x,-y,-z
1/2+x,y,-z
1/2-x,y,z
x,-y,z
loop_
_atom_site_type_symbol
_atom_site_label
_atom_site_fract_x
_atom_site_fract_y
_atom_site_fract_z
Si Si1 0.621808 0.891109 0.206802
Si Si2 0.376393 0.716442 0.437891
Si Si3 0.973519 0.682100 0.738698
Si Si4 0.698964 0.609141 0.267808
Si Si5 0.697904 0.206580 0.927403
Si Si6 0.458587 0.100250 0.189479
O O1 0.606201 0.798960 0.369779
O O2 0.620421 0.000000 0.311373
O O3 0.673777 0.866497 0.116670
O O4 0.588031 0.891556 0.971314
O O5 0.417733 0.664876 0.285155
O O6 0.345197 0.636009 0.569613
O O7 0.338799 0.777789 0.286186
O O8 0.970617 0.797503 0.700724
O O9 0.000000 0.640405 0.500000
O O10 0.000000 0.662611 0.000000
O O11 0.750000 0.617987 0.395968
O O12 0.695510 0.500000 0.176084
O O13 0.699478 0.689314 0.058505
O O14 0.750000 0.178834 0.854784
O O15 0.456512 0.000000 0.337350
O O16 0.500000 0.089884 0.000000
#
# Coordination Sequence:
#
# PCOD9405935 Si02
#       6
#     8   8   8   8   8   8
#     4  10  21  37  55  81 120 167 211 254 304 364
#     4  11  21  36  62  88 121 160 205 257 312 374
#     4  11  23  37  60  90 124 166 215 260 316 377
#     4   9  20  39  64  94 122 150 194 257 324 382
#     4  10  21  37  58  86 118 156 201 253 311 378
#     4   9  17  32  53  79 113 153 203 259 307 350
#
# _framework density 22.031279000000001
#
# number of rings (size 3 to 8) (size 9 to 14) (size 15 to 20)
#    0.000    2.000    1.667    2.500    2.333    3.333 
#    0.000    1.667    0.000    1.000    0.000    0.000 
#    0.000    0.000    0.000    0.000    0.000    0.000 
#
# Total GULP energy -267287.397867 kJ/mol
# GULP energy per Si atom -5568.487456 kJ/mol
# Density = 2.198113 g / cm^3
# Si number density = 22.031279 Si / 1000 Ang^3
#
#
#
# Elastic Constant Matrix: (Units=GPa)
#
#
# Indices 1 2 3 4 5 6 
#
# 1 127.7019 9.9482 44.9793 0.0000 0.0000 0.0000
# 2 9.9482 65.8595 1.2316 0.0000 0.0000 0.0000
# 3 44.9793 1.2316 67.3410 0.0000 0.0000 0.0000
# 4 0.0000 0.0000 0.0000 4.5270 0.0000 0.0000
# 5 0.0000 0.0000 0.0000 0.0000 36.8101 0.0000
# 6 0.0000 0.0000 0.0000 0.0000 0.0000 15.1913
#
#
#
# Elastic Compliance Matrix: (Units=1/GPa)
#
#
# Indices 1 2 3 4 5 6 
#
# 1 0.010374 -0.001438 -0.006903 0.000000 0.000000 0.000000
# 2 -0.001438 0.015388 0.000679 0.000000 0.000000 0.000000
# 3 -0.006903 0.000679 0.019448 0.000000 0.000000 0.000000
# 4 0.000000 0.000000 0.000000 0.220898 0.000000 0.000000
# 5 0.000000 0.000000 0.000000 0.000000 0.027166 0.000000
# 6 0.000000 0.000000 0.000000 0.000000 0.000000 0.065827
#
#
# Mechanical properties :
#
#
# Convention : Reuss Voigt Hill
#
# Bulk Modulus (GPa) = 33.45955 41.46893 37.46424
# Shear Modulus (GPa) = 13.00767 24.95522 18.98144
#
# Velocity S-wave (km/s) = 2.43249 3.36924 2.93843
# Velocity P-wave (km/s) = 4.80724 5.83089 5.34364
#
# Compressibility (1/GPa) = 0.02988684
#
# Stress axis : x y z
#
# Youngs Moduli (GPa) = 96.39384 64.98428 51.41901
#
# Poissons Ratio (x) = 0.09344 0.35494
# Poissons Ratio (y) = 0.13861 -0.03491
# Poissons Ratio (z) = 0.66540 -0.04413
#
# Static dielectric constant tensor:
#      x y z
#    x 1.735660 0.000000 0.000000 
#    y 0.000000 1.882840 0.000000 
#    z 0.000000 0.000000 1.872840 
# 
# From -- ./inp_files/3539.got.cif
#   From: 2010.05.17/outbox.cif.g08.bks.cpg/sg51_2_cif.got.tgz:3539.got - 2010.06.03 11:52:47.
