data_PCOD9405627
_publ_section_title
;
Structure prediction by ZEFSAII (Michael W. Deem and Ramdas Pophale) SiO2 
 PCOD9405627
Probable space group: P M M A
;
_chemical_formula_sum "Si O2"
_cell_formula_units_Z 48
_cell_length_a 9.472383
_cell_length_b 7.489149
_cell_length_c 31.727334
_cell_angle_alpha 90.000000
_cell_angle_beta 90.000000
_cell_angle_gamma 90.000000
_cell_volume 2250.739856
_symmetry_space_group_name_H-M "P M M A"
_symmetry_group_IT_number 51
_symmetry_cell_setting 'orthorhombic'
loop_
_space_group_symop_operation_xyz
x,y,z
1/2-x,-y,z
1/2+x,-y,-z
-x,y,-z
-x,-y,-z
1/2+x,y,-z
1/2-x,y,z
x,-y,z
loop_
_atom_site_type_symbol
_atom_site_label
_atom_site_fract_x
_atom_site_fract_y
_atom_site_fract_z
Si Si1 0.912757 0.217608 0.878520
Si Si2 0.089140 0.784971 0.216142
Si Si3 0.911022 0.785921 0.460070
Si Si4 0.590932 0.288237 0.297883
Si Si5 0.588077 0.781598 0.040885
Si Si6 0.910285 0.285787 0.623665
O O1 0.750000 0.269145 0.886368
O O2 0.951048 0.275213 0.831073
O O3 0.013327 0.277638 0.916017
O O4 0.915764 0.000000 0.878638
O O5 0.250000 0.723375 0.224992
O O6 0.982979 0.734146 0.252850
O O7 0.093245 0.000000 0.215044
O O8 0.750000 0.717669 0.458639
O O9 0.000000 0.717215 0.500000
O O10 0.996357 0.750298 0.417428
O O11 0.902079 0.000000 0.464583
O O12 0.750000 0.214866 0.298826
O O13 0.601803 0.500000 0.305391
O O14 0.490915 0.215786 0.334944
O O15 0.750000 0.724816 0.038435
O O16 0.587173 0.000000 0.041037
O O17 0.500000 0.725361 0.000000
O O18 0.750000 0.217159 0.619790
O O19 0.900241 0.500000 0.627720
#
# Coordination Sequence:
#
# PCOD9405627 Si02
#       6
#     8   8   8   8   8   8
#     4   8  14  25  39  56  82 114 148 189 235 282
#     4   9  18  32  50  72  97 127 163 202 246 296
#     4  10  21  37  57  81 109 140 172 206 246 291
#     4  10  21  36  53  74 101 132 166 206 250 294
#     4   9  15  21  31  49  75 110 150 188 229 279
#     4  10  21  37  57  79 102 132 170 209 250 295
#
# _framework density 21.326319999999999
#
# number of rings (size 3 to 8) (size 9 to 14) (size 15 to 20)
#    0.000    2.667    0.000    3.000    0.000    7.000 
#    0.000    1.667    0.000    0.000    0.000    0.000 
#    0.000    0.667    0.000    2.167    0.000    4.833 
#
# Total GULP energy -268092.099707 kJ/mol
# GULP energy per Si atom -5585.252077 kJ/mol
# Density = 2.127778 g / cm^3
# Si number density = 21.326320 Si / 1000 Ang^3
#
#
#
# Elastic Constant Matrix: (Units=GPa)
#
#
# Indices 1 2 3 4 5 6 
#
# 1 228.4579 7.8351 153.9434 0.0000 0.0000 0.0000
# 2 7.8351 58.7540 -1.7241 0.0000 0.0000 0.0000
# 3 153.9434 -1.7241 201.5578 0.0000 0.0000 0.0000
# 4 0.0000 0.0000 0.0000 20.0764 0.0000 0.0000
# 5 0.0000 0.0000 0.0000 0.0000 79.5872 0.0000
# 6 0.0000 0.0000 0.0000 0.0000 0.0000 14.9031
#
#
#
# Elastic Compliance Matrix: (Units=1/GPa)
#
#
# Indices 1 2 3 4 5 6 
#
# 1 0.009136 -0.001423 -0.006990 0.000000 0.000000 0.000000
# 2 -0.001423 0.017246 0.001235 0.000000 0.000000 0.000000
# 3 -0.006990 0.001235 0.010311 0.000000 0.000000 0.000000
# 4 0.000000 0.000000 0.000000 0.049810 0.000000 0.000000
# 5 0.000000 0.000000 0.000000 0.000000 0.012565 0.000000
# 6 0.000000 0.000000 0.000000 0.000000 0.000000 0.067100
#
#
# Mechanical properties :
#
#
# Convention : Reuss Voigt Hill
#
# Bulk Modulus (GPa) = 44.77199 89.87536 67.32367
# Shear Modulus (GPa) = 26.59990 44.82770 35.71380
#
# Velocity S-wave (km/s) = 3.53552 4.58972 4.09667
# Velocity P-wave (km/s) = 6.14051 8.38581 7.34941
#
# Compressibility (1/GPa) = 0.02233540
#
# Stress axis : x y z
#
# Youngs Moduli (GPa) = 109.45493 57.98390 96.98633
#
# Poissons Ratio (x) = 0.08254 0.67794
# Poissons Ratio (y) = 0.15581 -0.11975
# Poissons Ratio (z) = 0.76510 -0.07159
#
# Static dielectric constant tensor:
#      x y z
#    x 1.740920 0.000000 0.000000 
#    y 0.000000 1.830330 0.000000 
#    z 0.000000 0.000000 1.727060 
# 
# From -- ./inp_files/36984.got.cif
#   From: 2010.05.17/outbox.cif.g08.bks.cpg/sg51_19_cif.got.tgz:36984.got - 2010.06.03 11:52:47.
