data_PCOD9405172
_publ_section_title
;
Structure prediction by ZEFSAII (Michael W. Deem and Ramdas Pophale) SiO2 
 PCOD9405172
Probable space group: P M M A
;
_chemical_formula_sum "Si O2"
_cell_formula_units_Z 48
_cell_length_a 10.263761
_cell_length_b 9.075575
_cell_length_c 29.704336
_cell_angle_alpha 90.000000
_cell_angle_beta 90.000000
_cell_angle_gamma 90.000000
_cell_volume 2766.945019
_symmetry_space_group_name_H-M "P M M A"
_symmetry_group_IT_number 51
_symmetry_cell_setting 'orthorhombic'
loop_
_space_group_symop_operation_xyz
x,y,z
1/2-x,-y,z
1/2+x,-y,-z
-x,y,-z
-x,-y,-z
1/2+x,y,-z
1/2-x,y,z
x,-y,z
loop_
_atom_site_type_symbol
_atom_site_label
_atom_site_fract_x
_atom_site_fract_y
_atom_site_fract_z
Si Si1 0.750000 0.673775 0.951338
Si Si2 0.598925 0.824019 0.539538
Si Si3 0.594869 0.672730 0.199701
Si Si4 0.750000 0.175223 0.047787
Si Si5 0.015965 0.675878 0.898647
Si Si6 0.901769 0.323793 0.635813
Si Si7 0.902725 0.823976 0.293896
O O1 0.750000 0.500000 0.963806
O O2 0.622551 0.701923 0.921586
O O3 0.750000 0.766606 0.996793
O O4 0.500000 0.781527 0.500000
O O5 0.750000 0.797350 0.526616
O O6 0.573154 0.739300 0.585899
O O7 0.584527 0.000000 0.547366
O O8 0.750000 0.686154 0.190541
O O9 0.568257 0.500000 0.209104
O O10 0.522225 0.716712 0.153981
O O11 0.564879 0.767063 0.243743
O O12 0.624869 0.238704 0.073593
O O13 0.750000 0.000000 0.048730
O O14 0.044389 0.500000 0.900781
O O15 0.750000 0.288399 0.646785
O O16 0.915590 0.500000 0.636132
O O17 0.001387 0.251422 0.670656
O O18 0.750000 0.785294 0.302249
O O19 0.914468 0.000000 0.296355
#
# Coordination Sequence:
#
# PCOD9405172 Si02
#       7
#     4   8   8   4   8   8   8
#     4  10  22  38  58  82 110 142 180 224 269 324
#     4   9  18  33  53  77 108 146 185 226 273 327
#     4   9  17  33  57  81 106 138 179 224 269 319
#     4  12  24  36  56  82 110 146 184 222 269 322
#     4  10  20  38  60  82 108 142 182 223 269 324
#     4  10  21  37  56  80 111 148 189 231 275 323
#     4  10  21  36  56  82 111 142 180 225 274 330
#
# _framework density 17.347652
#
# number of rings (size 3 to 8) (size 9 to 14) (size 15 to 20)
#    0.000    2.167    0.833    2.250    0.000    6.333 
#    1.500    1.667    0.000    0.000    0.000    0.000 
#    0.000    0.000    0.000    0.000    0.000    0.000 
#
# Total GULP energy -267951.967176 kJ/mol
# GULP energy per Si atom -5582.332649 kJ/mol
# Density = 1.730817 g / cm^3
# Si number density = 17.347652 Si / 1000 Ang^3
#
#
#
# Elastic Constant Matrix: (Units=GPa)
#
#
# Indices 1 2 3 4 5 6 
#
# 1 122.9463 77.8099 106.9537 0.0000 0.0000 0.0000
# 2 77.8099 69.5407 82.4324 0.0000 0.0000 0.0000
# 3 106.9537 82.4324 165.9292 0.0000 0.0000 0.0000
# 4 0.0000 0.0000 0.0000 61.5532 0.0000 0.0000
# 5 0.0000 0.0000 0.0000 0.0000 21.6547 0.0000
# 6 0.0000 0.0000 0.0000 0.0000 0.0000 9.4334
#
#
#
# Elastic Compliance Matrix: (Units=1/GPa)
#
#
# Indices 1 2 3 4 5 6 
#
# 1 0.030574 -0.026389 -0.006597 0.000000 0.000000 0.000000
# 2 -0.026389 0.057756 -0.011683 0.000000 0.000000 0.000000
# 3 -0.006597 -0.011683 0.016083 0.000000 0.000000 0.000000
# 4 0.000000 0.000000 0.000000 0.016246 0.000000 0.000000
# 5 0.000000 0.000000 0.000000 0.000000 0.046179 0.000000
# 6 0.000000 0.000000 0.000000 0.000000 0.000000 0.106006
#
#
# Mechanical properties :
#
#
# Convention : Reuss Voigt Hill
#
# Bulk Modulus (GPa) = 66.33834 99.20091 82.76963
# Shear Modulus (GPa) = 13.61629 24.60961 19.11295
#
# Velocity S-wave (km/s) = 2.80466 3.77053 3.32288
# Velocity P-wave (km/s) = 6.98654 8.73293 7.90809
#
# Compressibility (1/GPa) = 0.01507424
#
# Stress axis : x y z
#
# Youngs Moduli (GPa) = 32.70791 17.31420 62.17762
#
# Poissons Ratio (x) = 0.45691 0.41019
# Poissons Ratio (y) = 0.86314 0.72642
# Poissons Ratio (z) = 0.21577 0.20228
#
# Static dielectric constant tensor:
#      x y z
#    x 1.577850 0.000000 0.000000 
#    y 0.000000 1.579940 0.000000 
#    z 0.000000 0.000000 1.559560 
# 
# From -- ./inp_files/37166.got.cif
#   From: 2010.05.17/outbox.cif.g08.bks.cpg/sg51_19_cif.got.tgz:37166.got - 2010.06.03 11:52:47.
