data_PCOD9405009
_publ_section_title
;
Structure prediction by ZEFSAII (Michael W. Deem and Ramdas Pophale) SiO2 
 PCOD9405009
Probable space group: P M M A
;
_chemical_formula_sum "Si O2"
_cell_formula_units_Z 48
_cell_length_a 8.544890
_cell_length_b 31.532346
_cell_length_c 9.604408
_cell_angle_alpha 90.000000
_cell_angle_beta 90.000000
_cell_angle_gamma 90.000000
_cell_volume 2587.815802
_symmetry_space_group_name_H-M "P M M A"
_symmetry_group_IT_number 51
_symmetry_cell_setting 'orthorhombic'
loop_
_space_group_symop_operation_xyz
x,y,z
1/2-x,-y,z
1/2+x,-y,-z
-x,y,-z
-x,-y,-z
1/2+x,y,-z
1/2-x,y,z
x,-y,z
loop_
_atom_site_type_symbol
_atom_site_label
_atom_site_fract_x
_atom_site_fract_y
_atom_site_fract_z
Si Si1 0.938099 0.374043 0.656697
Si Si2 0.061650 0.220740 0.343052
Si Si3 0.561196 0.451552 0.846988
Si Si4 0.439055 0.046893 0.156638
Si Si5 0.438708 0.875679 0.345156
Si Si6 0.936692 0.296729 0.157189
O O1 0.750000 0.372569 0.654014
O O2 0.988525 0.417963 0.730742
O O3 0.000000 0.370672 0.500000
O O4 0.999289 0.335868 0.752126
O O5 0.250000 0.223917 0.344168
O O6 0.015921 0.172351 0.304618
O O7 0.000000 0.228902 0.500000
O O8 0.992754 0.254283 0.235549
O O9 0.750000 0.451331 0.851640
O O10 0.509324 0.500000 0.819273
O O11 0.500000 0.439237 0.000000
O O12 0.250000 0.048018 0.154678
O O13 0.495647 0.086662 0.246296
O O14 0.485927 0.000000 0.210481
O O15 0.500000 0.050458 0.000000
O O16 0.500000 0.882904 0.500000
O O17 0.250000 0.876662 0.346726
O O18 0.750000 0.298278 0.154330
O O19 0.000000 0.298511 0.000000
#
# Coordination Sequence:
#
# PCOD9405009 Si02
#       6
#     8   8   8   8   8   8
#     4  11  23  39  59  84 115 150 188 229 275 325
#     4  10  20  37  58  81 110 143 180 221 270 324
#     4   9  19  36  58  84 114 148 186 228 274 324
#     4   9  18  33  51  73 103 138 176 218 264 314
#     4   9  19  34  53  78 107 139 175 217 263 315
#     4  12  25  41  60  83 111 143 182 226 274 326
#
# _framework density 18.548459999999999
#
# number of rings (size 3 to 8) (size 9 to 14) (size 15 to 20)
#    0.000    2.000    0.000    3.500    0.000    5.333 
#    0.000    1.667    0.000    0.000    0.000    0.000 
#    0.000    0.000    0.000    0.000    0.000    0.000 
#
# Total GULP energy -268034.969664 kJ/mol
# GULP energy per Si atom -5584.061868 kJ/mol
# Density = 1.850624 g / cm^3
# Si number density = 18.548460 Si / 1000 Ang^3
#
#
#
# Elastic Constant Matrix: (Units=GPa)
#
#
# Indices 1 2 3 4 5 6 
#
# 1 53.8068 44.6219 42.2029 0.0000 0.0000 0.0000
# 2 44.6219 160.2103 123.8879 0.0000 0.0000 0.0000
# 3 42.2029 123.8879 154.1219 0.0000 0.0000 0.0000
# 4 0.0000 0.0000 0.0000 43.1918 0.0000 0.0000
# 5 0.0000 0.0000 0.0000 0.0000 35.1396 0.0000
# 6 0.0000 0.0000 0.0000 0.0000 0.0000 -91.4165
#
#
#
# Elastic Compliance Matrix: (Units=1/GPa)
#
#
# Indices 1 2 3 4 5 6 
#
# 1 0.024775 -0.004372 -0.003270 0.000000 0.000000 0.000000
# 2 -0.004372 0.017266 -0.012682 0.000000 0.000000 0.000000
# 3 -0.003270 -0.012682 0.017578 0.000000 0.000000 0.000000
# 4 0.000000 0.000000 0.000000 0.023153 0.000000 0.000000
# 5 0.000000 0.000000 0.000000 0.000000 0.028458 0.000000
# 6 0.000000 0.000000 0.000000 0.000000 0.000000 -0.010939
#
#
# Mechanical properties :
#
#
# Convention : Reuss Voigt Hill
#
# Bulk Modulus (GPa) = 52.70946 87.72940 70.21943
# Shear Modulus (GPa) = 33.95298 7.87807 20.91552
#
# Velocity S-wave (km/s) = 4.28308 2.06313 3.36164
# Velocity P-wave (km/s) = 7.27589 7.28529 7.28059
#
# Compressibility (1/GPa) = 0.01897193
#
# Stress axis : x y z
#
# Youngs Moduli (GPa) = 40.36271 57.91662 56.88955
#
# Poissons Ratio (x) = 0.25320 0.18603
# Poissons Ratio (y) = 0.17646 0.72147
# Poissons Ratio (z) = 0.13198 0.73450
#
# Static dielectric constant tensor:
#      x y z
#    x 1.624420 0.000000 0.000000 
#    y 0.000000 1.662770 0.000000 
#    z 0.000000 0.000000 1.594250 
# 
# From -- ./inp_files/6087.got.cif
#   From: 2010.05.17/outbox.cif.g08.bks.cpg/sg51_4_cif.got.tgz:6087.got - 2010.06.03 11:52:47.
