data_PCOD9405417
_publ_section_title
;
Structure prediction by ZEFSAII (Michael W. Deem and Ramdas Pophale) SiO2 
 PCOD9405417
Probable space group: P M M A
;
_chemical_formula_sum "Si O2"
_cell_formula_units_Z 40
_cell_length_a 9.754798
_cell_length_b 7.758590
_cell_length_c 26.674070
_cell_angle_alpha 90.000000
_cell_angle_beta 90.000000
_cell_angle_gamma 90.000000
_cell_volume 2018.786396
_symmetry_space_group_name_H-M "P M M A"
_symmetry_group_IT_number 51
_symmetry_cell_setting 'orthorhombic'
loop_
_space_group_symop_operation_xyz
x,y,z
1/2-x,-y,z
1/2+x,-y,-z
-x,y,-z
-x,-y,-z
1/2+x,y,-z
1/2-x,y,z
x,-y,z
loop_
_atom_site_type_symbol
_atom_site_label
_atom_site_fract_x
_atom_site_fract_y
_atom_site_fract_z
Si Si1 0.904808 0.204516 0.345876
Si Si2 0.405593 0.294427 0.544439
Si Si3 0.594977 0.707231 0.746988
Si Si4 0.908287 0.289088 0.047492
Si Si5 0.408401 0.710358 0.140423
O O1 0.750000 0.276204 0.340555
O O2 0.961336 0.266125 0.399486
O O3 0.994901 0.246758 0.297819
O O4 0.896049 0.000000 0.349190
O O5 0.500000 0.224226 0.500000
O O6 0.250000 0.224257 0.542884
O O7 0.396317 0.500000 0.537322
O O8 0.750000 0.769368 0.737176
O O9 0.599725 0.500000 0.749311
O O10 0.554920 0.766329 0.803026
O O11 0.750000 0.233043 0.044565
O O12 0.906537 0.500000 0.047519
O O13 0.986095 0.232424 0.097975
O O14 0.000000 0.236084 0.000000
O O15 0.250000 0.761059 0.130222
O O16 0.409497 0.500000 0.139729
#
# Coordination Sequence:
#
# PCOD9405417 Si02
#       5
#     8   8   8   8   8
#     4  10  21  35  50  71 100 131 162 197 238 285
#     4   9  18  33  52  73  97 126 160 197 236 279
#     4   9  18  32  50  71  94 123 161 203 245 289
#     4   9  15  21  31  50  78 113 150 186 228 279
#     4   8  14  25  39  56  81 112 147 189 234 279
#
# _framework density 19.813884000000002
#
# number of rings (size 3 to 8) (size 9 to 14) (size 15 to 20)
#    0.000    3.000    0.000    2.400    0.000    6.000 
#    0.000    4.000    0.000    0.000    0.000    0.000 
#    0.000    0.800    0.000    2.600    0.000    5.800 
#
# Total GULP energy -223051.326303 kJ/mol
# GULP energy per Si atom -5576.283158 kJ/mol
# Density = 1.976879 g / cm^3
# Si number density = 19.813884 Si / 1000 Ang^3
#
#
#
# Elastic Constant Matrix: (Units=GPa)
#
#
# Indices 1 2 3 4 5 6 
#
# 1 128.0865 4.5833 129.4832 0.0000 0.0000 0.0000
# 2 4.5833 26.2526 3.2807 0.0000 0.0000 0.0000
# 3 129.4832 3.2807 207.9525 0.0000 0.0000 0.0000
# 4 0.0000 0.0000 0.0000 -45.4515 0.0000 0.0000
# 5 0.0000 0.0000 0.0000 0.0000 29.7096 0.0000
# 6 0.0000 0.0000 0.0000 0.0000 0.0000 4.8283
#
#
#
# Elastic Compliance Matrix: (Units=1/GPa)
#
#
# Indices 1 2 3 4 5 6 
#
# 1 0.021179 -0.002054 -0.013155 0.000000 0.000000 0.000000
# 2 -0.002054 0.038366 0.000673 0.000000 0.000000 0.000000
# 3 -0.013155 0.000673 0.012989 0.000000 0.000000 0.000000
# 4 0.000000 0.000000 0.000000 -0.022001 0.000000 0.000000
# 5 0.000000 0.000000 0.000000 0.000000 0.033659 0.000000
# 6 0.000000 0.000000 0.000000 0.000000 0.000000 0.207114
#
#
# Mechanical properties :
#
#
# Convention : Reuss Voigt Hill
#
# Bulk Modulus (GPa) = 23.00758 70.77622 46.89190
# Shear Modulus (GPa) = 14.93144 12.81356 13.87250
#
# Velocity S-wave (km/s) = 2.74813 2.54578 2.64889
# Velocity P-wave (km/s) = 4.65904 6.66629 5.75092
#
# Compressibility (1/GPa) = 0.04346393
#
# Stress axis : x y z
#
# Youngs Moduli (GPa) = 47.21649 26.06481 76.98728
#
# Poissons Ratio (x) = 0.05353 1.01276
# Poissons Ratio (y) = 0.09697 -0.05185
# Poissons Ratio (z) = 0.62113 -0.01755
#
# Static dielectric constant tensor:
#      x y z
#    x 1.700450 0.000000 0.000000 
#    y 0.000000 1.715720 0.000000 
#    z 0.000000 0.000000 1.687250 
# 
# From -- ./inp_files/35982.got.cif
#   From: 2010.05.17/outbox.cif.g08.bks.cpg/sg51_18_cif.got.tgz:35982.got - 2010.06.03 11:52:47.
