data_PCOD9405517
_publ_section_title
;
Structure prediction by ZEFSAII (Michael W. Deem and Ramdas Pophale) SiO2 
 PCOD9405517
Probable space group: P M M A
;
_chemical_formula_sum "Si O2"
_cell_formula_units_Z 58
_cell_length_a 28.995534
_cell_length_b 9.077702
_cell_length_c 12.283178
_cell_angle_alpha 90.000000
_cell_angle_beta 90.000000
_cell_angle_gamma 90.000000
_cell_volume 3233.089883
_symmetry_space_group_name_H-M "P M M A"
_symmetry_group_IT_number 51
_symmetry_cell_setting 'orthorhombic'
loop_
_space_group_symop_operation_xyz
x,y,z
1/2-x,-y,z
1/2+x,-y,-z
-x,y,-z
-x,-y,-z
1/2+x,y,-z
1/2-x,y,z
x,-y,z
loop_
_atom_site_type_symbol
_atom_site_label
_atom_site_fract_x
_atom_site_fract_y
_atom_site_fract_z
Si Si1 0.555170 0.676197 0.123099
Si Si2 0.805120 0.667426 0.145126
Si Si3 0.153452 0.662832 0.494993
Si Si4 0.304844 0.168553 0.070924
Si Si5 0.870969 0.825860 0.727335
Si Si6 0.750000 0.500000 0.483710
Si Si7 0.945823 0.676018 0.874449
Si Si8 0.124983 0.173769 0.710762
O O1 0.562671 0.500000 0.130694
O O2 0.500527 0.702196 0.137196
O O3 0.584858 0.757904 0.213809
O O4 0.567253 0.721224 0.998551
O O5 0.750000 0.671401 0.155497
O O6 0.820369 0.500000 0.168747
O O7 0.828613 0.780943 0.225452
O O8 0.817292 0.716366 0.023003
O O9 0.131583 0.500000 0.489075
O O10 0.144108 0.745862 0.382573
O O11 0.207984 0.626555 0.514089
O O12 0.130757 0.751212 0.593762
O O13 0.250000 0.178090 0.087954
O O14 0.331399 0.196401 0.181869
O O15 0.315246 0.000000 0.034896
O O16 0.916333 0.758822 0.783988
O O17 0.876515 0.000000 0.709003
O O18 0.938178 0.500000 0.866383
O O19 0.119550 0.000000 0.701591
#
# Coordination Sequence:
#
# PCOD9405517 Si02
#       8
#     8   8   8   8   8   2   8   8
#     4   9  19  38  63  90 120 156 199 243 288 343
#     4  10  21  35  53  78 109 147 190 234 282 341
#     4  10  23  42  62  83 110 148 200 247 287 341
#     4   9  19  34  51  77 113 149 184 227 284 347
#     4  11  22  36  57  86 120 153 190 239 296 353
#     4   8  24  44  66  84 104 152 210 256 284 338
#     4   9  19  37  62  91 121 157 199 241 288 344
#     4  12  24  37  57  85 117 150 189 239 298 356
#
# _framework density 17.939494
#
# number of rings (size 3 to 8) (size 9 to 14) (size 15 to 20)
#    0.414    1.655    0.000    4.138    1.931    5.241 
#    0.000    2.759    0.000    4.138    0.000    0.000 
#    0.000    0.000    0.000    0.000    0.000    0.000 
#
# Total GULP energy -323091.805873 kJ/mol
# GULP energy per Si atom -5570.548377 kJ/mol
# Density = 1.789866 g / cm^3
# Si number density = 17.939494 Si / 1000 Ang^3
#
#
#
# Elastic Constant Matrix: (Units=GPa)
#
#
# Indices 1 2 3 4 5 6 
#
# 1 46.2619 13.3765 9.4458 0.0000 0.0000 0.0000
# 2 13.3765 68.5540 26.7813 0.0000 0.0000 0.0000
# 3 9.4458 26.7813 57.6990 0.0000 0.0000 0.0000
# 4 0.0000 0.0000 0.0000 32.0356 0.0000 0.0000
# 5 0.0000 0.0000 0.0000 0.0000 50.1215 0.0000
# 6 0.0000 0.0000 0.0000 0.0000 0.0000 23.1971
#
#
#
# Elastic Compliance Matrix: (Units=1/GPa)
#
#
# Indices 1 2 3 4 5 6 
#
# 1 0.023108 -0.003702 -0.002064 0.000000 0.000000 0.000000
# 2 -0.003702 0.018411 -0.007939 0.000000 0.000000 0.000000
# 3 -0.002064 -0.007939 0.021354 0.000000 0.000000 0.000000
# 4 0.000000 0.000000 0.000000 0.031215 0.000000 0.000000
# 5 0.000000 0.000000 0.000000 0.000000 0.019952 0.000000
# 6 0.000000 0.000000 0.000000 0.000000 0.000000 0.043109
#
#
# Mechanical properties :
#
#
# Convention : Reuss Voigt Hill
#
# Bulk Modulus (GPa) = 28.20009 30.19134 29.19572
# Shear Modulus (GPa) = 25.46054 29.26494 27.36274
#
# Velocity S-wave (km/s) = 3.77137 4.04333 3.90972
# Velocity P-wave (km/s) = 5.89220 6.21805 6.05732
#
# Compressibility (1/GPa) = 0.03546087
#
# Stress axis : x y z
#
# Youngs Moduli (GPa) = 43.27485 54.31508 46.82871
#
# Poissons Ratio (x) = 0.20110 0.09668
# Poissons Ratio (y) = 0.16022 0.37180
# Poissons Ratio (z) = 0.08934 0.43123
#
# Static dielectric constant tensor:
#      x y z
#    x 1.617140 0.000000 0.000000 
#    y 0.000000 1.606470 0.000000 
#    z 0.000000 0.000000 1.613360 
# 
# From -- ./inp_files/19385.got.cif
#   From: 2010.05.17/outbox.cif.g08.bks.cpg/sg51_10_cif.got.tgz:19385.got - 2010.06.03 11:52:47.
