data_PCOD9405710
_publ_section_title
;
Structure prediction by ZEFSAII (Michael W. Deem and Ramdas Pophale) SiO2 
 PCOD9405710
Probable space group: P M M A
;
_chemical_formula_sum "Si O2"
_cell_formula_units_Z 64
_cell_length_a 17.318196
_cell_length_b 19.688979
_cell_length_c 9.119247
_cell_angle_alpha 90.000000
_cell_angle_beta 90.000000
_cell_angle_gamma 90.000000
_cell_volume 3109.458932
_symmetry_space_group_name_H-M "P M M A"
_symmetry_group_IT_number 51
_symmetry_cell_setting 'orthorhombic'
loop_
_space_group_symop_operation_xyz
x,y,z
1/2-x,-y,z
1/2+x,-y,-z
-x,y,-z
-x,-y,-z
1/2+x,y,-z
1/2-x,y,z
x,-y,z
loop_
_atom_site_type_symbol
_atom_site_label
_atom_site_fract_x
_atom_site_fract_y
_atom_site_fract_z
Si Si1 0.163319 0.869999 0.050161
Si Si2 0.909948 0.573971 0.450928
Si Si3 0.165695 0.712013 0.008923
Si Si4 0.574785 0.842015 0.670959
Si Si5 0.939945 0.076589 0.181492
Si Si6 0.899542 0.686370 0.681645
Si Si7 0.336200 0.921202 0.555228
Si Si8 0.540980 0.381503 0.144152
O O1 0.250000 0.896513 0.027024
O O2 0.158049 0.792918 0.989356
O O3 0.092822 0.911363 0.980268
O O4 0.145593 0.860601 0.221045
O O5 0.876145 0.500000 0.491087
O O6 0.877133 0.637269 0.546048
O O7 0.912162 0.580772 0.273869
O O8 0.000000 0.572265 0.500000
O O9 0.250000 0.690574 0.955467
O O10 0.097893 0.673738 0.925867
O O11 0.159518 0.695708 0.183060
O O12 0.499362 0.867983 0.756731
O O13 0.576306 0.762313 0.636014
O O14 0.595147 0.883609 0.527493
O O15 0.861200 0.081595 0.276152
O O16 0.970818 0.000000 0.201514
O O17 0.972810 0.653461 0.763825
O O18 0.250000 0.893177 0.533173
O O19 0.336043 0.000000 0.509773
O O20 0.500000 0.415786 0.000000
#
# Coordination Sequence:
#
# PCOD9405710 Si02
#       8
#     8   8   8   8   8   8   8   8
#     4  10  21  36  54  77 106 140 180 226 274 325
#     4   9  18  33  54  81 111 142 179 222 268 322
#     4   9  18  34  54  77 106 139 178 225 273 321
#     4  11  21  35  57  83 107 137 183 234 277 322
#     4  11  23  37  53  77 110 145 180 223 278 335
#     4   9  19  34  55  81 109 140 179 227 276 324
#     4  10  22  39  55  74 105 143 181 222 271 328
#     4   9  17  31  53  81 109 140 178 222 271 320
#
# _framework density 20.582360000000001
#
# number of rings (size 3 to 8) (size 9 to 14) (size 15 to 20)
#    0.000    2.250    0.000    2.625    0.000   10.000 
#    0.000    2.500    0.000    2.250    0.000    0.000 
#    0.000    0.000    0.000    0.000    0.000    0.000 
#
# Total GULP energy -356579.093006 kJ/mol
# GULP energy per Si atom -5571.548328 kJ/mol
# Density = 2.053551 g / cm^3
# Si number density = 20.582360 Si / 1000 Ang^3
#
#
#
# Elastic Constant Matrix: (Units=GPa)
#
#
# Indices 1 2 3 4 5 6 
#
# 1 57.6883 7.1279 -0.2701 0.0000 0.0000 0.0000
# 2 7.1279 78.2258 23.3875 0.0000 0.0000 0.0000
# 3 -0.2701 23.3875 84.6761 0.0000 0.0000 0.0000
# 4 0.0000 0.0000 0.0000 24.0038 0.0000 0.0000
# 5 0.0000 0.0000 0.0000 0.0000 19.1587 0.0000
# 6 0.0000 0.0000 0.0000 0.0000 0.0000 7.9730
#
#
#
# Elastic Compliance Matrix: (Units=1/GPa)
#
#
# Indices 1 2 3 4 5 6 
#
# 1 0.017555 -0.001762 0.000543 0.000000 0.000000 0.000000
# 2 -0.001762 0.014111 -0.003903 0.000000 0.000000 0.000000
# 3 0.000543 -0.003903 0.012889 0.000000 0.000000 0.000000
# 4 0.000000 0.000000 0.000000 0.041660 0.000000 0.000000
# 5 0.000000 0.000000 0.000000 0.000000 0.052196 0.000000
# 6 0.000000 0.000000 0.000000 0.000000 0.000000 0.125424
#
#
# Mechanical properties :
#
#
# Convention : Reuss Voigt Hill
#
# Bulk Modulus (GPa) = 29.14548 31.23122 30.18835
# Shear Modulus (GPa) = 17.51216 22.91675 20.21445
#
# Velocity S-wave (km/s) = 2.92007 3.34041 3.13729
# Velocity P-wave (km/s) = 5.05571 5.48493 5.27469
#
# Compressibility (1/GPa) = 0.03431063
#
# Stress axis : x y z
#
# Youngs Moduli (GPa) = 56.96463 70.86694 77.58276
#
# Poissons Ratio (x) = 0.12485 -0.04210
# Poissons Ratio (y) = 0.10036 0.30281
# Poissons Ratio (z) = -0.03091 0.27660
#
# Static dielectric constant tensor:
#      x y z
#    x 1.741170 0.000000 0.000000 
#    y 0.000000 1.741570 0.000000 
#    z 0.000000 0.000000 1.770530 
# 
# From -- ./inp_files/10078.got.cif
#   From: 2010.05.17/outbox.cif.g08.bks.cpg/sg51_6_cif.got.tgz:10078.got - 2010.06.03 11:52:47.
