data_PCOD9405866
_publ_section_title
;
Structure prediction by ZEFSAII (Michael W. Deem and Ramdas Pophale) SiO2 
 PCOD9405866
Probable space group: P M M A
;
_chemical_formula_sum "Si O2"
_cell_formula_units_Z 58
_cell_length_a 27.206602
_cell_length_b 7.908707
_cell_length_c 12.306118
_cell_angle_alpha 90.000000
_cell_angle_beta 90.000000
_cell_angle_gamma 90.000000
_cell_volume 2647.895642
_symmetry_space_group_name_H-M "P M M A"
_symmetry_group_IT_number 51
_symmetry_cell_setting 'orthorhombic'
loop_
_space_group_symop_operation_xyz
x,y,z
1/2-x,-y,z
1/2+x,-y,-z
-x,y,-z
-x,-y,-z
1/2+x,y,-z
1/2-x,y,z
x,-y,z
loop_
_atom_site_type_symbol
_atom_site_label
_atom_site_fract_x
_atom_site_fract_y
_atom_site_fract_z
Si Si1 0.844558 0.200089 0.465708
Si Si2 0.955951 0.795213 0.420079
Si Si3 0.112781 0.294054 0.946228
Si Si4 0.694207 0.295453 0.228941
Si Si5 0.680119 0.313583 0.693207
Si Si6 0.517027 0.696893 0.178422
Si Si7 0.250000 0.000000 0.249990
Si Si8 0.594312 0.191095 0.816584
O O1 0.901855 0.251295 0.461683
O O2 0.821942 0.233303 0.347542
O O3 0.817048 0.292801 0.563237
O O4 0.841810 0.000000 0.488932
O O5 0.964242 0.719996 0.301173
O O6 0.000000 0.744076 0.500000
O O7 0.957259 0.000000 0.410449
O O8 0.112624 0.500000 0.950744
O O9 0.155273 0.240903 0.862510
O O10 0.060000 0.235988 0.899471
O O11 0.118896 0.224658 0.066697
O O12 0.750000 0.241533 0.205010
O O13 0.693044 0.500000 0.231209
O O14 0.697201 0.500000 0.726364
O O15 0.623192 0.300536 0.729008
O O16 0.707908 0.152743 0.743722
O O17 0.511385 0.500000 0.152622
O O18 0.463297 0.774167 0.170344
O O19 0.599313 0.000000 0.780414
#
# Coordination Sequence:
#
# PCOD9405866 Si02
#       8
#     8   8   8   8   8   8   2   8
#     4  11  22  39  64  97 140 177 227 283 335 414
#     4  10  21  36  58  89 132 180 222 279 345 407
#     4  10  22  42  64  95 133 174 234 293 346 418
#     4  10  22  41  65  93 128 175 228 282 347 415
#     4  12  26  47  74 103 140 183 229 290 352 410
#     4  11  22  38  64  96 132 175 229 285 346 422
#     4  12  26  52  72 106 138 176 242 290 348 420
#     4  12  25  44  67  97 138 176 231 287 344 424
#
# _framework density 21.904184999999998
#
# number of rings (size 3 to 8) (size 9 to 14) (size 15 to 20)
#    0.000    1.103    2.759    3.517    0.966    5.517 
#    1.241    0.000    0.000    0.000    0.000    0.000 
#    0.000    0.000    0.000    0.000    0.000    0.000 
#
# Total GULP energy -323932.688628 kJ/mol
# GULP energy per Si atom -5585.046356 kJ/mol
# Density = 2.185433 g / cm^3
# Si number density = 21.904185 Si / 1000 Ang^3
#
#
#
# Elastic Constant Matrix: (Units=GPa)
#
#
# Indices 1 2 3 4 5 6 
#
# 1 119.8441 32.0086 1.6136 0.0000 0.0000 0.0000
# 2 32.0086 91.2083 2.0157 0.0000 0.0000 0.0000
# 3 1.6136 2.0157 55.6135 0.0000 0.0000 0.0000
# 4 0.0000 0.0000 0.0000 29.4615 0.0000 0.0000
# 5 0.0000 0.0000 0.0000 0.0000 -1.3266 0.0000
# 6 0.0000 0.0000 0.0000 0.0000 0.0000 23.3532
#
#
#
# Elastic Compliance Matrix: (Units=1/GPa)
#
#
# Indices 1 2 3 4 5 6 
#
# 1 0.009208 -0.003228 -0.000150 0.000000 0.000000 0.000000
# 2 -0.003228 0.012104 -0.000345 0.000000 0.000000 0.000000
# 3 -0.000150 -0.000345 0.017998 0.000000 0.000000 0.000000
# 4 0.000000 0.000000 0.000000 0.033943 0.000000 0.000000
# 5 0.000000 0.000000 0.000000 0.000000 -0.753833 0.000000
# 6 0.000000 0.000000 0.000000 0.000000 0.000000 0.042821
#
#
# Mechanical properties :
#
#
# Convention : Reuss Voigt Hill
#
# Bulk Modulus (GPa) = 31.38338 37.54908 34.46623
# Shear Modulus (GPa) = -8.06855 25.69949 8.81547
#
# Velocity S-wave (km/s) = -1.92134 3.42902 2.00831
# Velocity P-wave (km/s) = 3.07190 5.73212 4.59857
#
# Compressibility (1/GPa) = 0.03186400
#
# Stress axis : x y z
#
# Youngs Moduli (GPa) = 108.59627 82.61414 55.56135
#
# Poissons Ratio (x) = 0.26670 0.00834
# Poissons Ratio (y) = 0.35058 0.01917
# Poissons Ratio (z) = 0.01631 0.02851
#
# Static dielectric constant tensor:
#      x y z
#    x 1.804320 0.000000 0.000000 
#    y 0.000000 1.788850 0.000000 
#    z 0.000000 0.000000 1.759040 
# 
# From -- ./inp_files/19153.got.cif
#   From: 2010.05.17/outbox.cif.g08.bks.cpg/sg51_10_cif.got.tgz:19153.got - 2010.06.03 11:52:47.
