data_PCOD9405678
_publ_section_title
;
Structure prediction by ZEFSAII (Michael W. Deem and Ramdas Pophale) SiO2 
 PCOD9405678
Probable space group: P M M A
;
_chemical_formula_sum "Si O2"
_cell_formula_units_Z 40
_cell_length_a 9.475565
_cell_length_b 9.080956
_cell_length_c 26.507232
_cell_angle_alpha 90.000000
_cell_angle_beta 90.000000
_cell_angle_gamma 90.000000
_cell_volume 2280.872798
_symmetry_space_group_name_H-M "P M M A"
_symmetry_group_IT_number 51
_symmetry_cell_setting 'orthorhombic'
loop_
_space_group_symop_operation_xyz
x,y,z
1/2-x,-y,z
1/2+x,-y,-z
-x,y,-z
-x,-y,-z
1/2+x,y,-z
1/2-x,y,z
x,-y,z
loop_
_atom_site_type_symbol
_atom_site_label
_atom_site_fract_x
_atom_site_fract_y
_atom_site_fract_z
Si Si1 0.912638 0.320332 0.950906
Si Si2 0.918014 0.174358 0.253973
Si Si3 0.916106 0.676569 0.148273
Si Si4 0.082574 0.175272 0.449893
Si Si5 0.418294 0.325590 0.345220
O O1 0.750000 0.272646 0.952597
O O2 0.912847 0.500000 0.951513
O O3 0.991029 0.276365 0.899479
O O4 0.000000 0.272022 0.000000
O O5 0.750000 0.199060 0.260464
O O6 0.957587 0.244857 0.200156
O O7 0.000957 0.248879 0.299559
O O8 0.943608 0.000000 0.253385
O O9 0.750000 0.706408 0.138496
O O10 0.930812 0.500000 0.154469
O O11 0.250000 0.198832 0.457066
O O12 0.038076 0.258596 0.399195
O O13 0.000000 0.222079 0.500000
O O14 0.059572 0.000000 0.442901
O O15 0.250000 0.299585 0.340042
O O16 0.442979 0.500000 0.344415
#
# Coordination Sequence:
#
# PCOD9405678 Si02
#       5
#     8   8   8   8   8
#     4   9  16  26  43  69  99 129 162 201 246 296
#     4  10  21  36  54  76 102 134 172 212 256 308
#     4   9  17  30  48  70  98 130 163 203 250 297
#     4   9  18  33  52  74 102 136 172 209 250 298
#     4  10  21  36  54  77 105 136 171 212 257 304
#
# _framework density 17.537147999999998
#
# number of rings (size 3 to 8) (size 9 to 14) (size 15 to 20)
#    0.000    2.600    0.000    1.800    0.000    6.800 
#    0.000    4.000    0.000    0.600    0.000    0.000 
#    0.000    0.000    0.000    0.000    0.000    0.000 
#
# Total GULP energy -223169.385569 kJ/mol
# GULP energy per Si atom -5579.234639 kJ/mol
# Density = 1.749723 g / cm^3
# Si number density = 17.537148 Si / 1000 Ang^3
#
#
#
# Elastic Constant Matrix: (Units=GPa)
#
#
# Indices 1 2 3 4 5 6 
#
# 1 80.6251 49.3994 107.8638 0.0000 0.0000 0.0000
# 2 49.3994 41.2821 77.7106 0.0000 0.0000 0.0000
# 3 107.8638 77.7106 227.6358 0.0000 0.0000 0.0000
# 4 0.0000 0.0000 0.0000 -416.9895 0.0000 0.0000
# 5 0.0000 0.0000 0.0000 0.0000 41.9016 0.0000
# 6 0.0000 0.0000 0.0000 0.0000 0.0000 17.9594
#
#
#
# Elastic Compliance Matrix: (Units=1/GPa)
#
#
# Indices 1 2 3 4 5 6 
#
# 1 0.053211 -0.045361 -0.009728 0.000000 0.000000 0.000000
# 2 -0.045361 0.106451 -0.014846 0.000000 0.000000 0.000000
# 3 -0.009728 -0.014846 0.014071 0.000000 0.000000 0.000000
# 4 0.000000 0.000000 0.000000 -0.002398 0.000000 0.000000
# 5 0.000000 0.000000 0.000000 0.000000 0.023865 0.000000
# 6 0.000000 0.000000 0.000000 0.000000 0.000000 0.055681
#
#
# Mechanical properties :
#
#
# Convention : Reuss Voigt Hill
#
# Bulk Modulus (GPa) = 29.53189 91.05450 60.29320
# Shear Modulus (GPa) = 12.43655 -63.78776 -25.67560
#
# Velocity S-wave (km/s) = 2.66588 -6.03754 -3.83047
# Velocity P-wave (km/s) = 5.13343 1.85233 3.85896
#
# Compressibility (1/GPa) = 0.03386169
#
# Stress axis : x y z
#
# Youngs Moduli (GPa) = 18.79309 9.39396 71.06850
#
# Poissons Ratio (x) = 0.42612 0.69137
# Poissons Ratio (y) = 0.85248 1.05511
# Poissons Ratio (z) = 0.18282 0.13947
#
# Static dielectric constant tensor:
#      x y z
#    x 1.587810 0.000000 0.000000 
#    y 0.000000 1.583270 0.000000 
#    z 0.000000 0.000000 1.566620 
# 
# From -- ./inp_files/34317.got.cif
#   From: 2010.05.17/outbox.cif.g08.bks.cpg/sg51_18_cif.got.tgz:34317.got - 2010.06.03 11:52:47.
