data_PCOD9405396
_publ_section_title
;
Structure prediction by ZEFSAII (Michael W. Deem and Ramdas Pophale) SiO2 
 PCOD9405396
Probable space group: P M M A
;
_chemical_formula_sum "Si O2"
_cell_formula_units_Z 32
_cell_length_a 7.433214
_cell_length_b 22.383545
_cell_length_c 8.976725
_cell_angle_alpha 90.000000
_cell_angle_beta 90.000000
_cell_angle_gamma 90.000000
_cell_volume 1493.562587
_symmetry_space_group_name_H-M "P M M A"
_symmetry_group_IT_number 51
_symmetry_cell_setting 'orthorhombic'
loop_
_space_group_symop_operation_xyz
x,y,z
1/2-x,-y,z
1/2+x,-y,-z
-x,y,-z
-x,-y,-z
1/2+x,y,-z
1/2-x,y,z
x,-y,z
loop_
_atom_site_type_symbol
_atom_site_label
_atom_site_fract_x
_atom_site_fract_y
_atom_site_fract_z
Si Si1 0.534714 0.371553 0.321820
Si Si2 0.034450 0.242057 0.676645
Si Si3 0.534771 0.121125 0.174657
Si Si4 0.534435 0.500000 0.321488
Si Si5 0.965162 0.000000 0.325180
O O1 0.500000 0.371379 0.500000
O O2 0.750000 0.371898 0.300335
O O3 0.465447 0.307001 0.268779
O O4 0.465285 0.435747 0.264327
O O5 0.250000 0.243428 0.696834
O O6 0.963556 0.183102 0.757379
O O7 0.000000 0.237067 0.500000
O O8 0.750000 0.121868 0.199067
O O9 0.464110 0.061062 0.252430
O O10 0.500000 0.118438 0.000000
O O11 0.750000 0.500000 0.301196
O O12 0.500000 0.500000 0.500000
O O13 0.000000 0.000000 0.500000
O O14 0.750000 0.000000 0.300994
#
# Coordination Sequence:
#
# PCOD9405396 Si02
#       5
#     8   8   8   4   4
#     4   8  13  21  34  54  81 110 140 176 217 261
#     4   9  17  29  45  66  91 118 150 187 225 267
#     4  10  21  35  50  70  95 122 153 187 222 263
#     4   8  12  18  30  50  77 108 138 170 214 262
#     4  10  21  36  54  76  98 120 149 184 222 266
#
# _framework density 21.425283
#
# number of rings (size 3 to 8) (size 9 to 14) (size 15 to 20)
#    0.000    3.000    0.000    1.125    0.000    2.000 
#    0.000    0.000    0.000    0.000    0.000    0.875 
#    0.000    0.000    0.000    0.000    0.000    0.000 
#
# Total GULP energy -178331.143421 kJ/mol
# GULP energy per Si atom -5572.848232 kJ/mol
# Density = 2.137652 g / cm^3
# Si number density = 21.425283 Si / 1000 Ang^3
#
#
#
# Elastic Constant Matrix: (Units=GPa)
#
#
# Indices 1 2 3 4 5 6 
#
# 1 74.5380 16.5045 -10.8443 0.0000 0.0000 0.0000
# 2 16.5045 324.6217 90.3785 0.0000 0.0000 0.0000
# 3 -10.8443 90.3785 66.6398 0.0000 0.0000 0.0000
# 4 0.0000 0.0000 0.0000 -21.7380 0.0000 0.0000
# 5 0.0000 0.0000 0.0000 0.0000 15.9449 0.0000
# 6 0.0000 0.0000 0.0000 0.0000 0.0000 -209.8278
#
#
#
# Elastic Compliance Matrix: (Units=1/GPa)
#
#
# Indices 1 2 3 4 5 6 
#
# 1 0.014716 -0.002273 0.005478 0.000000 0.000000 0.000000
# 2 -0.002273 0.005300 -0.007559 0.000000 0.000000 0.000000
# 3 0.005478 -0.007559 0.026149 0.000000 0.000000 0.000000
# 4 0.000000 0.000000 0.000000 -0.046002 0.000000 0.000000
# 5 0.000000 0.000000 0.000000 0.000000 0.062716 0.000000
# 6 0.000000 0.000000 0.000000 0.000000 0.000000 -0.004766
#
#
# Mechanical properties :
#
#
# Convention : Reuss Voigt Hill
#
# Bulk Modulus (GPa) = 26.69699 73.09747 49.89723
# Shear Modulus (GPa) = 63.04604 -18.47348 22.28628
#
# Velocity S-wave (km/s) = 5.43046 -2.93956 3.22869
# Velocity P-wave (km/s) = 7.19774 4.76132 6.10236
#
# Compressibility (1/GPa) = 0.03745741
#
# Stress axis : x y z
#
# Youngs Moduli (GPa) = 67.95183 188.66169 38.24295
#
# Poissons Ratio (x) = 0.42889 -0.20949
# Poissons Ratio (y) = 0.15448 0.28906
# Poissons Ratio (z) = -0.37223 1.42602
#
# Static dielectric constant tensor:
#      x y z
#    x 1.779580 0.000000 0.000000 
#    y 0.000000 1.874150 0.000000 
#    z 0.000000 0.000000 1.677440 
# 
# From -- ./inp_files/716.got.cif
#   From: 2010.05.17/outbox.cif.g08.bks.cpg/sg51_1_cif.got.tgz:716.got - 2010.06.03 11:52:47.
