data_PCOD9405810
_publ_section_title
;
Structure prediction by ZEFSAII (Michael W. Deem and Ramdas Pophale) SiO2 
 PCOD9405810
Probable space group: P M M A
;
_chemical_formula_sum "Si O2"
_cell_formula_units_Z 36
_cell_length_a 8.719273
_cell_length_b 23.592615
_cell_length_c 9.283184
_cell_angle_alpha 90.000000
_cell_angle_beta 90.000000
_cell_angle_gamma 90.000000
_cell_volume 1909.647967
_symmetry_space_group_name_H-M "P M M A"
_symmetry_group_IT_number 51
_symmetry_cell_setting 'orthorhombic'
loop_
_space_group_symop_operation_xyz
x,y,z
1/2-x,-y,z
1/2+x,-y,-z
-x,y,-z
-x,-y,-z
1/2+x,y,-z
1/2-x,y,z
x,-y,z
loop_
_atom_site_type_symbol
_atom_site_label
_atom_site_fract_x
_atom_site_fract_y
_atom_site_fract_z
Si Si1 0.935289 0.111345 0.660768
Si Si2 0.434070 0.667075 0.340874
Si Si3 0.435213 0.000000 0.160847
Si Si4 0.933615 0.434387 0.158820
Si Si5 0.565003 0.222248 0.839703
O O1 0.750000 0.111349 0.652806
O O2 0.983756 0.167975 0.745586
O O3 0.000000 0.110088 0.500000
O O4 0.982959 0.055995 0.751290
O O5 0.500000 0.674785 0.500000
O O6 0.250000 0.665611 0.346677
O O7 0.496003 0.609434 0.270872
O O8 0.481398 0.719944 0.240444
O O9 0.250000 0.000000 0.152642
O O10 0.500000 0.000000 0.000000
O O11 0.750000 0.428711 0.155523
O O12 0.971240 0.500000 0.193183
O O13 0.000000 0.422239 0.000000
O O14 0.750000 0.221503 0.847599
O O15 0.500000 0.219530 0.000000
#
# Coordination Sequence:
#
# PCOD9405810 Si02
#       5
#     8   8   4   8   8
#     4  10  21  37  56  82 113 145 184 228 275 327
#     4  11  23  38  57  82 112 147 186 229 278 331
#     4  10  21  36  56  82 112 146 187 230 272 324
#     4  10  21  38  60  85 113 146 184 227 275 328
#     4  10  22  38  57  82 111 144 184 228 275 329
#
# _framework density 18.851642999999999
#
# number of rings (size 3 to 8) (size 9 to 14) (size 15 to 20)
#    0.000    1.778    0.000    3.667    0.000    7.111 
#    0.000    0.000    0.000    0.000    0.000    0.000 
#    0.000    0.000    0.000    0.000    0.000    0.000 
#
# Total GULP energy -201234.723947 kJ/mol
# GULP energy per Si atom -5589.853443 kJ/mol
# Density = 1.880874 g / cm^3
# Si number density = 18.851643 Si / 1000 Ang^3
#
#
#
# Elastic Constant Matrix: (Units=GPa)
#
#
# Indices 1 2 3 4 5 6 
#
# 1 28.1233 39.7134 41.4996 0.0000 0.0000 0.0000
# 2 39.7134 133.8385 106.2810 0.0000 0.0000 0.0000
# 3 41.4996 106.2810 199.0460 0.0000 0.0000 0.0000
# 4 0.0000 0.0000 0.0000 193.6338 0.0000 0.0000
# 5 0.0000 0.0000 0.0000 0.0000 43.4438 0.0000
# 6 0.0000 0.0000 0.0000 0.0000 0.0000 -4.9337
#
#
#
# Elastic Compliance Matrix: (Units=1/GPa)
#
#
# Indices 1 2 3 4 5 6 
#
# 1 0.064627 -0.014717 -0.005616 0.000000 0.000000 0.000000
# 2 -0.014717 0.016323 -0.005647 0.000000 0.000000 0.000000
# 3 -0.005616 -0.005647 0.009210 0.000000 0.000000 0.000000
# 4 0.000000 0.000000 0.000000 0.005164 0.000000 0.000000
# 5 0.000000 0.000000 0.000000 0.000000 0.023018 0.000000
# 6 0.000000 0.000000 0.000000 0.000000 0.000000 -0.202688
#
#
# Mechanical properties :
#
#
# Convention : Reuss Voigt Hill
#
# Bulk Modulus (GPa) = 26.17822 81.77730 53.97776
# Shear Modulus (GPa) = -254.43932 57.99636 -98.22148
#
# Velocity S-wave (km/s) = -11.63023 5.55260 -7.22603
# Velocity P-wave (km/s) = 12.90090 9.19685 6.39731
#
# Compressibility (1/GPa) = 0.03819970
#
# Stress axis : x y z
#
# Youngs Moduli (GPa) = 15.47344 61.26269 108.57316
#
# Poissons Ratio (x) = 0.90158 0.60977
# Poissons Ratio (y) = 0.22772 0.61316
# Poissons Ratio (z) = 0.08690 0.34598
#
# Static dielectric constant tensor:
#      x y z
#    x 1.637710 0.000000 0.000000 
#    y 0.000000 1.648310 0.000000 
#    z 0.000000 0.000000 1.598500 
# 
# From -- ./inp_files/5011.got.cif
#   From: 2010.05.17/outbox.cif.g08.bks.cpg/sg51_3_cif.got.tgz:5011.got - 2010.06.03 11:52:47.
