data_PCOD9405600
_publ_section_title
;
Structure prediction by ZEFSAII (Michael W. Deem and Ramdas Pophale) SiO2 
 PCOD9405600
Probable space group: P M M A
;
_chemical_formula_sum "Si O2"
_cell_formula_units_Z 64
_cell_length_a 23.732422
_cell_length_b 8.708516
_cell_length_c 16.695318
_cell_angle_alpha 90.000000
_cell_angle_beta 90.000000
_cell_angle_gamma 90.000000
_cell_volume 3450.491102
_symmetry_space_group_name_H-M "P M M A"
_symmetry_group_IT_number 51
_symmetry_cell_setting 'orthorhombic'
loop_
_space_group_symop_operation_xyz
x,y,z
1/2-x,-y,z
1/2+x,-y,-z
-x,y,-z
-x,-y,-z
1/2+x,y,-z
1/2-x,y,z
x,-y,z
loop_
_atom_site_type_symbol
_atom_site_label
_atom_site_fract_x
_atom_site_fract_y
_atom_site_fract_z
Si Si1 0.816078 0.328905 0.700396
Si Si2 0.815731 0.315667 0.383447
Si Si3 0.919987 0.815297 0.290217
Si Si4 0.030552 0.315343 0.873116
Si Si5 0.861005 0.182089 0.550696
Si Si6 0.084409 0.315842 0.045556
Si Si7 0.815568 0.817575 0.864257
Si Si8 0.018179 0.824186 0.407809
O O1 0.750000 0.343427 0.715395
O O2 0.838563 0.500000 0.683536
O O3 0.821376 0.217724 0.625025
O O4 0.838787 0.259258 0.782659
O O5 0.750000 0.267535 0.373065
O O6 0.817100 0.500000 0.382158
O O7 0.859886 0.252081 0.318028
O O8 0.838590 0.257971 0.469695
O O9 0.941293 0.764613 0.202971
O O10 0.968390 0.759353 0.353163
O O11 0.916303 0.000000 0.295734
O O12 0.031259 0.500000 0.860979
O O13 0.966006 0.269517 0.893473
O O14 0.063923 0.282762 0.955468
O O15 0.920240 0.247751 0.584866
O O16 0.867455 0.000000 0.535122
O O17 0.090345 0.500000 0.052312
O O18 0.142637 0.235950 0.066697
O O19 0.750000 0.774033 0.878445
O O20 0.817088 0.000000 0.854453
O O21 0.000000 0.830066 0.500000
O O22 0.026239 0.000000 0.378626
#
# Coordination Sequence:
#
# PCOD9405600 Si02
#       8
#     8   8   8   8   8   8   8   8
#     4  10  21  36  52  75 111 151 191 232 275 330
#     4  11  24  41  59  80 111 151 195 243 291 338
#     4  11  22  38  61  87 115 149 190 235 285 338
#     4   9  20  39  61  87 118 149 185 233 286 343
#     4  11  21  35  57  82 111 148 190 234 283 337
#     4   9  19  38  62  86 115 151 188 228 281 345
#     4  10  21  36  55  82 116 151 189 236 286 338
#     4   9  18  35  54  78 113 146 176 221 276 329
#
# _framework density 18.548082999999998
#
# number of rings (size 3 to 8) (size 9 to 14) (size 15 to 20)
#    0.000    2.000    1.250    3.000    1.750    5.000 
#    0.000    4.375    0.000    0.750    0.000    0.000 
#    0.000    0.000    0.000    0.000    0.000    0.000 
#
# Total GULP energy -356781.499263 kJ/mol
# GULP energy per Si atom -5574.710926 kJ/mol
# Density = 1.850587 g / cm^3
# Si number density = 18.548083 Si / 1000 Ang^3
#
#
#
# Elastic Constant Matrix: (Units=GPa)
#
#
# Indices 1 2 3 4 5 6 
#
# 1 123.6076 41.2293 58.8965 0.0000 0.0000 0.0000
# 2 41.2293 41.2004 28.2357 0.0000 0.0000 0.0000
# 3 58.8965 28.2357 83.9321 0.0000 0.0000 0.0000
# 4 0.0000 0.0000 0.0000 -56.3965 0.0000 0.0000
# 5 0.0000 0.0000 0.0000 0.0000 24.6171 0.0000
# 6 0.0000 0.0000 0.0000 0.0000 0.0000 32.8063
#
#
#
# Elastic Compliance Matrix: (Units=1/GPa)
#
#
# Indices 1 2 3 4 5 6 
#
# 1 0.014747 -0.009962 -0.006997 0.000000 0.000000 0.000000
# 2 -0.009962 0.038274 -0.005885 0.000000 0.000000 0.000000
# 3 -0.006997 -0.005885 0.018804 0.000000 0.000000 0.000000
# 4 0.000000 0.000000 0.000000 -0.017732 0.000000 0.000000
# 5 0.000000 0.000000 0.000000 0.000000 0.040622 0.000000
# 6 0.000000 0.000000 0.000000 0.000000 0.000000 0.030482
#
#
# Mechanical properties :
#
#
# Convention : Reuss Voigt Hill
#
# Bulk Modulus (GPa) = 38.26039 56.16256 47.21147
# Shear Modulus (GPa) = 27.84001 8.23061 18.03531
#
# Velocity S-wave (km/s) = 3.87843 2.10881 3.12164
# Velocity P-wave (km/s) = 6.38191 6.02284 6.20497
#
# Compressibility (1/GPa) = 0.02613669
#
# Stress axis : x y z
#
# Youngs Moduli (GPa) = 67.81151 26.12734 53.18041
#
# Poissons Ratio (x) = 0.26028 0.37209
# Poissons Ratio (y) = 0.67555 0.31298
# Poissons Ratio (z) = 0.47445 0.15377
#
# Static dielectric constant tensor:
#      x y z
#    x 1.615890 0.000000 0.000000 
#    y 0.000000 1.657020 0.000000 
#    z 0.000000 0.000000 1.630240 
# 
# From -- ./inp_files/26263.got.cif
#   From: 2010.05.17/outbox.cif.g08.bks.cpg/sg51_14_cif.got.tgz:26263.got - 2010.06.03 11:52:47.
