data_PCOD9405817
_publ_section_title
;
Structure prediction by ZEFSAII (Michael W. Deem and Ramdas Pophale) SiO2 
 PCOD9405817
Probable space group: P M M A
;
_chemical_formula_sum "Si O2"
_cell_formula_units_Z 48
_cell_length_a 18.367003
_cell_length_b 9.182795
_cell_length_c 16.730964
_cell_angle_alpha 90.000000
_cell_angle_beta 90.000000
_cell_angle_gamma 90.000000
_cell_volume 2821.851471
_symmetry_space_group_name_H-M "P M M A"
_symmetry_group_IT_number 51
_symmetry_cell_setting 'orthorhombic'
loop_
_space_group_symop_operation_xyz
x,y,z
1/2-x,-y,z
1/2+x,-y,-z
-x,y,-z
-x,-y,-z
1/2+x,y,-z
1/2-x,y,z
x,-y,z
loop_
_atom_site_type_symbol
_atom_site_label
_atom_site_fract_x
_atom_site_fract_y
_atom_site_fract_z
Si Si1 0.603237 0.170810 0.828295
Si Si2 0.527263 0.673930 0.588743
Si Si3 0.664937 0.825129 0.139784
Si Si4 0.953137 0.171735 0.266426
Si Si5 0.667398 0.174813 0.658618
Si Si6 0.414085 0.326242 0.008197
O O1 0.521091 0.189279 0.794594
O O2 0.653448 0.208692 0.752388
O O3 0.613108 0.265200 0.906991
O O4 0.613752 0.000000 0.847412
O O5 0.500000 0.710163 0.500000
O O6 0.531948 0.500000 0.596375
O O7 0.472479 0.737415 0.655292
O O8 0.605496 0.744660 0.608452
O O9 0.750000 0.791016 0.146989
O O10 0.619136 0.785407 0.218814
O O11 0.657008 0.000000 0.129763
O O12 0.629580 0.746751 0.063943
O O13 0.949998 0.000000 0.286927
O O14 0.750000 0.211259 0.636200
O O15 0.657145 0.000000 0.651025
O O16 0.406987 0.500000 0.004993
O O17 0.500000 0.289287 0.000000
#
# Coordination Sequence:
#
# PCOD9405817 Si02
#       6
#     8   8   8   8   8   8
#     4   9  17  31  53  77 102 137 178 218 262 313
#     4  10  21  36  56  83 112 143 177 212 257 320
#     4  10  21  37  56  77 103 138 181 227 271 313
#     4   9  18  34  56  79 102 133 175 221 265 313
#     4   9  19  36  57  82 110 139 175 222 272 316
#     4  11  22  33  49  76 109 144 182 223 264 312
#
# _framework density 17.010109
#
# number of rings (size 3 to 8) (size 9 to 14) (size 15 to 20)
#    0.000    2.333    1.667    2.000    0.000    6.667 
#    0.000    2.500    0.000    3.000    0.000    0.000 
#    0.000    0.000    0.000    0.000    0.000    0.000 
#
# Total GULP energy -267825.791693 kJ/mol
# GULP energy per Si atom -5579.703994 kJ/mol
# Density = 1.697139 g / cm^3
# Si number density = 17.010109 Si / 1000 Ang^3
#
#
#
# Elastic Constant Matrix: (Units=GPa)
#
#
# Indices 1 2 3 4 5 6 
#
# 1 129.8186 58.0251 82.7903 0.0000 0.0000 0.0000
# 2 58.0251 47.8764 68.7926 0.0000 0.0000 0.0000
# 3 82.7903 68.7926 142.3564 0.0000 0.0000 0.0000
# 4 0.0000 0.0000 0.0000 40.7176 0.0000 0.0000
# 5 0.0000 0.0000 0.0000 0.0000 18.1373 0.0000
# 6 0.0000 0.0000 0.0000 0.0000 0.0000 10.4513
#
#
#
# Elastic Compliance Matrix: (Units=1/GPa)
#
#
# Indices 1 2 3 4 5 6 
#
# 1 0.016811 -0.020699 0.000226 0.000000 0.000000 0.000000
# 2 -0.020699 0.093825 -0.033302 0.000000 0.000000 0.000000
# 3 0.000226 -0.033302 0.022986 0.000000 0.000000 0.000000
# 4 0.000000 0.000000 0.000000 0.024559 0.000000 0.000000
# 5 0.000000 0.000000 0.000000 0.000000 0.055135 0.000000
# 6 0.000000 0.000000 0.000000 0.000000 0.000000 0.095682
#
#
# Mechanical properties :
#
#
# Convention : Reuss Voigt Hill
#
# Bulk Modulus (GPa) = 38.35597 82.14081 60.24839
# Shear Modulus (GPa) = 11.75806 21.22414 16.49110
#
# Velocity S-wave (km/s) = 2.63200 3.53616 3.11704
# Velocity P-wave (km/s) = 5.64220 8.06640 6.96065
#
# Compressibility (1/GPa) = 0.02607156
#
# Stress axis : x y z
#
# Youngs Moduli (GPa) = 59.48570 10.65812 43.50404
#
# Poissons Ratio (x) = 0.22061 -0.00983
# Poissons Ratio (y) = 1.23129 1.44879
# Poissons Ratio (z) = -0.01344 0.35494
#
# Static dielectric constant tensor:
#      x y z
#    x 1.578510 0.000000 0.000000 
#    y 0.000000 1.563640 0.000000 
#    z 0.000000 0.000000 1.547940 
# 
# From -- ./inp_files/30027.got.cif
#   From: 2010.05.17/outbox.cif.g08.bks.cpg/sg51_16_cif.got.tgz:30027.got - 2010.06.03 11:52:47.
