data_PCOD9405854
_publ_section_title
;
Structure prediction by ZEFSAII (Michael W. Deem and Ramdas Pophale) SiO2 
 PCOD9405854
Probable space group: P M M A
;
_chemical_formula_sum "Si O2"
_cell_formula_units_Z 64
_cell_length_a 15.160811
_cell_length_b 7.875773
_cell_length_c 24.763304
_cell_angle_alpha 90.000000
_cell_angle_beta 90.000000
_cell_angle_gamma 90.000000
_cell_volume 2956.815411
_symmetry_space_group_name_H-M "P M M A"
_symmetry_group_IT_number 51
_symmetry_cell_setting 'orthorhombic'
loop_
_space_group_symop_operation_xyz
x,y,z
1/2-x,-y,z
1/2+x,-y,-z
-x,y,-z
-x,-y,-z
1/2+x,y,-z
1/2-x,y,z
x,-y,z
loop_
_atom_site_type_symbol
_atom_site_label
_atom_site_fract_x
_atom_site_fract_y
_atom_site_fract_z
Si Si1 0.538896 0.800909 0.254583
Si Si2 0.020628 0.303685 0.941616
Si Si3 0.850772 0.202785 0.469491
Si Si4 0.651955 0.299229 0.592146
Si Si5 0.149855 0.703371 0.850041
Si Si6 0.030993 0.297861 0.631675
Si Si7 0.153959 0.799806 0.113576
Si Si8 0.844807 0.798855 0.756575
O O1 0.596967 0.733206 0.205532
O O2 0.575934 0.774943 0.314585
O O3 0.439824 0.723469 0.258103
O O4 0.528703 0.000000 0.243419
O O5 0.046728 0.500000 0.951496
O O6 0.928717 0.297292 0.909718
O O7 0.093996 0.228312 0.901237
O O8 0.000000 0.224064 0.000000
O O9 0.750000 0.249630 0.455234
O O10 0.868558 0.278856 0.528507
O O11 0.915821 0.258790 0.422592
O O12 0.855986 0.000000 0.475065
O O13 0.750000 0.225958 0.601844
O O14 0.656047 0.500000 0.603685
O O15 0.568606 0.226617 0.624097
O O16 0.250000 0.769311 0.847550
O O17 0.154146 0.500000 0.856404
O O18 0.026744 0.500000 0.637586
O O19 0.250000 0.741794 0.093406
O O20 0.155269 0.787637 0.178327
O O21 0.144232 0.000000 0.100682
O O22 0.750000 0.726971 0.737103
O O23 0.844271 0.000000 0.742496
#
# Coordination Sequence:
#
# PCOD9405854 Si02
#       8
#     8   8   8   8   8   8   8   8
#     4  11  22  37  59  84 111 146 189 238 285 332
#     4  10  21  36  57  86 117 148 185 232 282 335
#     4  10  21  37  58  84 113 146 190 243 291 336
#     4   9  19  37  59  83 115 154 190 227 279 342
#     4  10  22  41  61  80 110 153 194 232 280 337
#     4  11  23  37  56  83 116 153 191 233 283 340
#     4   9  17  32  55  81 110 143 178 219 270 329
#     4   8  15  30  53  79 106 137 172 214 271 332
#
# _framework density 21.644909999999999
#
# number of rings (size 3 to 8) (size 9 to 14) (size 15 to 20)
#    0.000    2.250    1.250    2.250    0.000    5.500 
#    0.000    1.250    0.000    1.125    0.000    0.000 
#    0.000    0.000    0.000    0.000    0.000    0.000 
#
# Total GULP energy -357159.210712 kJ/mol
# GULP energy per Si atom -5580.612667 kJ/mol
# Density = 2.159565 g / cm^3
# Si number density = 21.644910 Si / 1000 Ang^3
#
#
#
# Elastic Constant Matrix: (Units=GPa)
#
#
# Indices 1 2 3 4 5 6 
#
# 1 129.4021 6.4484 65.2571 0.0000 0.0000 0.0000
# 2 6.4484 29.3795 -2.2524 0.0000 0.0000 0.0000
# 3 65.2571 -2.2524 116.5673 0.0000 0.0000 0.0000
# 4 0.0000 0.0000 0.0000 15.9423 0.0000 0.0000
# 5 0.0000 0.0000 0.0000 0.0000 -0.3557 0.0000
# 6 0.0000 0.0000 0.0000 0.0000 0.0000 17.9047
#
#
#
# Elastic Compliance Matrix: (Units=1/GPa)
#
#
# Indices 1 2 3 4 5 6 
#
# 1 0.011008 -0.002893 -0.006218 0.000000 0.000000 0.000000
# 2 -0.002893 0.034848 0.002293 0.000000 0.000000 0.000000
# 3 -0.006218 0.002293 0.012104 0.000000 0.000000 0.000000
# 4 0.000000 0.000000 0.000000 0.062726 0.000000 0.000000
# 5 0.000000 0.000000 0.000000 0.000000 -2.811136 0.000000
# 6 0.000000 0.000000 0.000000 0.000000 0.000000 0.055851
#
#
# Mechanical properties :
#
#
# Convention : Reuss Voigt Hill
#
# Bulk Modulus (GPa) = 22.56143 46.02834 34.29489
# Shear Modulus (GPa) = -1.91851 20.42462 9.25305
#
# Velocity S-wave (km/s) = -0.94249 3.07518 2.06983
# Velocity P-wave (km/s) = 3.04330 5.82411 4.64661
#
# Compressibility (1/GPa) = 0.04432344
#
# Stress axis : x y z
#
# Youngs Moduli (GPa) = 90.84367 28.69601 82.61565
#
# Poissons Ratio (x) = 0.08301 0.51374
# Poissons Ratio (y) = 0.26279 -0.18942
# Poissons Ratio (z) = 0.56490 -0.06579
#
# Static dielectric constant tensor:
#      x y z
#    x 1.719410 0.000000 0.000000 
#    y 0.000000 1.788930 0.000000 
#    z 0.000000 0.000000 1.771600 
# 
# From -- ./inp_files/35656.got.cif
#   From: 2010.05.17/outbox.cif.g08.bks.cpg/sg51_18_cif.got.tgz:35656.got - 2010.06.03 11:52:47.
