data_PCOD9405855
_publ_section_title
;
Structure prediction by ZEFSAII (Michael W. Deem and Ramdas Pophale) SiO2 
 PCOD9405855
Probable space group: P M M A
;
_chemical_formula_sum "Si O2"
_cell_formula_units_Z 48
_cell_length_a 14.815320
_cell_length_b 8.897068
_cell_length_c 20.085687
_cell_angle_alpha 90.000000
_cell_angle_beta 90.000000
_cell_angle_gamma 90.000000
_cell_volume 2647.552842
_symmetry_space_group_name_H-M "P M M A"
_symmetry_group_IT_number 51
_symmetry_cell_setting 'orthorhombic'
loop_
_space_group_symop_operation_xyz
x,y,z
1/2-x,-y,z
1/2+x,-y,-z
-x,y,-z
-x,-y,-z
1/2+x,y,-z
1/2-x,y,z
x,-y,z
loop_
_atom_site_type_symbol
_atom_site_label
_atom_site_fract_x
_atom_site_fract_y
_atom_site_fract_z
Si Si1 0.065696 0.680083 0.186549
Si Si2 0.141884 0.676131 0.438378
Si Si3 0.645323 0.179577 0.420500
Si Si4 0.938130 0.680695 0.063137
Si Si5 0.750000 0.819688 0.867706
Si Si6 0.750000 0.179580 0.024661
Si Si7 0.017867 0.820790 0.327466
O O1 0.075382 0.500000 0.187341
O O2 0.160690 0.752925 0.165883
O O3 0.035276 0.739095 0.258149
O O4 0.992134 0.719741 0.130072
O O5 0.250000 0.693452 0.431217
O O6 0.119729 0.500000 0.432687
O O7 0.118107 0.736576 0.511772
O O8 0.090981 0.768299 0.381800
O O9 0.750000 0.215050 0.406246
O O10 0.578742 0.217333 0.360403
O O11 0.638504 0.000000 0.432417
O O12 0.927541 0.500000 0.060562
O O13 0.840689 0.755316 0.056913
O O14 0.000000 0.725545 0.000000
O O15 0.750000 0.000000 0.862069
O O16 0.750000 0.779059 0.946120
O O17 0.750000 0.000000 0.029422
O O18 0.022886 0.000000 0.318138
#
# Coordination Sequence:
#
# PCOD9405855 Si02
#       7
#     8   8   8   8   4   4   8
#     4  11  24  41  62  87 119 158 198 242 291 349
#     4  10  21  36  57  86 117 150 192 241 290 344
#     4   9  19  38  61  83 111 150 194 239 292 351
#     4  10  21  40  64  88 118 158 201 243 292 352
#     4  11  23  39  61  91 123 154 189 236 297 355
#     4  11  23  37  63  95 121 152 193 248 299 347
#     4  11  23  38  58  84 118 156 193 238 295 353
#
# _framework density 18.129949
#
# number of rings (size 3 to 8) (size 9 to 14) (size 15 to 20)
#    0.000    1.667    1.667    2.500    1.167    6.667 
#    1.500    0.000    0.000    0.000    0.000    0.000 
#    0.000    0.000    0.000    0.000    0.000    0.000 
#
# Total GULP energy -268266.797967 kJ/mol
# GULP energy per Si atom -5588.891624 kJ/mol
# Density = 1.808868 g / cm^3
# Si number density = 18.129949 Si / 1000 Ang^3
#
#
#
# Elastic Constant Matrix: (Units=GPa)
#
#
# Indices 1 2 3 4 5 6 
#
# 1 133.1040 54.1664 86.9900 0.0000 0.0000 0.0000
# 2 54.1664 50.3869 58.7767 0.0000 0.0000 0.0000
# 3 86.9900 58.7767 150.5991 0.0000 0.0000 0.0000
# 4 0.0000 0.0000 0.0000 32.8830 0.0000 0.0000
# 5 0.0000 0.0000 0.0000 0.0000 -12.3470 0.0000
# 6 0.0000 0.0000 0.0000 0.0000 0.0000 19.4628
#
#
#
# Elastic Compliance Matrix: (Units=1/GPa)
#
#
# Indices 1 2 3 4 5 6 
#
# 1 0.014713 -0.010836 -0.004269 0.000000 0.000000 0.000000
# 2 -0.010836 0.044415 -0.011075 0.000000 0.000000 0.000000
# 3 -0.004269 -0.011075 0.013429 0.000000 0.000000 0.000000
# 4 0.000000 0.000000 0.000000 0.030411 0.000000 0.000000
# 5 0.000000 0.000000 0.000000 0.000000 -0.080991 0.000000
# 6 0.000000 0.000000 0.000000 0.000000 0.000000 0.051380
#
#
# Mechanical properties :
#
#
# Convention : Reuss Voigt Hill
#
# Bulk Modulus (GPa) = 49.51756 81.55068 65.53412
# Shear Modulus (GPa) = 37.75030 16.94355 27.34692
#
# Velocity S-wave (km/s) = 4.56807 3.06038 3.88801
# Velocity P-wave (km/s) = 7.42933 7.58727 7.50872
#
# Compressibility (1/GPa) = 0.02019485
#
# Stress axis : x y z
#
# Youngs Moduli (GPa) = 67.96731 22.51504 74.46761
#
# Poissons Ratio (x) = 0.24398 0.31793
# Poissons Ratio (y) = 0.73652 0.82473
# Poissons Ratio (z) = 0.29017 0.24936
#
# Static dielectric constant tensor:
#      x y z
#    x 1.607100 0.000000 0.000000 
#    y 0.000000 1.606760 0.000000 
#    z 0.000000 0.000000 1.587300 
# 
# From -- ./inp_files/29541.got.cif
#   From: 2010.05.17/outbox.cif.g08.bks.cpg/sg51_15_cif.got.tgz:29541.got - 2010.06.03 11:52:47.
