data_PCOD9405762
_publ_section_title
;
Structure prediction by ZEFSAII (Michael W. Deem and Ramdas Pophale) SiO2 
 PCOD9405762
Probable space group: P M M A
;
_chemical_formula_sum "Si O2"
_cell_formula_units_Z 48
_cell_length_a 8.113049
_cell_length_b 8.646122
_cell_length_c 35.374167
_cell_angle_alpha 90.000000
_cell_angle_beta 90.000000
_cell_angle_gamma 90.000000
_cell_volume 2481.370873
_symmetry_space_group_name_H-M "P M M A"
_symmetry_group_IT_number 51
_symmetry_cell_setting 'orthorhombic'
loop_
_space_group_symop_operation_xyz
x,y,z
1/2-x,-y,z
1/2+x,-y,-z
-x,y,-z
-x,-y,-z
1/2+x,y,-z
1/2-x,y,z
x,-y,z
loop_
_atom_site_type_symbol
_atom_site_label
_atom_site_fract_x
_atom_site_fract_y
_atom_site_fract_z
Si Si1 0.250000 0.814587 0.744078
Si Si2 0.947595 0.173598 0.618085
Si Si3 0.440626 0.188181 0.959053
Si Si4 0.945755 0.324371 0.459847
Si Si5 0.750000 0.188908 0.168546
Si Si6 0.941753 0.316326 0.697800
Si Si7 0.068752 0.811104 0.121339
O O1 0.250000 0.763967 0.787866
O O2 0.417228 0.756467 0.723959
O O3 0.250000 0.000000 0.742791
O O4 0.750000 0.168868 0.616733
O O5 0.989053 0.276321 0.654455
O O6 0.004302 0.236723 0.577878
O O7 0.011217 0.000000 0.624258
O O8 0.250000 0.228361 0.953386
O O9 0.541095 0.237749 0.922192
O O10 0.451029 0.000000 0.959982
O O11 0.500000 0.243938 0.000000
O O12 0.750000 0.333096 0.460528
O O13 0.015032 0.500000 0.458087
O O14 0.000000 0.254374 0.500000
O O15 0.585146 0.240069 0.146651
O O16 0.750000 0.000000 0.167518
O O17 0.750000 0.262148 0.704033
O O18 0.942461 0.500000 0.702871
O O19 0.250000 0.762375 0.134656
O O20 0.065921 0.000000 0.121552
#
# Coordination Sequence:
#
# PCOD9405762 Si02
#       7
#     4   8   8   8   4   8   8
#     4  11  23  37  59  87 117 149 189 241 295 351
#     4  10  21  37  58  84 114 147 183 229 285 340
#     4   9  14  19  28  45  71 104 152 214 268 311
#     4  10  21  36  55  79 109 149 195 237 277 329
#     4   9  18  31  43  63  93 129 169 217 273 333
#     4  10  22  41  64  88 116 151 191 236 289 352
#     4   9  15  24  37  52  77 116 162 212 266 321
#
# _framework density 19.344147
#
# number of rings (size 3 to 8) (size 9 to 14) (size 15 to 20)
#    0.000    2.333    0.833    2.250    1.167    6.000 
#    0.000    1.667    0.000    0.000    0.000    0.000 
#    0.000    0.000    0.000    0.000    0.000    3.333 
#
# Total GULP energy -267722.364297 kJ/mol
# GULP energy per Si atom -5577.549256 kJ/mol
# Density = 1.930012 g / cm^3
# Si number density = 19.344147 Si / 1000 Ang^3
#
#
#
# Elastic Constant Matrix: (Units=GPa)
#
#
# Indices 1 2 3 4 5 6 
#
# 1 127.7032 23.3029 87.3296 0.0000 0.0000 0.0000
# 2 23.3029 26.8077 21.7092 0.0000 0.0000 0.0000
# 3 87.3296 21.7092 155.4251 0.0000 0.0000 0.0000
# 4 0.0000 0.0000 0.0000 53.6644 0.0000 0.0000
# 5 0.0000 0.0000 0.0000 0.0000 33.2041 0.0000
# 6 0.0000 0.0000 0.0000 0.0000 0.0000 15.6303
#
#
#
# Elastic Compliance Matrix: (Units=1/GPa)
#
#
# Indices 1 2 3 4 5 6 
#
# 1 0.013615 -0.006359 -0.006762 0.000000 0.000000 0.000000
# 2 -0.006359 0.045031 -0.002717 0.000000 0.000000 0.000000
# 3 -0.006762 -0.002717 0.010613 0.000000 0.000000 0.000000
# 4 0.000000 0.000000 0.000000 0.018634 0.000000 0.000000
# 5 0.000000 0.000000 0.000000 0.000000 0.030117 0.000000
# 6 0.000000 0.000000 0.000000 0.000000 0.000000 0.063978
#
#
# Mechanical properties :
#
#
# Convention : Reuss Voigt Hill
#
# Bulk Modulus (GPa) = 26.60772 63.84658 45.22715
# Shear Modulus (GPa) = 22.10526 32.33939 27.22233
#
# Velocity S-wave (km/s) = 3.38411 4.09319 3.75542
# Velocity P-wave (km/s) = 5.39021 7.44421 6.49887
#
# Compressibility (1/GPa) = 0.03758308
#
# Stress axis : x y z
#
# Youngs Moduli (GPa) = 73.44787 22.20714 94.22710
#
# Poissons Ratio (x) = 0.14122 0.63714
# Poissons Ratio (y) = 0.46708 0.25597
# Poissons Ratio (z) = 0.49664 0.06033
#
# Static dielectric constant tensor:
#      x y z
#    x 1.670700 0.000000 0.000000 
#    y 0.000000 1.685780 0.000000 
#    z 0.000000 0.000000 1.667410 
# 
# From -- ./inp_files/37098.got.cif
#   From: 2010.05.17/outbox.cif.g08.bks.cpg/sg51_19_cif.got.tgz:37098.got - 2010.06.03 11:52:47.
