data_PCOD9405015
_publ_section_title
;
Structure prediction by ZEFSAII (Michael W. Deem and Ramdas Pophale) SiO2 
 PCOD9405015
Probable space group: P M M A
;
_chemical_formula_sum "Si O2"
_cell_formula_units_Z 48
_cell_length_a 8.622602
_cell_length_b 31.220310
_cell_length_c 9.585584
_cell_angle_alpha 90.000000
_cell_angle_beta 90.000000
_cell_angle_gamma 90.000000
_cell_volume 2580.442160
_symmetry_space_group_name_H-M "P M M A"
_symmetry_group_IT_number 51
_symmetry_cell_setting 'orthorhombic'
loop_
_space_group_symop_operation_xyz
x,y,z
1/2-x,-y,z
1/2+x,-y,-z
-x,y,-z
-x,-y,-z
1/2+x,y,-z
1/2-x,y,z
x,-y,z
loop_
_atom_site_type_symbol
_atom_site_label
_atom_site_fract_x
_atom_site_fract_y
_atom_site_fract_z
Si Si1 0.935088 0.949442 0.347285
Si Si2 0.934883 0.123298 0.843696
Si Si3 0.562708 0.547366 0.656202
Si Si4 0.936742 0.723061 0.843217
Si Si5 0.064703 0.200712 0.656802
Si Si6 0.436850 0.625539 0.154434
O O1 0.750000 0.942923 0.345439
O O2 0.000000 0.937255 0.500000
O O3 0.013320 0.920840 0.229179
O O4 0.966577 0.000000 0.327506
O O5 0.750000 0.126520 0.847235
O O6 0.002706 0.160994 0.747521
O O7 0.000000 0.126506 0.000000
O O8 0.500000 0.550795 0.500000
O O9 0.750000 0.548687 0.652523
O O10 0.517590 0.500000 0.711074
O O11 0.507072 0.587527 0.746275
O O12 0.750000 0.726857 0.845099
O O13 0.979786 0.674094 0.803847
O O14 0.007092 0.756695 0.735719
O O15 0.000000 0.730947 0.000000
O O16 0.250000 0.199569 0.652916
O O17 0.000000 0.198801 0.500000
O O18 0.250000 0.624180 0.150979
O O19 0.500000 0.618528 0.000000
#
# Coordination Sequence:
#
# PCOD9405015 Si02
#       6
#     8   8   8   8   8   8
#     4  10  21  39  63  91 123 159 198 240 287 338
#     4  12  25  42  63  88 119 155 195 238 286 338
#     4   9  18  33  51  73 103 139 179 223 271 323
#     4  10  20  37  58  82 112 146 184 226 277 333
#     4  12  25  42  62  86 115 148 188 232 281 335
#     4   9  19  34  53  78 108 141 178 222 270 324
#
# _framework density 18.601462000000001
#
# number of rings (size 3 to 8) (size 9 to 14) (size 15 to 20)
#    0.000    1.667    0.000    5.000    0.000    3.667 
#    0.000    1.667    0.000    0.000    0.000    0.000 
#    0.000    0.000    0.000    0.000    0.000    0.000 
#
# Total GULP energy -268217.913871 kJ/mol
# GULP energy per Si atom -5587.873206 kJ/mol
# Density = 1.855912 g / cm^3
# Si number density = 18.601462 Si / 1000 Ang^3
#
#
#
# Elastic Constant Matrix: (Units=GPa)
#
#
# Indices 1 2 3 4 5 6 
#
# 1 105.3539 66.2827 65.4999 0.0000 0.0000 0.0000
# 2 66.2827 127.2978 104.4175 0.0000 0.0000 0.0000
# 3 65.4999 104.4175 148.4933 0.0000 0.0000 0.0000
# 4 0.0000 0.0000 0.0000 39.6672 0.0000 0.0000
# 5 0.0000 0.0000 0.0000 0.0000 37.1776 0.0000
# 6 0.0000 0.0000 0.0000 0.0000 0.0000 51.8378
#
#
#
# Elastic Compliance Matrix: (Units=1/GPa)
#
#
# Indices 1 2 3 4 5 6 
#
# 1 0.014520 -0.005451 -0.002572 0.000000 0.000000 0.000000
# 2 -0.005451 0.020608 -0.012087 0.000000 0.000000 0.000000
# 3 -0.002572 -0.012087 0.016368 0.000000 0.000000 0.000000
# 4 0.000000 0.000000 0.000000 0.025210 0.000000 0.000000
# 5 0.000000 0.000000 0.000000 0.000000 0.026898 0.000000
# 6 0.000000 0.000000 0.000000 0.000000 0.000000 0.019291
#
#
# Mechanical properties :
#
#
# Convention : Reuss Voigt Hill
#
# Bulk Modulus (GPa) = 88.67532 94.83834 91.75683
# Shear Modulus (GPa) = 29.96279 35.39952 32.68116
#
# Velocity S-wave (km/s) = 4.01780 4.36713 4.19610
# Velocity P-wave (km/s) = 8.32456 8.74781 8.53881
#
# Compressibility (1/GPa) = 0.01127709
#
# Stress axis : x y z
#
# Youngs Moduli (GPa) = 68.86976 48.52403 61.09467
#
# Poissons Ratio (x) = 0.26450 0.15712
# Poissons Ratio (y) = 0.37541 0.73845
# Poissons Ratio (z) = 0.17712 0.58651
#
# Static dielectric constant tensor:
#      x y z
#    x 1.624040 0.000000 0.000000 
#    y 0.000000 1.660430 0.000000 
#    z 0.000000 0.000000 1.595470 
# 
# From -- ./inp_files/5976.got.cif
#   From: 2010.05.17/outbox.cif.g08.bks.cpg/sg51_3_cif.got.tgz:5976.got - 2010.06.03 11:52:47.
