data_PCOD9405618
_publ_section_title
;
Structure prediction by ZEFSAII (Michael W. Deem and Ramdas Pophale) SiO2 
 PCOD9405618
Probable space group: P M M A
;
_chemical_formula_sum "Si O2"
_cell_formula_units_Z 48
_cell_length_a 9.120800
_cell_length_b 9.561318
_cell_length_c 32.006088
_cell_angle_alpha 90.000000
_cell_angle_beta 90.000000
_cell_angle_gamma 90.000000
_cell_volume 2791.150730
_symmetry_space_group_name_H-M "P M M A"
_symmetry_group_IT_number 51
_symmetry_cell_setting 'orthorhombic'
loop_
_space_group_symop_operation_xyz
x,y,z
1/2-x,-y,z
1/2+x,-y,-z
-x,y,-z
-x,-y,-z
1/2+x,y,-z
1/2-x,y,z
x,-y,z
loop_
_atom_site_type_symbol
_atom_site_label
_atom_site_fract_x
_atom_site_fract_y
_atom_site_fract_z
Si Si1 0.073927 0.335423 0.872233
Si Si2 0.928640 0.339003 0.288405
Si Si3 0.428977 0.839253 0.790971
Si Si4 0.918782 0.329574 0.957969
Si Si5 0.576178 0.332506 0.382638
Si Si6 0.923968 0.834267 0.543507
O O1 0.250000 0.324148 0.876648
O O2 0.040576 0.500000 0.865358
O O3 0.026889 0.245666 0.832275
O O4 0.999222 0.288421 0.915270
O O5 0.750000 0.339221 0.288368
O O6 0.973881 0.500000 0.281174
O O7 0.977960 0.239482 0.251066
O O8 0.971779 0.295647 0.335294
O O9 0.250000 0.837937 0.790477
O O10 0.476257 0.000000 0.792115
O O11 0.750000 0.285674 0.958027
O O12 0.921833 0.500000 0.958598
O O13 0.000000 0.281929 0.000000
O O14 0.750000 0.302157 0.386509
O O15 0.558536 0.500000 0.386892
O O16 0.489304 0.251173 0.417988
O O17 0.750000 0.813770 0.540324
O O18 0.000000 0.792068 0.500000
O O19 0.952476 0.000000 0.549521
#
# Coordination Sequence:
#
# PCOD9405618 Si02
#       6
#     8   8   8   8   8   8
#     4   9  16  26  42  64  90 120 151 184 225 269
#     4   8  14  26  44  67  96 126 155 190 232 277
#     4   9  16  25  40  65  94 122 154 191 228 267
#     4   9  16  26  42  65  91 116 145 184 227 270
#     4   9  18  32  51  76 103 130 162 201 245 291
#     4  10  21  36  53  73  98 130 167 204 243 289
#
# _framework density 17.197209000000001
#
# number of rings (size 3 to 8) (size 9 to 14) (size 15 to 20)
#    0.000    3.000    0.000    2.500    0.000    6.333 
#    0.000    1.667    0.000    2.000    0.000    2.333 
#    0.000    0.000    0.000    0.000    0.000    0.000 
#
# Total GULP energy -267504.656328 kJ/mol
# GULP energy per Si atom -5573.013674 kJ/mol
# Density = 1.715807 g / cm^3
# Si number density = 17.197209 Si / 1000 Ang^3
#
#
#
# Elastic Constant Matrix: (Units=GPa)
#
#
# Indices 1 2 3 4 5 6 
#
# 1 36.1881 34.6135 61.1510 0.0000 0.0000 0.0000
# 2 34.6135 64.8843 92.0082 0.0000 0.0000 0.0000
# 3 61.1510 92.0082 212.1843 0.0000 0.0000 0.0000
# 4 0.0000 0.0000 0.0000 -8.1616 0.0000 0.0000
# 5 0.0000 0.0000 0.0000 0.0000 24.2753 0.0000
# 6 0.0000 0.0000 0.0000 0.0000 0.0000 14.1199
#
#
#
# Elastic Compliance Matrix: (Units=1/GPa)
#
#
# Indices 1 2 3 4 5 6 
#
# 1 0.062732 -0.020328 -0.009265 0.000000 0.000000 0.000000
# 2 -0.020328 0.046607 -0.014352 0.000000 0.000000 0.000000
# 3 -0.009265 -0.014352 0.013606 0.000000 0.000000 0.000000
# 4 0.000000 0.000000 0.000000 -0.122525 0.000000 0.000000
# 5 0.000000 0.000000 0.000000 0.000000 0.041194 0.000000
# 6 0.000000 0.000000 0.000000 0.000000 0.000000 0.070822
#
#
# Mechanical properties :
#
#
# Convention : Reuss Voigt Hill
#
# Bulk Modulus (GPa) = 28.52456 76.53359 52.52907
# Shear Modulus (GPa) = 23.58366 14.41231 18.99799
#
# Velocity S-wave (km/s) = 3.70721 2.89807 3.32733
# Velocity P-wave (km/s) = 5.91163 7.46984 6.73594
#
# Compressibility (1/GPa) = 0.03505751
#
# Stress axis : x y z
#
# Youngs Moduli (GPa) = 15.94075 21.45584 73.49620
#
# Poissons Ratio (x) = 0.43615 0.68092
# Poissons Ratio (y) = 0.32404 1.05479
# Poissons Ratio (z) = 0.14769 0.30793
#
# Static dielectric constant tensor:
#      x y z
#    x 1.575260 0.000000 0.000000 
#    y 0.000000 1.568890 0.000000 
#    z 0.000000 0.000000 1.572010 
# 
# From -- ./inp_files/37058.got.cif
#   From: 2010.05.17/outbox.cif.g08.bks.cpg/sg51_19_cif.got.tgz:37058.got - 2010.06.03 11:52:47.
