data_PCOD9405367
_publ_section_title
;
Structure prediction by ZEFSAII (Michael W. Deem and Ramdas Pophale) SiO2 
 PCOD9405367
Probable space group: P M M A
;
_chemical_formula_sum "Si O2"
_cell_formula_units_Z 56
_cell_length_a 27.219705
_cell_length_b 7.510197
_cell_length_c 15.325900
_cell_angle_alpha 90.000000
_cell_angle_beta 90.000000
_cell_angle_gamma 90.000000
_cell_volume 3133.002423
_symmetry_space_group_name_H-M "P M M A"
_symmetry_group_IT_number 51
_symmetry_cell_setting 'orthorhombic'
loop_
_space_group_symop_operation_xyz
x,y,z
1/2-x,-y,z
1/2+x,-y,-z
-x,y,-z
-x,-y,-z
1/2+x,y,-z
1/2-x,y,z
x,-y,z
loop_
_atom_site_type_symbol
_atom_site_label
_atom_site_fract_x
_atom_site_fract_y
_atom_site_fract_z
Si Si1 0.195210 0.709245 0.887325
Si Si2 0.431049 0.782879 0.193242
Si Si3 0.432770 0.782893 0.574422
Si Si4 0.608672 0.789774 0.979681
Si Si5 0.377460 0.214115 0.737868
Si Si6 0.955456 0.217246 0.617004
Si Si7 0.038215 0.217174 0.873046
O O1 0.250000 0.786550 0.892664
O O2 0.198647 0.500000 0.900963
O O3 0.170673 0.735687 0.792229
O O4 0.157137 0.772113 0.961422
O O5 0.392110 0.723035 0.119780
O O6 0.430698 0.720731 0.293303
O O7 0.483767 0.730174 0.152717
O O8 0.429541 0.000000 0.199069
O O9 0.390237 0.723011 0.640532
O O10 0.486789 0.732875 0.611272
O O11 0.430878 0.724696 0.473877
O O12 0.432175 0.000000 0.573778
O O13 0.599610 0.000000 0.972563
O O14 0.563011 0.718898 0.037353
O O15 0.423444 0.269948 0.798009
O O16 0.377613 0.000000 0.736095
O O17 0.955024 0.000000 0.617174
O O18 0.037451 0.000000 0.875742
#
# Coordination Sequence:
#
# PCOD9405367 Si02
#       7
#     8   8   8   8   8   8   8
#     4  10  21  35  47  59  77 102 133 173 223 270
#     4   9  13  19  33  58  89 119 143 164 192 231
#     4   8  12  19  32  58  91 118 140 165 196 227
#     4   9  17  26  41  63  84 107 138 173 205 239
#     4   9  15  25  44  66  86 109 139 172 204 239
#     4   8  12  17  30  56  93 123 141 163 190 225
#     4   8  12  19  32  55  85 112 137 164 191 225
#
# _framework density 17.874227000000001
#
# number of rings (size 3 to 8) (size 9 to 14) (size 15 to 20)
#    0.000    3.286    1.429    2.571    0.000    2.857 
#    0.000    0.000    0.000    6.857    0.000    4.000 
#    0.000    8.000    0.000    0.000    0.000    0.000 
#
# Total GULP energy -311779.600283 kJ/mol
# GULP energy per Si atom -5567.492862 kJ/mol
# Density = 1.783354 g / cm^3
# Si number density = 17.874227 Si / 1000 Ang^3
#
#
#
# Elastic Constant Matrix: (Units=GPa)
#
#
# Indices 1 2 3 4 5 6 
#
# 1 57.0322 -8.2441 50.2550 0.0000 0.0000 0.0000
# 2 -8.2441 40.5651 3.4726 0.0000 0.0000 0.0000
# 3 50.2550 3.4726 180.1180 0.0000 0.0000 0.0000
# 4 0.0000 0.0000 0.0000 -12.6005 0.0000 0.0000
# 5 0.0000 0.0000 0.0000 0.0000 10.7584 0.0000
# 6 0.0000 0.0000 0.0000 0.0000 0.0000 14.7093
#
#
#
# Elastic Compliance Matrix: (Units=1/GPa)
#
#
# Indices 1 2 3 4 5 6 
#
# 1 0.024441 0.005560 -0.006927 0.000000 0.000000 0.000000
# 2 0.005560 0.025957 -0.002052 0.000000 0.000000 0.000000
# 3 -0.006927 -0.002052 0.007524 0.000000 0.000000 0.000000
# 4 0.000000 0.000000 0.000000 -0.079362 0.000000 0.000000
# 5 0.000000 0.000000 0.000000 0.000000 0.092950 0.000000
# 6 0.000000 0.000000 0.000000 0.000000 0.000000 0.067984
#
#
# Mechanical properties :
#
#
# Convention : Reuss Voigt Hill
#
# Bulk Modulus (GPa) = 19.57475 40.96470 30.26972
# Shear Modulus (GPa) = 30.60718 18.05558 24.33138
#
# Velocity S-wave (km/s) = 4.14256 3.18173 3.69352
# Velocity P-wave (km/s) = 5.81861 6.03870 5.92968
#
# Compressibility (1/GPa) = 0.05108622
#
# Stress axis : x y z
#
# Youngs Moduli (GPa) = 40.91463 38.52470 132.90701
#
# Poissons Ratio (x) = -0.21420 0.92059
# Poissons Ratio (y) = -0.22749 0.27270
# Poissons Ratio (z) = 0.28340 0.07905
#
# Static dielectric constant tensor:
#      x y z
#    x 1.604780 0.000000 0.000000 
#    y 0.000000 1.675560 0.000000 
#    z 0.000000 0.000000 1.671540 
# 
# From -- ./inp_files/26521.got.cif
#   From: 2010.05.17/outbox.cif.g08.bks.cpg/sg51_14_cif.got.tgz:26521.got - 2010.06.03 11:52:47.
