data_PCOD9406358
_publ_section_title
;
Structure prediction by ZEFSAII (Michael W. Deem and Ramdas Pophale) SiO2 
 PCOD9406358
Probable space group: P M M A
;
_chemical_formula_sum "Si O2"
_cell_formula_units_Z 44
_cell_length_a 10.523852
_cell_length_b 7.945283
_cell_length_c 28.054052
_cell_angle_alpha 90.000000
_cell_angle_beta 90.000000
_cell_angle_gamma 90.000000
_cell_volume 2345.739064
_symmetry_space_group_name_H-M "P M M A"
_symmetry_group_IT_number 51
_symmetry_cell_setting 'orthorhombic'
loop_
_space_group_symop_operation_xyz
x,y,z
1/2-x,-y,z
1/2+x,-y,-z
-x,y,-z
-x,-y,-z
1/2+x,y,-z
1/2-x,y,z
x,-y,z
loop_
_atom_site_type_symbol
_atom_site_label
_atom_site_fract_x
_atom_site_fract_y
_atom_site_fract_z
Si Si1 0.603069 0.296006 0.308531
Si Si2 0.750000 0.805718 0.056427
Si Si3 0.993654 0.198525 0.897359
Si Si4 0.750000 0.687590 0.952671
Si Si5 0.397614 0.500000 0.458138
Si Si6 0.103522 0.808007 0.385314
Si Si7 0.895751 0.703253 0.198983
O O1 0.750000 0.248899 0.319514
O O2 0.596404 0.500000 0.311340
O O3 0.499825 0.221246 0.344151
O O4 0.577086 0.247727 0.253538
O O5 0.620947 0.731243 0.077530
O O6 0.750000 0.000000 0.072748
O O7 0.750000 0.801694 0.999521
O O8 0.872185 0.283749 0.920182
O O9 0.012439 0.225584 0.841181
O O10 0.982250 0.000000 0.907522
O O11 0.750000 0.500000 0.972363
O O12 0.250000 0.500000 0.474889
O O13 0.500000 0.500000 0.500000
O O14 0.415464 0.334414 0.425345
O O15 0.250000 0.787679 0.367938
O O16 0.091451 0.000000 0.403360
O O17 0.750000 0.755704 0.188244
O O18 0.899693 0.500000 0.196930
#
# Coordination Sequence:
#
# PCOD9406358 Si02
#       7
#     8   4   8   4   4   8   8
#     4   9  18  34  58  87 118 154 196 243 295 351
#     4  10  22  40  62  84 106 142 182 224 286 351
#     4  11  22  39  60  82 112 146 181 229 286 348
#     4  12  26  40  56  82 110 140 186 236 284 339
#     4  10  22  40  62  88 124 166 206 254 305 352
#     4  10  21  38  60  88 123 163 207 251 299 360
#     4   9  18  34  57  85 116 149 187 234 286 343
#
# _framework density 18.757415000000002
#
# number of rings (size 3 to 8) (size 9 to 14) (size 15 to 20)
#    0.000    2.000    1.818    3.000    0.000    5.818 
#    1.636    1.818    0.000    0.000    0.000    0.000 
#    0.000    0.000    0.000    0.000    0.000    0.000 
#
# Total GULP energy -245605.377171 kJ/mol
# GULP energy per Si atom -5581.940390 kJ/mol
# Density = 1.871472 g / cm^3
# Si number density = 18.757415 Si / 1000 Ang^3
#
#
#
# Elastic Constant Matrix: (Units=GPa)
#
#
# Indices 1 2 3 4 5 6 
#
# 1 137.8180 31.5918 79.0092 0.0000 0.0000 0.0000
# 2 31.5918 63.4122 24.4932 0.0000 0.0000 0.0000
# 3 79.0092 24.4932 99.3464 0.0000 0.0000 0.0000
# 4 0.0000 0.0000 0.0000 25.3452 0.0000 0.0000
# 5 0.0000 0.0000 0.0000 0.0000 26.8628 0.0000
# 6 0.0000 0.0000 0.0000 0.0000 0.0000 12.8476
#
#
#
# Elastic Compliance Matrix: (Units=1/GPa)
#
#
# Indices 1 2 3 4 5 6 
#
# 1 0.013807 -0.002915 -0.010262 0.000000 0.000000 0.000000
# 2 -0.002915 0.018045 -0.002131 0.000000 0.000000 0.000000
# 3 -0.010262 -0.002131 0.018752 0.000000 0.000000 0.000000
# 4 0.000000 0.000000 0.000000 0.039455 0.000000 0.000000
# 5 0.000000 0.000000 0.000000 0.000000 0.037226 0.000000
# 6 0.000000 0.000000 0.000000 0.000000 0.000000 0.077836
#
#
# Mechanical properties :
#
#
# Convention : Reuss Voigt Hill
#
# Bulk Modulus (GPa) = 50.02676 63.41833 56.72254
# Shear Modulus (GPa) = 20.62702 24.04327 22.33515
#
# Velocity S-wave (km/s) = 3.31973 3.58411 3.45445
# Velocity P-wave (km/s) = 6.43603 7.14219 6.79828
#
# Compressibility (1/GPa) = 0.01998930
#
# Stress axis : x y z
#
# Youngs Moduli (GPa) = 72.42560 55.41687 53.32634
#
# Poissons Ratio (x) = 0.16154 0.54724
# Poissons Ratio (y) = 0.21112 0.11362
# Poissons Ratio (z) = 0.74324 0.11807
#
# Static dielectric constant tensor:
#      x y z
#    x 1.641100 0.000000 0.000000 
#    y 0.000000 1.667430 0.000000 
#    z 0.000000 0.000000 1.613810 
# 
# From -- ./inp_files/36836.got.cif
#   From: 2010.05.17/outbox.cif.g08.bks.cpg/sg51_19_cif.got.tgz:36836.got - 2010.06.03 11:52:47.
