data_PCOD9406909
_publ_section_title
;
Structure prediction by ZEFSAII (Michael W. Deem and Ramdas Pophale) SiO2 
 PCOD9406909
Probable space group: P M M A
;
_chemical_formula_sum "Si O2"
_cell_formula_units_Z 64
_cell_length_a 14.733252
_cell_length_b 9.008845
_cell_length_c 24.834429
_cell_angle_alpha 90.000000
_cell_angle_beta 90.000000
_cell_angle_gamma 90.000000
_cell_volume 3296.263420
_symmetry_space_group_name_H-M "P M M A"
_symmetry_group_IT_number 51
_symmetry_cell_setting 'orthorhombic'
loop_
_space_group_symop_operation_xyz
x,y,z
1/2-x,-y,z
1/2+x,-y,-z
-x,y,-z
-x,-y,-z
1/2+x,y,-z
1/2-x,y,z
x,-y,z
loop_
_atom_site_type_symbol
_atom_site_label
_atom_site_fract_x
_atom_site_fract_y
_atom_site_fract_z
Si Si1 0.478436 0.323200 0.178320
Si Si2 0.355408 0.674549 0.471372
Si Si3 0.647237 0.677180 0.400335
Si Si4 0.144662 0.678518 0.281386
Si Si5 0.606125 0.671337 0.015475
Si Si6 0.537171 0.824087 0.621472
Si Si7 0.144748 0.823684 0.869811
Si Si8 0.148126 0.172629 0.092391
O O1 0.491152 0.500000 0.176532
O O2 0.418794 0.284423 0.230495
O O3 0.574651 0.242015 0.173384
O O4 0.420241 0.270324 0.127000
O O5 0.250000 0.699802 0.455667
O O6 0.375721 0.500000 0.462361
O O7 0.361609 0.702174 0.535189
O O8 0.422328 0.770833 0.435689
O O9 0.750000 0.721612 0.384752
O O10 0.639082 0.500000 0.391787
O O11 0.564340 0.760019 0.372536
O O12 0.250000 0.719992 0.272722
O O13 0.141693 0.500000 0.288476
O O14 0.102813 0.755409 0.333533
O O15 0.636951 0.500000 0.014911
O O16 0.623978 0.743118 0.073406
O O17 0.500000 0.671855 0.000000
O O18 0.649758 0.768429 0.968379
O O19 0.536260 0.000000 0.624760
O O20 0.250000 0.797932 0.855988
O O21 0.130558 0.000000 0.875985
O O22 0.250000 0.185260 0.114923
O O23 0.120720 0.000000 0.093528
#
# Coordination Sequence:
#
# PCOD9406909 Si02
#       8
#     8   8   8   8   8   8   8   8
#     4  11  23  41  65  90 113 144 191 244 294 340
#     4   9  18  34  57  84 116 157 203 246 288 342
#     4   9  19  37  60  84 113 156 206 247 286 340
#     4  10  23  44  67  88 113 149 194 242 289 342
#     4  11  22  36  57  87 119 155 196 240 285 331
#     4  12  24  35  54  87 123 157 193 239 298 356
#     4  11  24  41  62  88 120 158 195 234 287 350
#     4  11  23  37  57  86 119 155 189 226 283 350
#
# _framework density 19.415924
#
# number of rings (size 3 to 8) (size 9 to 14) (size 15 to 20)
#    0.000    1.500    1.250    4.875    0.000    9.750 
#    0.000    1.875    0.000    0.750    0.000    0.000 
#    0.000    0.000    0.000    0.000    0.000    0.000 
#
# Total GULP energy -357751.034465 kJ/mol
# GULP energy per Si atom -5589.859914 kJ/mol
# Density = 1.937173 g / cm^3
# Si number density = 19.415924 Si / 1000 Ang^3
#
#
#
# Elastic Constant Matrix: (Units=GPa)
#
#
# Indices 1 2 3 4 5 6 
#
# 1 139.9717 52.0140 37.6307 0.0000 0.0000 0.0000
# 2 52.0140 49.7416 25.8286 0.0000 0.0000 0.0000
# 3 37.6307 25.8286 36.3231 0.0000 0.0000 0.0000
# 4 0.0000 0.0000 0.0000 -750.0012 0.0000 0.0000
# 5 0.0000 0.0000 0.0000 0.0000 27.1889 0.0000
# 6 0.0000 0.0000 0.0000 0.0000 0.0000 21.2918
#
#
#
# Elastic Compliance Matrix: (Units=1/GPa)
#
#
# Indices 1 2 3 4 5 6 
#
# 1 0.012398 -0.009980 -0.005748 0.000000 0.000000 0.000000
# 2 -0.009980 0.039905 -0.018037 0.000000 0.000000 0.000000
# 3 -0.005748 -0.018037 0.046311 0.000000 0.000000 0.000000
# 4 0.000000 0.000000 0.000000 -0.001333 0.000000 0.000000
# 5 0.000000 0.000000 0.000000 0.000000 0.036780 0.000000
# 6 0.000000 0.000000 0.000000 0.000000 0.000000 0.046967
#
#
# Mechanical properties :
#
#
# Convention : Reuss Voigt Hill
#
# Bulk Modulus (GPa) = 32.16936 50.77588 41.47262
# Shear Modulus (GPa) = 19.31109 -132.93324 -56.81108
#
# Velocity S-wave (km/s) = 3.15715 -8.28340 -5.41512
# Velocity P-wave (km/s) = 5.46760 8.07947 4.20614
#
# Compressibility (1/GPa) = 0.03108548
#
# Stress axis : x y z
#
# Youngs Moduli (GPa) = 80.65682 25.05928 21.59310
#
# Poissons Ratio (x) = 0.25009 0.12412
# Poissons Ratio (y) = 0.80495 0.38947
# Poissons Ratio (z) = 0.46362 0.45199
#
# Static dielectric constant tensor:
#      x y z
#    x 1.713670 0.000000 0.000000 
#    y 0.000000 1.643010 0.000000 
#    z 0.000000 0.000000 1.659040 
# 
# From -- ./inp_files/35690.got.cif
#   From: 2010.05.17/outbox.cif.g08.bks.cpg/sg51_18_cif.got.tgz:35690.got - 2010.06.03 11:52:47.
