data_PCOD9406255
_publ_section_title
;
Structure prediction by ZEFSAII (Michael W. Deem and Ramdas Pophale) SiO2 
 PCOD9406255
Probable space group: P M M A
;
_chemical_formula_sum "Si O2"
_cell_formula_units_Z 30
_cell_length_a 7.547811
_cell_length_b 20.596192
_cell_length_c 8.479507
_cell_angle_alpha 90.000000
_cell_angle_beta 90.000000
_cell_angle_gamma 90.000000
_cell_volume 1318.191635
_symmetry_space_group_name_H-M "P M M A"
_symmetry_group_IT_number 51
_symmetry_cell_setting 'orthorhombic'
loop_
_space_group_symop_operation_xyz
x,y,z
1/2-x,-y,z
1/2+x,-y,-z
-x,y,-z
-x,-y,-z
1/2+x,y,-z
1/2-x,y,z
x,-y,z
loop_
_atom_site_type_symbol
_atom_site_label
_atom_site_fract_x
_atom_site_fract_y
_atom_site_fract_z
Si Si1 0.037891 0.363537 0.316274
Si Si2 0.750000 0.000000 0.804143
Si Si3 0.462345 0.500000 0.184658
Si Si4 0.460773 0.228240 0.182037
Si Si5 0.548578 0.906429 0.317569
O O1 0.250000 0.364973 0.292024
O O2 0.967253 0.433031 0.258235
O O3 0.970103 0.299827 0.226184
O O4 0.000000 0.355747 0.500000
O O5 0.593876 0.056324 0.788281
O O6 0.250000 0.500000 0.209473
O O7 0.500000 0.500000 0.000000
O O8 0.250000 0.227907 0.206997
O O9 0.536867 0.170327 0.286692
O O10 0.500000 0.214533 0.000000
O O11 0.500000 0.920608 0.500000
O O12 0.750000 0.926920 0.286993
#
# Coordination Sequence:
#
# PCOD9406255 Si02
#       5
#     8   2   4   8   8
#     4  10  22  38  62  91 128 166 217 270 321 376
#     4  12  24  44  68 100 136 164 220 262 336 384
#     4  10  21  38  58  92 130 172 215 262 320 384
#     4  11  23  42  63  91 127 170 217 270 326 392
#     4  12  24  41  69  98 131 170 216 270 325 391
#
# _framework density 22.75845
#
# number of rings (size 3 to 8) (size 9 to 14) (size 15 to 20)
#    0.000    1.067    2.667    3.600    0.000    5.333 
#    0.000    0.667    0.000    0.000    0.000    0.000 
#    0.000    0.000    0.000    0.000    0.000    0.000 
#
# Total GULP energy -167403.733990 kJ/mol
# GULP energy per Si atom -5580.124466 kJ/mol
# Density = 2.270665 g / cm^3
# Si number density = 22.758450 Si / 1000 Ang^3
#
#
#
# Elastic Constant Matrix: (Units=GPa)
#
#
# Indices 1 2 3 4 5 6 
#
# 1 153.2043 39.3338 -11.6117 0.0000 0.0000 0.0000
# 2 39.3338 171.7280 7.3263 0.0000 0.0000 0.0000
# 3 -11.6117 7.3263 43.9469 0.0000 0.0000 0.0000
# 4 0.0000 0.0000 0.0000 -45.3837 0.0000 0.0000
# 5 0.0000 0.0000 0.0000 0.0000 25.3101 0.0000
# 6 0.0000 0.0000 0.0000 0.0000 0.0000 270.3964
#
#
#
# Elastic Compliance Matrix: (Units=1/GPa)
#
#
# Indices 1 2 3 4 5 6 
#
# 1 0.007135 -0.001727 0.002173 0.000000 0.000000 0.000000
# 2 -0.001727 0.006283 -0.001504 0.000000 0.000000 0.000000
# 3 0.002173 -0.001504 0.023580 0.000000 0.000000 0.000000
# 4 0.000000 0.000000 0.000000 -0.022034 0.000000 0.000000
# 5 0.000000 0.000000 0.000000 0.000000 0.039510 0.000000
# 6 0.000000 0.000000 0.000000 0.000000 0.000000 0.003698
#
#
# Mechanical properties :
#
#
# Convention : Reuss Voigt Hill
#
# Bulk Modulus (GPa) = 28.66743 48.77510 38.72126
# Shear Modulus (GPa) = 69.52703 72.31994 70.92348
#
# Velocity S-wave (km/s) = 5.53320 5.64324 5.58849
# Velocity P-wave (km/s) = 7.31064 7.99623 7.66111
#
# Compressibility (1/GPa) = 0.03488279
#
# Stress axis : x y z
#
# Youngs Moduli (GPa) = 140.14736 159.16250 42.40944
#
# Poissons Ratio (x) = 0.27488 -0.09217
# Poissons Ratio (y) = 0.24204 0.06377
# Poissons Ratio (z) = -0.30457 0.23934
#
# Static dielectric constant tensor:
#      x y z
#    x 1.824580 0.000000 0.000000 
#    y 0.000000 1.866240 0.000000 
#    z 0.000000 0.000000 1.803870 
# 
# From -- ./inp_files/4876.got.cif
#   From: 2010.05.17/outbox.cif.g08.bks.cpg/sg51_3_cif.got.tgz:4876.got - 2010.06.03 11:52:47.
