data_PCOD9406998
_publ_section_title
;
Structure prediction by ZEFSAII (Michael W. Deem and Ramdas Pophale) SiO2 
 PCOD9406998
Probable space group: P M M A
;
_chemical_formula_sum "Si O2"
_cell_formula_units_Z 40
_cell_length_a 26.811253
_cell_length_b 8.578345
_cell_length_c 9.980260
_cell_angle_alpha 90.000000
_cell_angle_beta 90.000000
_cell_angle_gamma 90.000000
_cell_volume 2295.421657
_symmetry_space_group_name_H-M "P M M A"
_symmetry_group_IT_number 51
_symmetry_cell_setting 'orthorhombic'
loop_
_space_group_symop_operation_xyz
x,y,z
1/2-x,-y,z
1/2+x,-y,-z
-x,y,-z
-x,-y,-z
1/2+x,y,-z
1/2-x,y,z
x,-y,z
loop_
_atom_site_type_symbol
_atom_site_label
_atom_site_fract_x
_atom_site_fract_y
_atom_site_fract_z
Si Si1 0.945809 0.189495 0.842093
Si Si2 0.250000 0.179667 0.338730
Si Si3 0.858391 0.810194 0.645450
Si Si4 0.558886 0.188681 0.151593
Si Si5 0.356117 0.315240 0.655058
Si Si6 0.250000 0.820980 0.664536
O O1 0.903737 0.242542 0.738861
O O2 0.002499 0.236636 0.808610
O O3 0.945652 0.000000 0.839812
O O4 0.934647 0.234020 0.995654
O O5 0.304042 0.247390 0.302572
O O6 0.250000 0.179488 0.501416
O O7 0.250000 0.000000 0.708752
O O8 0.864588 0.757043 0.492500
O O9 0.856850 0.000000 0.645474
O O10 0.600851 0.259023 0.245623
O O11 0.561520 0.000000 0.159023
O O12 0.356099 0.500000 0.643281
O O13 0.301559 0.259600 0.704525
O O14 0.250000 0.000000 0.292122
#
# Coordination Sequence:
#
# PCOD9406998 Si02
#       6
#     8   4   8   8   8   4
#     4   8  16  31  53  73  93 127 175 218 250 286
#     4   7  12  23  44  69  92 114 146 192 244 289
#     4   9  16  30  50  72  95 126 166 209 249 291
#     4   9  17  33  52  71  96 131 171 212 252 293
#     4  11  21  32  48  75 105 132 159 197 247 301
#     4   9  17  33  54  73  94 128 166 202 240 285
#
# _framework density 17.425992000000001
#
# number of rings (size 3 to 8) (size 9 to 14) (size 15 to 20)
#    0.000    3.000    0.000    4.500    0.000    0.800 
#    0.000    9.000    0.000    3.600    0.000    2.800 
#    0.000    0.000    0.000    0.000    0.000    0.000 
#
# Total GULP energy -222794.403553 kJ/mol
# GULP energy per Si atom -5569.860089 kJ/mol
# Density = 1.738633 g / cm^3
# Si number density = 17.425992 Si / 1000 Ang^3
#
#
#
# Elastic Constant Matrix: (Units=GPa)
#
#
# Indices 1 2 3 4 5 6 
#
# 1 204.3257 35.8998 97.8180 0.0000 0.0000 0.0000
# 2 35.8998 35.8056 18.3340 0.0000 0.0000 0.0000
# 3 97.8180 18.3340 68.4341 0.0000 0.0000 0.0000
# 4 0.0000 0.0000 0.0000 -3.5904 0.0000 0.0000
# 5 0.0000 0.0000 0.0000 0.0000 -28.0460 0.0000
# 6 0.0000 0.0000 0.0000 0.0000 0.0000 6.5767
#
#
#
# Elastic Compliance Matrix: (Units=1/GPa)
#
#
# Indices 1 2 3 4 5 6 
#
# 1 0.016269 -0.005105 -0.021887 0.000000 0.000000 0.000000
# 2 -0.005105 0.033971 -0.001804 0.000000 0.000000 0.000000
# 3 -0.021887 -0.001804 0.046381 0.000000 0.000000 0.000000
# 4 0.000000 0.000000 0.000000 -0.278524 0.000000 0.000000
# 5 0.000000 0.000000 0.000000 0.000000 -0.035656 0.000000
# 6 0.000000 0.000000 0.000000 0.000000 0.000000 0.152051
#
#
# Mechanical properties :
#
#
# Convention : Reuss Voigt Hill
#
# Bulk Modulus (GPa) = 25.62239 68.07434 46.84836
# Shear Modulus (GPa) = 981.42717 5.42231 493.42474
#
# Velocity S-wave (km/s) = 23.75752 1.76589 16.84545
# Velocity P-wave (km/s) = 27.70010 6.58084 20.13210
#
# Compressibility (1/GPa) = 0.03902837
#
# Stress axis : x y z
#
# Youngs Moduli (GPa) = 61.46543 29.43712 21.56050
#
# Poissons Ratio (x) = 0.15027 0.47190
# Poissons Ratio (y) = 0.31377 0.03890
# Poissons Ratio (z) = 1.34531 0.05311
#
# Static dielectric constant tensor:
#      x y z
#    x 1.618690 0.000000 0.000000 
#    y 0.000000 1.582610 0.000000 
#    z 0.000000 0.000000 1.562180 
# 
# From -- ./inp_files/12185.got.cif
#   From: 2010.05.17/outbox.cif.g08.bks.cpg/sg51_7_cif.got.tgz:12185.got - 2010.06.03 11:52:47.
