data_PCOD9406681
_publ_section_title
;
Structure prediction by ZEFSAII (Michael W. Deem and Ramdas Pophale) SiO2 
 PCOD9406681
Probable space group: P M M A
;
_chemical_formula_sum "Si O2"
_cell_formula_units_Z 28
_cell_length_a 27.911335
_cell_length_b 8.068398
_cell_length_c 5.300548
_cell_angle_alpha 90.000000
_cell_angle_beta 90.000000
_cell_angle_gamma 90.000000
_cell_volume 1193.682135
_symmetry_space_group_name_H-M "P M M A"
_symmetry_group_IT_number 51
_symmetry_cell_setting 'orthorhombic'
loop_
_space_group_symop_operation_xyz
x,y,z
1/2-x,-y,z
1/2+x,-y,-z
-x,y,-z
-x,-y,-z
1/2+x,y,-z
1/2-x,y,z
x,-y,z
loop_
_atom_site_type_symbol
_atom_site_label
_atom_site_fract_x
_atom_site_fract_y
_atom_site_fract_z
Si Si1 0.359419 0.800264 0.197826
Si Si2 0.194878 0.797064 0.702671
Si Si3 0.556827 0.817599 0.457739
Si Si4 0.532782 0.500000 0.243441
O O1 0.336908 0.738320 0.938641
O O2 0.413978 0.771771 0.290356
O O3 0.355367 0.000000 0.183785
O O4 0.327861 0.743802 0.437427
O O5 0.250000 0.745604 0.728702
O O6 0.194649 0.000000 0.701177
O O7 0.500000 0.832800 0.500000
O O8 0.562610 0.668123 0.264950
O O9 0.574117 0.000000 0.370420
O O10 0.500000 0.500000 0.500000
O O11 0.500000 0.500000 0.000000
#
# Coordination Sequence:
#
# PCOD9406681 Si02
#       4
#     8   8   8   4
#     4   9  17  28  45  71 100 134 175 214 264 324
#     4   9  16  27  44  69 101 133 171 221 267 314
#     4   9  19  36  57  82 114 148 183 228 276 326
#     4  10  22  38  56  80 109 146 189 224 266 324
#
# _framework density 23.456828000000002
#
# number of rings (size 3 to 8) (size 9 to 14) (size 15 to 20)
#    0.000    2.857    0.000    0.857    0.000    8.571 
#    0.000    8.571    0.000    0.000    0.000    6.000 
#    0.000    0.000    0.000    0.000    0.000    0.000 
#
# Total GULP energy -156307.280990 kJ/mol
# GULP energy per Si atom -5582.402893 kJ/mol
# Density = 2.340344 g / cm^3
# Si number density = 23.456828 Si / 1000 Ang^3
#
#
#
# Elastic Constant Matrix: (Units=GPa)
#
#
# Indices 1 2 3 4 5 6 
#
# 1 167.5211 -11.1861 56.0716 0.0000 0.0000 0.0000
# 2 -11.1861 91.0703 10.2820 0.0000 0.0000 0.0000
# 3 56.0716 10.2820 147.8849 0.0000 0.0000 0.0000
# 4 0.0000 0.0000 0.0000 -6.1778 0.0000 0.0000
# 5 0.0000 0.0000 0.0000 0.0000 40.4509 0.0000
# 6 0.0000 0.0000 0.0000 0.0000 0.0000 -13.4906
#
#
#
# Elastic Compliance Matrix: (Units=1/GPa)
#
#
# Indices 1 2 3 4 5 6 
#
# 1 0.006957 0.001161 -0.002718 0.000000 0.000000 0.000000
# 2 0.001161 0.011261 -0.001223 0.000000 0.000000 0.000000
# 3 -0.002718 -0.001223 0.007878 0.000000 0.000000 0.000000
# 4 0.000000 0.000000 0.000000 -0.161870 0.000000 0.000000
# 5 0.000000 0.000000 0.000000 0.000000 0.024721 0.000000
# 6 0.000000 0.000000 0.000000 0.000000 0.000000 -0.074126
#
#
# Mechanical properties :
#
#
# Convention : Reuss Voigt Hill
#
# Bulk Modulus (GPa) = 48.69690 57.42348 53.06019
# Shear Modulus (GPa) = -28.93974 27.57710 -0.68132
#
# Velocity S-wave (km/s) = -3.51628 3.43250 -0.53953
# Velocity P-wave (km/s) = 2.07838 6.34374 4.72031
#
# Compressibility (1/GPa) = 0.02053519
#
# Stress axis : x y z
#
# Youngs Moduli (GPa) = 143.74278 88.79967 126.93889
#
# Poissons Ratio (x) = -0.10314 0.34508
# Poissons Ratio (y) = -0.16695 0.15529
# Poissons Ratio (z) = 0.39076 0.10863
#
# Static dielectric constant tensor:
#      x y z
#    x 1.972260 0.000000 0.000000 
#    y 0.000000 2.093520 0.000000 
#    z 0.000000 0.000000 1.912030 
# 
# From -- ./inp_files/3294.got.cif
#   From: 2010.05.17/outbox.cif.g08.bks.cpg/sg51_2_cif.got.tgz:3294.got - 2010.06.03 11:52:47.
