data_PCOD9406862
_publ_section_title
;
Structure prediction by ZEFSAII (Michael W. Deem and Ramdas Pophale) SiO2 
 PCOD9406862
Probable space group: P M M A
;
_chemical_formula_sum "Si O2"
_cell_formula_units_Z 38
_cell_length_a 26.328852
_cell_length_b 10.881256
_cell_length_c 5.177017
_cell_angle_alpha 90.000000
_cell_angle_beta 90.000000
_cell_angle_gamma 90.000000
_cell_volume 1483.168668
_symmetry_space_group_name_H-M "P M M A"
_symmetry_group_IT_number 51
_symmetry_cell_setting 'orthorhombic'
loop_
_space_group_symop_operation_xyz
x,y,z
1/2-x,-y,z
1/2+x,-y,-z
-x,y,-z
-x,-y,-z
1/2+x,y,-z
1/2-x,y,z
x,-y,z
loop_
_atom_site_type_symbol
_atom_site_label
_atom_site_fract_x
_atom_site_fract_y
_atom_site_fract_z
Si Si1 0.097267 0.758719 0.686090
Si Si2 0.250000 0.854905 0.516937
Si Si3 0.831831 0.500000 0.841860
Si Si4 0.250000 0.313039 0.929795
Si Si5 0.532657 0.000000 0.249073
Si Si6 0.059847 0.500000 0.901042
Si Si7 0.250000 0.500000 0.523742
Si Si8 0.350957 0.149690 0.184807
O O1 0.072160 0.626321 0.744252
O O2 0.111771 0.779879 0.386518
O O3 0.061613 0.872541 0.748639
O O4 0.140847 0.794066 0.898448
O O5 0.250000 0.823744 0.825603
O O6 0.201726 0.826437 0.334376
O O7 0.250000 0.000000 0.528736
O O8 0.797738 0.612707 0.952788
O O9 0.891332 0.500000 0.897457
O O10 0.811103 0.500000 0.553147
O O11 0.250000 0.364714 0.635578
O O12 0.500000 0.000000 0.500000
O O13 0.500000 0.000000 0.000000
O O14 0.000000 0.500000 0.000000
O O15 0.359641 0.000000 0.179461
#
# Coordination Sequence:
#
# PCOD9406862 Si02
#       8
#     8   4   4   4   4   4   2   8
#     4  12  26  49  78 107 153 196 261 316 387 457
#     4  10  23  37  67 108 153 187 240 305 389 445
#     4   9  20  41  68  96 134 189 243 297 359 456
#     4   9  18  39  68 100 132 185 245 295 360 446
#     4  12  24  46  80 105 130 185 258 316 366 444
#     4  12  29  49  71 110 159 205 248 325 407 463
#     4   8  18  32  68  96 118 170 238 282 342 412
#     4  11  23  47  76 113 150 205 254 319 379 467
#
# _framework density 25.620822
#
# number of rings (size 3 to 8) (size 9 to 14) (size 15 to 20)
#    0.000    1.474    2.105    3.158    2.947    1.684 
#    0.000    4.737    0.000    0.000    0.000    0.000 
#    0.000    0.000    0.000    0.000    0.000    0.000 
#
# Total GULP energy -211765.306472 kJ/mol
# GULP energy per Si atom -5572.771223 kJ/mol
# Density = 2.556251 g / cm^3
# Si number density = 25.620822 Si / 1000 Ang^3
#
#
#
# Elastic Constant Matrix: (Units=GPa)
#
#
# Indices 1 2 3 4 5 6 
#
# 1 120.8262 28.8751 -10.7556 0.0000 0.0000 0.0000
# 2 28.8751 179.3805 1.1475 0.0000 0.0000 0.0000
# 3 -10.7556 1.1475 69.4147 0.0000 0.0000 0.0000
# 4 0.0000 0.0000 0.0000 55.0785 0.0000 0.0000
# 5 0.0000 0.0000 0.0000 0.0000 14.3675 0.0000
# 6 0.0000 0.0000 0.0000 0.0000 0.0000 43.6977
#
#
#
# Elastic Compliance Matrix: (Units=1/GPa)
#
#
# Indices 1 2 3 4 5 6 
#
# 1 0.008737 -0.001415 0.001377 0.000000 0.000000 0.000000
# 2 -0.001415 0.005805 -0.000315 0.000000 0.000000 0.000000
# 3 0.001377 -0.000315 0.014625 0.000000 0.000000 0.000000
# 4 0.000000 0.000000 0.000000 0.018156 0.000000 0.000000
# 5 0.000000 0.000000 0.000000 0.000000 0.069602 0.000000
# 6 0.000000 0.000000 0.000000 0.000000 0.000000 0.022885
#
#
# Mechanical properties :
#
#
# Convention : Reuss Voigt Hill
#
# Bulk Modulus (GPa) = 35.13714 45.35061 40.24387
# Shear Modulus (GPa) = 33.33294 45.98569 39.65931
#
# Velocity S-wave (km/s) = 3.61086 4.24117 3.93865
# Velocity P-wave (km/s) = 5.57929 6.45929 6.03535
#
# Compressibility (1/GPa) = 0.02845992
#
# Stress axis : x y z
#
# Youngs Moduli (GPa) = 114.45366 172.27796 68.37713
#
# Poissons Ratio (x) = 0.24382 -0.09417
# Poissons Ratio (y) = 0.16198 0.02156
# Poissons Ratio (z) = -0.15762 0.05431
#
# Static dielectric constant tensor:
#      x y z
#    x 1.938920 0.000000 0.000000 
#    y 0.000000 1.195260 0.000000 
#    z 0.000000 0.000000 2.350260 
# 
# From -- ./inp_files/3432.got.cif
#   From: 2010.05.17/outbox.cif.g08.bks.cpg/sg51_2_cif.got.tgz:3432.got - 2010.06.03 11:52:47.
