data_PCOD9406557
_publ_section_title
;
Structure prediction by ZEFSAII (Michael W. Deem and Ramdas Pophale) SiO2 
 PCOD9406557
Probable space group: P M M A
;
_chemical_formula_sum "Si O2"
_cell_formula_units_Z 38
_cell_length_a 8.027683
_cell_length_b 12.739809
_cell_length_c 16.840480
_cell_angle_alpha 90.000000
_cell_angle_beta 90.000000
_cell_angle_gamma 90.000000
_cell_volume 1722.295225
_symmetry_space_group_name_H-M "P M M A"
_symmetry_group_IT_number 51
_symmetry_cell_setting 'orthorhombic'
loop_
_space_group_symop_operation_xyz
x,y,z
1/2-x,-y,z
1/2+x,-y,-z
-x,y,-z
-x,-y,-z
1/2+x,y,-z
1/2-x,y,z
x,-y,z
loop_
_atom_site_type_symbol
_atom_site_label
_atom_site_fract_x
_atom_site_fract_y
_atom_site_fract_z
Si Si1 0.449480 0.500000 0.909598
Si Si2 0.548647 0.879556 0.909620
Si Si3 0.444924 0.311038 0.196367
Si Si4 0.000000 0.500000 0.500000
Si Si5 0.939010 0.341404 0.367724
Si Si6 0.949447 0.113594 0.592086
O O1 0.250000 0.500000 0.899092
O O2 0.528102 0.397650 0.870111
O O3 0.500000 0.500000 0.000000
O O4 0.750000 0.878690 0.906564
O O5 0.489903 0.797936 0.842154
O O6 0.491719 0.000000 0.897151
O O7 0.500000 0.848749 0.000000
O O8 0.250000 0.295847 0.215227
O O9 0.526444 0.358458 0.275450
O O10 0.960899 0.408049 0.567719
O O11 0.750000 0.371775 0.387800
O O12 0.967106 0.217223 0.374990
O O13 0.750000 0.123723 0.598996
O O14 0.000000 0.110753 0.500000
O O15 0.997622 0.000000 0.627331
#
# Coordination Sequence:
#
# PCOD9406557 Si02
#       6
#     4   8   8   2   8   8
#     4  12  25  43  66  92 126 167 216 267 322 383
#     4   9  19  37  63  96 133 173 213 255 307 371
#     4  11  24  42  65  95 132 170 213 265 323 386
#     4  12  28  46  66  88 120 164 214 272 334 400
#     4  12  26  43  67  96 129 167 214 270 329 393
#     4  10  21  39  64  93 125 161 206 259 315 378
#
# _framework density 22.063582
#
# number of rings (size 3 to 8) (size 9 to 14) (size 15 to 20)
#    0.000    1.263    1.053    4.421    0.000    8.000 
#    0.000    2.105    0.000    0.000    0.000    0.000 
#    0.000    0.000    0.000    0.000    0.000    0.000 
#
# Total GULP energy -211814.725466 kJ/mol
# GULP energy per Si atom -5574.071723 kJ/mol
# Density = 2.201336 g / cm^3
# Si number density = 22.063582 Si / 1000 Ang^3
#
#
#
# Elastic Constant Matrix: (Units=GPa)
#
#
# Indices 1 2 3 4 5 6 
#
# 1 38.3133 -4.8715 -13.6917 0.0000 0.0000 0.0000
# 2 -4.8715 126.8251 46.6344 0.0000 0.0000 0.0000
# 3 -13.6917 46.6344 126.7320 0.0000 0.0000 0.0000
# 4 0.0000 0.0000 0.0000 -110.8072 0.0000 0.0000
# 5 0.0000 0.0000 0.0000 0.0000 22.8524 0.0000
# 6 0.0000 0.0000 0.0000 0.0000 0.0000 -1.3544
#
#
#
# Elastic Compliance Matrix: (Units=1/GPa)
#
#
# Indices 1 2 3 4 5 6 
#
# 1 0.027149 -0.000041 0.002948 0.000000 0.000000 0.000000
# 2 -0.000041 0.009119 -0.003360 0.000000 0.000000 0.000000
# 3 0.002948 -0.003360 0.009446 0.000000 0.000000 0.000000
# 4 0.000000 0.000000 0.000000 -0.009025 0.000000 0.000000
# 5 0.000000 0.000000 0.000000 0.000000 0.043759 0.000000
# 6 0.000000 0.000000 0.000000 0.000000 0.000000 -0.738361
#
#
# Mechanical properties :
#
#
# Convention : Reuss Voigt Hill
#
# Bulk Modulus (GPa) = 22.31775 38.66809 30.49292
# Shear Modulus (GPa) = -7.78729 -0.27522 -4.03126
#
# Velocity S-wave (km/s) = -1.88073 -0.35357 -1.35317
# Velocity P-wave (km/s) = 2.32830 4.17099 3.37773
#
# Compressibility (1/GPa) = 0.04480738
#
# Stress axis : x y z
#
# Youngs Moduli (GPa) = 36.83383 109.66393 105.86968
#
# Poissons Ratio (x) = 0.00453 -0.31213
# Poissons Ratio (y) = 0.00152 0.35572
# Poissons Ratio (z) = -0.10860 0.36847
#
# Static dielectric constant tensor:
#      x y z
#    x 1.788140 0.000000 0.000000 
#    y 0.000000 1.787150 0.000000 
#    z 0.000000 0.000000 1.778300 
# 
# From -- ./inp_files/27075.got.cif
#   From: 2010.05.17/outbox.cif.g08.bks.cpg/sg51_14_cif.got.tgz:27075.got - 2010.06.03 11:52:47.
