data_PCOD9406374
_publ_section_title
;
Structure prediction by ZEFSAII (Michael W. Deem and Ramdas Pophale) SiO2 
 PCOD9406374
Probable space group: P M M A
;
_chemical_formula_sum "Si O2"
_cell_formula_units_Z 48
_cell_length_a 9.372013
_cell_length_b 8.223473
_cell_length_c 32.334407
_cell_angle_alpha 90.000000
_cell_angle_beta 90.000000
_cell_angle_gamma 90.000000
_cell_volume 2492.028781
_symmetry_space_group_name_H-M "P M M A"
_symmetry_group_IT_number 51
_symmetry_cell_setting 'orthorhombic'
loop_
_space_group_symop_operation_xyz
x,y,z
1/2-x,-y,z
1/2+x,-y,-z
-x,y,-z
-x,-y,-z
1/2+x,y,-z
1/2-x,y,z
x,-y,z
loop_
_atom_site_type_symbol
_atom_site_label
_atom_site_fract_x
_atom_site_fract_y
_atom_site_fract_z
Si Si1 0.915441 0.697077 0.700467
Si Si2 0.587070 0.194470 0.879654
Si Si3 0.423136 0.310478 0.209098
Si Si4 0.086801 0.194531 0.620371
Si Si5 0.086641 0.696284 0.459822
Si Si6 0.586254 0.800864 0.040733
O O1 0.750000 0.748583 0.694277
O O2 0.914605 0.500000 0.701768
O O3 0.967564 0.754684 0.745869
O O4 0.012437 0.752913 0.662924
O O5 0.750000 0.258294 0.882800
O O6 0.530081 0.230664 0.833698
O O7 0.491097 0.255123 0.917347
O O8 0.594850 0.000000 0.883716
O O9 0.250000 0.299408 0.209982
O O10 0.461524 0.500000 0.206895
O O11 0.250000 0.255013 0.618002
O O12 0.995147 0.256854 0.581776
O O13 0.089072 0.000000 0.618725
O O14 0.250000 0.755617 0.459800
O O15 0.091089 0.500000 0.461808
O O16 0.000000 0.755129 0.500000
O O17 0.750000 0.748434 0.038953
O O18 0.585940 0.000000 0.041034
O O19 0.500000 0.750341 0.000000
#
# Coordination Sequence:
#
# PCOD9406374 Si02
#       6
#     8   8   8   8   8   8
#     4   9  18  34  56  79 101 130 172 216 255 300
#     4   9  16  26  43  68  94 120 153 192 234 282
#     4   8  15  29  49  72  97 125 158 197 241 290
#     4  11  24  38  52  76 110 144 176 212 257 305
#     4  10  21  38  61  86 109 137 175 215 255 302
#     4   9  16  26  41  62  89 120 153 191 235 281
#
# _framework density 19.261413999999998
#
# number of rings (size 3 to 8) (size 9 to 14) (size 15 to 20)
#    0.000    2.667    0.000    3.000    0.000    7.667 
#    0.000    2.500    0.000    4.000    0.000    0.000 
#    0.000    0.000    0.000    0.000    0.000    0.000 
#
# Total GULP energy -267707.435528 kJ/mol
# GULP energy per Si atom -5577.238240 kJ/mol
# Density = 1.921757 g / cm^3
# Si number density = 19.261414 Si / 1000 Ang^3
#
#
#
# Elastic Constant Matrix: (Units=GPa)
#
#
# Indices 1 2 3 4 5 6 
#
# 1 140.2466 13.5054 113.5193 0.0000 0.0000 0.0000
# 2 13.5054 4.8255 12.2953 0.0000 0.0000 0.0000
# 3 113.5193 12.2953 219.0453 0.0000 0.0000 0.0000
# 4 0.0000 0.0000 0.0000 25.3097 0.0000 0.0000
# 5 0.0000 0.0000 0.0000 0.0000 34.3212 0.0000
# 6 0.0000 0.0000 0.0000 0.0000 0.0000 14.4629
#
#
#
# Elastic Compliance Matrix: (Units=1/GPa)
#
#
# Indices 1 2 3 4 5 6 
#
# 1 0.014470 -0.024959 -0.006098 0.000000 0.000000 0.000000
# 2 -0.024959 0.284869 -0.003055 0.000000 0.000000 0.000000
# 3 -0.006098 -0.003055 0.007897 0.000000 0.000000 0.000000
# 4 0.000000 0.000000 0.000000 0.039511 0.000000 0.000000
# 5 0.000000 0.000000 0.000000 0.000000 0.029137 0.000000
# 6 0.000000 0.000000 0.000000 0.000000 0.000000 0.069143
#
#
# Mechanical properties :
#
#
# Convention : Reuss Voigt Hill
#
# Bulk Modulus (GPa) = 4.18390 71.41746 37.80068
# Shear Modulus (GPa) = 8.43284 29.80524 19.11904
#
# Velocity S-wave (km/s) = 2.09466 3.93798 3.15399
# Velocity P-wave (km/s) = 2.83320 7.60496 5.73857
#
# Compressibility (1/GPa) = 0.23901136
#
# Stress axis : x y z
#
# Youngs Moduli (GPa) = 69.11085 3.51038 126.63223
#
# Poissons Ratio (x) = 0.08762 0.77217
# Poissons Ratio (y) = 1.72496 0.38686
# Poissons Ratio (z) = 0.42142 0.01072
#
# Static dielectric constant tensor:
#      x y z
#    x 1.661830 0.000000 0.000000 
#    y 0.000000 1.682600 0.000000 
#    z 0.000000 0.000000 1.667400 
# 
# From -- ./inp_files/36927.got.cif
#   From: 2010.05.17/outbox.cif.g08.bks.cpg/sg51_19_cif.got.tgz:36927.got - 2010.06.03 11:52:47.
