data_PCOD9406065
_publ_section_title
;
Structure prediction by ZEFSAII (Michael W. Deem and Ramdas Pophale) SiO2 
 PCOD9406065
Probable space group: P M M A
;
_chemical_formula_sum "Si O2"
_cell_formula_units_Z 56
_cell_length_a 8.827633
_cell_length_b 14.656827
_cell_length_c 23.853217
_cell_angle_alpha 90.000000
_cell_angle_beta 90.000000
_cell_angle_gamma 90.000000
_cell_volume 3086.250621
_symmetry_space_group_name_H-M "P M M A"
_symmetry_group_IT_number 51
_symmetry_cell_setting 'orthorhombic'
loop_
_space_group_symop_operation_xyz
x,y,z
1/2-x,-y,z
1/2+x,-y,-z
-x,y,-z
-x,-y,-z
1/2+x,y,-z
1/2-x,y,z
x,-y,z
loop_
_atom_site_type_symbol
_atom_site_label
_atom_site_fract_x
_atom_site_fract_y
_atom_site_fract_z
Si Si1 0.068534 0.605442 0.938402
Si Si2 0.931856 0.274330 0.840064
Si Si3 0.430901 0.106812 0.784320
Si Si4 0.430677 0.606413 0.267547
Si Si5 0.573946 0.109584 0.663704
Si Si6 0.931476 0.787853 0.441429
Si Si7 0.067693 0.397089 0.611705
O O1 0.250000 0.613879 0.940293
O O2 0.031471 0.500000 0.922754
O O3 0.999584 0.674520 0.893532
O O4 0.000000 0.621311 0.000000
O O5 0.750000 0.273452 0.843357
O O6 0.977159 0.331934 0.784612
O O7 0.995367 0.173420 0.829665
O O8 0.250000 0.117244 0.783889
O O9 0.496564 0.131974 0.723033
O O10 0.466711 0.000000 0.793901
O O11 0.250000 0.616420 0.275412
O O12 0.461873 0.500000 0.254820
O O13 0.511154 0.628021 0.326058
O O14 0.750000 0.137628 0.665456
O O15 0.491792 0.155569 0.611415
O O16 0.567208 0.000000 0.657562
O O17 0.750000 0.792592 0.443372
O O18 0.979732 0.682745 0.430163
O O19 0.000000 0.820370 0.500000
O O20 0.250000 0.398914 0.612337
O O21 0.012935 0.500000 0.598818
#
# Coordination Sequence:
#
# PCOD9406065 Si02
#       7
#     8   8   8   8   8   8   8
#     4  10  21  37  57  82 115 155 196 235 274 319
#     4  11  21  33  54  82 113 148 186 229 273 321
#     4  10  21  37  57  82 112 144 179 222 272 326
#     4   9  18  31  48  74 106 137 169 208 258 314
#     4  10  21  38  59  81 106 136 170 212 266 326
#     4  11  23  37  54  75 100 132 171 216 263 315
#     4   9  19  35  52  71  98 132 169 210 257 309
#
# _framework density 18.144994000000001
#
# number of rings (size 3 to 8) (size 9 to 14) (size 15 to 20)
#    0.000    2.000    0.000    3.429    0.000    8.286 
#    0.000    1.429    0.000    0.429    0.000    0.000 
#    0.000    0.000    0.000    0.000    0.000    0.000 
#
# Total GULP energy -312825.044137 kJ/mol
# GULP energy per Si atom -5586.161502 kJ/mol
# Density = 1.810370 g / cm^3
# Si number density = 18.144994 Si / 1000 Ang^3
#
#
#
# Elastic Constant Matrix: (Units=GPa)
#
#
# Indices 1 2 3 4 5 6 
#
# 1 60.0931 46.6920 43.3633 0.0000 0.0000 0.0000
# 2 46.6920 81.8618 70.5123 0.0000 0.0000 0.0000
# 3 43.3633 70.5123 100.1709 0.0000 0.0000 0.0000
# 4 0.0000 0.0000 0.0000 24.0490 0.0000 0.0000
# 5 0.0000 0.0000 0.0000 0.0000 32.2879 0.0000
# 6 0.0000 0.0000 0.0000 0.0000 0.0000 24.6631
#
#
#
# Elastic Compliance Matrix: (Units=1/GPa)
#
#
# Indices 1 2 3 4 5 6 
#
# 1 0.030111 -0.015106 -0.002401 0.000000 0.000000 0.000000
# 2 -0.015106 0.038609 -0.020638 0.000000 0.000000 0.000000
# 3 -0.002401 -0.020638 0.025550 0.000000 0.000000 0.000000
# 4 0.000000 0.000000 0.000000 0.041582 0.000000 0.000000
# 5 0.000000 0.000000 0.000000 0.000000 0.030971 0.000000
# 6 0.000000 0.000000 0.000000 0.000000 0.000000 0.040546
#
#
# Mechanical properties :
#
#
# Convention : Reuss Voigt Hill
#
# Bulk Modulus (GPa) = 55.62174 62.58457 59.10315
# Shear Modulus (GPa) = 17.26200 21.63720 19.44960
#
# Velocity S-wave (km/s) = 3.08772 3.45695 3.27754
# Velocity P-wave (km/s) = 6.59034 7.10635 6.85321
#
# Compressibility (1/GPa) = 0.01797858
#
# Stress axis : x y z
#
# Youngs Moduli (GPa) = 33.21028 25.90087 39.13901
#
# Poissons Ratio (x) = 0.39127 0.09398
# Poissons Ratio (y) = 0.50169 0.80775
# Poissons Ratio (z) = 0.07975 0.53454
#
# Static dielectric constant tensor:
#      x y z
#    x 1.604180 0.000000 0.000000 
#    y 0.000000 1.650300 0.000000 
#    z 0.000000 0.000000 1.578430 
# 
# From -- ./inp_files/31883.got.cif
#   From: 2010.05.17/outbox.cif.g08.bks.cpg/sg51_16_cif.got.tgz:31883.got - 2010.06.03 11:52:47.
