data_PCOD9406965
_publ_section_title
;
Structure prediction by ZEFSAII (Michael W. Deem and Ramdas Pophale) SiO2 
 PCOD9406965
Probable space group: P M M A
;
_chemical_formula_sum "Si O2"
_cell_formula_units_Z 64
_cell_length_a 29.625540
_cell_length_b 14.465998
_cell_length_c 9.173156
_cell_angle_alpha 90.000000
_cell_angle_beta 90.000000
_cell_angle_gamma 90.000000
_cell_volume 3931.275277
_symmetry_space_group_name_H-M "P M M A"
_symmetry_group_IT_number 51
_symmetry_cell_setting 'orthorhombic'
loop_
_space_group_symop_operation_xyz
x,y,z
1/2-x,-y,z
1/2+x,-y,-z
-x,y,-z
-x,-y,-z
1/2+x,y,-z
1/2-x,y,z
x,-y,z
loop_
_atom_site_type_symbol
_atom_site_label
_atom_site_fract_x
_atom_site_fract_y
_atom_site_fract_z
Si Si1 0.933036 0.108258 0.256121
Si Si2 0.432849 0.608243 0.744140
Si Si3 0.870310 0.750115 0.418811
Si Si4 0.864702 0.608395 0.992401
Si Si5 0.993176 0.250245 0.674728
Si Si6 0.696471 0.249744 0.158660
Si Si7 0.887589 0.749845 0.745737
Si Si8 0.864992 0.108404 0.992370
O O1 0.900609 0.161765 0.370054
O O2 0.980396 0.161255 0.262732
O O3 0.937064 0.000000 0.287898
O O4 0.907998 0.119848 0.100802
O O5 0.436837 0.500000 0.712213
O O6 0.400508 0.661898 0.630145
O O7 0.480249 0.661097 0.737742
O O8 0.407763 0.619784 0.899373
O O9 0.825994 0.750223 0.318817
O O10 0.863130 0.750049 0.590198
O O11 0.856113 0.500000 0.974574
O O12 0.874721 0.661408 0.843170
O O13 0.824118 0.661783 0.073720
O O14 0.940924 0.250383 0.713236
O O15 0.000000 0.250388 0.500000
O O16 0.750000 0.249555 0.161507
O O17 0.675694 0.161490 0.073659
O O18 0.874966 0.838369 0.843311
O O19 0.856506 0.000000 0.974241
#
# Coordination Sequence:
#
# PCOD9406965 Si02
#       8
#     8   8   8   8   8   8   8   8
#     4   9  18  34  51  69 100 143 186 219 249 293
#     4   9  18  34  51  69 100 143 186 219 249 293
#     4   9  18  34  50  77 108 133 167 211 258 310
#     4   9  20  36  54  77 105 138 172 211 263 312
#     4  11  20  32  46  76 106 140 186 224 252 293
#     4   9  18  36  63  81  96 128 169 210 253 313
#     4  11  20  33  50  75 111 141 172 215 265 302
#     4   9  20  36  54  77 105 138 172 211 263 312
#
# _framework density 16.279703999999999
#
# number of rings (size 3 to 8) (size 9 to 14) (size 15 to 20)
#    0.000    2.500    2.500    2.250    0.000    5.000 
#    0.000    5.000    0.000    0.000    0.000    0.000 
#    0.000    0.000    0.000    0.000    0.000    0.000 
#
# Total GULP energy -356861.256586 kJ/mol
# GULP energy per Si atom -5575.957134 kJ/mol
# Density = 1.624265 g / cm^3
# Si number density = 16.279704 Si / 1000 Ang^3
#
#
#
# Elastic Constant Matrix: (Units=GPa)
#
#
# Indices 1 2 3 4 5 6 
#
# 1 125.9796 48.3758 52.1297 0.0000 0.0000 0.0000
# 2 48.3758 145.9389 69.7875 0.0000 0.0000 0.0000
# 3 52.1297 69.7875 135.9013 0.0000 0.0000 0.0000
# 4 0.0000 0.0000 0.0000 3.4613 0.0000 0.0000
# 5 0.0000 0.0000 0.0000 0.0000 11.4694 0.0000
# 6 0.0000 0.0000 0.0000 0.0000 0.0000 3.4389
#
#
#
# Elastic Compliance Matrix: (Units=1/GPa)
#
#
# Indices 1 2 3 4 5 6 
#
# 1 0.009829 -0.001929 -0.002780 0.000000 0.000000 0.000000
# 2 -0.001929 0.009461 -0.004119 0.000000 0.000000 0.000000
# 3 -0.002780 -0.004119 0.010539 0.000000 0.000000 0.000000
# 4 0.000000 0.000000 0.000000 0.288910 0.000000 0.000000
# 5 0.000000 0.000000 0.000000 0.000000 0.087189 0.000000
# 6 0.000000 0.000000 0.000000 0.000000 0.000000 0.290789
#
#
# Mechanical properties :
#
#
# Convention : Reuss Voigt Hill
#
# Bulk Modulus (GPa) = 82.13442 83.15622 82.64532
# Shear Modulus (GPa) = 6.95962 19.50903 13.23433
#
# Velocity S-wave (km/s) = 2.06986 3.46550 2.85429
# Velocity P-wave (km/s) = 7.50160 8.19777 7.85740
#
# Compressibility (1/GPa) = 0.01217516
#
# Stress axis : x y z
#
# Youngs Moduli (GPa) = 101.74337 105.69710 94.88165
#
# Poissons Ratio (x) = 0.20387 0.26374
# Poissons Ratio (y) = 0.19624 0.39077
# Poissons Ratio (z) = 0.28281 0.43532
#
# Static dielectric constant tensor:
#      x y z
#    x 1.519940 0.000000 0.000000 
#    y 0.000000 1.543100 0.000000 
#    z 0.000000 0.000000 1.547800 
# 
# From -- ./inp_files/13238.got.cif
#   From: 2010.05.17/outbox.cif.g08.bks.cpg/sg51_7_cif.got.tgz:13238.got - 2010.06.03 11:52:47.
