data_PCOD9406212
_publ_section_title
;
Structure prediction by ZEFSAII (Michael W. Deem and Ramdas Pophale) SiO2 
 PCOD9406212
Probable space group: P M M A
;
_chemical_formula_sum "Si O2"
_cell_formula_units_Z 64
_cell_length_a 7.734670
_cell_length_b 25.481991
_cell_length_c 14.348844
_cell_angle_alpha 90.000000
_cell_angle_beta 90.000000
_cell_angle_gamma 90.000000
_cell_volume 2828.082414
_symmetry_space_group_name_H-M "P M M A"
_symmetry_group_IT_number 51
_symmetry_cell_setting 'orthorhombic'
loop_
_space_group_symop_operation_xyz
x,y,z
1/2-x,-y,z
1/2+x,-y,-z
-x,y,-z
-x,-y,-z
1/2+x,y,-z
1/2-x,y,z
x,-y,z
loop_
_atom_site_type_symbol
_atom_site_label
_atom_site_fract_x
_atom_site_fract_y
_atom_site_fract_z
Si Si1 0.053443 0.669812 0.108045
Si Si2 0.455643 0.939835 0.400032
Si Si3 0.958138 0.442814 0.389785
Si Si4 0.958857 0.327074 0.391045
Si Si5 0.456675 0.443596 0.890053
Si Si6 0.954584 0.059289 0.195667
Si Si7 0.541182 0.838318 0.104631
Si Si8 0.944373 0.246547 0.245474
O O1 0.250000 0.687687 0.116298
O O2 0.037280 0.610186 0.143581
O O3 0.936816 0.707896 0.167738
O O4 0.000000 0.670291 0.000000
O O5 0.500000 0.914781 0.500000
O O6 0.250000 0.941595 0.393676
O O7 0.522260 0.919283 0.301337
O O8 0.525556 0.000000 0.403803
O O9 0.750000 0.442942 0.376644
O O10 0.021925 0.500000 0.355151
O O11 0.021067 0.385142 0.358419
O O12 0.000000 0.442778 0.500000
O O13 0.750000 0.327231 0.379992
O O14 0.027287 0.277693 0.331896
O O15 0.000000 0.321763 0.500000
O O16 0.250000 0.439981 0.878619
O O17 0.514449 0.500000 0.852274
O O18 0.500000 0.444937 0.000000
O O19 0.750000 0.054994 0.179498
O O20 0.023220 0.102618 0.124369
O O21 0.028308 0.000000 0.190253
O O22 0.750000 0.837576 0.111584
O O23 0.474014 0.801292 0.188031
O O24 0.500000 0.820446 0.000000
O O25 0.750000 0.230303 0.273734
#
# Coordination Sequence:
#
# PCOD9406212 Si02
#       8
#     8   8   8   8   8   8   8   8
#     4  11  21  33  52  76 102 134 174 220 267 315
#     4   9  16  27  47  77 112 150 188 223 260 305
#     4   8  13  23  42  69  98 128 163 202 248 302
#     4   9  18  33  54  77 104 138 174 217 265 314
#     4   9  16  27  45  69  98 133 171 212 262 318
#     4   9  18  34  55  80 111 145 181 223 275 336
#     4  10  22  39  59  81 107 140 177 222 276 331
#     4  10  21  38  56  76 105 139 177 219 264 317
#
# _framework density 22.630175000000001
#
# number of rings (size 3 to 8) (size 9 to 14) (size 15 to 20)
#    0.000    2.625    0.000    3.000    0.000    5.000 
#    0.000    1.250    0.000    3.750    0.000    1.750 
#    0.000    0.000    0.000    0.000    0.000    0.000 
#
# Total GULP energy -356809.985301 kJ/mol
# GULP energy per Si atom -5575.156020 kJ/mol
# Density = 2.257867 g / cm^3
# Si number density = 22.630175 Si / 1000 Ang^3
#
#
#
# Elastic Constant Matrix: (Units=GPa)
#
#
# Indices 1 2 3 4 5 6 
#
# 1 56.8699 3.9403 -8.8944 0.0000 0.0000 0.0000
# 2 3.9403 115.2976 45.3421 0.0000 0.0000 0.0000
# 3 -8.8944 45.3421 110.1379 0.0000 0.0000 0.0000
# 4 0.0000 0.0000 0.0000 46.7139 0.0000 0.0000
# 5 0.0000 0.0000 0.0000 0.0000 11.7632 0.0000
# 6 0.0000 0.0000 0.0000 0.0000 0.0000 7.5462
#
#
#
# Elastic Compliance Matrix: (Units=1/GPa)
#
#
# Indices 1 2 3 4 5 6 
#
# 1 0.018001 -0.001416 0.002037 0.000000 0.000000 0.000000
# 2 -0.001416 0.010460 -0.004421 0.000000 0.000000 0.000000
# 3 0.002037 -0.004421 0.011064 0.000000 0.000000 0.000000
# 4 0.000000 0.000000 0.000000 0.021407 0.000000 0.000000
# 5 0.000000 0.000000 0.000000 0.000000 0.085011 0.000000
# 6 0.000000 0.000000 0.000000 0.000000 0.000000 0.132516
#
#
# Mechanical properties :
#
#
# Convention : Reuss Voigt Hill
#
# Bulk Modulus (GPa) = 31.32390 40.34238 35.83314
# Shear Modulus (GPa) = 16.85200 29.33248 23.09224
#
# Velocity S-wave (km/s) = 2.73182 3.60414 3.19786
# Velocity P-wave (km/s) = 4.88080 5.93172 5.43173
#
# Compressibility (1/GPa) = 0.03192451
#
# Stress axis : x y z
#
# Youngs Moduli (GPa) = 55.55352 95.60177 90.38404
#
# Poissons Ratio (x) = 0.13538 -0.18408
# Poissons Ratio (y) = 0.07867 0.39955
# Poissons Ratio (z) = -0.11314 0.42262
#
# Static dielectric constant tensor:
#      x y z
#    x 2.115900 0.000000 0.000000 
#    y 0.000000 1.883000 0.000000 
#    z 0.000000 0.000000 1.859330 
# 
# From -- ./inp_files/22378.got.cif
#   From: 2010.05.17/outbox.cif.g08.bks.cpg/sg51_12_cif.got.tgz:22378.got - 2010.06.03 11:52:47.
