data_PCOD9406987
_publ_section_title
;
Structure prediction by ZEFSAII (Michael W. Deem and Ramdas Pophale) SiO2 
 PCOD9406987
Probable space group: P M M A
;
_chemical_formula_sum "Si O2"
_cell_formula_units_Z 64
_cell_length_a 18.821614
_cell_length_b 13.775410
_cell_length_c 13.835765
_cell_angle_alpha 90.000000
_cell_angle_beta 90.000000
_cell_angle_gamma 90.000000
_cell_volume 3587.274192
_symmetry_space_group_name_H-M "P M M A"
_symmetry_group_IT_number 51
_symmetry_cell_setting 'orthorhombic'
loop_
_space_group_symop_operation_xyz
x,y,z
1/2-x,-y,z
1/2+x,-y,-z
-x,y,-z
-x,-y,-z
1/2+x,y,-z
1/2-x,y,z
x,-y,z
loop_
_atom_site_type_symbol
_atom_site_label
_atom_site_fract_x
_atom_site_fract_y
_atom_site_fract_z
Si Si1 0.038720 0.117749 0.899351
Si Si2 0.959750 0.383053 0.597434
Si Si3 0.170439 0.882279 0.006049
Si Si4 0.472712 0.617320 0.801329
Si Si5 0.670238 0.381230 0.095184
Si Si6 0.593514 0.884309 0.789213
Si Si7 0.122513 0.616829 0.118333
Si Si8 0.832212 0.719227 0.685710
O O1 0.987924 0.147380 0.811467
O O2 0.037973 0.000000 0.895475
O O3 0.119228 0.148627 0.918526
O O4 0.000000 0.143564 0.000000
O O5 0.953010 0.500000 0.598329
O O6 0.882192 0.336937 0.610582
O O7 0.000000 0.354427 0.500000
O O8 0.004209 0.354317 0.693276
O O9 0.250000 0.845032 0.000854
O O10 0.135465 0.863042 0.110471
O O11 0.173033 0.000000 0.001449
O O12 0.470254 0.500000 0.801149
O O13 0.396278 0.650126 0.839011
O O14 0.538776 0.642017 0.871834
O O15 0.750000 0.351890 0.124271
O O16 0.669457 0.500000 0.095323
O O17 0.654093 0.352242 0.984145
O O18 0.631889 0.823106 0.707300
O O19 0.596005 0.000000 0.773085
O O20 0.128612 0.500000 0.124701
O O21 0.159911 0.662157 0.211876
O O22 0.750000 0.725913 0.659425
#
# Coordination Sequence:
#
# PCOD9406987 Si02
#       8
#     8   8   8   8   8   8   8   8
#     4   7  11  21  36  54  81 121 167 207 239 278
#     4   9  19  37  57  73  93 122 152 189 245 303
#     4   8  12  20  37  59  85 123 170 216 254 282
#     4   8  14  26  44  64  87 119 158 191 222 274
#     4   9  15  23  38  61  91 127 161 191 223 263
#     4   9  17  29  43  62  94 132 163 195 243 297
#     4   9  17  29  44  63  93 129 157 186 229 276
#     4  11  21  31  49  78 102 121 154 199 239 278
#
# _framework density 17.840845000000002
#
# number of rings (size 3 to 8) (size 9 to 14) (size 15 to 20)
#    0.000    3.250    0.000    3.750    0.000    3.750 
#    0.000    8.125    0.000    2.625    0.000    0.875 
#    0.000    0.000    0.000    0.000    0.000    1.000 
#
# Total GULP energy -356876.748625 kJ/mol
# GULP energy per Si atom -5576.199197 kJ/mol
# Density = 1.780024 g / cm^3
# Si number density = 17.840845 Si / 1000 Ang^3
#
#
#
# Elastic Constant Matrix: (Units=GPa)
#
#
# Indices 1 2 3 4 5 6 
#
# 1 142.1148 3.6655 45.5118 0.0000 0.0000 0.0000
# 2 3.6655 57.3330 13.5885 0.0000 0.0000 0.0000
# 3 45.5118 13.5885 50.0210 0.0000 0.0000 0.0000
# 4 0.0000 0.0000 0.0000 16.9327 0.0000 0.0000
# 5 0.0000 0.0000 0.0000 0.0000 18.5483 0.0000
# 6 0.0000 0.0000 0.0000 0.0000 0.0000 13.3766
#
#
#
# Elastic Compliance Matrix: (Units=1/GPa)
#
#
# Indices 1 2 3 4 5 6 
#
# 1 0.010071 0.001633 -0.009607 0.000000 0.000000 0.000000
# 2 0.001633 0.018907 -0.006622 0.000000 0.000000 0.000000
# 3 -0.009607 -0.006622 0.030531 0.000000 0.000000 0.000000
# 4 0.000000 0.000000 0.000000 0.059057 0.000000 0.000000
# 5 0.000000 0.000000 0.000000 0.000000 0.053913 0.000000
# 6 0.000000 0.000000 0.000000 0.000000 0.000000 0.074758
#
#
# Mechanical properties :
#
#
# Convention : Reuss Voigt Hill
#
# Bulk Modulus (GPa) = 32.98392 41.66669 37.32531
# Shear Modulus (GPa) = 17.44990 22.21840 19.83415
#
# Velocity S-wave (km/s) = 3.13083 3.53280 3.33787
# Velocity P-wave (km/s) = 5.62116 6.32821 5.98514
#
# Compressibility (1/GPa) = 0.03031780
#
# Stress axis : x y z
#
# Youngs Moduli (GPa) = 99.29531 52.89029 32.75330
#
# Poissons Ratio (x) = -0.08637 0.31465
# Poissons Ratio (y) = -0.16215 0.21689
# Poissons Ratio (z) = 0.95390 0.35024
#
# Static dielectric constant tensor:
#      x y z
#    x 1.646520 0.000000 0.000000 
#    y 0.000000 1.691780 0.000000 
#    z 0.000000 0.000000 1.563900 
# 
# From -- ./inp_files/25310.got.cif
#   From: 2010.05.17/outbox.cif.g08.bks.cpg/sg51_13_cif.got.tgz:25310.got - 2010.06.03 11:52:47.
