data_PCOD9406599
_publ_section_title
;
Structure prediction by ZEFSAII (Michael W. Deem and Ramdas Pophale) SiO2 
 PCOD9406599
Probable space group: P M M A
;
_chemical_formula_sum "Si O2"
_cell_formula_units_Z 40
_cell_length_a 14.959122
_cell_length_b 14.451106
_cell_length_c 9.124457
_cell_angle_alpha 90.000000
_cell_angle_beta 90.000000
_cell_angle_gamma 90.000000
_cell_volume 1972.487318
_symmetry_space_group_name_H-M "P M M A"
_symmetry_group_IT_number 51
_symmetry_cell_setting 'orthorhombic'
loop_
_space_group_symop_operation_xyz
x,y,z
1/2-x,-y,z
1/2+x,-y,-z
-x,y,-z
-x,-y,-z
1/2+x,y,-z
1/2-x,y,z
x,-y,z
loop_
_atom_site_type_symbol
_atom_site_label
_atom_site_fract_x
_atom_site_fract_y
_atom_site_fract_z
Si Si1 0.503130 0.364243 0.178437
Si Si2 0.750000 0.111530 0.156390
Si Si3 0.641389 0.500000 0.681595
Si Si4 0.250000 0.888473 0.168123
Si Si5 0.572316 0.822935 0.311862
Si Si6 0.397838 0.895757 0.391632
Si Si7 0.857050 0.500000 0.325895
O O1 0.414555 0.413615 0.247317
O O2 0.520755 0.261244 0.236865
O O3 0.589845 0.416125 0.248132
O O4 0.500000 0.370170 0.000000
O O5 0.840035 0.147887 0.227940
O O6 0.750000 0.000000 0.162305
O O7 0.750000 0.149464 0.992310
O O8 0.750000 0.500000 0.709822
O O9 0.629635 0.500000 0.503467
O O10 0.334949 0.863969 0.262412
O O11 0.250000 0.000000 0.154100
O O12 0.497148 0.901002 0.328729
O O13 0.603329 0.818775 0.481504
O O14 0.369493 0.000000 0.440792
O O15 0.750000 0.500000 0.299743
#
# Coordination Sequence:
#
# PCOD9406599 Si02
#       7
#     8   4   4   4   8   8   4
#     4  11  25  42  66 101 135 169 208 265 328 395
#     4  11  23  41  61  90 135 180 219 271 338 392
#     4  10  23  48  75  97 126 176 211 257 328 403
#     4   9  21  39  63  89 119 168 227 272 324 392
#     4  11  24  38  64  95 129 166 222 270 322 377
#     4  10  21  41  65  89 122 177 228 271 326 384
#     4  10  23  44  75  97 130 168 213 255 322 403
#
# _framework density 20.278963999999998
#
# number of rings (size 3 to 8) (size 9 to 14) (size 15 to 20)
#    0.000    1.600    0.000    5.400    9.800    2.400 
#    1.800    3.000    0.000    0.000    0.000    0.000 
#    0.000    0.000    0.000    0.000    0.000    0.000 
#
# Total GULP energy -222855.800631 kJ/mol
# GULP energy per Si atom -5571.395016 kJ/mol
# Density = 2.023281 g / cm^3
# Si number density = 20.278964 Si / 1000 Ang^3
#
#
#
# Elastic Constant Matrix: (Units=GPa)
#
#
# Indices 1 2 3 4 5 6 
#
# 1 159.1769 29.8271 105.1592 0.0000 0.0000 0.0000
# 2 29.8271 89.9028 51.6301 0.0000 0.0000 0.0000
# 3 105.1592 51.6301 195.8880 0.0000 0.0000 0.0000
# 4 0.0000 0.0000 0.0000 12.9136 0.0000 0.0000
# 5 0.0000 0.0000 0.0000 0.0000 26.0790 0.0000
# 6 0.0000 0.0000 0.0000 0.0000 0.0000 -104.0143
#
#
#
# Elastic Compliance Matrix: (Units=1/GPa)
#
#
# Indices 1 2 3 4 5 6 
#
# 1 0.009740 -0.000269 -0.005158 0.000000 0.000000 0.000000
# 2 -0.000269 0.013115 -0.003312 0.000000 0.000000 0.000000
# 3 -0.005158 -0.003312 0.008747 0.000000 0.000000 0.000000
# 4 0.000000 0.000000 0.000000 0.077438 0.000000 0.000000
# 5 0.000000 0.000000 0.000000 0.000000 0.038345 0.000000
# 6 0.000000 0.000000 0.000000 0.000000 0.000000 -0.009614
#
#
# Mechanical properties :
#
#
# Convention : Reuss Voigt Hill
#
# Bulk Modulus (GPa) = 70.80598 90.91115 80.85857
# Shear Modulus (GPa) = 31.25846 4.21910 17.73878
#
# Velocity S-wave (km/s) = 3.93036 1.44397 2.96081
# Velocity P-wave (km/s) = 7.45578 6.90707 7.18667
#
# Compressibility (1/GPa) = 0.01412310
#
# Stress axis : x y z
#
# Youngs Moduli (GPa) = 102.66559 76.25136 114.32701
#
# Poissons Ratio (x) = 0.02054 0.58969
# Poissons Ratio (y) = 0.02766 0.37865
# Poissons Ratio (z) = 0.52954 0.25254
#
# Static dielectric constant tensor:
#      x y z
#    x 1.741010 0.000000 0.000000 
#    y 0.000000 1.803190 0.000000 
#    z 0.000000 0.000000 1.731850 
# 
# From -- ./inp_files/8060.got.cif
#   From: 2010.05.17/outbox.cif.g08.bks.cpg/sg51_5_cif.got.tgz:8060.got - 2010.06.03 11:52:47.
