data_PCOD9406847
_publ_section_title
;
Structure prediction by ZEFSAII (Michael W. Deem and Ramdas Pophale) SiO2 
 PCOD9406847
Probable space group: P M M A
;
_chemical_formula_sum "Si O2"
_cell_formula_units_Z 54
_cell_length_a 14.954254
_cell_length_b 31.995241
_cell_length_c 5.085594
_cell_angle_alpha 90.000000
_cell_angle_beta 90.000000
_cell_angle_gamma 90.000000
_cell_volume 2433.278533
_symmetry_space_group_name_H-M "P M M A"
_symmetry_group_IT_number 51
_symmetry_cell_setting 'orthorhombic'
loop_
_space_group_symop_operation_xyz
x,y,z
1/2-x,-y,z
1/2+x,-y,-z
-x,y,-z
-x,-y,-z
1/2+x,y,-z
1/2-x,y,z
x,-y,z
loop_
_atom_site_type_symbol
_atom_site_label
_atom_site_fract_x
_atom_site_fract_y
_atom_site_fract_z
Si Si1 0.750000 0.000000 0.036978
Si Si2 0.750000 0.667919 0.960057
Si Si3 0.597972 0.600750 0.918448
Si Si4 0.649052 0.222368 0.611274
Si Si5 0.406605 0.732374 0.893174
Si Si6 0.144514 0.451854 0.566651
Si Si7 0.893921 0.870299 0.475141
Si Si8 0.607165 0.924856 0.976431
O O1 0.828809 0.036411 0.030893
O O2 0.670679 0.636014 0.855362
O O3 0.671724 0.699108 0.077225
O O4 0.633149 0.574519 0.168287
O O5 0.500000 0.616482 0.000000
O O6 0.592200 0.570001 0.670111
O O7 0.750000 0.239280 0.602733
O O8 0.594445 0.248767 0.397673
O O9 0.649030 0.173995 0.536126
O O10 0.613949 0.229711 0.903850
O O11 0.500000 0.715242 0.000000
O O12 0.250000 0.451269 0.495245
O O13 0.117978 0.500000 0.605761
O O14 0.872706 0.905707 0.690410
O O15 0.000000 0.862982 0.500000
O O16 0.874261 0.888788 0.190084
O O17 0.500000 0.934755 0.000000
#
# Coordination Sequence:
#
# PCOD9406847 Si02
#       8
#     2   4   8   8   8   8   8   8
#     4  12  26  42  66  88 128 178 214 268 304 396
#     4  12  26  50  66 100 136 182 230 284 312 404
#     4  12  26  44  72 101 135 180 224 278 337 397
#     4  12  24  44  71 105 138 170 220 283 340 400
#     4  12  26  46  72  99 135 182 224 272 337 399
#     4  11  23  45  72 102 138 176 220 281 343 401
#     4  10  22  42  67  95 130 164 211 268 329 392
#     4  10  24  42  64  95 127 168 214 266 319 381
#
# _framework density 22.192281000000001
#
# number of rings (size 3 to 8) (size 9 to 14) (size 15 to 20)
#    0.000    0.741    2.963    3.778    2.074    7.704 
#    0.000    5.185    0.000    0.000    0.000    0.000 
#    0.000    0.000    0.000    0.000    0.000    0.000 
#
# Total GULP energy -300609.518273 kJ/mol
# GULP energy per Si atom -5566.842931 kJ/mol
# Density = 2.214177 g / cm^3
# Si number density = 22.192281 Si / 1000 Ang^3
#
#
#
# Elastic Constant Matrix: (Units=GPa)
#
#
# Indices 1 2 3 4 5 6 
#
# 1 133.4351 8.8461 -4.7224 0.0000 0.0000 0.0000
# 2 8.8461 42.2807 -28.2601 0.0000 0.0000 0.0000
# 3 -4.7224 -28.2601 59.5045 0.0000 0.0000 0.0000
# 4 0.0000 0.0000 0.0000 -1.9142 0.0000 0.0000
# 5 0.0000 0.0000 0.0000 0.0000 19.5432 0.0000
# 6 0.0000 0.0000 0.0000 0.0000 0.0000 8.2853
#
#
#
# Elastic Compliance Matrix: (Units=1/GPa)
#
#
# Indices 1 2 3 4 5 6 
#
# 1 0.007602 -0.001739 -0.000223 0.000000 0.000000 0.000000
# 2 -0.001739 0.035049 0.016508 0.000000 0.000000 0.000000
# 3 -0.000223 0.016508 0.024628 0.000000 0.000000 0.000000
# 4 0.000000 0.000000 0.000000 -0.522414 0.000000 0.000000
# 5 0.000000 0.000000 0.000000 0.000000 0.051169 0.000000
# 6 0.000000 0.000000 0.000000 0.000000 0.000000 0.120696
#
#
# Mechanical properties :
#
#
# Convention : Reuss Voigt Hill
#
# Bulk Modulus (GPa) = 10.37679 20.77195 15.57437
# Shear Modulus (GPa) = -17.84192 22.47330 2.31569
#
# Velocity S-wave (km/s) = -2.83851 3.18569 1.02261
# Velocity P-wave (km/s) = 2.46107 4.78663 2.90301
#
# Compressibility (1/GPa) = 0.09636893
#
# Stress axis : x y z
#
# Youngs Moduli (GPa) = 131.54936 28.53157 40.60488
#
# Poissons Ratio (x) = 0.04963 0.00905
# Poissons Ratio (y) = 0.22881 -0.67029
# Poissons Ratio (z) = 0.02931 -0.47099
#
# Static dielectric constant tensor:
#      x y z
#    x 1.862930 0.000000 0.000000 
#    y 0.000000 1.774460 0.000000 
#    z 0.000000 0.000000 1.783260 
# 
# From -- ./inp_files/1493.got.cif
#   From: 2010.05.17/outbox.cif.g08.bks.cpg/sg51_1_cif.got.tgz:1493.got - 2010.06.03 11:52:47.
