data_PCOD9406534
_publ_section_title
;
Structure prediction by ZEFSAII (Michael W. Deem and Ramdas Pophale) SiO2 
 PCOD9406534
Probable space group: P M M A
;
_chemical_formula_sum "Si O2"
_cell_formula_units_Z 40
_cell_length_a 16.702259
_cell_length_b 22.896083
_cell_length_c 5.036640
_cell_angle_alpha 90.000000
_cell_angle_beta 90.000000
_cell_angle_gamma 90.000000
_cell_volume 1926.093275
_symmetry_space_group_name_H-M "P M M A"
_symmetry_group_IT_number 51
_symmetry_cell_setting 'orthorhombic'
loop_
_space_group_symop_operation_xyz
x,y,z
1/2-x,-y,z
1/2+x,-y,-z
-x,y,-z
-x,-y,-z
1/2+x,y,-z
1/2-x,y,z
x,-y,z
loop_
_atom_site_type_symbol
_atom_site_label
_atom_site_fract_x
_atom_site_fract_y
_atom_site_fract_z
Si Si1 0.908766 0.239302 0.598262
Si Si2 0.343362 0.366894 0.389892
Si Si3 0.590858 0.568651 0.100144
Si Si4 0.342764 0.174993 0.899515
Si Si5 0.943569 0.933634 0.256591
O O1 0.881657 0.304254 0.675227
O O2 0.856537 0.218020 0.348314
O O3 0.000000 0.238361 0.500000
O O4 0.893661 0.197667 0.849885
O O5 0.250000 0.359976 0.456456
O O6 0.353650 0.408529 0.136812
O O7 0.389871 0.395135 0.636905
O O8 0.602534 0.500000 0.152247
O O9 0.500000 0.577411 0.000000
O O10 0.250000 0.173439 0.975705
O O11 0.374336 0.112352 0.800895
O O12 0.000000 0.914648 0.500000
O O13 0.915351 0.000000 0.311607
O O14 0.000000 0.935226 0.000000
#
# Coordination Sequence:
#
# PCOD9406534 Si02
#       5
#     8   8   8   8   8
#     4  12  25  43  65  89 123 168 212 254 311 381
#     4  12  25  42  64  93 127 160 204 261 318 372
#     4  11  24  43  66  92 124 164 208 252 306 378
#     4  12  24  40  63  94 128 161 207 264 319 369
#     4  10  21  39  63  90 123 165 210 251 299 365
#
# _framework density 20.767423999999998
#
# number of rings (size 3 to 8) (size 9 to 14) (size 15 to 20)
#    0.000    0.600    0.000    9.600    0.000    4.400 
#    0.000    0.000    0.000    6.000    0.000    0.000 
#    0.000    0.000    0.000    0.000    0.000    0.000 
#
# Total GULP energy -224025.140096 kJ/mol
# GULP energy per Si atom -5600.628502 kJ/mol
# Density = 2.072016 g / cm^3
# Si number density = 20.767424 Si / 1000 Ang^3
#
#
#
# Elastic Constant Matrix: (Units=GPa)
#
#
# Indices 1 2 3 4 5 6 
#
# 1 90.6447 49.7973 3.1290 0.0000 0.0000 0.0000
# 2 49.7973 100.9684 11.7786 0.0000 0.0000 0.0000
# 3 3.1290 11.7786 94.5945 0.0000 0.0000 0.0000
# 4 0.0000 0.0000 0.0000 31.1239 0.0000 0.0000
# 5 0.0000 0.0000 0.0000 0.0000 27.8699 0.0000
# 6 0.0000 0.0000 0.0000 0.0000 0.0000 8.8130
#
#
#
# Elastic Compliance Matrix: (Units=1/GPa)
#
#
# Indices 1 2 3 4 5 6 
#
# 1 0.015150 -0.007523 0.000436 0.000000 0.000000 0.000000
# 2 -0.007523 0.013785 -0.001468 0.000000 0.000000 0.000000
# 3 0.000436 -0.001468 0.010740 0.000000 0.000000 0.000000
# 4 0.000000 0.000000 0.000000 0.032130 0.000000 0.000000
# 5 0.000000 0.000000 0.000000 0.000000 0.035881 0.000000
# 6 0.000000 0.000000 0.000000 0.000000 0.000000 0.113468
#
#
# Mechanical properties :
#
#
# Convention : Reuss Voigt Hill
#
# Bulk Modulus (GPa) = 44.31546 46.17972 45.24759
# Shear Modulus (GPa) = 20.34296 28.32821 24.33559
#
# Velocity S-wave (km/s) = 3.13319 3.69734 3.42689
# Velocity P-wave (km/s) = 5.87149 6.36490 6.12317
#
# Compressibility (1/GPa) = 0.02256549
#
# Stress axis : x y z
#
# Youngs Moduli (GPa) = 66.00776 72.54032 93.11172
#
# Poissons Ratio (x) = 0.54569 -0.04056
# Poissons Ratio (y) = 0.49655 0.13666
# Poissons Ratio (z) = -0.02875 0.10647
#
# Static dielectric constant tensor:
#      x y z
#    x 1.721930 0.000000 0.000000 
#    y 0.000000 1.735950 0.000000 
#    z 0.000000 0.000000 1.710770 
# 
# From -- ./inp_files/1416.got.cif
#   From: 2010.05.17/outbox.cif.g08.bks.cpg/sg51_1_cif.got.tgz:1416.got - 2010.06.03 11:52:47.
