data_PCOD9406298
_publ_section_title
;
Structure prediction by ZEFSAII (Michael W. Deem and Ramdas Pophale) SiO2 
 PCOD9406298
Probable space group: P M M A
;
_chemical_formula_sum "Si O2"
_cell_formula_units_Z 56
_cell_length_a 8.641522
_cell_length_b 19.912900
_cell_length_c 15.667608
_cell_angle_alpha 90.000000
_cell_angle_beta 90.000000
_cell_angle_gamma 90.000000
_cell_volume 2696.046943
_symmetry_space_group_name_H-M "P M M A"
_symmetry_group_IT_number 51
_symmetry_cell_setting 'orthorhombic'
loop_
_space_group_symop_operation_xyz
x,y,z
1/2-x,-y,z
1/2+x,-y,-z
-x,y,-z
-x,-y,-z
1/2+x,y,-z
1/2-x,y,z
x,-y,z
loop_
_atom_site_type_symbol
_atom_site_label
_atom_site_fract_x
_atom_site_fract_y
_atom_site_fract_z
Si Si1 0.435288 0.920956 0.405816
Si Si2 0.926109 0.294976 0.413737
Si Si3 0.431622 0.851117 0.761001
Si Si4 0.075535 0.079866 0.086643
Si Si5 0.075610 0.424187 0.391493
Si Si6 0.565747 0.573783 0.205568
Si Si7 0.566699 0.288977 0.775594
O O1 0.500000 0.904659 0.500000
O O2 0.250000 0.914994 0.406756
O O3 0.500929 0.874385 0.330449
O O4 0.474425 0.000000 0.389071
O O5 0.750000 0.273758 0.404146
O O6 0.000000 0.265733 0.500000
O O7 0.940239 0.375877 0.423888
O O8 0.017911 0.286595 0.325475
O O9 0.250000 0.840953 0.751606
O O10 0.472606 0.906689 0.830790
O O11 0.507325 0.784147 0.800893
O O12 0.250000 0.105926 0.099833
O O13 0.087092 0.000000 0.076356
O O14 0.000000 0.107534 0.000000
O O15 0.250000 0.396167 0.403086
O O16 0.074520 0.500000 0.423021
O O17 0.037224 0.429485 0.291017
O O18 0.750000 0.577286 0.224529
O O19 0.542104 0.500000 0.161731
O O20 0.514626 0.648297 0.175675
O O21 0.750000 0.295542 0.782920
#
# Coordination Sequence:
#
# PCOD9406298 Si02
#       7
#     8   8   8   8   8   8   8
#     4  10  21  38  59  84 115 153 200 250 297 347
#     4  11  21  33  46  60  82 115 159 211 269 329
#     4  12  24  38  58  85 119 158 199 243 295 350
#     4  10  21  39  64  95 129 163 199 238 283 339
#     4   9  16  26  40  58  79 106 146 198 258 322
#     4   9  16  28  47  69  94 126 166 215 272 333
#     4  11  22  36  52  72 100 134 177 227 280 338
#
# _framework density 20.771151
#
# number of rings (size 3 to 8) (size 9 to 14) (size 15 to 20)
#    0.000    1.714    0.000    7.714    0.000    6.000 
#    0.000    2.857    0.000    0.000    0.000    0.000 
#    0.000    0.571    0.000    2.143    0.000    3.571 
#
# Total GULP energy -312154.723838 kJ/mol
# GULP energy per Si atom -5574.191497 kJ/mol
# Density = 2.072388 g / cm^3
# Si number density = 20.771151 Si / 1000 Ang^3
#
#
#
# Elastic Constant Matrix: (Units=GPa)
#
#
# Indices 1 2 3 4 5 6 
#
# 1 132.7645 35.4389 12.3646 0.0000 0.0000 0.0000
# 2 35.4389 86.1092 6.4189 0.0000 0.0000 0.0000
# 3 12.3646 6.4189 39.0122 0.0000 0.0000 0.0000
# 4 0.0000 0.0000 0.0000 -4.7742 0.0000 0.0000
# 5 0.0000 0.0000 0.0000 0.0000 19.5639 0.0000
# 6 0.0000 0.0000 0.0000 0.0000 0.0000 16.9586
#
#
#
# Elastic Compliance Matrix: (Units=1/GPa)
#
#
# Indices 1 2 3 4 5 6 
#
# 1 0.008641 -0.003394 -0.002180 0.000000 0.000000 0.000000
# 2 -0.003394 0.013090 -0.001078 0.000000 0.000000 0.000000
# 3 -0.002180 -0.001078 0.026501 0.000000 0.000000 0.000000
# 4 0.000000 0.000000 0.000000 -0.209457 0.000000 0.000000
# 5 0.000000 0.000000 0.000000 0.000000 0.051114 0.000000
# 6 0.000000 0.000000 0.000000 0.000000 0.000000 0.058967
#
#
# Mechanical properties :
#
#
# Convention : Reuss Voigt Hill
#
# Bulk Modulus (GPa) = 28.63013 40.70342 34.66677
# Shear Modulus (GPa) = -190.87297 19.92722 -85.47288
#
# Velocity S-wave (km/s) = -9.59650 3.10073 -6.42177
# Velocity P-wave (km/s) = 10.43920 5.69720 6.18542
#
# Compressibility (1/GPa) = 0.03492824
#
# Stress axis : x y z
#
# Youngs Moduli (GPa) = 115.72609 76.39267 37.73376
#
# Poissons Ratio (x) = 0.25926 0.08227
# Poissons Ratio (y) = 0.39275 0.04068
# Poissons Ratio (z) = 0.25232 0.08237
#
# Static dielectric constant tensor:
#      x y z
#    x 1.722920 0.000000 0.000000 
#    y 0.000000 1.911980 0.000000 
#    z 0.000000 0.000000 1.760120 
# 
# From -- ./inp_files/21815.got.cif
#   From: 2010.05.17/outbox.cif.g08.bks.cpg/sg51_11_cif.got.tgz:21815.got - 2010.06.03 11:52:47.
