data_PCOD9406226
_publ_section_title
;
Structure prediction by ZEFSAII (Michael W. Deem and Ramdas Pophale) SiO2 
 PCOD9406226
Probable space group: P M M A
;
_chemical_formula_sum "Si O2"
_cell_formula_units_Z 48
_cell_length_a 8.660557
_cell_length_b 16.199189
_cell_length_c 19.907988
_cell_angle_alpha 90.000000
_cell_angle_beta 90.000000
_cell_angle_gamma 90.000000
_cell_volume 2792.971262
_symmetry_space_group_name_H-M "P M M A"
_symmetry_group_IT_number 51
_symmetry_cell_setting 'orthorhombic'
loop_
_space_group_symop_operation_xyz
x,y,z
1/2-x,-y,z
1/2+x,-y,-z
-x,y,-z
-x,-y,-z
1/2+x,y,-z
1/2-x,y,z
x,-y,z
loop_
_atom_site_type_symbol
_atom_site_label
_atom_site_fract_x
_atom_site_fract_y
_atom_site_fract_z
Si Si1 0.436339 0.594412 0.926659
Si Si2 0.433362 0.265162 0.328820
Si Si3 0.562065 0.267027 0.178174
Si Si4 0.435087 0.594223 0.574909
Si Si5 0.567858 0.090724 0.333072
Si Si6 0.067242 0.088124 0.829656
O O1 0.250000 0.596151 0.929153
O O2 0.484288 0.500000 0.911805
O O3 0.486352 0.658614 0.869858
O O4 0.500000 0.616372 0.000000
O O5 0.250000 0.268906 0.325845
O O6 0.501477 0.275776 0.253825
O O7 0.497881 0.337176 0.375832
O O8 0.483725 0.174103 0.354776
O O9 0.750000 0.265224 0.181336
O O10 0.507470 0.177885 0.149517
O O11 0.500000 0.606401 0.500000
O O12 0.250000 0.600396 0.573618
O O13 0.475874 0.500000 0.595601
O O14 0.750000 0.097482 0.348583
O O15 0.555395 0.089104 0.251642
O O16 0.512792 0.000000 0.356889
O O17 0.250000 0.086604 0.845594
O O18 0.999901 0.000000 0.853048
#
# Coordination Sequence:
#
# PCOD9406226 Si02
#       6
#     8   8   8   8   8   8
#     4   9  18  32  49  67  88 118 156 197 243 295
#     4  11  21  31  48  77 109 135 162 202 249 294
#     4   9  17  30  47  68  94 124 161 201 239 283
#     4  10  21  38  58  76  97 129 168 207 247 296
#     4   8  14  27  47  69  96 132 170 204 240 286
#     4   7  10  19  38  62  85 112 149 190 228 268
#
# _framework density 17.185998000000001
#
# number of rings (size 3 to 8) (size 9 to 14) (size 15 to 20)
#    0.000    3.000    0.000    4.000    0.000    2.667 
#    0.000    1.667    0.000    1.000    0.000    0.000 
#    0.000    0.000    0.000    0.000    0.000    0.000 
#
# Total GULP energy -267202.285072 kJ/mol
# GULP energy per Si atom -5566.714272 kJ/mol
# Density = 1.714688 g / cm^3
# Si number density = 17.185998 Si / 1000 Ang^3
#
#
#
# Elastic Constant Matrix: (Units=GPa)
#
#
# Indices 1 2 3 4 5 6 
#
# 1 36.8328 48.5001 22.1558 0.0000 0.0000 0.0000
# 2 48.5001 190.7637 85.6311 0.0000 0.0000 0.0000
# 3 22.1558 85.6311 56.0375 0.0000 0.0000 0.0000
# 4 0.0000 0.0000 0.0000 -9.5495 0.0000 0.0000
# 5 0.0000 0.0000 0.0000 0.0000 21.1830 0.0000
# 6 0.0000 0.0000 0.0000 0.0000 0.0000 14.0939
#
#
#
# Elastic Compliance Matrix: (Units=1/GPa)
#
#
# Indices 1 2 3 4 5 6 
#
# 1 0.040827 -0.009979 -0.000893 0.000000 0.000000 0.000000
# 2 -0.009979 0.019131 -0.025288 0.000000 0.000000 0.000000
# 3 -0.000893 -0.025288 0.056841 0.000000 0.000000 0.000000
# 4 0.000000 0.000000 0.000000 -0.104717 0.000000 0.000000
# 5 0.000000 0.000000 0.000000 0.000000 0.047208 0.000000
# 6 0.000000 0.000000 0.000000 0.000000 0.000000 0.070953
#
#
# Mechanical properties :
#
#
# Convention : Reuss Voigt Hill
#
# Bulk Modulus (GPa) = 22.48275 66.24534 44.36405
# Shear Modulus (GPa) = 23.00030 13.63527 18.31778
#
# Velocity S-wave (km/s) = 3.66227 2.81978 3.26829
# Velocity P-wave (km/s) = 5.56717 7.01651 6.33343
#
# Compressibility (1/GPa) = 0.04447854
#
# Stress axis : x y z
#
# Youngs Moduli (GPa) = 24.49366 52.27189 17.59286
#
# Poissons Ratio (x) = 0.52163 0.01571
# Poissons Ratio (y) = 0.24443 0.44489
# Poissons Ratio (z) = 0.02187 1.32186
#
# Static dielectric constant tensor:
#      x y z
#    x 1.566620 0.000000 0.000000 
#    y 0.000000 1.640670 0.000000 
#    z 0.000000 0.000000 1.539460 
# 
# From -- ./inp_files/31566.got.cif
#   From: 2010.05.17/outbox.cif.g08.bks.cpg/sg51_16_cif.got.tgz:31566.got - 2010.06.03 11:52:47.
