data_PCOD9406283
_publ_section_title
;
Structure prediction by ZEFSAII (Michael W. Deem and Ramdas Pophale) SiO2 
 PCOD9406283
Probable space group: P M M A
;
_chemical_formula_sum "Si O2"
_cell_formula_units_Z 40
_cell_length_a 8.452893
_cell_length_b 12.969103
_cell_length_c 19.771294
_cell_angle_alpha 90.000000
_cell_angle_beta 90.000000
_cell_angle_gamma 90.000000
_cell_volume 2167.456575
_symmetry_space_group_name_H-M "P M M A"
_symmetry_group_IT_number 51
_symmetry_cell_setting 'orthorhombic'
loop_
_space_group_symop_operation_xyz
x,y,z
1/2-x,-y,z
1/2+x,-y,-z
-x,y,-z
-x,-y,-z
1/2+x,y,-z
1/2-x,y,z
x,-y,z
loop_
_atom_site_type_symbol
_atom_site_label
_atom_site_fract_x
_atom_site_fract_y
_atom_site_fract_z
Si Si1 0.440536 0.000000 0.577113
Si Si2 0.938445 0.500000 0.923656
Si Si3 0.441521 0.225699 0.576910
Si Si4 0.939449 0.881527 0.925168
Si Si5 0.943230 0.618887 0.308194
Si Si6 0.439683 0.305287 0.838849
O O1 0.500000 0.000000 0.500000
O O2 0.491659 0.888110 0.604089
O O3 0.250000 0.000000 0.578322
O O4 0.750000 0.500000 0.923793
O O5 0.999604 0.600992 0.884909
O O6 0.000000 0.500000 0.000000
O O7 0.500000 0.238105 0.500000
O O8 0.250000 0.227340 0.575300
O O9 0.496125 0.314904 0.627370
O O10 0.750000 0.878805 0.925936
O O11 0.001532 0.801615 0.870106
O O12 0.990989 0.000000 0.912769
O O13 0.000000 0.851756 0.000000
O O14 0.750000 0.618182 0.308772
O O15 0.995215 0.500000 0.309978
O O16 0.992017 0.672172 0.237976
O O17 0.250000 0.306241 0.839996
#
# Coordination Sequence:
#
# PCOD9406283 Si02
#       6
#     4   4   8   8   8   8
#     4   8  14  26  46  72 100 128 165 210 259 306
#     4  12  24  38  58  84 111 144 185 230 277 328
#     4   9  17  31  52  77 104 137 175 220 264 316
#     4  10  21  38  59  83 113 146 182 226 276 330
#     4   9  18  34  54  75 105 143 179 220 272 321
#     4  11  21  37  58  81 111 147 187 229 275 330
#
# _framework density 18.454810999999999
#
# number of rings (size 3 to 8) (size 9 to 14) (size 15 to 20)
#    0.000    2.200    1.000    2.700    0.000    1.600 
#    1.800    2.000    0.000    0.000    0.000    0.000 
#    0.000    0.000    0.000    0.000    0.000    0.000 
#
# Total GULP energy -223155.229497 kJ/mol
# GULP energy per Si atom -5578.880737 kJ/mol
# Density = 1.841281 g / cm^3
# Si number density = 18.454811 Si / 1000 Ang^3
#
#
#
# Elastic Constant Matrix: (Units=GPa)
#
#
# Indices 1 2 3 4 5 6 
#
# 1 32.9884 24.9915 21.3587 0.0000 0.0000 0.0000
# 2 24.9915 158.9006 101.2705 0.0000 0.0000 0.0000
# 3 21.3587 101.2705 139.2002 0.0000 0.0000 0.0000
# 4 0.0000 0.0000 0.0000 9.4937 0.0000 0.0000
# 5 0.0000 0.0000 0.0000 0.0000 21.8467 0.0000
# 6 0.0000 0.0000 0.0000 0.0000 0.0000 32.7744
#
#
#
# Elastic Compliance Matrix: (Units=1/GPa)
#
#
# Indices 1 2 3 4 5 6 
#
# 1 0.034889 -0.003870 -0.002538 0.000000 0.000000 0.000000
# 2 -0.003870 0.012163 -0.008255 0.000000 0.000000 0.000000
# 3 -0.002538 -0.008255 0.013579 0.000000 0.000000 0.000000
# 4 0.000000 0.000000 0.000000 0.105333 0.000000 0.000000
# 5 0.000000 0.000000 0.000000 0.000000 0.045773 0.000000
# 6 0.000000 0.000000 0.000000 0.000000 0.000000 0.030512
#
#
# Mechanical properties :
#
#
# Convention : Reuss Voigt Hill
#
# Bulk Modulus (GPa) = 31.94364 69.59228 50.76796
# Shear Modulus (GPa) = 17.72993 25.05420 21.39207
#
# Velocity S-wave (km/s) = 3.10291 3.68856 3.40834
# Velocity P-wave (km/s) = 5.49401 7.47877 6.56186
#
# Compressibility (1/GPa) = 0.03130514
#
# Stress axis : x y z
#
# Youngs Moduli (GPa) = 28.66271 82.21731 73.64346
#
# Poissons Ratio (x) = 0.31815 0.18691
# Poissons Ratio (y) = 0.11091 0.60792
# Poissons Ratio (z) = 0.07275 0.67870
#
# Static dielectric constant tensor:
#      x y z
#    x 1.636060 0.000000 0.000000 
#    y 0.000000 1.655050 0.000000 
#    z 0.000000 0.000000 1.601310 
# 
# From -- ./inp_files/31424.got.cif
#   From: 2010.05.17/outbox.cif.g08.bks.cpg/sg51_16_cif.got.tgz:31424.got - 2010.06.03 11:52:47.
