data_PCOD9406623
_publ_section_title
;
Structure prediction by ZEFSAII (Michael W. Deem and Ramdas Pophale) SiO2 
 PCOD9406623
Probable space group: P M M A
;
_chemical_formula_sum "Si O2"
_cell_formula_units_Z 44
_cell_length_a 8.285252
_cell_length_b 29.526401
_cell_length_c 9.346348
_cell_angle_alpha 90.000000
_cell_angle_beta 90.000000
_cell_angle_gamma 90.000000
_cell_volume 2286.431440
_symmetry_space_group_name_H-M "P M M A"
_symmetry_group_IT_number 51
_symmetry_cell_setting 'orthorhombic'
loop_
_space_group_symop_operation_xyz
x,y,z
1/2-x,-y,z
1/2+x,-y,-z
-x,y,-z
-x,-y,-z
1/2+x,y,-z
1/2-x,y,z
x,-y,z
loop_
_atom_site_type_symbol
_atom_site_label
_atom_site_fract_x
_atom_site_fract_y
_atom_site_fract_z
Si Si1 0.445254 0.186804 0.336753
Si Si2 0.056881 0.362568 0.662257
Si Si3 0.945383 0.098735 0.835195
Si Si4 0.555389 0.000000 0.834954
Si Si5 0.945077 0.449009 0.162205
Si Si6 0.556803 0.724728 0.836809
O O1 0.500000 0.189107 0.500000
O O2 0.250000 0.186673 0.334018
O O3 0.502286 0.140792 0.259496
O O4 0.501435 0.230725 0.248254
O O5 0.250000 0.363453 0.663637
O O6 0.996928 0.409477 0.733149
O O7 0.000000 0.357824 0.500000
O O8 0.000826 0.320268 0.756659
O O9 0.750000 0.099109 0.834998
O O10 0.999613 0.049070 0.778492
O O11 0.000000 0.103695 0.000000
O O12 0.750000 0.000000 0.829179
O O13 0.500000 0.000000 0.000000
O O14 0.750000 0.448971 0.164056
O O15 0.999898 0.500000 0.200482
O O16 0.000000 0.439738 0.000000
O O17 0.750000 0.725178 0.835306
O O18 0.500000 0.725478 0.000000
#
# Coordination Sequence:
#
# PCOD9406623 Si02
#       6
#     8   8   8   4   8   8
#     4  10  22  37  53  75 105 139 174 213 260 312
#     4  11  23  38  57  82 113 146 180 221 268 318
#     4   9  17  31  51  76 102 132 171 213 258 307
#     4   8  14  26  47  72 100 130 164 210 257 302
#     4   9  19  36  57  81 109 142 181 223 266 313
#     4  11  23  39  59  82 107 138 177 220 266 317
#
# _framework density 19.243962
#
# number of rings (size 3 to 8) (size 9 to 14) (size 15 to 20)
#    0.000    2.182    0.000    2.727    0.000    6.909 
#    0.000    0.455    0.000    0.000    0.000    0.000 
#    0.000    0.000    0.000    0.000    0.000    0.000 
#
# Total GULP energy -245594.382340 kJ/mol
# GULP energy per Si atom -5581.690508 kJ/mol
# Density = 1.920016 g / cm^3
# Si number density = 19.243962 Si / 1000 Ang^3
#
#
#
# Elastic Constant Matrix: (Units=GPa)
#
#
# Indices 1 2 3 4 5 6 
#
# 1 17.7929 26.5049 15.0574 0.0000 0.0000 0.0000
# 2 26.5049 206.9361 123.0002 0.0000 0.0000 0.0000
# 3 15.0574 123.0002 154.5924 0.0000 0.0000 0.0000
# 4 0.0000 0.0000 0.0000 -0.5601 0.0000 0.0000
# 5 0.0000 0.0000 0.0000 0.0000 32.4388 0.0000
# 6 0.0000 0.0000 0.0000 0.0000 0.0000 -11.9470
#
#
#
# Elastic Compliance Matrix: (Units=1/GPa)
#
#
# Indices 1 2 3 4 5 6 
#
# 1 0.069482 -0.009253 0.000594 0.000000 0.000000 0.000000
# 2 -0.009253 0.010400 -0.007374 0.000000 0.000000 0.000000
# 3 0.000594 -0.007374 0.012278 0.000000 0.000000 0.000000
# 4 0.000000 0.000000 0.000000 -1.785442 0.000000 0.000000
# 5 0.000000 0.000000 0.000000 0.000000 0.030827 0.000000
# 6 0.000000 0.000000 0.000000 0.000000 0.000000 -0.083703
#
#
# Mechanical properties :
#
#
# Convention : Reuss Voigt Hill
#
# Bulk Modulus (GPa) = 16.64009 78.71626 47.67817
# Shear Modulus (GPa) = -2.95149 18.30360 7.67606
#
# Velocity S-wave (km/s) = -1.23978 3.08739 1.99937
# Velocity P-wave (km/s) = 2.57221 7.32820 5.49176
#
# Compressibility (1/GPa) = 0.06009584
#
# Stress axis : x y z
#
# Youngs Moduli (GPa) = 14.39215 96.15020 81.44886
#
# Poissons Ratio (x) = 0.88964 -0.04839
# Poissons Ratio (y) = 0.13317 0.60059
# Poissons Ratio (z) = -0.00855 0.70899
#
# Static dielectric constant tensor:
#      x y z
#    x 1.676400 0.000000 0.000000 
#    y 0.000000 1.708810 0.000000 
#    z 0.000000 0.000000 1.607320 
# 
# From -- ./inp_files/5721.got.cif
#   From: 2010.05.17/outbox.cif.g08.bks.cpg/sg51_3_cif.got.tgz:5721.got - 2010.06.03 11:52:47.
