data_PCOD9406467
_publ_section_title
;
Structure prediction by ZEFSAII (Michael W. Deem and Ramdas Pophale) SiO2 
 PCOD9406467
Probable space group: P M M A
;
_chemical_formula_sum "Si O2"
_cell_formula_units_Z 56
_cell_length_a 9.766767
_cell_length_b 19.394194
_cell_length_c 14.778585
_cell_angle_alpha 90.000000
_cell_angle_beta 90.000000
_cell_angle_gamma 90.000000
_cell_volume 2799.338496
_symmetry_space_group_name_H-M "P M M A"
_symmetry_group_IT_number 51
_symmetry_cell_setting 'orthorhombic'
loop_
_space_group_symop_operation_xyz
x,y,z
1/2-x,-y,z
1/2+x,-y,-z
-x,y,-z
-x,-y,-z
1/2+x,y,-z
1/2-x,y,z
x,-y,z
loop_
_atom_site_type_symbol
_atom_site_label
_atom_site_fract_x
_atom_site_fract_y
_atom_site_fract_z
Si Si1 0.401815 0.582212 0.345407
Si Si2 0.907959 0.082367 0.587778
Si Si3 0.587777 0.210266 0.086692
Si Si4 0.971265 0.351512 0.836510
Si Si5 0.587864 0.699462 0.415302
Si Si6 0.905698 0.170351 0.287922
Si Si7 0.250000 0.576059 0.050611
Si Si8 0.750000 0.424095 0.164995
O O1 0.250000 0.585751 0.389327
O O2 0.429937 0.500000 0.330336
O O3 0.390211 0.626996 0.253106
O O4 0.519728 0.624815 0.396476
O O5 0.750000 0.103340 0.574821
O O6 0.000000 0.096892 0.500000
O O7 0.980319 0.122272 0.668853
O O8 0.910832 0.000000 0.602736
O O9 0.750000 0.224021 0.064237
O O10 0.508060 0.277638 0.123326
O O11 0.588580 0.166433 0.179195
O O12 0.500000 0.185288 0.000000
O O13 0.885992 0.387364 0.915846
O O14 0.115839 0.384139 0.810963
O O15 0.500000 0.728331 0.500000
O O16 0.750000 0.695080 0.433916
O O17 0.572974 0.752443 0.330032
O O18 0.750000 0.150806 0.315569
O O19 0.250000 0.500000 0.091387
O O20 0.250000 0.572018 0.943505
O O21 0.750000 0.500000 0.204306
#
# Coordination Sequence:
#
# PCOD9406467 Si02
#       8
#     8   8   8   8   8   8   4   4
#     4  11  24  41  60  81 108 147 199 255 314 380
#     4  10  21  38  65 103 142 177 211 247 294 356
#     4  11  24  41  61  88 121 159 207 256 305 364
#     4  12  22  37  53  77 106 143 191 247 307 368
#     4  11  24  43  64  90 119 153 198 253 310 373
#     4  10  22  41  63  95 130 167 207 253 305 362
#     4  11  22  36  50  72 103 141 188 243 309 377
#     4  11  22  32  50  74 103 141 184 239 311 377
#
# _framework density 20.004728
#
# number of rings (size 3 to 8) (size 9 to 14) (size 15 to 20)
#    0.000    1.143    2.857    3.857    2.000    5.429 
#    0.000    0.000    0.000    0.429    0.000    0.000 
#    0.000    0.000    0.000    0.000    0.000    0.000 
#
# Total GULP energy -312346.657793 kJ/mol
# GULP energy per Si atom -5577.618889 kJ/mol
# Density = 1.995920 g / cm^3
# Si number density = 20.004728 Si / 1000 Ang^3
#
#
#
# Elastic Constant Matrix: (Units=GPa)
#
#
# Indices 1 2 3 4 5 6 
#
# 1 174.1369 43.4312 54.0272 0.0000 0.0000 0.0000
# 2 43.4312 36.4318 19.7459 0.0000 0.0000 0.0000
# 3 54.0272 19.7459 99.4927 0.0000 0.0000 0.0000
# 4 0.0000 0.0000 0.0000 8.1573 0.0000 0.0000
# 5 0.0000 0.0000 0.0000 0.0000 38.8143 0.0000
# 6 0.0000 0.0000 0.0000 0.0000 0.0000 29.5249
#
#
#
# Elastic Compliance Matrix: (Units=1/GPa)
#
#
# Indices 1 2 3 4 5 6 
#
# 1 0.008937 -0.008991 -0.003069 0.000000 0.000000 0.000000
# 2 -0.008991 0.039802 -0.003017 0.000000 0.000000 0.000000
# 3 -0.003069 -0.003017 0.012316 0.000000 0.000000 0.000000
# 4 0.000000 0.000000 0.000000 0.122589 0.000000 0.000000
# 5 0.000000 0.000000 0.000000 0.000000 0.025764 0.000000
# 6 0.000000 0.000000 0.000000 0.000000 0.000000 0.033870
#
#
# Mechanical properties :
#
#
# Convention : Reuss Voigt Hill
#
# Bulk Modulus (GPa) = 32.36039 60.49667 46.42853
# Shear Modulus (GPa) = 17.62229 28.15644 22.88937
#
# Velocity S-wave (km/s) = 2.97123 3.75572 3.38627
# Velocity P-wave (km/s) = 5.28984 7.00815 6.20872
#
# Compressibility (1/GPa) = 0.03090198
#
# Stress axis : x y z
#
# Youngs Moduli (GPa) = 111.89325 25.12440 81.19420
#
# Poissons Ratio (x) = 0.22589 0.24916
# Poissons Ratio (y) = 1.00602 0.24497
# Poissons Ratio (z) = 0.34337 0.07580
#
# Static dielectric constant tensor:
#      x y z
#    x 1.689970 0.000000 0.000000 
#    y 0.000000 1.719280 0.000000 
#    z 0.000000 0.000000 1.777710 
# 
# From -- ./inp_files/21912.got.cif
#   From: 2010.05.17/outbox.cif.g08.bks.cpg/sg51_11_cif.got.tgz:21912.got - 2010.06.03 11:52:47.
