data_PCOD9406321
_publ_section_title
;
Structure prediction by ZEFSAII (Michael W. Deem and Ramdas Pophale) SiO2 
 PCOD9406321
Probable space group: P M M A
;
_chemical_formula_sum "Si O2"
_cell_formula_units_Z 36
_cell_length_a 9.204793
_cell_length_b 8.038191
_cell_length_c 25.154156
_cell_angle_alpha 90.000000
_cell_angle_beta 90.000000
_cell_angle_gamma 90.000000
_cell_volume 1861.153091
_symmetry_space_group_name_H-M "P M M A"
_symmetry_group_IT_number 51
_symmetry_cell_setting 'orthorhombic'
loop_
_space_group_symop_operation_xyz
x,y,z
1/2-x,-y,z
1/2+x,-y,-z
-x,y,-z
-x,-y,-z
1/2+x,y,-z
1/2-x,y,z
x,-y,z
loop_
_atom_site_type_symbol
_atom_site_label
_atom_site_fract_x
_atom_site_fract_y
_atom_site_fract_z
Si Si1 0.916899 0.301242 0.159914
Si Si2 0.917166 0.201410 0.946875
Si Si3 0.918110 0.803343 0.734346
Si Si4 0.574899 0.000000 0.443012
Si Si5 0.423643 0.686293 0.630029
O O1 0.750000 0.242083 0.157929
O O2 0.915944 0.500000 0.165806
O O3 0.999143 0.256660 0.105749
O O4 0.999754 0.227804 0.210529
O O5 0.750000 0.258373 0.946486
O O6 0.916209 0.000000 0.947453
O O7 0.000000 0.258364 0.000000
O O8 0.750000 0.752096 0.739097
O O9 0.996269 0.711206 0.685932
O O10 0.922831 0.000000 0.722627
O O11 0.500000 0.000000 0.500000
O O12 0.534202 0.834818 0.409686
O O13 0.750000 0.000000 0.448968
O O14 0.250000 0.700316 0.638929
O O15 0.453361 0.500000 0.609305
#
# Coordination Sequence:
#
# PCOD9406321 Si02
#       5
#     8   8   8   4   8
#     4  11  24  39  56  82 115 152 194 239 292 354
#     4  10  21  38  60  84 110 144 189 239 293 354
#     4  11  23  38  59  88 120 154 195 244 300 358
#     4  10  22  40  62  90 126 164 205 252 297 350
#     4  10  21  39  63  90 121 161 206 249 300 359
#
# _framework density 19.342846999999999
#
# number of rings (size 3 to 8) (size 9 to 14) (size 15 to 20)
#    0.000    1.556    1.111    3.333    0.000   12.000 
#    0.000    0.000    0.000    0.000    0.000    0.000 
#    0.000    0.000    0.000    0.000    0.000    0.000 
#
# Total GULP energy -201255.002943 kJ/mol
# GULP energy per Si atom -5590.416748 kJ/mol
# Density = 1.929882 g / cm^3
# Si number density = 19.342847 Si / 1000 Ang^3
#
#
#
# Elastic Constant Matrix: (Units=GPa)
#
#
# Indices 1 2 3 4 5 6 
#
# 1 110.7827 47.0454 68.2855 0.0000 0.0000 0.0000
# 2 47.0454 90.6418 52.7272 0.0000 0.0000 0.0000
# 3 68.2855 52.7272 148.6710 0.0000 0.0000 0.0000
# 4 0.0000 0.0000 0.0000 -0.6800 0.0000 0.0000
# 5 0.0000 0.0000 0.0000 0.0000 43.3454 0.0000
# 6 0.0000 0.0000 0.0000 0.0000 0.0000 15.3104
#
#
#
# Elastic Compliance Matrix: (Units=1/GPa)
#
#
# Indices 1 2 3 4 5 6 
#
# 1 0.013855 -0.004396 -0.004805 0.000000 0.000000 0.000000
# 2 -0.004396 0.015295 -0.003405 0.000000 0.000000 0.000000
# 3 -0.004805 -0.003405 0.010141 0.000000 0.000000 0.000000
# 4 0.000000 0.000000 0.000000 -1.470511 0.000000 0.000000
# 5 0.000000 0.000000 0.000000 0.000000 0.023070 0.000000
# 6 0.000000 0.000000 0.000000 0.000000 0.000000 0.065315
#
#
# Mechanical properties :
#
#
# Convention : Reuss Voigt Hill
#
# Bulk Modulus (GPa) = 71.02933 76.24574 73.63753
# Shear Modulus (GPa) = -3.80828 23.73099 9.96135
#
# Velocity S-wave (km/s) = -1.40467 3.50646 2.27180
# Velocity P-wave (km/s) = 5.84552 7.47645 6.71072
#
# Compressibility (1/GPa) = 0.01407869
#
# Stress axis : x y z
#
# Youngs Moduli (GPa) = 72.17550 65.38043 98.61223
#
# Poissons Ratio (x) = 0.28743 0.47379
# Poissons Ratio (y) = 0.31730 0.33580
# Poissons Ratio (z) = 0.34677 0.22264
#
# Static dielectric constant tensor:
#      x y z
#    x 1.658800 0.000000 0.000000 
#    y 0.000000 1.698000 0.000000 
#    z 0.000000 0.000000 1.611880 
# 
# From -- ./inp_files/34312.got.cif
#   From: 2010.05.17/outbox.cif.g08.bks.cpg/sg51_18_cif.got.tgz:34312.got - 2010.06.03 11:52:47.
