data_PCOD9406712
_publ_section_title
;
Structure prediction by ZEFSAII (Michael W. Deem and Ramdas Pophale) SiO2 
 PCOD9406712
Probable space group: P M M A
;
_chemical_formula_sum "Si O2"
_cell_formula_units_Z 24
_cell_length_a 12.331415
_cell_length_b 7.280820
_cell_length_c 10.178958
_cell_angle_alpha 90.000000
_cell_angle_beta 90.000000
_cell_angle_gamma 90.000000
_cell_volume 913.895482
_symmetry_space_group_name_H-M "P M M A"
_symmetry_group_IT_number 51
_symmetry_cell_setting 'orthorhombic'
loop_
_space_group_symop_operation_xyz
x,y,z
1/2-x,-y,z
1/2+x,-y,-z
-x,y,-z
-x,-y,-z
1/2+x,y,-z
1/2-x,y,z
x,-y,z
loop_
_atom_site_type_symbol
_atom_site_label
_atom_site_fract_x
_atom_site_fract_y
_atom_site_fract_z
Si Si1 0.372481 0.791680 0.514723
Si Si2 0.862809 0.277099 0.896918
Si Si3 0.910288 0.278198 0.193961
O O1 0.500000 0.714230 0.500000
O O2 0.250000 0.716273 0.471799
O O3 0.362895 0.793300 0.672776
O O4 0.377950 0.000000 0.464672
O O5 0.750000 0.215983 0.840515
O O6 0.866728 0.500000 0.899731
O O7 0.869622 0.221523 0.049676
O O8 0.964447 0.221579 0.813147
O O9 0.899655 0.500000 0.198070
#
# Coordination Sequence:
#
# PCOD9406712 Si02
#       3
#     8   8   8
#     4  10  22  39  55  71  97 134 171 208 253 300
#     4   8  14  26  46  74 107 136 159 193 247 302
#     4   9  17  30  51  77 101 129 167 206 244 292
#
# _framework density 26.261209000000001
#
# number of rings (size 3 to 8) (size 9 to 14) (size 15 to 20)
#    0.000    3.000    0.000    3.000    0.000    4.000 
#    0.000    3.333    0.000    2.000    0.000    0.000 
#    0.000    0.000    0.000    0.000    0.000    0.000 
#
# Total GULP energy -133704.347831 kJ/mol
# GULP energy per Si atom -5571.014493 kJ/mol
# Density = 2.620144 g / cm^3
# Si number density = 26.261209 Si / 1000 Ang^3
#
#
#
# Elastic Constant Matrix: (Units=GPa)
#
#
# Indices 1 2 3 4 5 6 
#
# 1 281.5106 5.3165 32.8321 0.0000 0.0000 0.0000
# 2 5.3165 110.7903 2.4493 0.0000 0.0000 0.0000
# 3 32.8321 2.4493 106.6957 0.0000 0.0000 0.0000
# 4 0.0000 0.0000 0.0000 19.0713 0.0000 0.0000
# 5 0.0000 0.0000 0.0000 0.0000 -17.2744 0.0000
# 6 0.0000 0.0000 0.0000 0.0000 0.0000 -52.3312
#
#
#
# Elastic Compliance Matrix: (Units=1/GPa)
#
#
# Indices 1 2 3 4 5 6 
#
# 1 0.003687 -0.000152 -0.001131 0.000000 0.000000 0.000000
# 2 -0.000152 0.009037 -0.000161 0.000000 0.000000 0.000000
# 3 -0.001131 -0.000161 0.009724 0.000000 0.000000 0.000000
# 4 0.000000 0.000000 0.000000 0.052435 0.000000 0.000000
# 5 0.000000 0.000000 0.000000 0.000000 -0.057889 0.000000
# 6 0.000000 0.000000 0.000000 0.000000 0.000000 -0.019109
#
#
# Mechanical properties :
#
#
# Convention : Reuss Voigt Hill
#
# Bulk Modulus (GPa) = 51.12283 64.46581 57.79432
# Shear Modulus (GPa) = 685.64527 20.45305 353.04916
#
# Velocity S-wave (km/s) = 16.17571 2.79378 11.60730
# Velocity P-wave (km/s) = 19.19325 5.91677 14.20192
#
# Compressibility (1/GPa) = 0.01956073
#
# Stress axis : x y z
#
# Youngs Moduli (GPa) = 271.21954 110.65737 102.83635
#
# Poissons Ratio (x) = 0.01681 0.11632
# Poissons Ratio (y) = 0.04120 0.01653
# Poissons Ratio (z) = 0.30677 0.01778
#
# Static dielectric constant tensor:
#      x y z
#    x 2.221970 0.000000 0.000000 
#    y 0.000000 2.032300 0.000000 
#    z 0.000000 0.000000 1.949460 
# 
# From -- ./inp_files/6525.got.cif
#   From: 2010.05.17/outbox.cif.g08.bks.cpg/sg51_4_cif.got.tgz:6525.got - 2010.06.03 11:52:47.
