data_PCOD9406193
_publ_section_title
;
Structure prediction by ZEFSAII (Michael W. Deem and Ramdas Pophale) SiO2 
 PCOD9406193
Probable space group: P M M A
;
_chemical_formula_sum "Si O2"
_cell_formula_units_Z 64
_cell_length_a 15.010497
_cell_length_b 22.961577
_cell_length_c 9.101690
_cell_angle_alpha 90.000000
_cell_angle_beta 90.000000
_cell_angle_gamma 90.000000
_cell_volume 3137.031096
_symmetry_space_group_name_H-M "P M M A"
_symmetry_group_IT_number 51
_symmetry_cell_setting 'orthorhombic'
loop_
_space_group_symop_operation_xyz
x,y,z
1/2-x,-y,z
1/2+x,-y,-z
-x,y,-z
-x,-y,-z
1/2+x,y,-z
1/2-x,y,z
x,-y,z
loop_
_atom_site_type_symbol
_atom_site_label
_atom_site_fract_x
_atom_site_fract_y
_atom_site_fract_z
Si Si1 0.906140 0.351334 0.915991
Si Si2 0.355707 0.242338 0.262486
Si Si3 0.849497 0.612204 0.221322
Si Si4 0.479376 0.434273 0.333188
Si Si5 0.646857 0.143515 0.355283
Si Si6 0.475761 0.867982 0.168750
Si Si7 0.354192 0.934924 0.361003
Si Si8 0.644955 0.278592 0.419914
O O1 0.864463 0.291443 0.860715
O O2 0.921964 0.393197 0.774959
O O3 0.849069 0.378333 0.047198
O O4 0.000000 0.340903 0.000000
O O5 0.250000 0.225235 0.279652
O O6 0.419777 0.188982 0.220882
O O7 0.390341 0.272276 0.414077
O O8 0.750000 0.598228 0.272388
O O9 0.923449 0.565418 0.259125
O O10 0.883048 0.671288 0.306476
O O11 0.500000 0.413765 0.500000
O O12 0.442628 0.500000 0.341519
O O13 0.750000 0.130405 0.315942
O O14 0.569281 0.123032 0.250244
O O15 0.629979 0.113401 0.513036
O O16 0.636587 0.213361 0.359024
O O17 0.412528 0.920335 0.219929
O O18 0.500000 0.863169 0.000000
O O19 0.250000 0.931926 0.324327
O O20 0.373322 0.000000 0.417783
O O21 0.750000 0.290042 0.439485
#
# Coordination Sequence:
#
# PCOD9406193 Si02
#       8
#     8   8   8   8   8   8   8   8
#     4  10  22  37  56  87 122 160 202 252 312 381
#     4  11  22  38  59  86 126 166 210 261 317 378
#     4  10  21  37  60  89 120 160 203 255 321 379
#     4  10  22  41  63  87 119 163 212 261 305 366
#     4  10  22  41  62  90 123 164 214 264 312 370
#     4  12  26  38  59  96 132 171 208 258 323 391
#     4  10  22  45  72  94 122 165 218 271 318 373
#     4   9  19  35  57  84 118 156 204 258 310 363
#
# _framework density 20.401456
#
# number of rings (size 3 to 8) (size 9 to 14) (size 15 to 20)
#    0.000    1.750    1.250    2.250    5.250    4.750 
#    0.000    0.625    0.000    4.125    0.000    0.000 
#    0.000    0.000    0.000    0.000    0.000    0.000 
#
# Total GULP energy -357004.657188 kJ/mol
# GULP energy per Si atom -5578.197769 kJ/mol
# Density = 2.035502 g / cm^3
# Si number density = 20.401456 Si / 1000 Ang^3
#
#
#
# Elastic Constant Matrix: (Units=GPa)
#
#
# Indices 1 2 3 4 5 6 
#
# 1 62.5457 25.3911 39.1338 0.0000 0.0000 0.0000
# 2 25.3911 75.9938 29.6642 0.0000 0.0000 0.0000
# 3 39.1338 29.6642 116.9341 0.0000 0.0000 0.0000
# 4 0.0000 0.0000 0.0000 7.8935 0.0000 0.0000
# 5 0.0000 0.0000 0.0000 0.0000 12.4641 0.0000
# 6 0.0000 0.0000 0.0000 0.0000 0.0000 20.7301
#
#
#
# Elastic Compliance Matrix: (Units=1/GPa)
#
#
# Indices 1 2 3 4 5 6 
#
# 1 0.021760 -0.004914 -0.006036 0.000000 0.000000 0.000000
# 2 -0.004914 0.015715 -0.002342 0.000000 0.000000 0.000000
# 3 -0.006036 -0.002342 0.011166 0.000000 0.000000 0.000000
# 4 0.000000 0.000000 0.000000 0.126686 0.000000 0.000000
# 5 0.000000 0.000000 0.000000 0.000000 0.080231 0.000000
# 6 0.000000 0.000000 0.000000 0.000000 0.000000 0.048239
#
#
# Mechanical properties :
#
#
# Convention : Reuss Voigt Hill
#
# Bulk Modulus (GPa) = 45.33736 49.31687 47.32711
# Shear Modulus (GPa) = 14.80462 18.96984 16.88723
#
# Velocity S-wave (km/s) = 2.69674 3.05262 2.88018
# Velocity P-wave (km/s) = 5.65397 6.05395 5.85738
#
# Compressibility (1/GPa) = 0.02205686
#
# Stress axis : x y z
#
# Youngs Moduli (GPa) = 45.95655 63.63279 89.55901
#
# Poissons Ratio (x) = 0.31272 0.54053
# Poissons Ratio (y) = 0.22585 0.20975
# Poissons Ratio (z) = 0.27737 0.14903
#
# Static dielectric constant tensor:
#      x y z
#    x 1.743490 0.000000 0.000000 
#    y 0.000000 1.741380 0.000000 
#    z 0.000000 0.000000 1.749640 
# 
# From -- ./inp_files/8732.got.cif
#   From: 2010.05.17/outbox.cif.g08.bks.cpg/sg51_5_cif.got.tgz:8732.got - 2010.06.03 11:52:47.
