data_PCOD9406652
_publ_section_title
;
Structure prediction by ZEFSAII (Michael W. Deem and Ramdas Pophale) SiO2 
 PCOD9406652
Probable space group: P M M A
;
_chemical_formula_sum "Si O2"
_cell_formula_units_Z 30
_cell_length_a 14.465519
_cell_length_b 16.374953
_cell_length_c 5.947892
_cell_angle_alpha 90.000000
_cell_angle_beta 90.000000
_cell_angle_gamma 90.000000
_cell_volume 1408.890226
_symmetry_space_group_name_H-M "P M M A"
_symmetry_group_IT_number 51
_symmetry_cell_setting 'orthorhombic'
loop_
_space_group_symop_operation_xyz
x,y,z
1/2-x,-y,z
1/2+x,-y,-z
-x,y,-z
-x,-y,-z
1/2+x,y,-z
1/2-x,y,z
x,-y,z
loop_
_atom_site_type_symbol
_atom_site_label
_atom_site_fract_x
_atom_site_fract_y
_atom_site_fract_z
Si Si1 0.897910 0.666941 0.420256
Si Si2 0.454077 0.500000 0.753878
Si Si3 0.250000 0.728697 0.880330
Si Si4 0.890860 0.000000 0.032699
Si Si5 0.250000 0.000000 0.578774
Si Si6 0.750000 0.119731 0.813243
Si Si7 0.250000 0.401551 0.234848
O O1 0.906160 0.587450 0.261542
O O2 0.839113 0.733293 0.282332
O O3 0.838521 0.633158 0.629914
O O4 0.000000 0.692622 0.500000
O O5 0.500000 0.500000 0.500000
O O6 0.500000 0.500000 0.000000
O O7 0.250000 0.789612 0.091370
O O8 0.250000 0.639805 0.993924
O O9 0.844237 0.000000 0.277929
O O10 0.841449 0.922602 0.916562
O O11 0.000000 0.000000 0.000000
O O12 0.250000 0.084130 0.437176
O O13 0.250000 0.500000 0.233117
#
# Coordination Sequence:
#
# PCOD9406652 Si02
#       7
#     8   4   4   4   2   4   4
#     4  10  24  42  62  90 129 180 239 295 354 419
#     4  10  22  37  66  91 123 170 243 311 352 411
#     4  11  26  39  67  94 143 178 226 293 356 418
#     4   9  19  41  78 100 132 177 224 252 325 418
#     4   8  18  38  78  98 150 170 212 274 336 396
#     4   9  21  42  62 105 145 172 213 281 335 401
#     4  11  24  40  61  92 126 180 241 286 357 415
#
# _framework density 21.293355999999999
#
# number of rings (size 3 to 8) (size 9 to 14) (size 15 to 20)
#    0.000    2.400    1.333    0.000    9.333    6.400 
#    4.800    0.000    0.000    0.000    0.000    0.000 
#    0.000    0.000    0.000    0.000    0.000    0.000 
#
# Total GULP energy -167133.485553 kJ/mol
# GULP energy per Si atom -5571.116185 kJ/mol
# Density = 2.124489 g / cm^3
# Si number density = 21.293356 Si / 1000 Ang^3
#
#
#
# Elastic Constant Matrix: (Units=GPa)
#
#
# Indices 1 2 3 4 5 6 
#
# 1 191.2628 33.3818 73.2301 0.0000 0.0000 0.0000
# 2 33.3818 57.7914 31.9362 0.0000 0.0000 0.0000
# 3 73.2301 31.9362 120.1270 0.0000 0.0000 0.0000
# 4 0.0000 0.0000 0.0000 -2.5279 0.0000 0.0000
# 5 0.0000 0.0000 0.0000 0.0000 26.8892 0.0000
# 6 0.0000 0.0000 0.0000 0.0000 0.0000 8.5976
#
#
#
# Elastic Compliance Matrix: (Units=1/GPa)
#
#
# Indices 1 2 3 4 5 6 
#
# 1 0.007008 -0.001978 -0.003746 0.000000 0.000000 0.000000
# 2 -0.001978 0.020842 -0.004335 0.000000 0.000000 0.000000
# 3 -0.003746 -0.004335 0.011761 0.000000 0.000000 0.000000
# 4 0.000000 0.000000 0.000000 -0.395580 0.000000 0.000000
# 5 0.000000 0.000000 0.000000 0.000000 0.037190 0.000000
# 6 0.000000 0.000000 0.000000 0.000000 0.000000 0.116311
#
#
# Mechanical properties :
#
#
# Convention : Reuss Voigt Hill
#
# Bulk Modulus (GPa) = 51.30310 71.80859 61.55585
# Shear Modulus (GPa) = -28.43280 21.96732 -3.23274
#
# Velocity S-wave (km/s) = -3.65813 3.21542 -1.23349
# Velocity P-wave (km/s) = 2.51063 6.89796 5.19062
#
# Compressibility (1/GPa) = 0.01949200
#
# Stress axis : x y z
#
# Youngs Moduli (GPa) = 142.69487 47.98072 85.02802
#
# Poissons Ratio (x) = 0.09489 0.31854
# Poissons Ratio (y) = 0.28221 0.36862
# Poissons Ratio (z) = 0.53458 0.20801
#
# Static dielectric constant tensor:
#      x y z
#    x 1.861750 0.000000 0.000000 
#    y 0.000000 1.863400 0.000000 
#    z 0.000000 0.000000 1.808820 
# 
# From -- ./inp_files/1299.got.cif
#   From: 2010.05.17/outbox.cif.g08.bks.cpg/sg51_1_cif.got.tgz:1299.got - 2010.06.03 11:52:47.
