data_PCOD9406363
_publ_section_title
;
Structure prediction by ZEFSAII (Michael W. Deem and Ramdas Pophale) SiO2 
 PCOD9406363
Probable space group: P M M A
;
_chemical_formula_sum "Si O2"
_cell_formula_units_Z 56
_cell_length_a 16.266949
_cell_length_b 8.358893
_cell_length_c 19.954208
_cell_angle_alpha 90.000000
_cell_angle_beta 90.000000
_cell_angle_gamma 90.000000
_cell_volume 2713.247216
_symmetry_space_group_name_H-M "P M M A"
_symmetry_group_IT_number 51
_symmetry_cell_setting 'orthorhombic'
loop_
_space_group_symop_operation_xyz
x,y,z
1/2-x,-y,z
1/2+x,-y,-z
-x,y,-z
-x,-y,-z
1/2+x,y,-z
1/2-x,y,z
x,-y,z
loop_
_atom_site_type_symbol
_atom_site_label
_atom_site_fract_x
_atom_site_fract_y
_atom_site_fract_z
Si Si1 0.496820 0.192029 0.923881
Si Si2 0.576875 0.691087 0.292514
Si Si3 0.345052 0.695148 0.568217
Si Si4 0.897619 0.816743 0.719811
Si Si5 0.658558 0.806503 0.163370
Si Si6 0.339701 0.312658 0.147086
Si Si7 0.349335 0.316070 0.421795
O O1 0.416479 0.250480 0.883505
O O2 0.581477 0.232636 0.886596
O O3 0.489633 0.000000 0.926370
O O4 0.500000 0.253247 0.000000
O O5 0.563457 0.500000 0.293017
O O6 0.603792 0.742852 0.366911
O O7 0.493558 0.778553 0.271752
O O8 0.644081 0.734869 0.237071
O O9 0.250000 0.745751 0.576244
O O10 0.344723 0.500000 0.566263
O O11 0.376488 0.746101 0.494873
O O12 0.848958 0.710441 0.772996
O O13 0.875926 0.779635 0.643155
O O14 0.879974 0.000000 0.735800
O O15 0.750000 0.764835 0.138612
O O16 0.654020 0.000000 0.168086
O O17 0.250000 0.248647 0.126170
O O18 0.342646 0.500000 0.131583
O O19 0.250000 0.318840 0.424495
O O20 0.378370 0.500000 0.413797
#
# Coordination Sequence:
#
# PCOD9406363 Si02
#       7
#     8   8   8   8   8   8   8
#     4  10  22  41  66  96 130 167 204 242 290 357
#     4  11  21  35  58  85 114 152 202 254 300 353
#     4   8  16  32  54  80 109 144 192 247 299 354
#     4  12  24  37  55  82 118 156 198 250 308 366
#     4  10  21  38  60  89 126 164 201 246 300 356
#     4  11  24  42  65  93 124 161 206 256 307 357
#     4   9  18  35  57  79 107 146 194 248 301 355
#
# _framework density 20.639475000000001
#
# number of rings (size 3 to 8) (size 9 to 14) (size 15 to 20)
#    0.000    1.857    1.429    3.857    0.000    5.429 
#    0.000    5.714    0.000    1.714    0.000    0.000 
#    0.000    0.000    0.000    0.000    0.000    0.000 
#
# Total GULP energy -312796.118525 kJ/mol
# GULP energy per Si atom -5585.644974 kJ/mol
# Density = 2.059250 g / cm^3
# Si number density = 20.639475 Si / 1000 Ang^3
#
#
#
# Elastic Constant Matrix: (Units=GPa)
#
#
# Indices 1 2 3 4 5 6 
#
# 1 102.4396 -0.9470 42.2735 0.0000 0.0000 0.0000
# 2 -0.9470 13.2752 0.3500 0.0000 0.0000 0.0000
# 3 42.2735 0.3500 113.9135 0.0000 0.0000 0.0000
# 4 0.0000 0.0000 0.0000 22.7407 0.0000 0.0000
# 5 0.0000 0.0000 0.0000 0.0000 13.2294 0.0000
# 6 0.0000 0.0000 0.0000 0.0000 0.0000 24.0896
#
#
#
# Elastic Compliance Matrix: (Units=1/GPa)
#
#
# Indices 1 2 3 4 5 6 
#
# 1 0.011539 0.000936 -0.004285 0.000000 0.000000 0.000000
# 2 0.000936 0.075411 -0.000579 0.000000 0.000000 0.000000
# 3 -0.004285 -0.000579 0.010371 0.000000 0.000000 0.000000
# 4 0.000000 0.000000 0.000000 0.043974 0.000000 0.000000
# 5 0.000000 0.000000 0.000000 0.000000 0.075589 0.000000
# 6 0.000000 0.000000 0.000000 0.000000 0.000000 0.041512
#
#
# Mechanical properties :
#
#
# Convention : Reuss Voigt Hill
#
# Bulk Modulus (GPa) = 11.17767 34.77570 22.97669
# Shear Modulus (GPa) = 16.88777 24.54205 20.71491
#
# Velocity S-wave (km/s) = 2.86357 3.45205 3.17149
# Velocity P-wave (km/s) = 4.04485 5.72491 4.95658
#
# Compressibility (1/GPa) = 0.08946406
#
# Stress axis : x y z
#
# Youngs Moduli (GPa) = 86.66449 13.26073 96.42719
#
# Poissons Ratio (x) = -0.01241 0.41318
# Poissons Ratio (y) = -0.08113 0.05584
# Poissons Ratio (z) = 0.37135 0.00768
#
# Static dielectric constant tensor:
#      x y z
#    x 1.745480 0.000000 0.000000 
#    y 0.000000 1.716460 0.000000 
#    z 0.000000 0.000000 1.736490 
# 
# From -- ./inp_files/33487.got.cif
#   From: 2010.05.17/outbox.cif.g08.bks.cpg/sg51_17_cif.got.tgz:33487.got - 2010.06.03 11:52:47.
