data_PCOD9406669
_publ_section_title
;
Structure prediction by ZEFSAII (Michael W. Deem and Ramdas Pophale) SiO2 
 PCOD9406669
Probable space group: P M M A
;
_chemical_formula_sum "Si O2"
_cell_formula_units_Z 40
_cell_length_a 19.283225
_cell_length_b 7.357236
_cell_length_c 13.142066
_cell_angle_alpha 90.000000
_cell_angle_beta 90.000000
_cell_angle_gamma 90.000000
_cell_volume 1864.481162
_symmetry_space_group_name_H-M "P M M A"
_symmetry_group_IT_number 51
_symmetry_cell_setting 'orthorhombic'
loop_
_space_group_symop_operation_xyz
x,y,z
1/2-x,-y,z
1/2+x,-y,-z
-x,y,-z
-x,-y,-z
1/2+x,y,-z
1/2-x,y,z
x,-y,z
loop_
_atom_site_type_symbol
_atom_site_label
_atom_site_fract_x
_atom_site_fract_y
_atom_site_fract_z
Si Si1 0.832841 0.290700 0.819303
Si Si2 0.593876 0.279730 0.612242
Si Si3 0.963299 0.000000 0.109498
Si Si4 0.831682 0.000000 0.989970
Si Si5 0.670517 0.278339 0.407985
Si Si6 0.458523 0.282401 0.720299
O O1 0.750000 0.283854 0.803906
O O2 0.853502 0.500000 0.835019
O O3 0.868039 0.223153 0.716072
O O4 0.847995 0.171579 0.917736
O O5 0.597500 0.500000 0.608056
O O6 0.634083 0.215919 0.512682
O O7 0.513365 0.235789 0.630707
O O8 0.979501 0.174281 0.179025
O O9 0.881595 0.000000 0.085160
O O10 0.000000 0.000000 0.000000
O O11 0.750000 0.000000 0.013764
O O12 0.750000 0.217971 0.398866
O O13 0.671733 0.500000 0.410605
O O14 0.618089 0.230298 0.317357
O O15 0.461598 0.500000 0.735738
#
# Coordination Sequence:
#
# PCOD9406669 Si02
#       6
#     8   8   4   4   8   8
#     4   9  17  31  53  81 111 142 179 227 280 330
#     4   9  16  30  55  85 116 149 183 220 267 326
#     4  12  26  42  60  81 107 144 192 243 289 330
#     4  10  22  38  55  77 106 140 183 237 290 336
#     4   9  17  32  57  88 120 153 185 217 263 329
#     4  10  22  39  59  83 113 148 185 229 278 328
#
# _framework density 21.453690000000002
#
# number of rings (size 3 to 8) (size 9 to 14) (size 15 to 20)
#    0.000    2.400    0.000    2.400    0.000    6.800 
#    0.000    3.000    0.000    0.000    0.000    0.000 
#    0.000    0.000    0.000    0.000    0.000    0.000 
#
# Total GULP energy -223479.938786 kJ/mol
# GULP energy per Si atom -5586.998470 kJ/mol
# Density = 2.140486 g / cm^3
# Si number density = 21.453690 Si / 1000 Ang^3
#
#
#
# Elastic Constant Matrix: (Units=GPa)
#
#
# Indices 1 2 3 4 5 6 
#
# 1 107.7708 26.4228 48.5852 0.0000 0.0000 0.0000
# 2 26.4228 89.7063 30.5709 0.0000 0.0000 0.0000
# 3 48.5852 30.5709 92.8155 0.0000 0.0000 0.0000
# 4 0.0000 0.0000 0.0000 19.2215 0.0000 0.0000
# 5 0.0000 0.0000 0.0000 0.0000 42.2915 0.0000
# 6 0.0000 0.0000 0.0000 0.0000 0.0000 5.7412
#
#
#
# Elastic Compliance Matrix: (Units=1/GPa)
#
#
# Indices 1 2 3 4 5 6 
#
# 1 0.012349 -0.001616 -0.005932 0.000000 0.000000 0.000000
# 2 -0.001616 0.012768 -0.003360 0.000000 0.000000 0.000000
# 3 -0.005932 -0.003360 0.014986 0.000000 0.000000 0.000000
# 4 0.000000 0.000000 0.000000 0.052025 0.000000 0.000000
# 5 0.000000 0.000000 0.000000 0.000000 0.023645 0.000000
# 6 0.000000 0.000000 0.000000 0.000000 0.000000 0.174181
#
#
# Mechanical properties :
#
#
# Convention : Reuss Voigt Hill
#
# Bulk Modulus (GPa) = 54.68011 55.71669 55.19840
# Shear Modulus (GPa) = 15.72986 25.76509 20.74748
#
# Velocity S-wave (km/s) = 2.71071 3.46925 3.11317
# Velocity P-wave (km/s) = 5.94475 6.48650 6.22152
#
# Compressibility (1/GPa) = 0.01828818
#
# Stress axis : x y z
#
# Youngs Moduli (GPa) = 80.97500 78.31835 66.72919
#
# Poissons Ratio (x) = 0.12655 0.39585
# Poissons Ratio (y) = 0.13085 0.22419
# Poissons Ratio (z) = 0.48036 0.26313
#
# Static dielectric constant tensor:
#      x y z
#    x 1.791500 0.000000 0.000000 
#    y 0.000000 1.806750 0.000000 
#    z 0.000000 0.000000 1.713160 
# 
# From -- ./inp_files/17920.got.cif
#   From: 2010.05.17/outbox.cif.g08.bks.cpg/sg51_9_cif.got.tgz:17920.got - 2010.06.03 11:52:47.
