data_PCOD9406547
_publ_section_title
;
Structure prediction by ZEFSAII (Michael W. Deem and Ramdas Pophale) SiO2 
 PCOD9406547
Probable space group: P M M A
;
_chemical_formula_sum "Si O2"
_cell_formula_units_Z 40
_cell_length_a 9.895332
_cell_length_b 13.931164
_cell_length_c 13.778951
_cell_angle_alpha 90.000000
_cell_angle_beta 90.000000
_cell_angle_gamma 90.000000
_cell_volume 1899.476524
_symmetry_space_group_name_H-M "P M M A"
_symmetry_group_IT_number 51
_symmetry_cell_setting 'orthorhombic'
loop_
_space_group_symop_operation_xyz
x,y,z
1/2-x,-y,z
1/2+x,-y,-z
-x,y,-z
-x,-y,-z
1/2+x,y,-z
1/2-x,y,z
x,-y,z
loop_
_atom_site_type_symbol
_atom_site_label
_atom_site_fract_x
_atom_site_fract_y
_atom_site_fract_z
Si Si1 0.750000 0.883590 0.433701
Si Si2 0.406030 0.383478 0.413777
Si Si3 0.460992 0.115739 0.727328
Si Si4 0.750000 0.116212 0.656004
Si Si5 0.594215 0.236441 0.085456
Si Si6 0.090665 0.385014 0.191487
O O1 0.878613 0.855891 0.369070
O O2 0.750000 0.851543 0.544367
O O3 0.750000 0.000000 0.437838
O O4 0.500000 0.346204 0.500000
O O5 0.250000 0.357063 0.428235
O O6 0.410568 0.500000 0.417525
O O7 0.445513 0.359796 0.303414
O O8 0.615626 0.144600 0.711427
O O9 0.405500 0.165140 0.823005
O O10 0.451460 0.000000 0.735625
O O11 0.750000 0.000000 0.652985
O O12 0.750000 0.255188 0.056758
O O13 0.512232 0.330167 0.121868
O O14 0.500000 0.195338 0.000000
O O15 0.250000 0.360644 0.176527
O O16 0.079614 0.500000 0.180778
#
# Coordination Sequence:
#
# PCOD9406547 Si02
#       6
#     4   8   8   4   8   8
#     4   9  16  34  61  91 130 169 207 249 299 363
#     4   8  14  27  51  83 117 154 191 231 287 353
#     4  10  21  39  63  94 131 168 208 252 302 368
#     4   9  18  32  61  97 128 169 207 245 303 365
#     4  12  27  44  65  89 119 162 210 266 320 365
#     4   9  20  41  67  91 120 159 203 257 317 374
#
# _framework density 21.058433000000001
#
# number of rings (size 3 to 8) (size 9 to 14) (size 15 to 20)
#    0.000    2.400    1.000    2.400    2.800    4.400 
#    0.000    4.000    0.000    0.000    0.000    0.000 
#    0.000    0.000    0.000    0.000    0.000    0.000 
#
# Total GULP energy -223518.748230 kJ/mol
# GULP energy per Si atom -5587.968706 kJ/mol
# Density = 2.101050 g / cm^3
# Si number density = 21.058433 Si / 1000 Ang^3
#
#
#
# Elastic Constant Matrix: (Units=GPa)
#
#
# Indices 1 2 3 4 5 6 
#
# 1 133.5767 9.0888 40.8822 0.0000 0.0000 0.0000
# 2 9.0888 73.7674 10.8832 0.0000 0.0000 0.0000
# 3 40.8822 10.8832 86.3132 0.0000 0.0000 0.0000
# 4 0.0000 0.0000 0.0000 30.5846 0.0000 0.0000
# 5 0.0000 0.0000 0.0000 0.0000 38.1948 0.0000
# 6 0.0000 0.0000 0.0000 0.0000 0.0000 19.5850
#
#
#
# Elastic Compliance Matrix: (Units=1/GPa)
#
#
# Indices 1 2 3 4 5 6 
#
# 1 0.008772 -0.000477 -0.004095 0.000000 0.000000 0.000000
# 2 -0.000477 0.013839 -0.001519 0.000000 0.000000 0.000000
# 3 -0.004095 -0.001519 0.013717 0.000000 0.000000 0.000000
# 4 0.000000 0.000000 0.000000 0.032696 0.000000 0.000000
# 5 0.000000 0.000000 0.000000 0.000000 0.026182 0.000000
# 6 0.000000 0.000000 0.000000 0.000000 0.000000 0.051059
#
#
# Mechanical properties :
#
#
# Convention : Reuss Voigt Hill
#
# Bulk Modulus (GPa) = 41.41383 46.15176 43.78280
# Shear Modulus (GPa) = 30.03093 33.19308 31.61200
#
# Velocity S-wave (km/s) = 3.78044 3.97449 3.87868
# Velocity P-wave (km/s) = 6.22611 6.55940 6.39493
#
# Compressibility (1/GPa) = 0.02414652
#
# Stress axis : x y z
#
# Youngs Moduli (GPa) = 113.99906 72.25961 72.90356
#
# Poissons Ratio (x) = 0.03444 0.29852
# Poissons Ratio (y) = 0.05434 0.11075
# Poissons Ratio (z) = 0.46680 0.10978
#
# Static dielectric constant tensor:
#      x y z
#    x 1.749620 0.000000 0.000000 
#    y 0.000000 1.778500 0.000000 
#    z 0.000000 0.000000 1.746430 
# 
# From -- ./inp_files/20552.got.cif
#   From: 2010.05.17/outbox.cif.g08.bks.cpg/sg51_11_cif.got.tgz:20552.got - 2010.06.03 11:52:47.
