data_PCOD9406850
_publ_section_title
;
Structure prediction by ZEFSAII (Michael W. Deem and Ramdas Pophale) SiO2 
 PCOD9406850
Probable space group: P M M A
;
_chemical_formula_sum "Si O2"
_cell_formula_units_Z 32
_cell_length_a 14.668030
_cell_length_b 20.762922
_cell_length_c 5.128410
_cell_angle_alpha 90.000000
_cell_angle_beta 90.000000
_cell_angle_gamma 90.000000
_cell_volume 1561.863229
_symmetry_space_group_name_H-M "P M M A"
_symmetry_group_IT_number 51
_symmetry_cell_setting 'orthorhombic'
loop_
_space_group_symop_operation_xyz
x,y,z
1/2-x,-y,z
1/2+x,-y,-z
-x,y,-z
-x,-y,-z
1/2+x,y,-z
1/2-x,y,z
x,-y,z
loop_
_atom_site_type_symbol
_atom_site_label
_atom_site_fract_x
_atom_site_fract_y
_atom_site_fract_z
Si Si1 0.096766 0.653331 0.094549
Si Si2 0.938756 0.923315 0.244438
Si Si3 0.250000 0.755890 0.201904
Si Si4 0.356857 0.574117 0.578777
Si Si5 0.250000 0.153343 0.704296
O O1 0.162930 0.709184 0.192775
O O2 0.088856 0.604133 0.336075
O O3 0.134375 0.615312 0.842531
O O4 0.000000 0.679645 0.000000
O O5 0.841830 0.888831 0.275042
O O6 0.000000 0.913549 0.500000
O O7 0.922743 0.000000 0.211896
O O8 0.000000 0.900850 0.000000
O O9 0.250000 0.803942 0.444095
O O10 0.250000 0.797779 0.943132
O O11 0.250000 0.575728 0.499652
O O12 0.382251 0.500000 0.627773
#
# Coordination Sequence:
#
# PCOD9406850 Si02
#       5
#     8   8   4   8   4
#     4  12  25  43  65  90 126 169 214 267 327 388
#     4  10  22  42  69 103 138 169 213 271 326 381
#     4  12  26  44  62  92 132 174 222 266 308 376
#     4  11  22  41  68  94 125 160 204 271 338 397
#     4  12  25  42  70  94 133 180 222 264 318 386
#
# _framework density 20.488348999999999
#
# number of rings (size 3 to 8) (size 9 to 14) (size 15 to 20)
#    0.000    0.750    2.500    4.875    0.000    8.000 
#    0.000    5.000    0.000    0.000    0.000    0.000 
#    0.000    0.000    0.000    0.000    0.000    0.000 
#
# Total GULP energy -179077.503617 kJ/mol
# GULP energy per Si atom -5596.171988 kJ/mol
# Density = 2.044172 g / cm^3
# Si number density = 20.488349 Si / 1000 Ang^3
#
#
#
# Elastic Constant Matrix: (Units=GPa)
#
#
# Indices 1 2 3 4 5 6 
#
# 1 165.3164 81.4856 48.3413 0.0000 0.0000 0.0000
# 2 81.4856 107.4615 63.3508 0.0000 0.0000 0.0000
# 3 48.3413 63.3508 161.4281 0.0000 0.0000 0.0000
# 4 0.0000 0.0000 0.0000 22.8977 0.0000 0.0000
# 5 0.0000 0.0000 0.0000 0.0000 27.8187 0.0000
# 6 0.0000 0.0000 0.0000 0.0000 0.0000 44.4166
#
#
#
# Elastic Compliance Matrix: (Units=1/GPa)
#
#
# Indices 1 2 3 4 5 6 
#
# 1 0.009659 -0.007311 -0.000024 0.000000 0.000000 0.000000
# 2 -0.007311 0.017639 -0.004733 0.000000 0.000000 0.000000
# 3 -0.000024 -0.004733 0.008059 0.000000 0.000000 0.000000
# 4 0.000000 0.000000 0.000000 0.043673 0.000000 0.000000
# 5 0.000000 0.000000 0.000000 0.000000 0.035947 0.000000
# 6 0.000000 0.000000 0.000000 0.000000 0.000000 0.022514
#
#
# Mechanical properties :
#
#
# Convention : Reuss Voigt Hill
#
# Bulk Modulus (GPa) = 89.10046 91.17352 90.13699
# Shear Modulus (GPa) = 30.23569 35.09513 32.66541
#
# Velocity S-wave (km/s) = 3.84572 4.14325 3.99725
# Velocity P-wave (km/s) = 7.95626 8.21495 8.08664
#
# Compressibility (1/GPa) = 0.01122329
#
# Stress axis : x y z
#
# Youngs Moduli (GPa) = 103.52692 56.69140 124.08051
#
# Poissons Ratio (x) = 0.41444 0.00293
# Poissons Ratio (y) = 0.75683 0.58730
# Poissons Ratio (z) = 0.00245 0.26833
#
# Static dielectric constant tensor:
#      x y z
#    x 1.685160 0.000000 0.000000 
#    y 0.000000 1.696900 0.000000 
#    z 0.000000 0.000000 1.688540 
# 
# From -- ./inp_files/1316.got.cif
#   From: 2010.05.17/outbox.cif.g08.bks.cpg/sg51_1_cif.got.tgz:1316.got - 2010.06.03 11:52:47.
