data_PCOD9406109
_publ_section_title
;
Structure prediction by ZEFSAII (Michael W. Deem and Ramdas Pophale) SiO2 
 PCOD9406109
Probable space group: P M M A
;
_chemical_formula_sum "Si O2"
_cell_formula_units_Z 56
_cell_length_a 8.983685
_cell_length_b 14.725951
_cell_length_c 23.443877
_cell_angle_alpha 90.000000
_cell_angle_beta 90.000000
_cell_angle_gamma 90.000000
_cell_volume 3101.467973
_symmetry_space_group_name_H-M "P M M A"
_symmetry_group_IT_number 51
_symmetry_cell_setting 'orthorhombic'
loop_
_space_group_symop_operation_xyz
x,y,z
1/2-x,-y,z
1/2+x,-y,-z
-x,y,-z
-x,-y,-z
1/2+x,y,-z
1/2-x,y,z
x,-y,z
loop_
_atom_site_type_symbol
_atom_site_label
_atom_site_fract_x
_atom_site_fract_y
_atom_site_fract_z
Si Si1 0.574826 0.892688 0.240740
Si Si2 0.575536 0.392299 0.830499
Si Si3 0.427578 0.895231 0.893802
Si Si4 0.072935 0.606068 0.710095
Si Si5 0.427591 0.894126 0.561900
Si Si6 0.073296 0.777118 0.338493
Si Si7 0.572631 0.279191 0.941785
O O1 0.750000 0.871979 0.250552
O O2 0.543454 0.879014 0.173672
O O3 0.476187 0.832271 0.281964
O O4 0.554055 0.000000 0.252642
O O5 0.750000 0.371461 0.818575
O O6 0.564714 0.500000 0.841579
O O7 0.479757 0.371948 0.774548
O O8 0.528302 0.337420 0.886292
O O9 0.250000 0.884051 0.902512
O O10 0.516779 0.822712 0.930091
O O11 0.465381 0.000000 0.906322
O O12 0.250000 0.617163 0.705636
O O13 0.035885 0.500000 0.699843
O O14 0.990283 0.675879 0.668987
O O15 0.500000 0.879126 0.500000
O O16 0.250000 0.881151 0.559263
O O17 0.499324 0.828988 0.608587
O O18 0.455120 0.000000 0.577580
O O19 0.250000 0.776327 0.343827
O O20 0.750000 0.282094 0.946646
O O21 0.500000 0.313573 0.000000
#
# Coordination Sequence:
#
# PCOD9406109 Si02
#       7
#     8   8   8   8   8   8   8
#     4   9  18  33  53  78 108 140 174 216 267 320
#     4   9  19  37  58  80 107 135 165 208 265 324
#     4   9  19  36  55  73  97 131 169 212 263 315
#     4  10  21  37  58  83 109 140 179 222 270 324
#     4  10  21  38  59  83 115 154 194 234 272 313
#     4  12  23  33  52  82 115 150 185 223 268 318
#     4  11  23  36  52  74  99 131 170 212 258 310
#
# _framework density 18.055966000000002
#
# number of rings (size 3 to 8) (size 9 to 14) (size 15 to 20)
#    0.000    2.000    0.000    4.714    0.000    8.571 
#    0.000    1.429    0.000    0.429    0.000    0.000 
#    0.000    0.000    0.000    0.000    0.000    0.000 
#
# Total GULP energy -312913.398382 kJ/mol
# GULP energy per Si atom -5587.739257 kJ/mol
# Density = 1.801487 g / cm^3
# Si number density = 18.055966 Si / 1000 Ang^3
#
#
#
# Elastic Constant Matrix: (Units=GPa)
#
#
# Indices 1 2 3 4 5 6 
#
# 1 82.1724 57.3908 54.8477 0.0000 0.0000 0.0000
# 2 57.3908 83.4583 64.9735 0.0000 0.0000 0.0000
# 3 54.8477 64.9735 74.5141 0.0000 0.0000 0.0000
# 4 0.0000 0.0000 0.0000 19.2787 0.0000 0.0000
# 5 0.0000 0.0000 0.0000 0.0000 31.6267 0.0000
# 6 0.0000 0.0000 0.0000 0.0000 0.0000 26.8482
#
#
#
# Elastic Compliance Matrix: (Units=1/GPa)
#
#
# Indices 1 2 3 4 5 6 
#
# 1 0.026051 -0.009297 -0.011069 0.000000 0.000000 0.000000
# 2 -0.009297 0.040626 -0.028581 0.000000 0.000000 0.000000
# 3 -0.011069 -0.028581 0.046489 0.000000 0.000000 0.000000
# 4 0.000000 0.000000 0.000000 0.051871 0.000000 0.000000
# 5 0.000000 0.000000 0.000000 0.000000 0.031619 0.000000
# 6 0.000000 0.000000 0.000000 0.000000 0.000000 0.037246
#
#
# Mechanical properties :
#
#
# Convention : Reuss Voigt Hill
#
# Bulk Modulus (GPa) = 65.47677 66.06320 65.76999
# Shear Modulus (GPa) = 14.84183 19.74624 17.29404
#
# Velocity S-wave (km/s) = 2.87015 3.31057 3.09820
# Velocity P-wave (km/s) = 6.87936 7.16105 7.02162
#
# Compressibility (1/GPa) = 0.01527259
#
# Stress axis : x y z
#
# Youngs Moduli (GPa) = 38.38680 24.61492 21.51036
#
# Poissons Ratio (x) = 0.22884 0.23809
# Poissons Ratio (y) = 0.35687 0.61479
# Poissons Ratio (z) = 0.42489 0.70352
#
# Static dielectric constant tensor:
#      x y z
#    x 1.599490 0.000000 0.000000 
#    y 0.000000 1.622560 0.000000 
#    z 0.000000 0.000000 1.601070 
# 
# From -- ./inp_files/32034.got.cif
#   From: 2010.05.17/outbox.cif.g08.bks.cpg/sg51_17_cif.got.tgz:32034.got - 2010.06.03 11:52:47.
