data_PCOD9406395
_publ_section_title
;
Structure prediction by ZEFSAII (Michael W. Deem and Ramdas Pophale) SiO2 
 PCOD9406395
Probable space group: P M M A
;
_chemical_formula_sum "Si O2"
_cell_formula_units_Z 48
_cell_length_a 8.778960
_cell_length_b 31.257067
_cell_length_c 9.330602
_cell_angle_alpha 90.000000
_cell_angle_beta 90.000000
_cell_angle_gamma 90.000000
_cell_volume 2560.359558
_symmetry_space_group_name_H-M "P M M A"
_symmetry_group_IT_number 51
_symmetry_cell_setting 'orthorhombic'
loop_
_space_group_symop_operation_xyz
x,y,z
1/2-x,-y,z
1/2+x,-y,-z
-x,y,-z
-x,-y,-z
1/2+x,y,-z
1/2-x,y,z
x,-y,z
loop_
_atom_site_type_symbol
_atom_site_label
_atom_site_fract_x
_atom_site_fract_y
_atom_site_fract_z
Si Si1 0.067896 0.375464 0.157149
Si Si2 0.433133 0.212813 0.840568
Si Si3 0.932739 0.708791 0.659306
Si Si4 0.066146 0.951423 0.842349
Si Si5 0.567805 0.549744 0.343320
Si Si6 0.066562 0.129158 0.657703
O O1 0.250000 0.378641 0.147842
O O2 0.029837 0.335373 0.259262
O O3 0.001107 0.418204 0.227919
O O4 0.000000 0.368554 0.000000
O O5 0.250000 0.215618 0.846928
O O6 0.498311 0.252217 0.749704
O O7 0.475377 0.168894 0.759355
O O8 0.500000 0.213357 0.000000
O O9 0.750000 0.712947 0.652874
O O10 0.000000 0.708663 0.500000
O O11 0.250000 0.949902 0.851059
O O12 0.015852 0.915172 0.731423
O O13 0.021978 0.000000 0.801596
O O14 0.000000 0.942742 0.000000
O O15 0.500000 0.559894 0.500000
O O16 0.750000 0.554166 0.348019
O O17 0.531053 0.500000 0.312229
O O18 0.250000 0.128493 0.647720
O O19 0.000000 0.134410 0.500000
#
# Coordination Sequence:
#
# PCOD9406395 Si02
#       6
#     8   8   8   8   8   8
#     4  11  24  40  60  86 117 153 192 236 284 336
#     4  11  23  39  60  85 114 148 187 232 282 336
#     4  11  24  41  62  88 117 150 189 233 282 336
#     4   9  18  34  55  79 108 142 182 228 277 330
#     4  10  21  38  61  88 118 153 193 237 285 338
#     4  10  22  37  54  80 112 146 185 229 277 331
#
# _framework density 18.747368000000002
#
# number of rings (size 3 to 8) (size 9 to 14) (size 15 to 20)
#    0.000    1.667    0.000    4.000    0.000   10.333 
#    0.000    0.000    0.000    0.000    0.000    0.000 
#    0.000    0.000    0.000    0.000    0.000    0.000 
#
# Total GULP energy -268336.616535 kJ/mol
# GULP energy per Si atom -5590.346178 kJ/mol
# Density = 1.870470 g / cm^3
# Si number density = 18.747368 Si / 1000 Ang^3
#
#
#
# Elastic Constant Matrix: (Units=GPa)
#
#
# Indices 1 2 3 4 5 6 
#
# 1 43.0308 55.0912 59.4813 0.0000 0.0000 0.0000
# 2 55.0912 128.4796 108.5110 0.0000 0.0000 0.0000
# 3 59.4813 108.5110 193.4388 0.0000 0.0000 0.0000
# 4 0.0000 0.0000 0.0000 41.4079 0.0000 0.0000
# 5 0.0000 0.0000 0.0000 0.0000 40.9081 0.0000
# 6 0.0000 0.0000 0.0000 0.0000 0.0000 27.2214
#
#
#
# Elastic Compliance Matrix: (Units=1/GPa)
#
#
# Indices 1 2 3 4 5 6 
#
# 1 0.056306 -0.018093 -0.007165 0.000000 0.000000 0.000000
# 2 -0.018093 0.020604 -0.005995 0.000000 0.000000 0.000000
# 3 -0.007165 -0.005995 0.010736 0.000000 0.000000 0.000000
# 4 0.000000 0.000000 0.000000 0.024150 0.000000 0.000000
# 5 0.000000 0.000000 0.000000 0.000000 0.024445 0.000000
# 6 0.000000 0.000000 0.000000 0.000000 0.000000 0.036736
#
#
# Mechanical properties :
#
#
# Convention : Reuss Voigt Hill
#
# Bulk Modulus (GPa) = 39.77404 90.12403 64.94904
# Shear Modulus (GPa) = 20.50338 31.36520 25.93429
#
# Velocity S-wave (km/s) = 3.31065 4.09473 3.72338
# Velocity P-wave (km/s) = 5.98964 8.39839 7.29413
#
# Compressibility (1/GPa) = 0.02514203
#
# Stress axis : x y z
#
# Youngs Moduli (GPa) = 17.75998 48.53319 93.14867
#
# Poissons Ratio (x) = 0.87810 0.66738
# Poissons Ratio (y) = 0.32133 0.55841
# Poissons Ratio (z) = 0.12724 0.29095
#
# Static dielectric constant tensor:
#      x y z
#    x 1.629070 0.000000 0.000000 
#    y 0.000000 1.644290 0.000000 
#    z 0.000000 0.000000 1.599400 
# 
# From -- ./inp_files/6015.got.cif
#   From: 2010.05.17/outbox.cif.g08.bks.cpg/sg51_4_cif.got.tgz:6015.got - 2010.06.03 11:52:47.
