data_PCOD9406859
_publ_section_title
;
Structure prediction by ZEFSAII (Michael W. Deem and Ramdas Pophale) SiO2 
 PCOD9406859
Probable space group: P M M A
;
_chemical_formula_sum "Si O2"
_cell_formula_units_Z 48
_cell_length_a 16.744973
_cell_length_b 14.301011
_cell_length_c 9.789722
_cell_angle_alpha 90.000000
_cell_angle_beta 90.000000
_cell_angle_gamma 90.000000
_cell_volume 2344.345149
_symmetry_space_group_name_H-M "P M M A"
_symmetry_group_IT_number 51
_symmetry_cell_setting 'orthorhombic'
loop_
_space_group_symop_operation_xyz
x,y,z
1/2-x,-y,z
1/2+x,-y,-z
-x,y,-z
-x,-y,-z
1/2+x,y,-z
1/2-x,y,z
x,-y,z
loop_
_atom_site_type_symbol
_atom_site_label
_atom_site_fract_x
_atom_site_fract_y
_atom_site_fract_z
Si Si1 0.844005 0.000000 0.233513
Si Si2 0.906207 0.000000 0.542338
Si Si3 0.846194 0.500000 0.811066
Si Si4 0.842886 0.697755 0.943260
Si Si5 0.593027 0.192745 0.697853
Si Si6 0.904894 0.500000 0.498267
Si Si7 0.087734 0.198431 0.804587
Si Si8 0.343026 0.302986 0.550300
O O1 0.860419 0.000000 0.397673
O O2 0.883402 0.907194 0.171788
O O3 0.750000 0.000000 0.209418
O O4 0.889544 0.908249 0.632341
O O5 0.000000 0.000000 0.500000
O O6 0.750000 0.500000 0.803190
O O7 0.877065 0.500000 0.656268
O O8 0.869145 0.595765 0.888180
O O9 0.750000 0.691803 0.986525
O O10 0.896380 0.736882 0.065482
O O11 0.850909 0.770890 0.818746
O O12 0.503408 0.195758 0.755442
O O13 0.604168 0.264453 0.573666
O O14 0.869985 0.591382 0.425902
O O15 0.000000 0.500000 0.500000
O O16 0.139985 0.239706 0.680863
O O17 0.250000 0.299198 0.512056
#
# Coordination Sequence:
#
# PCOD9406859 Si02
#       8
#     4   4   4   8   8   4   8   8
#     4  12  24  41  69  99 137 179 221 281 348 399
#     4  12  22  43  69  98 133 177 230 277 337 406
#     4  10  22  45  73  95 134 186 230 277 344 405
#     4  11  25  45  69  98 137 183 231 283 343 411
#     4  12  23  42  69  99 131 179 230 280 333 410
#     4  12  24  41  68 103 134 174 225 284 337 398
#     4  12  25  44  66 102 139 178 224 284 346 403
#     4  12  24  41  68  99 135 177 228 281 339 400
#
# _framework density 20.474800999999999
#
# number of rings (size 3 to 8) (size 9 to 14) (size 15 to 20)
#    0.000    0.333    5.000    4.750    0.000    2.000 
#    0.000    6.667    0.000    0.000    0.000    0.000 
#    0.000    0.000    0.000    0.000    0.000    0.000 
#
# Total GULP energy -268668.352248 kJ/mol
# GULP energy per Si atom -5597.257338 kJ/mol
# Density = 2.042820 g / cm^3
# Si number density = 20.474801 Si / 1000 Ang^3
#
#
#
# Elastic Constant Matrix: (Units=GPa)
#
#
# Indices 1 2 3 4 5 6 
#
# 1 65.4391 25.0782 -8.8912 0.0000 0.0000 0.0000
# 2 25.0782 112.5830 -2.3661 0.0000 0.0000 0.0000
# 3 -8.8912 -2.3661 47.8464 0.0000 0.0000 0.0000
# 4 0.0000 0.0000 0.0000 18.2839 0.0000 0.0000
# 5 0.0000 0.0000 0.0000 0.0000 29.8633 0.0000
# 6 0.0000 0.0000 0.0000 0.0000 0.0000 32.6190
#
#
#
# Elastic Compliance Matrix: (Units=1/GPa)
#
#
# Indices 1 2 3 4 5 6 
#
# 1 0.017126 -0.003752 0.002997 0.000000 0.000000 0.000000
# 2 -0.003752 0.009714 -0.000217 0.000000 0.000000 0.000000
# 3 0.002997 -0.000217 0.021446 0.000000 0.000000 0.000000
# 4 0.000000 0.000000 0.000000 0.054693 0.000000 0.000000
# 5 0.000000 0.000000 0.000000 0.000000 0.033486 0.000000
# 6 0.000000 0.000000 0.000000 0.000000 0.000000 0.030657
#
#
# Mechanical properties :
#
#
# Convention : Reuss Voigt Hill
#
# Bulk Modulus (GPa) = 21.57833 28.16782 24.87307
# Shear Modulus (GPa) = 27.09830 30.28975 28.69402
#
# Velocity S-wave (km/s) = 3.64193 3.85043 3.74763
# Velocity P-wave (km/s) = 5.31477 5.79266 5.55885
#
# Compressibility (1/GPa) = 0.04634279
#
# Stress axis : x y z
#
# Youngs Moduli (GPa) = 58.38920 102.94905 46.62779
#
# Poissons Ratio (x) = 0.38626 -0.13974
# Poissons Ratio (y) = 0.21908 0.01011
# Poissons Ratio (z) = -0.17499 0.02233
#
# Static dielectric constant tensor:
#      x y z
#    x 1.715670 0.000000 0.000000 
#    y 0.000000 1.755350 0.000000 
#    z 0.000000 0.000000 1.711900 
# 
# From -- ./inp_files/9738.got.cif
#   From: 2010.05.17/outbox.cif.g08.bks.cpg/sg51_5_cif.got.tgz:9738.got - 2010.06.03 11:52:47.
