data_PCOD9406106
_publ_section_title
;
Structure prediction by ZEFSAII (Michael W. Deem and Ramdas Pophale) SiO2 
 PCOD9406106
Probable space group: P M M A
;
_chemical_formula_sum "Si O2"
_cell_formula_units_Z 48
_cell_length_a 8.845478
_cell_length_b 15.200459
_cell_length_c 19.644275
_cell_angle_alpha 90.000000
_cell_angle_beta 90.000000
_cell_angle_gamma 90.000000
_cell_volume 2641.277393
_symmetry_space_group_name_H-M "P M M A"
_symmetry_group_IT_number 51
_symmetry_cell_setting 'orthorhombic'
loop_
_space_group_symop_operation_xyz
x,y,z
1/2-x,-y,z
1/2+x,-y,-z
-x,y,-z
-x,-y,-z
1/2+x,y,-z
1/2-x,y,z
x,-y,z
loop_
_atom_site_type_symbol
_atom_site_label
_atom_site_fract_x
_atom_site_fract_y
_atom_site_fract_z
Si Si1 0.932032 0.101011 0.072949
Si Si2 0.569923 0.603556 0.573854
Si Si3 0.432434 0.743722 0.827234
Si Si4 0.430359 0.603286 0.072729
Si Si5 0.431590 0.249924 0.669196
Si Si6 0.930314 0.103489 0.573725
O O1 0.750000 0.102997 0.067899
O O2 0.977878 0.168537 0.131564
O O3 0.977956 0.000000 0.086964
O O4 0.000000 0.126860 0.000000
O O5 0.500000 0.624522 0.500000
O O6 0.750000 0.617852 0.571934
O O7 0.541929 0.500000 0.587073
O O8 0.495138 0.665236 0.629966
O O9 0.250000 0.737025 0.830204
O O10 0.502784 0.661943 0.867269
O O11 0.476495 0.748088 0.748377
O O12 0.250000 0.612771 0.069762
O O13 0.466647 0.500000 0.082609
O O14 0.500000 0.630581 0.000000
O O15 0.250000 0.248665 0.665065
O O16 0.497363 0.165163 0.630592
O O17 0.750000 0.116287 0.571479
O O18 0.000000 0.125974 0.500000
O O19 0.960990 0.000000 0.586214
#
# Coordination Sequence:
#
# PCOD9406106 Si02
#       6
#     8   8   8   8   8   8
#     4   9  18  34  55  78 104 135 174 218 262 310
#     4  10  21  38  60  83 108 141 182 227 273 324
#     4  10  22  37  54  79 110 146 183 220 267 320
#     4  10  21  37  58  82 108 141 181 226 274 323
#     4  11  23  37  55  81 114 149 183 224 275 329
#     4  10  21  38  60  84 110 143 185 231 276 325
#
# _framework density 18.173024000000002
#
# number of rings (size 3 to 8) (size 9 to 14) (size 15 to 20)
#    0.000    2.000    0.000    3.000    0.000    7.667 
#    0.000    5.000    0.000    2.000    0.000    0.000 
#    0.000    0.000    0.000    0.000    0.000    0.000 
#
# Total GULP energy -268174.513383 kJ/mol
# GULP energy per Si atom -5586.969029 kJ/mol
# Density = 1.813166 g / cm^3
# Si number density = 18.173024 Si / 1000 Ang^3
#
#
#
# Elastic Constant Matrix: (Units=GPa)
#
#
# Indices 1 2 3 4 5 6 
#
# 1 51.4948 54.8445 68.4424 0.0000 0.0000 0.0000
# 2 54.8445 108.8072 115.8802 0.0000 0.0000 0.0000
# 3 68.4424 115.8802 205.0187 0.0000 0.0000 0.0000
# 4 0.0000 0.0000 0.0000 -58.9121 0.0000 0.0000
# 5 0.0000 0.0000 0.0000 0.0000 32.6104 0.0000
# 6 0.0000 0.0000 0.0000 0.0000 0.0000 25.4246
#
#
#
# Elastic Compliance Matrix: (Units=1/GPa)
#
#
# Indices 1 2 3 4 5 6 
#
# 1 0.044215 -0.016497 -0.005436 0.000000 0.000000 0.000000
# 2 -0.016497 0.029245 -0.011022 0.000000 0.000000 0.000000
# 3 -0.005436 -0.011022 0.012922 0.000000 0.000000 0.000000
# 4 0.000000 0.000000 0.000000 -0.016974 0.000000 0.000000
# 5 0.000000 0.000000 0.000000 0.000000 0.030665 0.000000
# 6 0.000000 0.000000 0.000000 0.000000 0.000000 0.039332
#
#
# Mechanical properties :
#
#
# Convention : Reuss Voigt Hill
#
# Bulk Modulus (GPa) = 48.84981 93.73944 71.29462
# Shear Modulus (GPa) = 23.56940 8.23483 15.90212
#
# Velocity S-wave (km/s) = 3.60522 2.13101 2.96132
# Velocity P-wave (km/s) = 6.65349 7.59925 7.14204
#
# Compressibility (1/GPa) = 0.02047091
#
# Stress axis : x y z
#
# Youngs Moduli (GPa) = 22.61691 34.19386 77.38534
#
# Poissons Ratio (x) = 0.56411 0.42065
# Poissons Ratio (y) = 0.37312 0.85297
# Poissons Ratio (z) = 0.12294 0.37690
#
# Static dielectric constant tensor:
#      x y z
#    x 1.607310 0.000000 0.000000 
#    y 0.000000 1.626420 0.000000 
#    z 0.000000 0.000000 1.582060 
# 
# From -- ./inp_files/27568.got.cif
#   From: 2010.05.17/outbox.cif.g08.bks.cpg/sg51_14_cif.got.tgz:27568.got - 2010.06.03 11:52:47.
