data_PCOD9406701
_publ_section_title
;
Structure prediction by ZEFSAII (Michael W. Deem and Ramdas Pophale) SiO2 
 PCOD9406701
Probable space group: P M M A
;
_chemical_formula_sum "Si O2"
_cell_formula_units_Z 56
_cell_length_a 14.421619
_cell_length_b 23.356199
_cell_length_c 7.153744
_cell_angle_alpha 90.000000
_cell_angle_beta 90.000000
_cell_angle_gamma 90.000000
_cell_volume 2409.625661
_symmetry_space_group_name_H-M "P M M A"
_symmetry_group_IT_number 51
_symmetry_cell_setting 'orthorhombic'
loop_
_space_group_symop_operation_xyz
x,y,z
1/2-x,-y,z
1/2+x,-y,-z
-x,y,-z
-x,-y,-z
1/2+x,y,-z
1/2-x,y,z
x,-y,z
loop_
_atom_site_type_symbol
_atom_site_label
_atom_site_fract_x
_atom_site_fract_y
_atom_site_fract_z
Si Si1 0.094256 0.564056 0.617055
Si Si2 0.494050 0.251441 0.225062
Si Si3 0.353842 0.850192 0.208418
Si Si4 0.644321 0.836592 0.243244
Si Si5 0.498095 0.064822 0.772299
Si Si6 0.352578 0.343326 0.346285
Si Si7 0.857460 0.563690 0.978504
O O1 0.136533 0.500000 0.596508
O O2 0.146884 0.617970 0.531416
O O3 0.081382 0.572884 0.837917
O O4 0.000000 0.562934 0.500000
O O5 0.423375 0.199573 0.265040
O O6 0.592842 0.223974 0.282368
O O7 0.442316 0.303562 0.324119
O O8 0.500000 0.262112 0.000000
O O9 0.250000 0.843734 0.274449
O O10 0.401166 0.909130 0.270772
O O11 0.352890 0.844050 0.982640
O O12 0.750000 0.838271 0.308732
O O13 0.579149 0.890205 0.298643
O O14 0.482232 0.000000 0.712078
O O15 0.500000 0.065247 0.000000
O O16 0.250000 0.314979 0.327940
O O17 0.361946 0.388593 0.177316
O O18 0.750000 0.563680 0.046259
O O19 0.876432 0.500000 0.900838
#
# Coordination Sequence:
#
# PCOD9406701 Si02
#       7
#     8   8   8   8   8   8   8
#     4  10  22  38  58  82 113 150 182 225 286 346
#     4   9  18  29  45  67  97 127 172 235 278 331
#     4   8  13  23  36  52  82 124 167 216 277 333
#     4   8  14  25  39  55  84 129 171 220 284 335
#     4   8  13  19  29  51  80 117 171 227 273 326
#     4  11  22  35  58  86 110 145 191 234 282 340
#     4   9  19  36  57  82 111 142 180 228 281 342
#
# _framework density 23.240124000000002
#
# number of rings (size 3 to 8) (size 9 to 14) (size 15 to 20)
#    0.000    3.000    0.000    3.000    2.000    2.571 
#    0.000    5.000    0.000    0.000    0.000    0.000 
#    0.000    1.714    0.000    0.000    0.000   34.286 
#
# Total GULP energy -312779.795036 kJ/mol
# GULP energy per Si atom -5585.353483 kJ/mol
# Density = 2.318723 g / cm^3
# Si number density = 23.240124 Si / 1000 Ang^3
#
#
#
# Elastic Constant Matrix: (Units=GPa)
#
#
# Indices 1 2 3 4 5 6 
#
# 1 146.7715 48.7908 11.3709 0.0000 0.0000 0.0000
# 2 48.7908 114.2913 22.4811 0.0000 0.0000 0.0000
# 3 11.3709 22.4811 95.1493 0.0000 0.0000 0.0000
# 4 0.0000 0.0000 0.0000 44.9286 0.0000 0.0000
# 5 0.0000 0.0000 0.0000 0.0000 3.9478 0.0000
# 6 0.0000 0.0000 0.0000 0.0000 0.0000 28.4774
#
#
#
# Elastic Compliance Matrix: (Units=1/GPa)
#
#
# Indices 1 2 3 4 5 6 
#
# 1 0.007942 -0.003360 -0.000155 0.000000 0.000000 0.000000
# 2 -0.003360 0.010597 -0.002102 0.000000 0.000000 0.000000
# 3 -0.000155 -0.002102 0.011025 0.000000 0.000000 0.000000
# 4 0.000000 0.000000 0.000000 0.022258 0.000000 0.000000
# 5 0.000000 0.000000 0.000000 0.000000 0.253308 0.000000
# 6 0.000000 0.000000 0.000000 0.000000 0.000000 0.035116
#
#
# Mechanical properties :
#
#
# Convention : Reuss Voigt Hill
#
# Bulk Modulus (GPa) = 54.55657 57.94419 56.25038
# Shear Modulus (GPa) = 13.98247 33.70871 23.84559
#
# Velocity S-wave (km/s) = 2.45552 3.81261 3.20668
# Velocity P-wave (km/s) = 5.61832 6.66095 6.16173
#
# Compressibility (1/GPa) = 0.01832960
#
# Stress axis : x y z
#
# Youngs Moduli (GPa) = 125.90807 94.36201 90.70229
#
# Poissons Ratio (x) = 0.31706 0.01408
# Poissons Ratio (y) = 0.42305 0.19069
# Poissons Ratio (z) = 0.01955 0.19838
#
# Static dielectric constant tensor:
#      x y z
#    x 1.920000 0.000000 0.000000 
#    y 0.000000 1.861150 0.000000 
#    z 0.000000 0.000000 1.910430 
# 
# From -- ./inp_files/8491.got.cif
#   From: 2010.05.17/outbox.cif.g08.bks.cpg/sg51_5_cif.got.tgz:8491.got - 2010.06.03 11:52:47.
