data_PCOD9406127
_publ_section_title
;
Structure prediction by ZEFSAII (Michael W. Deem and Ramdas Pophale) SiO2 
 PCOD9406127
Probable space group: P M M A
;
_chemical_formula_sum "Si O2"
_cell_formula_units_Z 56
_cell_length_a 16.903010
_cell_length_b 14.677009
_cell_length_c 11.892136
_cell_angle_alpha 90.000000
_cell_angle_beta 90.000000
_cell_angle_gamma 90.000000
_cell_volume 2950.268050
_symmetry_space_group_name_H-M "P M M A"
_symmetry_group_IT_number 51
_symmetry_cell_setting 'orthorhombic'
loop_
_space_group_symop_operation_xyz
x,y,z
1/2-x,-y,z
1/2+x,-y,-z
-x,y,-z
-x,-y,-z
1/2+x,y,-z
1/2-x,y,z
x,-y,z
loop_
_atom_site_type_symbol
_atom_site_label
_atom_site_fract_x
_atom_site_fract_y
_atom_site_fract_z
Si Si1 0.587309 0.228693 0.944684
Si Si2 0.164729 0.785487 0.480195
Si Si3 0.609132 0.104822 0.725276
Si Si4 0.341802 0.898064 0.873004
Si Si5 0.344362 0.393688 0.196416
Si Si6 0.066861 0.099289 0.640961
Si Si7 0.913880 0.395325 0.558215
O O1 0.591188 0.156271 0.841718
O O2 0.623634 0.321984 0.895129
O O3 0.500000 0.239631 0.000000
O O4 0.639493 0.181219 0.040389
O O5 0.250000 0.809018 0.528937
O O6 0.159996 0.830066 0.356008
O O7 0.096470 0.827196 0.555318
O O8 0.149024 0.678430 0.482227
O O9 0.525613 0.099276 0.661648
O O10 0.638295 0.000000 0.739542
O O11 0.250000 0.897112 0.843104
O O12 0.392983 0.887018 0.761458
O O13 0.360405 0.000000 0.919992
O O14 0.250000 0.375702 0.222439
O O15 0.348417 0.500000 0.160818
O O16 0.402010 0.385604 0.306176
O O17 0.091986 0.000000 0.597021
O O18 0.894439 0.500000 0.531433
O O19 0.000000 0.377418 0.500000
#
# Coordination Sequence:
#
# PCOD9406127 Si02
#       7
#     8   8   8   8   8   8   8
#     4  12  23  37  62  90 120 157 202 253 301 358
#     4  12  24  37  59  89 122 156 196 246 304 362
#     4  11  23  38  58  84 119 159 200 247 296 350
#     4  10  21  37  58  84 117 158 204 248 292 351
#     4  10  22  42  65  90 123 160 200 251 311 368
#     4  10  21  39  59  81 115 162 205 240 290 355
#     4  10  21  38  63  90 118 154 197 244 295 359
#
# _framework density 18.981327
#
# number of rings (size 3 to 8) (size 9 to 14) (size 15 to 20)
#    0.000    1.286    2.857    3.429    0.000    5.143 
#    0.000    0.000    0.000    0.857    0.000    0.000 
#    0.000    0.000    0.000    0.000    0.000    0.000 
#
# Total GULP energy -312342.317859 kJ/mol
# GULP energy per Si atom -5577.541390 kJ/mol
# Density = 1.893812 g / cm^3
# Si number density = 18.981327 Si / 1000 Ang^3
#
#
#
# Elastic Constant Matrix: (Units=GPa)
#
#
# Indices 1 2 3 4 5 6 
#
# 1 79.4857 29.2017 27.5572 0.0000 0.0000 0.0000
# 2 29.2017 105.0026 41.3474 0.0000 0.0000 0.0000
# 3 27.5572 41.3474 51.3771 0.0000 0.0000 0.0000
# 4 0.0000 0.0000 0.0000 31.6505 0.0000 0.0000
# 5 0.0000 0.0000 0.0000 0.0000 -22.7357 0.0000
# 6 0.0000 0.0000 0.0000 0.0000 0.0000 44.7125
#
#
#
# Elastic Compliance Matrix: (Units=1/GPa)
#
#
# Indices 1 2 3 4 5 6 
#
# 1 0.015621 -0.001530 -0.007147 0.000000 0.000000 0.000000
# 2 -0.001530 0.014092 -0.010520 0.000000 0.000000 0.000000
# 3 -0.007147 -0.010520 0.031764 0.000000 0.000000 0.000000
# 4 0.000000 0.000000 0.000000 0.031595 0.000000 0.000000
# 5 0.000000 0.000000 0.000000 0.000000 -0.043984 0.000000
# 6 0.000000 0.000000 0.000000 0.000000 0.000000 0.022365
#
#
# Mechanical properties :
#
#
# Convention : Reuss Voigt Hill
#
# Bulk Modulus (GPa) = 43.32420 48.00867 45.66644
# Shear Modulus (GPa) = 42.53815 19.90941 31.22378
#
# Velocity S-wave (km/s) = 4.73911 3.24218 4.06023
# Velocity P-wave (km/s) = 7.26772 6.27400 6.78907
#
# Compressibility (1/GPa) = 0.02308179
#
# Stress axis : x y z
#
# Youngs Moduli (GPa) = 64.01693 70.96439 31.48211
#
# Poissons Ratio (x) = 0.10856 0.22502
# Poissons Ratio (y) = 0.09793 0.33120
# Poissons Ratio (z) = 0.45756 0.74656
#
# Static dielectric constant tensor:
#      x y z
#    x 1.716130 0.000000 0.000000 
#    y 0.000000 1.679610 0.000000 
#    z 0.000000 0.000000 1.657280 
# 
# From -- ./inp_files/16592.got.cif
#   From: 2010.05.17/outbox.cif.g08.bks.cpg/sg51_9_cif.got.tgz:16592.got - 2010.06.03 11:52:47.
