data_PCOD9406869
_publ_section_title
;
Structure prediction by ZEFSAII (Michael W. Deem and Ramdas Pophale) SiO2 
 PCOD9406869
Probable space group: P M M A
;
_chemical_formula_sum "Si O2"
_cell_formula_units_Z 48
_cell_length_a 15.248290
_cell_length_b 15.973445
_cell_length_c 10.192860
_cell_angle_alpha 90.000000
_cell_angle_beta 90.000000
_cell_angle_gamma 90.000000
_cell_volume 2482.651687
_symmetry_space_group_name_H-M "P M M A"
_symmetry_group_IT_number 51
_symmetry_cell_setting 'orthorhombic'
loop_
_space_group_symop_operation_xyz
x,y,z
1/2-x,-y,z
1/2+x,-y,-z
-x,y,-z
-x,-y,-z
1/2+x,y,-z
1/2-x,y,z
x,-y,z
loop_
_atom_site_type_symbol
_atom_site_label
_atom_site_fract_x
_atom_site_fract_y
_atom_site_fract_z
Si Si1 0.576125 0.000000 0.892894
Si Si2 0.853563 0.823413 0.970873
Si Si3 0.488544 0.402992 0.842229
Si Si4 0.605632 0.183271 0.510861
Si Si5 0.147175 0.260366 0.767920
Si Si6 0.146715 0.693837 0.250622
Si Si7 0.413217 0.000000 0.412694
O O1 0.556580 0.000000 0.738602
O O2 0.500000 0.000000 0.000000
O O3 0.626888 0.084654 0.922580
O O4 0.750000 0.813952 0.974129
O O5 0.885005 0.802112 0.116508
O O6 0.884585 0.755735 0.866085
O O7 0.464651 0.500000 0.824335
O O8 0.414639 0.341154 0.783924
O O9 0.579683 0.382394 0.767128
O O10 0.500000 0.389625 0.000000
O O11 0.500000 0.183611 0.500000
O O12 0.639218 0.212994 0.369787
O O13 0.634491 0.251682 0.618063
O O14 0.633160 0.088852 0.554080
O O15 0.250000 0.282273 0.787723
O O16 0.250000 0.672713 0.235967
O O17 0.500000 0.000000 0.500000
#
# Coordination Sequence:
#
# PCOD9406869 Si02
#       7
#     4   8   8   8   8   8   4
#     4  12  25  35  63  93 124 171 217 266 314 364
#     4  10  23  40  60  88 127 167 212 264 312 367
#     4  11  24  42  70 100 128 163 206 265 328 387
#     4  11  22  40  67  92 132 175 215 262 316 378
#     4  11  24  43  66  96 131 170 213 261 322 384
#     4  11  22  41  66  95 127 168 213 258 315 378
#     4  10  24  39  55  95 130 168 222 265 308 372
#
# _framework density 19.334166
#
# number of rings (size 3 to 8) (size 9 to 14) (size 15 to 20)
#    0.000    1.167    5.000    0.750    7.000    0.667 
#    0.000    5.833    0.000    2.000    0.000    0.000 
#    0.000    0.000    0.000    0.000    0.000    0.000 
#
# Total GULP energy -267922.144329 kJ/mol
# GULP energy per Si atom -5581.711340 kJ/mol
# Density = 1.929016 g / cm^3
# Si number density = 19.334166 Si / 1000 Ang^3
#
#
#
# Elastic Constant Matrix: (Units=GPa)
#
#
# Indices 1 2 3 4 5 6 
#
# 1 76.1041 23.9478 14.0345 0.0000 0.0000 0.0000
# 2 23.9478 99.1829 48.2787 0.0000 0.0000 0.0000
# 3 14.0345 48.2787 161.1409 0.0000 0.0000 0.0000
# 4 0.0000 0.0000 0.0000 16.9906 0.0000 0.0000
# 5 0.0000 0.0000 0.0000 0.0000 24.3618 0.0000
# 6 0.0000 0.0000 0.0000 0.0000 0.0000 12.4735
#
#
#
# Elastic Compliance Matrix: (Units=1/GPa)
#
#
# Indices 1 2 3 4 5 6 
#
# 1 0.014229 -0.003316 -0.000246 0.000000 0.000000 0.000000
# 2 -0.003316 0.012577 -0.003479 0.000000 0.000000 0.000000
# 3 -0.000246 -0.003479 0.007270 0.000000 0.000000 0.000000
# 4 0.000000 0.000000 0.000000 0.058856 0.000000 0.000000
# 5 0.000000 0.000000 0.000000 0.000000 0.041048 0.000000
# 6 0.000000 0.000000 0.000000 0.000000 0.000000 0.080170
#
#
# Mechanical properties :
#
#
# Convention : Reuss Voigt Hill
#
# Bulk Modulus (GPa) = 50.01752 56.54998 53.28375
# Shear Modulus (GPa) = 21.28615 27.44299 24.36457
#
# Velocity S-wave (km/s) = 3.32167 3.77158 3.55376
# Velocity P-wave (km/s) = 6.37476 6.94829 6.66769
#
# Compressibility (1/GPa) = 0.01999300
#
# Stress axis : x y z
#
# Youngs Moduli (GPa) = 70.28084 79.51296 137.56016
#
# Poissons Ratio (x) = 0.26366 0.03381
# Poissons Ratio (y) = 0.23304 0.47860
# Poissons Ratio (z) = 0.01727 0.27664
#
# Static dielectric constant tensor:
#      x y z
#    x 1.692320 0.000000 0.000000 
#    y 0.000000 1.638160 0.000000 
#    z 0.000000 0.000000 1.687100 
# 
# From -- ./inp_files/8328.got.cif
#   From: 2010.05.17/outbox.cif.g08.bks.cpg/sg51_5_cif.got.tgz:8328.got - 2010.06.03 11:52:47.
