data_PCOD9406074
_publ_section_title
;
Structure prediction by ZEFSAII (Michael W. Deem and Ramdas Pophale) SiO2 
 PCOD9406074
Probable space group: P M M A
;
_chemical_formula_sum "Si O2"
_cell_formula_units_Z 40
_cell_length_a 10.270365
_cell_length_b 8.761121
_cell_length_c 24.439063
_cell_angle_alpha 90.000000
_cell_angle_beta 90.000000
_cell_angle_gamma 90.000000
_cell_volume 2199.024701
_symmetry_space_group_name_H-M "P M M A"
_symmetry_group_IT_number 51
_symmetry_cell_setting 'orthorhombic'
loop_
_space_group_symop_operation_xyz
x,y,z
1/2-x,-y,z
1/2+x,-y,-z
-x,y,-z
-x,-y,-z
1/2+x,y,-z
1/2-x,y,z
x,-y,z
loop_
_atom_site_type_symbol
_atom_site_label
_atom_site_fract_x
_atom_site_fract_y
_atom_site_fract_z
Si Si1 0.600201 0.684078 0.334172
Si Si2 0.983612 0.817170 0.876043
Si Si3 0.750000 0.816498 0.958133
Si Si4 0.600554 0.315846 0.759629
Si Si5 0.100096 0.184191 0.546729
Si Si6 0.250000 0.681551 0.920803
O O1 0.750000 0.728273 0.321327
O O2 0.595782 0.500000 0.337168
O O3 0.499951 0.733673 0.287397
O O4 0.567198 0.750390 0.393643
O O5 0.876589 0.777048 0.922156
O O6 0.936227 0.756298 0.817636
O O7 0.121493 0.746844 0.892075
O O8 0.992846 0.000000 0.874450
O O9 0.750000 0.000000 0.966929
O O10 0.750000 0.735430 0.016268
O O11 0.750000 0.277335 0.745777
O O12 0.591682 0.500000 0.764459
O O13 0.250000 0.228160 0.534256
O O14 0.000000 0.235285 0.500000
O O15 0.095188 0.000000 0.549390
O O16 0.250000 0.500000 0.917609
#
# Coordination Sequence:
#
# PCOD9406074 Si02
#       6
#     8   8   4   8   8   4
#     4   9  19  35  54  78 110 147 186 229 278 330
#     4  11  23  41  62  87 117 152 192 236 288 344
#     4  10  22  42  64  86 118 152 187 236 289 342
#     4  10  21  37  57  82 114 149 187 234 286 340
#     4   9  18  33  52  76 107 142 181 226 276 328
#     4  12  26  40  60  90 118 150 193 236 285 344
#
# _framework density 18.189881
#
# number of rings (size 3 to 8) (size 9 to 14) (size 15 to 20)
#    0.000    2.000    1.000    2.100    1.400    6.000 
#    0.000    0.000    0.000    0.000    0.000    0.000 
#    0.000    0.000    0.000    0.000    0.000    0.000 
#
# Total GULP energy -223416.142459 kJ/mol
# GULP energy per Si atom -5585.403561 kJ/mol
# Density = 1.814848 g / cm^3
# Si number density = 18.189881 Si / 1000 Ang^3
#
#
#
# Elastic Constant Matrix: (Units=GPa)
#
#
# Indices 1 2 3 4 5 6 
#
# 1 141.7284 41.7866 83.8045 0.0000 0.0000 0.0000
# 2 41.7866 21.3891 32.7012 0.0000 0.0000 0.0000
# 3 83.8045 32.7012 126.3554 0.0000 0.0000 0.0000
# 4 0.0000 0.0000 0.0000 37.7433 0.0000 0.0000
# 5 0.0000 0.0000 0.0000 0.0000 42.2262 0.0000
# 6 0.0000 0.0000 0.0000 0.0000 0.0000 19.2838
#
#
#
# Elastic Compliance Matrix: (Units=1/GPa)
#
#
# Indices 1 2 3 4 5 6 
#
# 1 0.018216 -0.028323 -0.004752 0.000000 0.000000 0.000000
# 2 -0.028323 0.121402 -0.012634 0.000000 0.000000 0.000000
# 3 -0.004752 -0.012634 0.014335 0.000000 0.000000 0.000000
# 4 0.000000 0.000000 0.000000 0.026495 0.000000 0.000000
# 5 0.000000 0.000000 0.000000 0.000000 0.023682 0.000000
# 6 0.000000 0.000000 0.000000 0.000000 0.000000 0.051857
#
#
# Mechanical properties :
#
#
# Convention : Reuss Voigt Hill
#
# Bulk Modulus (GPa) = 15.99086 67.33975 41.66531
# Shear Modulus (GPa) = 13.57776 28.59603 21.08689
#
# Velocity S-wave (km/s) = 2.73508 3.96925 3.40849
# Velocity P-wave (km/s) = 4.33409 7.62282 6.20048
#
# Compressibility (1/GPa) = 0.06253571
#
# Stress axis : x y z
#
# Youngs Moduli (GPa) = 54.89676 8.23712 69.75740
#
# Poissons Ratio (x) = 0.23330 0.33146
# Poissons Ratio (y) = 1.55484 0.88132
# Poissons Ratio (z) = 0.26085 0.10407
#
# Static dielectric constant tensor:
#      x y z
#    x 1.621070 0.000000 0.000000 
#    y 0.000000 1.611730 0.000000 
#    z 0.000000 0.000000 1.579710 
# 
# From -- ./inp_files/36017.got.cif
#   From: 2010.05.17/outbox.cif.g08.bks.cpg/sg51_19_cif.got.tgz:36017.got - 2010.06.03 11:52:47.
