data_PCOD9406954
_publ_section_title
;
Structure prediction by ZEFSAII (Michael W. Deem and Ramdas Pophale) SiO2 
 PCOD9406954
Probable space group: P M M A
;
_chemical_formula_sum "Si O2"
_cell_formula_units_Z 56
_cell_length_a 29.640367
_cell_length_b 7.613381
_cell_length_c 14.001561
_cell_angle_alpha 90.000000
_cell_angle_beta 90.000000
_cell_angle_gamma 90.000000
_cell_volume 3159.639958
_symmetry_space_group_name_H-M "P M M A"
_symmetry_group_IT_number 51
_symmetry_cell_setting 'orthorhombic'
loop_
_space_group_symop_operation_xyz
x,y,z
1/2-x,-y,z
1/2+x,-y,-z
-x,y,-z
-x,-y,-z
1/2+x,y,-z
1/2-x,y,z
x,-y,z
loop_
_atom_site_type_symbol
_atom_site_label
_atom_site_fract_x
_atom_site_fract_y
_atom_site_fract_z
Si Si1 0.055706 0.210148 0.905733
Si Si2 0.482286 0.784426 0.602447
Si Si3 0.699895 0.790144 0.233436
Si Si4 0.800729 0.287239 0.009885
Si Si5 0.028653 0.793816 0.204950
Si Si6 0.888562 0.300120 0.910132
Si Si7 0.105981 0.211188 0.704717
O O1 0.084504 0.239431 0.809522
O O2 0.005797 0.274848 0.876549
O O3 0.054309 0.000000 0.926439
O O4 0.080799 0.293756 0.994568
O O5 0.500000 0.725363 0.500000
O O6 0.514008 0.726589 0.691068
O O7 0.431439 0.726743 0.629416
O O8 0.482280 0.000000 0.600944
O O9 0.750000 0.718968 0.254594
O O10 0.656992 0.719593 0.291700
O O11 0.701405 0.000000 0.248465
O O12 0.691347 0.763130 0.120328
O O13 0.750000 0.229651 0.984337
O O14 0.801790 0.500000 0.007072
O O15 0.840813 0.219509 0.942407
O O16 0.079910 0.775561 0.172614
O O17 0.018000 0.000000 0.208108
O O18 0.879788 0.500000 0.882758
O O19 0.108642 0.000000 0.692875
#
# Coordination Sequence:
#
# PCOD9406954 Si02
#       7
#     8   8   8   8   8   8   8
#     4   9  16  27  40  55  81 113 138 161 194 235
#     4   8  14  26  44  63  80 102 137 173 203 242
#     4   9  15  23  38  59  81 106 135 165 199 240
#     4   9  18  30  40  53  78 111 144 173 200 233
#     4   9  18  29  42  60  81 107 137 167 201 241
#     4  11  20  27  39  59  82 109 139 170 201 234
#     4   8  13  22  37  58  82 105 131 166 201 236
#
# _framework density 17.723538000000001
#
# number of rings (size 3 to 8) (size 9 to 14) (size 15 to 20)
#    0.000    3.000    1.429    2.571    0.000    2.857 
#    0.000    0.000    0.000    0.429    0.000    1.000 
#    0.000    3.429    0.000    0.000    0.000    0.000 
#
# Total GULP energy -311927.005036 kJ/mol
# GULP energy per Si atom -5570.125090 kJ/mol
# Density = 1.768320 g / cm^3
# Si number density = 17.723538 Si / 1000 Ang^3
#
#
#
# Elastic Constant Matrix: (Units=GPa)
#
#
# Indices 1 2 3 4 5 6 
#
# 1 171.0416 0.9244 65.8071 0.0000 0.0000 0.0000
# 2 0.9244 30.5181 1.8611 0.0000 0.0000 0.0000
# 3 65.8071 1.8611 66.5464 0.0000 0.0000 0.0000
# 4 0.0000 0.0000 0.0000 28.0231 0.0000 0.0000
# 5 0.0000 0.0000 0.0000 0.0000 21.9081 0.0000
# 6 0.0000 0.0000 0.0000 0.0000 0.0000 8.9759
#
#
#
# Elastic Compliance Matrix: (Units=1/GPa)
#
#
# Indices 1 2 3 4 5 6 
#
# 1 0.009439 0.000284 -0.009343 0.000000 0.000000 0.000000
# 2 0.000284 0.032832 -0.001199 0.000000 0.000000 0.000000
# 3 -0.009343 -0.001199 0.024299 0.000000 0.000000 0.000000
# 4 0.000000 0.000000 0.000000 0.035685 0.000000 0.000000
# 5 0.000000 0.000000 0.000000 0.000000 0.045645 0.000000
# 6 0.000000 0.000000 0.000000 0.000000 0.000000 0.111409
#
#
# Mechanical properties :
#
#
# Convention : Reuss Voigt Hill
#
# Bulk Modulus (GPa) = 21.71289 45.03237 33.37263
# Shear Modulus (GPa) = 16.93899 25.08232 21.01066
#
# Velocity S-wave (km/s) = 3.09485 3.76599 3.44680
# Velocity P-wave (km/s) = 5.00482 6.66136 5.89160
#
# Compressibility (1/GPa) = 0.04605559
#
# Stress axis : x y z
#
# Youngs Moduli (GPa) = 105.93817 30.45812 41.15333
#
# Poissons Ratio (x) = -0.00864 0.38448
# Poissons Ratio (y) = -0.03007 0.04934
# Poissons Ratio (z) = 0.98973 0.03652
#
# Static dielectric constant tensor:
#      x y z
#    x 1.672400 0.000000 0.000000 
#    y 0.000000 1.742700 0.000000 
#    z 0.000000 0.000000 1.570250 
# 
# From -- ./inp_files/26472.got.cif
#   From: 2010.05.17/outbox.cif.g08.bks.cpg/sg51_14_cif.got.tgz:26472.got - 2010.06.03 11:52:47.
