data_PCOD9406891
_publ_section_title
;
Structure prediction by ZEFSAII (Michael W. Deem and Ramdas Pophale) SiO2 
 PCOD9406891
Probable space group: P M M A
;
_chemical_formula_sum "Si O2"
_cell_formula_units_Z 64
_cell_length_a 25.574341
_cell_length_b 9.000550
_cell_length_c 14.533844
_cell_angle_alpha 90.000000
_cell_angle_beta 90.000000
_cell_angle_gamma 90.000000
_cell_volume 3345.445774
_symmetry_space_group_name_H-M "P M M A"
_symmetry_group_IT_number 51
_symmetry_cell_setting 'orthorhombic'
loop_
_space_group_symop_operation_xyz
x,y,z
1/2-x,-y,z
1/2+x,-y,-z
-x,y,-z
-x,-y,-z
1/2+x,y,-z
1/2-x,y,z
x,-y,z
loop_
_atom_site_type_symbol
_atom_site_label
_atom_site_fract_x
_atom_site_fract_y
_atom_site_fract_z
Si Si1 0.096427 0.176554 0.122877
Si Si2 0.981958 0.176372 0.602105
Si Si3 0.189389 0.322831 0.232291
Si Si4 0.994530 0.323189 0.212790
Si Si5 0.141862 0.175291 0.409193
Si Si6 0.903106 0.824424 0.095272
Si Si7 0.687536 0.675807 0.414347
Si Si8 0.811626 0.322724 0.201944
O O1 0.149983 0.241555 0.163273
O O2 0.048181 0.255781 0.172801
O O3 0.093812 0.000000 0.140980
O O4 0.092717 0.201593 0.013731
O O5 0.010084 0.265341 0.682846
O O6 0.919611 0.199932 0.608823
O O7 0.000000 0.219211 0.500000
O O8 0.992071 0.000000 0.613703
O O9 0.250000 0.290203 0.212613
O O10 0.181672 0.500000 0.227535
O O11 0.174708 0.265572 0.334028
O O12 0.996024 0.500000 0.210611
O O13 0.947653 0.262398 0.150540
O O14 0.156907 0.230142 0.510625
O O15 0.152325 0.000000 0.399710
O O16 0.847857 0.767861 0.133611
O O17 0.909310 0.000000 0.111453
O O18 0.750000 0.697848 0.426240
O O19 0.677267 0.500000 0.427599
O O20 0.674899 0.713005 0.308380
O O21 0.750000 0.293736 0.189065
O O22 0.819783 0.500000 0.189909
#
# Coordination Sequence:
#
# PCOD9406891 Si02
#       8
#     8   8   8   8   8   8   8   8
#     4  11  24  44  66  91 123 162 205 256 314 367
#     4  10  23  42  62  89 128 167 201 246 306 367
#     4  11  24  41  63  92 126 166 209 257 315 374
#     4  12  25  42  67  96 125 160 205 255 307 368
#     4  11  22  36  59  89 122 162 204 250 305 366
#     4  11  25  42  65  93 124 162 206 254 308 372
#     4   9  19  36  57  82 117 159 199 244 297 354
#     4   9  20  40  63  90 126 164 204 254 309 363
#
# _framework density 19.130485
#
# number of rings (size 3 to 8) (size 9 to 14) (size 15 to 20)
#    0.000    1.500    1.250    4.125    1.750    8.250 
#    0.000    3.750    0.000    0.000    0.000    0.000 
#    0.000    0.000    0.000    0.000    0.000    0.000 
#
# Total GULP energy -357925.532204 kJ/mol
# GULP energy per Si atom -5592.586441 kJ/mol
# Density = 1.908694 g / cm^3
# Si number density = 19.130485 Si / 1000 Ang^3
#
#
#
# Elastic Constant Matrix: (Units=GPa)
#
#
# Indices 1 2 3 4 5 6 
#
# 1 69.8340 51.6538 51.9382 0.0000 0.0000 0.0000
# 2 51.6538 84.7975 74.3888 0.0000 0.0000 0.0000
# 3 51.9382 74.3888 115.8666 0.0000 0.0000 0.0000
# 4 0.0000 0.0000 0.0000-1754.9767 0.0000 0.0000
# 5 0.0000 0.0000 0.0000 0.0000 56.9263 0.0000
# 6 0.0000 0.0000 0.0000 0.0000 0.0000 36.3694
#
#
#
# Elastic Compliance Matrix: (Units=1/GPa)
#
#
# Indices 1 2 3 4 5 6 
#
# 1 0.026665 -0.013181 -0.003490 0.000000 0.000000 0.000000
# 2 -0.013181 0.033515 -0.015609 0.000000 0.000000 0.000000
# 3 -0.003490 -0.015609 0.020216 0.000000 0.000000 0.000000
# 4 0.000000 0.000000 0.000000 -0.000570 0.000000 0.000000
# 5 0.000000 0.000000 0.000000 0.000000 0.017567 0.000000
# 6 0.000000 0.000000 0.000000 0.000000 0.000000 0.027496
#
#
# Mechanical properties :
#
#
# Convention : Reuss Voigt Hill
#
# Bulk Modulus (GPa) = 63.14696 69.60663 66.37679
# Shear Modulus (GPa) = 25.67698 -326.16839 -150.24571
#
# Velocity S-wave (km/s) = 3.66758 -13.07160 -8.87174
# Velocity P-wave (km/s) = 7.14248 13.83323 8.37685
#
# Compressibility (1/GPa) = 0.01583608
#
# Stress axis : x y z
#
# Youngs Moduli (GPa) = 37.50220 29.83780 49.46496
#
# Poissons Ratio (x) = 0.39329 0.17266
# Poissons Ratio (y) = 0.49431 0.77208
# Poissons Ratio (z) = 0.13090 0.46573
#
# Static dielectric constant tensor:
#      x y z
#    x 1.649320 0.000000 0.000000 
#    y 0.000000 1.634920 0.000000 
#    z 0.000000 0.000000 1.650290 
# 
# From -- ./inp_files/26296.got.cif
#   From: 2010.05.17/outbox.cif.g08.bks.cpg/sg51_14_cif.got.tgz:26296.got - 2010.06.03 11:52:47.
