data_PCOD9406435
_publ_section_title
;
Structure prediction by ZEFSAII (Michael W. Deem and Ramdas Pophale) SiO2 
 PCOD9406435
Probable space group: P M M A
;
_chemical_formula_sum "Si O2"
_cell_formula_units_Z 48
_cell_length_a 16.261553
_cell_length_b 8.958951
_cell_length_c 17.369110
_cell_angle_alpha 90.000000
_cell_angle_beta 90.000000
_cell_angle_gamma 90.000000
_cell_volume 2530.444089
_symmetry_space_group_name_H-M "P M M A"
_symmetry_group_IT_number 51
_symmetry_cell_setting 'orthorhombic'
loop_
_space_group_symop_operation_xyz
x,y,z
1/2-x,-y,z
1/2+x,-y,-z
-x,y,-z
-x,-y,-z
1/2+x,y,-z
1/2-x,y,z
x,-y,z
loop_
_atom_site_type_symbol
_atom_site_label
_atom_site_fract_x
_atom_site_fract_y
_atom_site_fract_z
Si Si1 0.155163 0.820149 0.312382
Si Si2 0.413331 0.680382 0.462006
Si Si3 0.750000 0.679114 0.266807
Si Si4 0.846428 0.674526 0.995307
Si Si5 0.076154 0.177000 0.152049
Si Si6 0.250000 0.318603 0.555243
Si Si7 0.116261 0.823899 0.841420
O O1 0.250000 0.777900 0.326472
O O2 0.098993 0.746374 0.377216
O O3 0.128853 0.776751 0.226240
O O4 0.148461 0.000000 0.317299
O O5 0.500000 0.725347 0.500000
O O6 0.412358 0.500000 0.458085
O O7 0.333522 0.728837 0.511896
O O8 0.750000 0.500000 0.264247
O O9 0.750000 0.728106 0.355719
O O10 0.828768 0.740124 0.221103
O O11 0.750000 0.690720 0.975853
O O12 0.863847 0.500000 0.008098
O O13 0.898940 0.736941 0.924734
O O14 0.863092 0.762681 0.073841
O O15 0.980542 0.198744 0.171173
O O16 0.089649 0.000000 0.138574
O O17 0.250000 0.500000 0.554338
O O18 0.134097 0.000000 0.838191
#
# Coordination Sequence:
#
# PCOD9406435 Si02
#       7
#     8   8   4   8   8   4   8
#     4  10  21  39  61  87 120 157 195 242 298 349
#     4  10  21  38  62  89 118 157 199 242 299 361
#     4  11  23  39  61  86 117 154 195 245 300 351
#     4  11  23  39  60  88 120 156 198 243 294 347
#     4  10  23  40  60  87 119 156 199 243 292 353
#     4   9  20  39  59  86 121 154 195 245 296 355
#     4  11  23  40  61  86 117 156 198 242 295 353
#
# _framework density 18.969002
#
# number of rings (size 3 to 8) (size 9 to 14) (size 15 to 20)
#    0.000    1.667    1.667    2.250    2.333    6.000 
#    0.000    1.667    0.000    0.000    0.000    0.000 
#    0.000    0.000    0.000    0.000    0.000    0.000 
#
# Total GULP energy -268241.205750 kJ/mol
# GULP energy per Si atom -5588.358453 kJ/mol
# Density = 1.892583 g / cm^3
# Si number density = 18.969002 Si / 1000 Ang^3
#
#
#
# Elastic Constant Matrix: (Units=GPa)
#
#
# Indices 1 2 3 4 5 6 
#
# 1 71.8089 25.0617 17.7112 0.0000 0.0000 0.0000
# 2 25.0617 34.7816 12.8391 0.0000 0.0000 0.0000
# 3 17.7112 12.8391 86.5162 0.0000 0.0000 0.0000
# 4 0.0000 0.0000 0.0000 26.0604 0.0000 0.0000
# 5 0.0000 0.0000 0.0000 0.0000 168.3996 0.0000
# 6 0.0000 0.0000 0.0000 0.0000 0.0000 23.9310
#
#
#
# Elastic Compliance Matrix: (Units=1/GPa)
#
#
# Indices 1 2 3 4 5 6 
#
# 1 0.018912 -0.012905 -0.001957 0.000000 0.000000 0.000000
# 2 -0.012905 0.039223 -0.003179 0.000000 0.000000 0.000000
# 3 -0.001957 -0.003179 0.012431 0.000000 0.000000 0.000000
# 4 0.000000 0.000000 0.000000 0.038372 0.000000 0.000000
# 5 0.000000 0.000000 0.000000 0.000000 0.005938 0.000000
# 6 0.000000 0.000000 0.000000 0.000000 0.000000 0.041787
#
#
# Mechanical properties :
#
#
# Convention : Reuss Voigt Hill
#
# Bulk Modulus (GPa) = 28.99787 33.81451 31.40619
# Shear Modulus (GPa) = 24.48106 52.84451 38.66279
#
# Velocity S-wave (km/s) = 3.59637 5.28383 4.51955
# Velocity P-wave (km/s) = 5.70660 7.42226 6.62024
#
# Compressibility (1/GPa) = 0.03448529
#
# Stress axis : x y z
#
# Youngs Moduli (GPa) = 52.87549 25.49527 80.44525
#
# Poissons Ratio (x) = 0.32902 0.15739
# Poissons Ratio (y) = 0.68236 0.25573
# Poissons Ratio (z) = 0.10345 0.08105
#
# Static dielectric constant tensor:
#      x y z
#    x 1.660910 0.000000 0.000000 
#    y 0.000000 1.636700 0.000000 
#    z 0.000000 0.000000 1.616900 
# 
# From -- ./inp_files/24946.got.cif
#   From: 2010.05.17/outbox.cif.g08.bks.cpg/sg51_13_cif.got.tgz:24946.got - 2010.06.03 11:52:47.
