data_PCOD9406565
_publ_section_title
;
Structure prediction by ZEFSAII (Michael W. Deem and Ramdas Pophale) SiO2 
 PCOD9406565
Probable space group: P M M A
;
_chemical_formula_sum "Si O2"
_cell_formula_units_Z 56
_cell_length_a 15.940913
_cell_length_b 22.417713
_cell_length_c 8.122648
_cell_angle_alpha 90.000000
_cell_angle_beta 90.000000
_cell_angle_gamma 90.000000
_cell_volume 2902.699844
_symmetry_space_group_name_H-M "P M M A"
_symmetry_group_IT_number 51
_symmetry_cell_setting 'orthorhombic'
loop_
_space_group_symop_operation_xyz
x,y,z
1/2-x,-y,z
1/2+x,-y,-z
-x,y,-z
-x,-y,-z
1/2+x,y,-z
1/2-x,y,z
x,-y,z
loop_
_atom_site_type_symbol
_atom_site_label
_atom_site_fract_x
_atom_site_fract_y
_atom_site_fract_z
Si Si1 0.848436 0.653538 0.202223
Si Si2 0.417490 0.130127 0.579783
Si Si3 0.151390 0.744480 0.494124
Si Si4 0.849012 0.657807 0.812021
Si Si5 0.250000 0.929000 0.461885
Si Si6 0.083981 0.068218 0.896553
Si Si7 0.002028 0.432836 0.198326
Si Si8 0.750000 0.071472 0.904455
O O1 0.750000 0.634773 0.213234
O O2 0.861062 0.703566 0.343009
O O3 0.916878 0.602612 0.241448
O O4 0.861669 0.672296 0.008397
O O5 0.500000 0.102498 0.500000
O O6 0.402669 0.196230 0.514109
O O7 0.333674 0.093533 0.545770
O O8 0.430288 0.121769 0.771446
O O9 0.250000 0.761300 0.493625
O O10 0.135072 0.709596 0.322970
O O11 0.750000 0.641331 0.795070
O O12 0.914542 0.605628 0.765862
O O13 0.250000 0.000000 0.460267
O O14 0.250000 0.903151 0.277547
O O15 0.165497 0.085362 0.000376
O O16 0.098503 0.000000 0.828271
O O17 0.000000 0.063469 0.000000
O O18 0.004708 0.500000 0.265961
O O19 0.000000 0.437114 0.000000
O O20 0.750000 0.000000 0.887258
#
# Coordination Sequence:
#
# PCOD9406565 Si02
#       8
#     8   8   8   8   4   8   8   4
#     4   9  19  37  59  83 114 162 199 241 305 356
#     4  12  25  40  60  93 121 157 203 254 307 364
#     4  10  22  42  59  84 122 155 207 255 293 358
#     4   9  19  37  59  82 117 163 197 244 303 353
#     4  11  23  43  67  93 123 157 198 249 312 375
#     4  10  21  40  61  86 120 154 192 241 302 371
#     4   9  18  33  58  92 121 152 202 249 296 364
#     4   9  19  37  63  87 115 155 189 231 296 363
#
# _framework density 19.292383999999998
#
# number of rings (size 3 to 8) (size 9 to 14) (size 15 to 20)
#    0.000    2.143    0.714    1.714    2.000    3.429 
#    5.143    4.286    0.000    2.571    0.000    0.000 
#    0.000    0.000    0.000    0.000    0.000    0.000 
#
# Total GULP energy -312077.869328 kJ/mol
# GULP energy per Si atom -5572.819095 kJ/mol
# Density = 1.924847 g / cm^3
# Si number density = 19.292384 Si / 1000 Ang^3
#
#
#
# Elastic Constant Matrix: (Units=GPa)
#
#
# Indices 1 2 3 4 5 6 
#
# 1 116.1644 43.1732 29.1254 0.0000 0.0000 0.0000
# 2 43.1732 64.2367 26.1215 0.0000 0.0000 0.0000
# 3 29.1254 26.1215 69.2927 0.0000 0.0000 0.0000
# 4 0.0000 0.0000 0.0000 34.1820 0.0000 0.0000
# 5 0.0000 0.0000 0.0000 0.0000 18.5868 0.0000
# 6 0.0000 0.0000 0.0000 0.0000 0.0000 40.7300
#
#
#
# Elastic Compliance Matrix: (Units=1/GPa)
#
#
# Indices 1 2 3 4 5 6 
#
# 1 0.011783 -0.006975 -0.002324 0.000000 0.000000 0.000000
# 2 -0.006975 0.022514 -0.005556 0.000000 0.000000 0.000000
# 3 -0.002324 -0.005556 0.017503 0.000000 0.000000 0.000000
# 4 0.000000 0.000000 0.000000 0.029255 0.000000 0.000000
# 5 0.000000 0.000000 0.000000 0.000000 0.053802 0.000000
# 6 0.000000 0.000000 0.000000 0.000000 0.000000 0.024552
#
#
# Mechanical properties :
#
#
# Convention : Reuss Voigt Hill
#
# Bulk Modulus (GPa) = 45.26457 49.61490 47.43973
# Shear Modulus (GPa) = 25.44785 28.78468 27.11626
#
# Velocity S-wave (km/s) = 3.63583 3.86686 3.75312
# Velocity P-wave (km/s) = 6.41397 6.76092 6.58973
#
# Compressibility (1/GPa) = 0.02209234
#
# Stress axis : x y z
#
# Youngs Moduli (GPa) = 84.86659 44.41643 57.13468
#
# Poissons Ratio (x) = 0.30979 0.13275
# Poissons Ratio (y) = 0.59191 0.31742
# Poissons Ratio (z) = 0.19719 0.24676
#
# Static dielectric constant tensor:
#      x y z
#    x 1.646620 0.000000 0.000000 
#    y 0.000000 1.671690 0.000000 
#    z 0.000000 0.000000 1.835310 
# 
# From -- ./inp_files/8594.got.cif
#   From: 2010.05.17/outbox.cif.g08.bks.cpg/sg51_5_cif.got.tgz:8594.got - 2010.06.03 11:52:47.
