data_PCOD9406364
_publ_section_title
;
Structure prediction by ZEFSAII (Michael W. Deem and Ramdas Pophale) SiO2 
 PCOD9406364
Probable space group: P M M A
;
_chemical_formula_sum "Si O2"
_cell_formula_units_Z 38
_cell_length_a 19.748680
_cell_length_b 7.562165
_cell_length_c 13.175729
_cell_angle_alpha 90.000000
_cell_angle_beta 90.000000
_cell_angle_gamma 90.000000
_cell_volume 1967.699954
_symmetry_space_group_name_H-M "P M M A"
_symmetry_group_IT_number 51
_symmetry_cell_setting 'orthorhombic'
loop_
_space_group_symop_operation_xyz
x,y,z
1/2-x,-y,z
1/2+x,-y,-z
-x,y,-z
-x,-y,-z
1/2+x,y,-z
1/2-x,y,z
x,-y,z
loop_
_atom_site_type_symbol
_atom_site_label
_atom_site_fract_x
_atom_site_fract_y
_atom_site_fract_z
Si Si1 0.170096 0.707124 0.363242
Si Si2 0.427783 0.714954 0.543309
Si Si3 0.983417 0.000000 0.118040
Si Si4 0.250000 0.799851 0.831851
Si Si5 0.750000 0.000000 0.967685
Si Si6 0.399366 0.703403 0.773242
Si Si7 0.634292 0.000000 0.799300
O O1 0.250000 0.721646 0.381120
O O2 0.153983 0.500000 0.343899
O O3 0.129378 0.766242 0.462840
O O4 0.150756 0.829067 0.268953
O O5 0.500000 0.774694 0.500000
O O6 0.428403 0.500000 0.545425
O O7 0.413479 0.769012 0.658491
O O8 0.939461 0.830642 0.151119
O O9 0.055635 0.000000 0.173493
O O10 0.000000 0.000000 0.000000
O O11 0.319412 0.711996 0.796865
O O12 0.250000 0.000000 0.788734
O O13 0.250000 0.834745 0.953673
O O14 0.683917 0.000000 0.896663
O O15 0.422165 0.500000 0.781545
#
# Coordination Sequence:
#
# PCOD9406364 Si02
#       7
#     8   8   4   4   2   8   4
#     4  10  21  38  60  93 129 163 206 256 309 372
#     4   9  19  36  59  90 131 167 201 252 307 371
#     4  12  26  44  65  91 127 166 206 276 328 363
#     4  10  21  43  67  88 125 168 206 268 321 354
#     4  10  22  44  64  86 124 162 210 270 318 360
#     4  11  23  42  68  96 126 169 215 254 314 384
#     4  12  22  41  67  85 121 168 211 252 321 383
#
# _framework density 19.311886000000001
#
# number of rings (size 3 to 8) (size 9 to 14) (size 15 to 20)
#    0.316    1.263    2.105    2.842    1.474    3.789 
#    0.000    6.316    0.000    0.000    0.000    0.000 
#    0.000    0.000    0.000    0.000    0.000    0.000 
#
# Total GULP energy -212277.197876 kJ/mol
# GULP energy per Si atom -5586.242049 kJ/mol
# Density = 1.926793 g / cm^3
# Si number density = 19.311886 Si / 1000 Ang^3
#
#
#
# Elastic Constant Matrix: (Units=GPa)
#
#
# Indices 1 2 3 4 5 6 
#
# 1 138.0636 43.4644 72.5259 0.0000 0.0000 0.0000
# 2 43.4644 89.8912 47.6306 0.0000 0.0000 0.0000
# 3 72.5259 47.6306 160.6147 0.0000 0.0000 0.0000
# 4 0.0000 0.0000 0.0000 25.3222 0.0000 0.0000
# 5 0.0000 0.0000 0.0000 0.0000 45.0089 0.0000
# 6 0.0000 0.0000 0.0000 0.0000 0.0000 -14.8204
#
#
#
# Elastic Compliance Matrix: (Units=1/GPa)
#
#
# Indices 1 2 3 4 5 6 
#
# 1 0.010106 -0.002929 -0.003695 0.000000 0.000000 0.000000
# 2 -0.002929 0.014047 -0.002843 0.000000 0.000000 0.000000
# 3 -0.003695 -0.002843 0.008738 0.000000 0.000000 0.000000
# 4 0.000000 0.000000 0.000000 0.039491 0.000000 0.000000
# 5 0.000000 0.000000 0.000000 0.000000 0.022218 0.000000
# 6 0.000000 0.000000 0.000000 0.000000 0.000000 -0.067475
#
#
# Mechanical properties :
#
#
# Convention : Reuss Voigt Hill
#
# Bulk Modulus (GPa) = 71.64745 79.53458 75.59101
# Shear Modulus (GPa) = 98.59782 26.09873 62.34828
#
# Velocity S-wave (km/s) = 7.15307 3.68017 5.68815
# Velocity P-wave (km/s) = 10.26657 7.70272 9.07564
#
# Compressibility (1/GPa) = 0.01395723
#
# Stress axis : x y z
#
# Youngs Moduli (GPa) = 98.95151 71.18856 114.44682
#
# Poissons Ratio (x) = 0.20849 0.42287
# Poissons Ratio (y) = 0.28980 0.32540
# Poissons Ratio (z) = 0.36561 0.20241
#
# Static dielectric constant tensor:
#      x y z
#    x 1.703040 0.000000 0.000000 
#    y 0.000000 1.715640 0.000000 
#    z 0.000000 0.000000 1.646380 
# 
# From -- ./inp_files/17126.got.cif
#   From: 2010.05.17/outbox.cif.g08.bks.cpg/sg51_9_cif.got.tgz:17126.got - 2010.06.03 11:52:47.
