data_PCOD9406680
_publ_section_title
;
Structure prediction by ZEFSAII (Michael W. Deem and Ramdas Pophale) SiO2 
 PCOD9406680
Probable space group: P M M A
;
_chemical_formula_sum "Si O2"
_cell_formula_units_Z 44
_cell_length_a 9.373023
_cell_length_b 7.734652
_cell_length_c 31.623178
_cell_angle_alpha 90.000000
_cell_angle_beta 90.000000
_cell_angle_gamma 90.000000
_cell_volume 2292.587784
_symmetry_space_group_name_H-M "P M M A"
_symmetry_group_IT_number 51
_symmetry_cell_setting 'orthorhombic'
loop_
_space_group_symop_operation_xyz
x,y,z
1/2-x,-y,z
1/2+x,-y,-z
-x,y,-z
-x,-y,-z
1/2+x,y,-z
1/2-x,y,z
x,-y,z
loop_
_atom_site_type_symbol
_atom_site_label
_atom_site_fract_x
_atom_site_fract_y
_atom_site_fract_z
Si Si1 0.420624 0.702787 0.389514
Si Si2 0.587243 0.293195 0.305978
Si Si3 0.586962 0.293847 0.123045
Si Si4 0.912711 0.794794 0.214535
Si Si5 0.913887 0.288195 0.958313
Si Si6 0.578568 0.000000 0.544546
O O1 0.250000 0.712657 0.383542
O O2 0.456292 0.500000 0.397581
O O3 0.497650 0.762953 0.346516
O O4 0.458757 0.830458 0.427722
O O5 0.750000 0.223621 0.307393
O O6 0.595004 0.500000 0.308668
O O7 0.522828 0.252773 0.259856
O O8 0.750000 0.224300 0.121876
O O9 0.596783 0.500000 0.117828
O O10 0.524087 0.262322 0.169785
O O11 0.492939 0.228362 0.084256
O O12 0.750000 0.721201 0.215196
O O13 0.904438 0.000000 0.213177
O O14 0.750000 0.232466 0.959861
O O15 0.913661 0.500000 0.957994
O O16 0.000000 0.234817 0.000000
O O17 0.500000 0.000000 0.500000
O O18 0.750000 0.000000 0.538478
#
# Coordination Sequence:
#
# PCOD9406680 Si02
#       6
#     8   8   8   8   8   4
#     4   9  19  36  55  76 106 141 173 211 261 312
#     4   9  17  30  50  76 102 130 169 212 249 291
#     4   9  16  27  44  64  88 119 152 188 232 281
#     4   9  17  28  44  68  96 126 159 197 240 285
#     4   9  16  26  42  65  90 114 145 188 236 284
#     4  10  22  38  56  80 108 140 178 218 261 310
#
# _framework density 19.192285999999999
#
# number of rings (size 3 to 8) (size 9 to 14) (size 15 to 20)
#    0.000    2.909    0.000    1.091    1.273    5.455 
#    0.000    0.909    0.000    6.545    0.000    0.000 
#    0.000    0.000    0.000    0.000    0.000    0.000 
#
# Total GULP energy -245234.192191 kJ/mol
# GULP energy per Si atom -5573.504368 kJ/mol
# Density = 1.914860 g / cm^3
# Si number density = 19.192286 Si / 1000 Ang^3
#
#
#
# Elastic Constant Matrix: (Units=GPa)
#
#
# Indices 1 2 3 4 5 6 
#
# 1 60.8486 22.7449 81.6485 0.0000 0.0000 0.0000
# 2 22.7449 49.5089 43.3462 0.0000 0.0000 0.0000
# 3 81.6485 43.3462 232.4490 0.0000 0.0000 0.0000
# 4 0.0000 0.0000 0.0000 82.2271 0.0000 0.0000
# 5 0.0000 0.0000 0.0000 0.0000 30.1077 0.0000
# 6 0.0000 0.0000 0.0000 0.0000 0.0000 6.7741
#
#
#
# Elastic Compliance Matrix: (Units=1/GPa)
#
#
# Indices 1 2 3 4 5 6 
#
# 1 0.032463 -0.005892 -0.010304 0.000000 0.000000 0.000000
# 2 -0.005892 0.025209 -0.002631 0.000000 0.000000 0.000000
# 3 -0.010304 -0.002631 0.008412 0.000000 0.000000 0.000000
# 4 0.000000 0.000000 0.000000 0.012161 0.000000 0.000000
# 5 0.000000 0.000000 0.000000 0.000000 0.033214 0.000000
# 6 0.000000 0.000000 0.000000 0.000000 0.000000 0.147620
#
#
# Mechanical properties :
#
#
# Convention : Reuss Voigt Hill
#
# Bulk Modulus (GPa) = 35.17548 70.92062 53.04805
# Shear Modulus (GPa) = 16.32862 36.82626 26.57744
#
# Velocity S-wave (km/s) = 2.92000 4.38517 3.72532
# Velocity P-wave (km/s) = 5.45309 7.91660 6.79738
#
# Compressibility (1/GPa) = 0.02842890
#
# Stress axis : x y z
#
# Youngs Moduli (GPa) = 30.80441 39.66827 118.87867
#
# Poissons Ratio (x) = 0.23374 1.22491
# Poissons Ratio (y) = 0.18151 0.31279
# Poissons Ratio (z) = 0.31741 0.10437
#
# Static dielectric constant tensor:
#      x y z
#    x 1.665360 0.000000 0.000000 
#    y 0.000000 1.688100 0.000000 
#    z 0.000000 0.000000 1.669320 
# 
# From -- ./inp_files/36738.got.cif
#   From: 2010.05.17/outbox.cif.g08.bks.cpg/sg51_19_cif.got.tgz:36738.got - 2010.06.03 11:52:47.
