data_PCOD9406480
_publ_section_title
;
Structure prediction by ZEFSAII (Michael W. Deem and Ramdas Pophale) SiO2 
 PCOD9406480
Probable space group: P M M A
;
_chemical_formula_sum "Si O2"
_cell_formula_units_Z 48
_cell_length_a 28.533641
_cell_length_b 8.867302
_cell_length_c 10.236167
_cell_angle_alpha 90.000000
_cell_angle_beta 90.000000
_cell_angle_gamma 90.000000
_cell_volume 2589.918246
_symmetry_space_group_name_H-M "P M M A"
_symmetry_group_IT_number 51
_symmetry_cell_setting 'orthorhombic'
loop_
_space_group_symop_operation_xyz
x,y,z
1/2-x,-y,z
1/2+x,-y,-z
-x,y,-z
-x,-y,-z
1/2+x,y,-z
1/2-x,y,z
x,-y,z
loop_
_atom_site_type_symbol
_atom_site_label
_atom_site_fract_x
_atom_site_fract_y
_atom_site_fract_z
Si Si1 0.694566 0.819416 0.498599
Si Si2 0.864701 0.819663 0.998897
Si Si3 0.806230 0.326437 0.775261
Si Si4 0.375170 0.681606 0.714491
Si Si5 0.534006 0.819570 0.881571
Si Si6 0.018521 0.318395 0.640676
O O1 0.750000 0.783342 0.479243
O O2 0.680018 0.756238 0.640733
O O3 0.662399 0.746366 0.387656
O O4 0.689816 0.000000 0.496857
O O5 0.864985 0.744145 0.140952
O O6 0.861192 0.000000 0.013779
O O7 0.825302 0.756944 0.902567
O O8 0.913598 0.783936 0.926139
O O9 0.750000 0.325974 0.778747
O O10 0.822535 0.500000 0.773027
O O11 0.373063 0.500000 0.714918
O O12 0.428003 0.728548 0.672319
O O13 0.516055 0.740830 0.751832
O O14 0.530304 0.000000 0.864708
O O15 0.500000 0.774660 0.000000
O O16 0.018079 0.500000 0.641648
O O17 0.000000 0.266349 0.500000
#
# Coordination Sequence:
#
# PCOD9406480 Si02
#       6
#     8   8   8   8   8   8
#     4  10  22  41  64  89 119 156 196 242 297 354
#     4  11  23  39  61  89 120 157 200 246 297 352
#     4  10  22  41  64  90 120 154 194 242 296 356
#     4  11  23  39  60  88 121 159 201 245 296 351
#     4  10  21  39  60  85 118 156 196 240 291 347
#     4  10  23  40  58  86 120 156 197 243 293 349
#
# _framework density 18.533404999999998
#
# number of rings (size 3 to 8) (size 9 to 14) (size 15 to 20)
#    0.000    1.667    1.667    2.000    2.333    5.333 
#    0.000    0.000    0.000    0.000    0.000    0.000 
#    0.000    0.000    0.000    0.000    0.000    0.000 
#
# Total GULP energy -268190.719925 kJ/mol
# GULP energy per Si atom -5587.306665 kJ/mol
# Density = 1.849122 g / cm^3
# Si number density = 18.533405 Si / 1000 Ang^3
#
#
#
# Elastic Constant Matrix: (Units=GPa)
#
#
# Indices 1 2 3 4 5 6 
#
# 1 55.2070 43.8378 68.3464 0.0000 0.0000 0.0000
# 2 43.8378 60.1925 57.4279 0.0000 0.0000 0.0000
# 3 68.3464 57.4279 192.2709 0.0000 0.0000 0.0000
# 4 0.0000 0.0000 0.0000 38.8718 0.0000 0.0000
# 5 0.0000 0.0000 0.0000 0.0000 33.6882 0.0000
# 6 0.0000 0.0000 0.0000 0.0000 0.0000 41.5261
#
#
#
# Elastic Compliance Matrix: (Units=1/GPa)
#
#
# Indices 1 2 3 4 5 6 
#
# 1 0.055055 -0.029963 -0.010621 0.000000 0.000000 0.000000
# 2 -0.029963 0.039541 -0.001159 0.000000 0.000000 0.000000
# 3 -0.010621 -0.001159 0.009323 0.000000 0.000000 0.000000
# 4 0.000000 0.000000 0.000000 0.025726 0.000000 0.000000
# 5 0.000000 0.000000 0.000000 0.000000 0.029684 0.000000
# 6 0.000000 0.000000 0.000000 0.000000 0.000000 0.024081
#
#
# Mechanical properties :
#
#
# Convention : Reuss Voigt Hill
#
# Bulk Modulus (GPa) = 48.94202 71.87717 60.40959
# Shear Modulus (GPa) = 18.26777 32.02110 25.14444
#
# Velocity S-wave (km/s) = 3.14294 4.16113 3.68735
# Velocity P-wave (km/s) = 6.29568 7.87105 7.12702
#
# Compressibility (1/GPa) = 0.02043234
#
# Stress axis : x y z
#
# Youngs Moduli (GPa) = 18.16381 25.29011 107.26537
#
# Poissons Ratio (x) = 0.75776 1.13925
# Poissons Ratio (y) = 0.54424 0.12436
# Poissons Ratio (z) = 0.19292 0.02932
#
# Static dielectric constant tensor:
#      x y z
#    x 1.739020 0.000000 0.000000 
#    y 0.000000 1.626000 0.000000 
#    z 0.000000 0.000000 1.602630 
# 
# From -- ./inp_files/12804.got.cif
#   From: 2010.05.17/outbox.cif.g08.bks.cpg/sg51_7_cif.got.tgz:12804.got - 2010.06.03 11:52:47.
