data_PCOD9406900
_publ_section_title
;
Structure prediction by ZEFSAII (Michael W. Deem and Ramdas Pophale) SiO2 
 PCOD9406900
Probable space group: P M M A
;
_chemical_formula_sum "Si O2"
_cell_formula_units_Z 40
_cell_length_a 18.626294
_cell_length_b 8.715856
_cell_length_c 12.681948
_cell_angle_alpha 90.000000
_cell_angle_beta 90.000000
_cell_angle_gamma 90.000000
_cell_volume 2058.839388
_symmetry_space_group_name_H-M "P M M A"
_symmetry_group_IT_number 51
_symmetry_cell_setting 'orthorhombic'
loop_
_space_group_symop_operation_xyz
x,y,z
1/2-x,-y,z
1/2+x,-y,-z
-x,y,-z
-x,-y,-z
1/2+x,y,-z
1/2-x,y,z
x,-y,z
loop_
_atom_site_type_symbol
_atom_site_label
_atom_site_fract_x
_atom_site_fract_y
_atom_site_fract_z
Si Si1 0.920008 0.818087 0.724261
Si Si2 0.332470 0.684475 0.462131
Si Si3 0.165700 0.817487 0.852044
Si Si4 0.419746 0.683029 0.042461
Si Si5 0.427975 0.316650 0.663491
O O1 0.858589 0.763670 0.644393
O O2 0.913164 0.739560 0.838146
O O3 0.995618 0.764391 0.674491
O O4 0.919442 0.000000 0.737036
O O5 0.250000 0.722717 0.487565
O O6 0.337320 0.500000 0.449397
O O7 0.384952 0.727474 0.558124
O O8 0.250000 0.783259 0.841642
O O9 0.120150 0.729957 0.763473
O O10 0.155239 0.000000 0.839456
O O11 0.136018 0.765076 0.965100
O O12 0.409980 0.500000 0.037135
O O13 0.500000 0.718110 0.000000
O O14 0.439128 0.500000 0.662896
#
# Coordination Sequence:
#
# PCOD9406900 Si02
#       5
#     8   8   8   8   8
#     4  12  25  40  64  94 127 165 206 257 317 374
#     4  10  23  43  65  90 124 166 211 259 309 366
#     4  11  24  40  62  95 131 165 203 254 316 375
#     4  11  23  41  66  92 120 163 212 256 304 365
#     4  11  22  40  66  94 124 164 213 259 306 366
#
# _framework density 19.428422999999999
#
# number of rings (size 3 to 8) (size 9 to 14) (size 15 to 20)
#    0.000    1.000    2.000    4.800    0.000    8.400 
#    0.000    0.000    0.000    0.000    0.000    0.000 
#    0.000    0.000    0.000    0.000    0.000    0.000 
#
# Total GULP energy -223851.040622 kJ/mol
# GULP energy per Si atom -5596.276016 kJ/mol
# Density = 1.938420 g / cm^3
# Si number density = 19.428423 Si / 1000 Ang^3
#
#
#
# Elastic Constant Matrix: (Units=GPa)
#
#
# Indices 1 2 3 4 5 6 
#
# 1 21.6548 -7.0901 -12.3596 0.0000 0.0000 0.0000
# 2 -7.0901 12.1315 -7.5988 0.0000 0.0000 0.0000
# 3 -12.3596 -7.5988 82.7052 0.0000 0.0000 0.0000
# 4 0.0000 0.0000 0.0000 417.7754 0.0000 0.0000
# 5 0.0000 0.0000 0.0000 0.0000 -50.0454 0.0000
# 6 0.0000 0.0000 0.0000 0.0000 0.0000 21.1185
#
#
#
# Elastic Compliance Matrix: (Units=1/GPa)
#
#
# Indices 1 2 3 4 5 6 
#
# 1 0.071995 0.051796 0.015518 0.000000 0.000000 0.000000
# 2 0.051796 0.124728 0.019200 0.000000 0.000000 0.000000
# 3 0.015518 0.019200 0.016174 0.000000 0.000000 0.000000
# 4 0.000000 0.000000 0.000000 0.002394 0.000000 0.000000
# 5 0.000000 0.000000 0.000000 0.000000 -0.019982 0.000000
# 6 0.000000 0.000000 0.000000 0.000000 0.000000 0.047352
#
#
# Mechanical properties :
#
#
# Convention : Reuss Voigt Hill
#
# Bulk Modulus (GPa) = 2.59117 6.93272 4.76194
# Shear Modulus (GPa) = 25.21768 87.33905 56.27836
#
# Velocity S-wave (km/s) = 3.60666 6.71207 5.38794
# Velocity P-wave (km/s) = 4.32210 7.97780 6.41583
#
# Compressibility (1/GPa) = 0.38592672
#
# Stress axis : x y z
#
# Youngs Moduli (GPa) = 13.88983 8.01746 61.82660
#
# Poissons Ratio (x) = -0.41528 -0.95943
# Poissons Ratio (y) = -0.71944 -1.18709
# Poissons Ratio (z) = -0.21554 -0.15394
#
# Static dielectric constant tensor:
#      x y z
#    x 1.660450 0.000000 0.000000 
#    y 0.000000 1.649950 0.000000 
#    z 0.000000 0.000000 1.649180 
# 
# From -- ./inp_files/17061.got.cif
#   From: 2010.05.17/outbox.cif.g08.bks.cpg/sg51_9_cif.got.tgz:17061.got - 2010.06.03 11:52:47.
