data_PCOD9406166
_publ_section_title
;
Structure prediction by ZEFSAII (Michael W. Deem and Ramdas Pophale) SiO2 
 PCOD9406166
Probable space group: P M M A
;
_chemical_formula_sum "Si O2"
_cell_formula_units_Z 56
_cell_length_a 14.417845
_cell_length_b 9.167735
_cell_length_c 21.724908
_cell_angle_alpha 90.000000
_cell_angle_beta 90.000000
_cell_angle_gamma 90.000000
_cell_volume 2871.576229
_symmetry_space_group_name_H-M "P M M A"
_symmetry_group_IT_number 51
_symmetry_cell_setting 'orthorhombic'
loop_
_space_group_symop_operation_xyz
x,y,z
1/2-x,-y,z
1/2+x,-y,-z
-x,y,-z
-x,-y,-z
1/2+x,y,-z
1/2-x,y,z
x,-y,z
loop_
_atom_site_type_symbol
_atom_site_label
_atom_site_fract_x
_atom_site_fract_y
_atom_site_fract_z
Si Si1 0.024795 0.673844 0.155161
Si Si2 0.362910 0.332400 0.528463
Si Si3 0.037550 0.825785 0.279329
Si Si4 0.855516 0.825242 0.346661
Si Si5 0.859508 0.172558 0.094310
Si Si6 0.638354 0.672274 0.608606
Si Si7 0.360247 0.669298 0.032571
O O1 0.021065 0.500000 0.162383
O O2 0.064715 0.747877 0.216218
O O3 0.085835 0.707004 0.094606
O O4 0.924124 0.740849 0.141111
O O5 0.250000 0.331829 0.526467
O O6 0.392418 0.500000 0.537024
O O7 0.387803 0.239652 0.587983
O O8 0.393215 0.283138 0.460435
O O9 0.094790 0.765832 0.337196
O O10 0.930355 0.787751 0.295065
O O11 0.046227 0.000000 0.274226
O O12 0.750000 0.775239 0.334152
O O13 0.853964 0.000000 0.351863
O O14 0.750000 0.199203 0.104288
O O15 0.876417 0.000000 0.099070
O O16 0.882537 0.230573 0.025773
O O17 0.750000 0.684916 0.610799
O O18 0.616054 0.500000 0.615974
O O19 0.250000 0.679200 0.043525
O O20 0.381699 0.500000 0.016577
#
# Coordination Sequence:
#
# PCOD9406166 Si02
#       7
#     8   8   8   8   8   8   8
#     4  11  23  38  57  81 111 149 189 227 270 321
#     4   8  15  30  54  81 104 131 173 224 276 327
#     4  11  24  38  53  78 110 146 188 228 271 326
#     4   9  19  36  55  75 104 141 178 221 275 331
#     4  10  21  37  59  87 116 145 178 221 273 323
#     4   9  19  37  58  79 107 142 179 223 275 329
#     4   9  19  37  60  85 112 142 178 221 270 324
#
# _framework density 19.501486
#
# number of rings (size 3 to 8) (size 9 to 14) (size 15 to 20)
#    0.000    2.429    0.000    2.571    0.000    7.429 
#    0.000    7.143    0.000    0.000    0.000    0.000 
#    0.000    0.000    0.000    0.000    0.000    0.000 
#
# Total GULP energy -312723.225715 kJ/mol
# GULP energy per Si atom -5584.343316 kJ/mol
# Density = 1.945710 g / cm^3
# Si number density = 19.501486 Si / 1000 Ang^3
#
#
#
# Elastic Constant Matrix: (Units=GPa)
#
#
# Indices 1 2 3 4 5 6 
#
# 1 35.3145 15.4163 9.4878 0.0000 0.0000 0.0000
# 2 15.4163 31.3829 24.1659 0.0000 0.0000 0.0000
# 3 9.4878 24.1659 64.6586 0.0000 0.0000 0.0000
# 4 0.0000 0.0000 0.0000 41.7860 0.0000 0.0000
# 5 0.0000 0.0000 0.0000 0.0000 21.1804 0.0000
# 6 0.0000 0.0000 0.0000 0.0000 0.0000 24.7285
#
#
#
# Elastic Compliance Matrix: (Units=1/GPa)
#
#
# Indices 1 2 3 4 5 6 
#
# 1 0.036208 -0.019230 0.001874 0.000000 0.000000 0.000000
# 2 -0.019230 0.054953 -0.017717 0.000000 0.000000 0.000000
# 3 0.001874 -0.017717 0.021813 0.000000 0.000000 0.000000
# 4 0.000000 0.000000 0.000000 0.023931 0.000000 0.000000
# 5 0.000000 0.000000 0.000000 0.000000 0.047214 0.000000
# 6 0.000000 0.000000 0.000000 0.000000 0.000000 0.040439
#
#
# Mechanical properties :
#
#
# Convention : Reuss Voigt Hill
#
# Bulk Modulus (GPa) = 23.34880 25.49956 24.42418
# Shear Modulus (GPa) = 16.18229 23.02469 19.60349
#
# Velocity S-wave (km/s) = 2.88375 3.43981 3.17398
# Velocity P-wave (km/s) = 4.80487 5.37405 5.09741
#
# Compressibility (1/GPa) = 0.04282875
#
# Stress axis : x y z
#
# Youngs Moduli (GPa) = 27.61810 18.19726 45.84525
#
# Poissons Ratio (x) = 0.34993 -0.08591
# Poissons Ratio (y) = 0.53109 0.81224
# Poissons Ratio (z) = -0.05175 0.32240
#
# Static dielectric constant tensor:
#      x y z
#    x 1.725140 0.000000 0.000000 
#    y 0.000000 1.644600 0.000000 
#    z 0.000000 0.000000 1.656930 
# 
# From -- ./inp_files/33375.got.cif
#   From: 2010.05.17/outbox.cif.g08.bks.cpg/sg51_17_cif.got.tgz:33375.got - 2010.06.03 11:52:47.
