data_PCOD9406311
_publ_section_title
;
Structure prediction by ZEFSAII (Michael W. Deem and Ramdas Pophale) SiO2 
 PCOD9406311
Probable space group: P M M A
;
_chemical_formula_sum "Si O2"
_cell_formula_units_Z 48
_cell_length_a 31.022812
_cell_length_b 7.594732
_cell_length_c 10.360263
_cell_angle_alpha 90.000000
_cell_angle_beta 90.000000
_cell_angle_gamma 90.000000
_cell_volume 2440.980975
_symmetry_space_group_name_H-M "P M M A"
_symmetry_group_IT_number 51
_symmetry_cell_setting 'orthorhombic'
loop_
_space_group_symop_operation_xyz
x,y,z
1/2-x,-y,z
1/2+x,-y,-z
-x,y,-z
-x,-y,-z
1/2+x,y,-z
1/2-x,y,z
x,-y,z
loop_
_atom_site_type_symbol
_atom_site_label
_atom_site_fract_x
_atom_site_fract_y
_atom_site_fract_z
Si Si1 0.299457 0.708675 0.980718
Si Si2 0.371164 0.798734 0.181631
Si Si3 0.799317 0.787362 0.312222
Si Si4 0.134000 0.786844 0.472767
Si Si5 0.565776 0.500000 0.915818
Si Si6 0.041674 0.790371 0.589417
Si Si7 0.469710 0.500000 0.803108
O O1 0.250000 0.772515 0.991188
O O2 0.299839 0.500000 0.004355
O O3 0.313427 0.739199 0.832673
O O4 0.331216 0.792866 0.083659
O O5 0.357863 0.736071 0.324944
O O6 0.407577 0.670221 0.128091
O O7 0.386951 0.000000 0.192452
O O8 0.750000 0.724801 0.329691
O O9 0.831540 0.721484 0.422511
O O10 0.798573 0.000000 0.318305
O O11 0.085474 0.740794 0.514396
O O12 0.136538 0.000000 0.476446
O O13 0.519087 0.500000 0.850080
O O14 0.559418 0.500000 0.069474
O O15 0.038509 0.671215 0.715747
O O16 0.000000 0.757915 0.500000
O O17 0.043158 0.000000 0.618149
#
# Coordination Sequence:
#
# PCOD9406311 Si02
#       7
#     8   8   8   8   4   8   4
#     4  10  21  38  59  88 126 164 206 252 300 365
#     4  11  23  41  64  88 124 167 202 252 311 363
#     4   9  18  35  59  87 118 154 201 252 300 363
#     4   9  20  36  58  89 119 154 203 255 307 364
#     4  11  26  44  59  92 125 156 209 258 300 372
#     4  10  21  39  64  93 123 157 206 259 310 373
#     4  11  25  42  64  88 122 165 205 249 317 372
#
# _framework density 19.664224999999998
#
# number of rings (size 3 to 8) (size 9 to 14) (size 15 to 20)
#    0.000    2.000    0.833    1.750    2.333    5.000 
#    1.500    3.333    0.000    0.000    0.000    0.000 
#    0.000    0.000    0.000    0.000    0.000    0.000 
#
# Total GULP energy -268195.515262 kJ/mol
# GULP energy per Si atom -5587.406568 kJ/mol
# Density = 1.961947 g / cm^3
# Si number density = 19.664225 Si / 1000 Ang^3
#
#
#
# Elastic Constant Matrix: (Units=GPa)
#
#
# Indices 1 2 3 4 5 6 
#
# 1 99.2167 19.3059 91.1134 0.0000 0.0000 0.0000
# 2 19.3059 73.6103 39.4048 0.0000 0.0000 0.0000
# 3 91.1134 39.4048 189.6099 0.0000 0.0000 0.0000
# 4 0.0000 0.0000 0.0000 17.8578 0.0000 0.0000
# 5 0.0000 0.0000 0.0000 0.0000 29.9516 0.0000
# 6 0.0000 0.0000 0.0000 0.0000 0.0000 503.4221
#
#
#
# Elastic Compliance Matrix: (Units=1/GPa)
#
#
# Indices 1 2 3 4 5 6 
#
# 1 0.018040 -0.000102 -0.008648 0.000000 0.000000 0.000000
# 2 -0.000102 0.015286 -0.003128 0.000000 0.000000 0.000000
# 3 -0.008648 -0.003128 0.010079 0.000000 0.000000 0.000000
# 4 0.000000 0.000000 0.000000 0.055998 0.000000 0.000000
# 5 0.000000 0.000000 0.000000 0.000000 0.033387 0.000000
# 6 0.000000 0.000000 0.000000 0.000000 0.000000 0.001986
#
#
# Mechanical properties :
#
#
# Convention : Reuss Voigt Hill
#
# Bulk Modulus (GPa) = 50.88858 73.56500 62.22679
# Shear Modulus (GPa) = 30.28787 124.42049 77.35418
#
# Velocity S-wave (km/s) = 3.92886 7.96303 6.27877
# Velocity P-wave (km/s) = 6.82028 11.04709 9.18026
#
# Compressibility (1/GPa) = 0.01965077
#
# Stress axis : x y z
#
# Youngs Moduli (GPa) = 55.43187 65.41867 99.21204
#
# Poissons Ratio (x) = 0.00669 0.85795
# Poissons Ratio (y) = 0.00567 0.31030
# Poissons Ratio (z) = 0.47935 0.20461
#
# Static dielectric constant tensor:
#      x y z
#    x 1.677050 0.000000 0.000000 
#    y 0.000000 3.900320 0.000000 
#    z 0.000000 0.000000 1.660100 
# 
# From -- ./inp_files/12970.got.cif
#   From: 2010.05.17/outbox.cif.g08.bks.cpg/sg51_7_cif.got.tgz:12970.got - 2010.06.03 11:52:47.
