data_PCOD9406499
_publ_section_title
;
Structure prediction by ZEFSAII (Michael W. Deem and Ramdas Pophale) SiO2 
 PCOD9406499
Probable space group: P M M A
;
_chemical_formula_sum "Si O2"
_cell_formula_units_Z 48
_cell_length_a 15.381047
_cell_length_b 8.670096
_cell_length_c 19.430359
_cell_angle_alpha 90.000000
_cell_angle_beta 90.000000
_cell_angle_gamma 90.000000
_cell_volume 2591.138518
_symmetry_space_group_name_H-M "P M M A"
_symmetry_group_IT_number 51
_symmetry_cell_setting 'orthorhombic'
loop_
_space_group_symop_operation_xyz
x,y,z
1/2-x,-y,z
1/2+x,-y,-z
-x,y,-z
-x,-y,-z
1/2+x,y,-z
1/2-x,y,z
x,-y,z
loop_
_atom_site_type_symbol
_atom_site_label
_atom_site_fract_x
_atom_site_fract_y
_atom_site_fract_z
Si Si1 0.250000 0.314227 0.580583
Si Si2 0.250000 0.683651 0.422135
Si Si3 0.096442 0.814045 0.169078
Si Si4 0.250000 0.184713 0.921926
Si Si5 0.403291 0.684783 0.828487
Si Si6 0.750000 0.315519 0.924210
Si Si7 0.600458 0.815501 0.672459
Si Si8 0.101200 0.814634 0.677160
O O1 0.250000 0.500000 0.583251
O O2 0.250000 0.262542 0.501190
O O3 0.333668 0.250259 0.620686
O O4 0.250000 0.500000 0.423057
O O5 0.334233 0.740289 0.380780
O O6 0.165855 0.743848 0.117236
O O7 0.120674 0.773332 0.248181
O O8 0.999714 0.749772 0.156920
O O9 0.095414 0.000000 0.164020
O O10 0.165843 0.248522 0.881980
O O11 0.250000 0.000000 0.920570
O O12 0.250000 0.245284 0.999679
O O13 0.403478 0.500000 0.830435
O O14 0.379001 0.742543 0.751801
O O15 0.750000 0.500000 0.927516
O O16 0.499297 0.776506 0.660506
O O17 0.609265 0.000000 0.667294
O O18 0.108660 0.000000 0.682150
#
# Coordination Sequence:
#
# PCOD9406499 Si02
#       8
#     4   4   8   4   8   4   8   8
#     4  11  24  39  54  81 118 155 190 235 290 345
#     4  11  24  37  54  82 118 154 190 233 290 347
#     4  10  21  40  63  89 118 154 196 239 287 346
#     4  12  25  42  61  84 118 160 197 236 287 348
#     4  11  22  39  63  91 119 150 190 242 292 341
#     4  12  25  40  59  89 122 155 195 242 293 344
#     4   9  20  38  61  85 112 146 191 238 281 334
#     4  10  21  39  62  87 112 148 194 239 285 342
#
# _framework density 18.524675999999999
#
# number of rings (size 3 to 8) (size 9 to 14) (size 15 to 20)
#    0.000    1.500    0.000    6.500    0.000    8.667 
#    0.000    6.667    0.000    0.000    0.000    0.000 
#    0.000    0.000    0.000    0.000    0.000    0.000 
#
# Total GULP energy -268403.017534 kJ/mol
# GULP energy per Si atom -5591.729532 kJ/mol
# Density = 1.848251 g / cm^3
# Si number density = 18.524676 Si / 1000 Ang^3
#
#
#
# Elastic Constant Matrix: (Units=GPa)
#
#
# Indices 1 2 3 4 5 6 
#
# 1 128.5982 62.4657 129.9306 0.0000 0.0000 0.0000
# 2 62.4657 114.6688 74.1177 0.0000 0.0000 0.0000
# 3 129.9306 74.1177 185.1903 0.0000 0.0000 0.0000
# 4 0.0000 0.0000 0.0000 35.4333 0.0000 0.0000
# 5 0.0000 0.0000 0.0000 0.0000 -41.6441 0.0000
# 6 0.0000 0.0000 0.0000 0.0000 0.0000 -39.8405
#
#
#
# Elastic Compliance Matrix: (Units=1/GPa)
#
#
# Indices 1 2 3 4 5 6 
#
# 1 0.027663 -0.003405 -0.018045 0.000000 0.000000 0.000000
# 2 -0.003405 0.012183 -0.002487 0.000000 0.000000 0.000000
# 3 -0.018045 -0.002487 0.019056 0.000000 0.000000 0.000000
# 4 0.000000 0.000000 0.000000 0.028222 0.000000 0.000000
# 5 0.000000 0.000000 0.000000 0.000000 -0.024013 0.000000
# 6 0.000000 0.000000 0.000000 0.000000 0.000000 -0.025100
#
#
# Mechanical properties :
#
#
# Convention : Reuss Voigt Hill
#
# Bulk Modulus (GPa) = 90.68916 106.83170 98.76043
# Shear Modulus (GPa) = 55.82783 1.58595 28.70689
#
# Velocity S-wave (km/s) = 5.49567 0.92628 3.94084
# Velocity P-wave (km/s) = 9.45156 7.67718 8.61020
#
# Compressibility (1/GPa) = 0.01102668
#
# Stress axis : x y z
#
# Youngs Moduli (GPa) = 36.14994 82.08022 52.47736
#
# Poissons Ratio (x) = 0.27951 0.94697
# Poissons Ratio (y) = 0.12310 0.13050
# Poissons Ratio (z) = 0.65234 0.20412
#
# Static dielectric constant tensor:
#      x y z
#    x 1.621780 0.000000 0.000000 
#    y 0.000000 1.618210 0.000000 
#    z 0.000000 0.000000 1.611850 
# 
# From -- ./inp_files/29676.got.cif
#   From: 2010.05.17/outbox.cif.g08.bks.cpg/sg51_15_cif.got.tgz:29676.got - 2010.06.03 11:52:47.
