data_PCOD9406167
_publ_section_title
;
Structure prediction by ZEFSAII (Michael W. Deem and Ramdas Pophale) SiO2 
 PCOD9406167
Probable space group: P M M A
;
_chemical_formula_sum "Si O2"
_cell_formula_units_Z 56
_cell_length_a 15.727248
_cell_length_b 8.909908
_cell_length_c 21.849365
_cell_angle_alpha 90.000000
_cell_angle_beta 90.000000
_cell_angle_gamma 90.000000
_cell_volume 3061.715090
_symmetry_space_group_name_H-M "P M M A"
_symmetry_group_IT_number 51
_symmetry_cell_setting 'orthorhombic'
loop_
_space_group_symop_operation_xyz
x,y,z
1/2-x,-y,z
1/2+x,-y,-z
-x,y,-z
-x,-y,-z
1/2+x,y,-z
1/2-x,y,z
x,-y,z
loop_
_atom_site_type_symbol
_atom_site_label
_atom_site_fract_x
_atom_site_fract_y
_atom_site_fract_z
Si Si1 0.652278 0.320109 0.939239
Si Si2 0.155018 0.180188 0.374510
Si Si3 0.398305 0.676838 0.501916
Si Si4 0.498908 0.680044 0.849040
Si Si5 0.497680 0.818373 0.285117
Si Si6 0.345265 0.180494 0.629946
Si Si7 0.151307 0.820479 0.927699
O O1 0.750000 0.286500 0.920720
O O2 0.646445 0.500000 0.949205
O O3 0.582100 0.278265 0.889159
O O4 0.635455 0.238475 0.003495
O O5 0.250000 0.217701 0.352961
O O6 0.139512 0.251227 0.440771
O O7 0.082608 0.227024 0.326866
O O8 0.148945 0.000000 0.381053
O O9 0.500000 0.699368 0.500000
O O10 0.380541 0.500000 0.502742
O O11 0.363254 0.750723 0.563541
O O12 0.494222 0.500000 0.846988
O O13 0.505490 0.746067 0.781283
O O14 0.415775 0.744660 0.882635
O O15 0.582541 0.773339 0.322082
O O16 0.497366 0.000000 0.279405
O O17 0.250000 0.220642 0.650050
O O18 0.350157 0.000000 0.624268
O O19 0.250000 0.783775 0.912769
O O20 0.141999 0.000000 0.925659
#
# Coordination Sequence:
#
# PCOD9406167 Si02
#       7
#     8   8   8   8   8   8   8
#     4   9  19  37  59  84 116 151 186 227 277 333
#     4  10  21  38  60  83 108 144 188 229 276 333
#     4  11  22  35  56  85 115 143 177 226 282 334
#     4  11  23  37  57  84 115 152 192 229 276 334
#     4  10  22  39  56  78 111 148 187 233 276 321
#     4  10  21  38  60  82 105 141 186 228 278 336
#     4  10  21  37  59  87 116 147 186 233 282 330
#
# _framework density 18.290403000000001
#
# number of rings (size 3 to 8) (size 9 to 14) (size 15 to 20)
#    0.000    1.857    1.429    2.143    0.000    8.857 
#    0.000    1.429    0.000    0.000    0.000    0.000 
#    0.000    0.000    0.000    0.000    0.000    0.000 
#
# Total GULP energy -312838.298576 kJ/mol
# GULP energy per Si atom -5586.398189 kJ/mol
# Density = 1.824877 g / cm^3
# Si number density = 18.290403 Si / 1000 Ang^3
#
#
#
# Elastic Constant Matrix: (Units=GPa)
#
#
# Indices 1 2 3 4 5 6 
#
# 1 137.1558 46.9830 83.3645 0.0000 0.0000 0.0000
# 2 46.9830 22.3638 35.3378 0.0000 0.0000 0.0000
# 3 83.3645 35.3378 123.5923 0.0000 0.0000 0.0000
# 4 0.0000 0.0000 0.0000 50.4554 0.0000 0.0000
# 5 0.0000 0.0000 0.0000 0.0000 -2.6106 0.0000
# 6 0.0000 0.0000 0.0000 0.0000 0.0000 21.4533
#
#
#
# Elastic Compliance Matrix: (Units=1/GPa)
#
#
# Indices 1 2 3 4 5 6 
#
# 1 0.026865 -0.050723 -0.003618 0.000000 0.000000 0.000000
# 2 -0.050723 0.177334 -0.016490 0.000000 0.000000 0.000000
# 3 -0.003618 -0.016490 0.015247 0.000000 0.000000 0.000000
# 4 0.000000 0.000000 0.000000 0.019819 0.000000 0.000000
# 5 0.000000 0.000000 0.000000 0.000000 -0.383058 0.000000
# 6 0.000000 0.000000 0.000000 0.000000 0.000000 0.046613
#
#
# Mechanical properties :
#
#
# Convention : Reuss Voigt Hill
#
# Bulk Modulus (GPa) = 12.85633 68.27583 40.56608
# Shear Modulus (GPa) = 71.01099 21.68805 46.34952
#
# Velocity S-wave (km/s) = 6.23767 3.44722 5.03944
# Velocity P-wave (km/s) = 7.67608 7.29755 7.48921
#
# Compressibility (1/GPa) = 0.07778272
#
# Stress axis : x y z
#
# Youngs Moduli (GPa) = 37.22247 5.63907 65.58822
#
# Poissons Ratio (x) = 0.28603 0.23731
# Poissons Ratio (y) = 1.88804 1.08158
# Poissons Ratio (z) = 0.13468 0.09299
#
# Static dielectric constant tensor:
#      x y z
#    x 1.646160 0.000000 0.000000 
#    y 0.000000 1.610710 0.000000 
#    z 0.000000 0.000000 1.573160 
# 
# From -- ./inp_files/33312.got.cif
#   From: 2010.05.17/outbox.cif.g08.bks.cpg/sg51_17_cif.got.tgz:33312.got - 2010.06.03 11:52:47.
