data_PCOD9406554
_publ_section_title
;
Structure prediction by ZEFSAII (Michael W. Deem and Ramdas Pophale) SiO2 
 PCOD9406554
Probable space group: P M M A
;
_chemical_formula_sum "Si O2"
_cell_formula_units_Z 40
_cell_length_a 18.537095
_cell_length_b 10.122426
_cell_length_c 10.669472
_cell_angle_alpha 90.000000
_cell_angle_beta 90.000000
_cell_angle_gamma 90.000000
_cell_volume 2002.023699
_symmetry_space_group_name_H-M "P M M A"
_symmetry_group_IT_number 51
_symmetry_cell_setting 'orthorhombic'
loop_
_space_group_symop_operation_xyz
x,y,z
1/2-x,-y,z
1/2+x,-y,-z
-x,y,-z
-x,-y,-z
1/2+x,y,-z
1/2-x,y,z
x,-y,z
loop_
_atom_site_type_symbol
_atom_site_label
_atom_site_fract_x
_atom_site_fract_y
_atom_site_fract_z
Si Si1 0.613517 0.350830 0.801440
Si Si2 0.028170 0.219583 0.868027
Si Si3 0.063342 0.856123 0.599849
Si Si4 0.833041 0.841621 0.007551
Si Si5 0.834737 0.653718 0.517092
O O1 0.638060 0.500000 0.833690
O O2 0.529216 0.335683 0.840593
O O3 0.628500 0.332077 0.654301
O O4 0.653527 0.234354 0.876669
O O5 0.028547 0.144115 0.737348
O O6 0.112456 0.233752 0.899222
O O7 0.000000 0.158712 0.000000
O O8 0.122469 0.744465 0.579361
O O9 0.000000 0.834674 0.500000
O O10 0.096196 0.000000 0.576000
O O11 0.750000 0.828890 0.044246
O O12 0.849135 0.000000 0.002433
O O13 0.750000 0.686606 0.526728
O O14 0.840921 0.500000 0.482091
#
# Coordination Sequence:
#
# PCOD9406554 Si02
#       5
#     8   8   8   8   8
#     4  10  21  39  64  92 124 164 212 263 312 370
#     4  10  22  40  65  92 123 166 207 255 309 374
#     4  11  23  39  62  94 125 158 206 259 307 362
#     4  10  22  38  58  87 125 168 209 255 316 380
#     4  10  22  41  64  91 126 169 210 255 317 378
#
# _framework density 19.979783000000001
#
# number of rings (size 3 to 8) (size 9 to 14) (size 15 to 20)
#    0.000    1.800    2.000    1.200    0.000   15.200 
#    0.000    0.000    0.000    0.000    0.000    0.000 
#    0.000    0.000    0.000    0.000    0.000    0.000 
#
# Total GULP energy -222787.976529 kJ/mol
# GULP energy per Si atom -5569.699413 kJ/mol
# Density = 1.993431 g / cm^3
# Si number density = 19.979783 Si / 1000 Ang^3
#
#
#
# Elastic Constant Matrix: (Units=GPa)
#
#
# Indices 1 2 3 4 5 6 
#
# 1 102.6223 46.9267 39.8744 0.0000 0.0000 0.0000
# 2 46.9267 65.0904 35.5230 0.0000 0.0000 0.0000
# 3 39.8744 35.5230 113.0887 0.0000 0.0000 0.0000
# 4 0.0000 0.0000 0.0000 -29.5607 0.0000 0.0000
# 5 0.0000 0.0000 0.0000 0.0000 21.0756 0.0000
# 6 0.0000 0.0000 0.0000 0.0000 0.0000 29.3315
#
#
#
# Elastic Compliance Matrix: (Units=1/GPa)
#
#
# Indices 1 2 3 4 5 6 
#
# 1 0.015011 -0.009575 -0.002285 0.000000 0.000000 0.000000
# 2 -0.009575 0.024649 -0.004367 0.000000 0.000000 0.000000
# 3 -0.002285 -0.004367 0.011020 0.000000 0.000000 0.000000
# 4 0.000000 0.000000 0.000000 -0.033829 0.000000 0.000000
# 5 0.000000 0.000000 0.000000 0.000000 0.047448 0.000000
# 6 0.000000 0.000000 0.000000 0.000000 0.000000 0.034093
#
#
# Mechanical properties :
#
#
# Convention : Reuss Voigt Hill
#
# Bulk Modulus (GPa) = 54.86445 58.38328 56.62386
# Shear Modulus (GPa) = 36.51731 14.73443 25.62587
#
# Velocity S-wave (km/s) = 4.27981 2.71858 3.58521
# Velocity P-wave (km/s) = 7.20708 6.25611 6.74836
#
# Compressibility (1/GPa) = 0.01822674
#
# Stress axis : x y z
#
# Youngs Moduli (GPa) = 66.61932 40.56913 90.74429
#
# Poissons Ratio (x) = 0.38844 0.20736
# Poissons Ratio (y) = 0.63787 0.39626
# Poissons Ratio (z) = 0.15223 0.17715
#
# Static dielectric constant tensor:
#      x y z
#    x 1.733980 0.000000 0.000000 
#    y 0.000000 1.686180 0.000000 
#    z 0.000000 0.000000 1.718540 
# 
# From -- ./inp_files/17081.got.cif
#   From: 2010.05.17/outbox.cif.g08.bks.cpg/sg51_9_cif.got.tgz:17081.got - 2010.06.03 11:52:47.
