data_PCOD9406410
_publ_section_title
;
Structure prediction by ZEFSAII (Michael W. Deem and Ramdas Pophale) SiO2 
 PCOD9406410
Probable space group: P M M A
;
_chemical_formula_sum "Si O2"
_cell_formula_units_Z 28
_cell_length_a 9.095766
_cell_length_b 7.254622
_cell_length_c 20.806012
_cell_angle_alpha 90.000000
_cell_angle_beta 90.000000
_cell_angle_gamma 90.000000
_cell_volume 1372.912668
_symmetry_space_group_name_H-M "P M M A"
_symmetry_group_IT_number 51
_symmetry_cell_setting 'orthorhombic'
loop_
_space_group_symop_operation_xyz
x,y,z
1/2-x,-y,z
1/2+x,-y,-z
-x,y,-z
-x,-y,-z
1/2+x,y,-z
1/2-x,y,z
x,-y,z
loop_
_atom_site_type_symbol
_atom_site_label
_atom_site_fract_x
_atom_site_fract_y
_atom_site_fract_z
Si Si1 0.574284 0.000000 0.430364
Si Si2 0.077637 0.721096 0.336407
Si Si3 0.079057 0.723762 0.794468
Si Si4 0.578454 0.723612 0.064254
O O1 0.500000 0.000000 0.500000
O O2 0.516233 0.174949 0.389967
O O3 0.750000 0.000000 0.435079
O O4 0.250000 0.765568 0.342789
O O5 0.061412 0.500000 0.341849
O O6 0.017434 0.778473 0.266283
O O7 0.250000 0.779796 0.786560
O O8 0.079195 0.500000 0.795255
O O9 0.024706 0.783196 0.865124
O O10 0.750000 0.770389 0.061098
O O11 0.567893 0.500000 0.063765
O O12 0.500000 0.790083 0.000000
#
# Coordination Sequence:
#
# PCOD9406410 Si02
#       4
#     4   8   8   8
#     4  12  26  44  66  90 119 152 187 230 278 336
#     4  10  21  38  61  89 120 153 191 236 284 336
#     4   8  14  26  44  68 101 142 187 232 279 332
#     4   8  13  20  32  55  91 134 179 228 278 326
#
# _framework density 20.394596
#
# number of rings (size 3 to 8) (size 9 to 14) (size 15 to 20)
#    0.000    2.857    0.000    3.857    0.000    3.429 
#    0.000    5.714    0.000    0.000    0.000    1.000 
#    0.000    0.000    0.000    0.000    0.000    0.000 
#
# Total GULP energy -156310.675035 kJ/mol
# GULP energy per Si atom -5582.524108 kJ/mol
# Density = 2.034818 g / cm^3
# Si number density = 20.394596 Si / 1000 Ang^3
#
#
#
# Elastic Constant Matrix: (Units=GPa)
#
#
# Indices 1 2 3 4 5 6 
#
# 1 133.6460 33.5072 108.7721 0.0000 0.0000 0.0000
# 2 33.5072 95.9415 39.9772 0.0000 0.0000 0.0000
# 3 108.7721 39.9772 224.2296 0.0000 0.0000 0.0000
# 4 0.0000 0.0000 0.0000 51.2989 0.0000 0.0000
# 5 0.0000 0.0000 0.0000 0.0000 44.5745 0.0000
# 6 0.0000 0.0000 0.0000 0.0000 0.0000 9.7879
#
#
#
# Elastic Compliance Matrix: (Units=1/GPa)
#
#
# Indices 1 2 3 4 5 6 
#
# 1 0.012716 -0.002021 -0.005808 0.000000 0.000000 0.000000
# 2 -0.002021 0.011581 -0.001084 0.000000 0.000000 0.000000
# 3 -0.005808 -0.001084 0.007471 0.000000 0.000000 0.000000
# 4 0.000000 0.000000 0.000000 0.019494 0.000000 0.000000
# 5 0.000000 0.000000 0.000000 0.000000 0.022434 0.000000
# 6 0.000000 0.000000 0.000000 0.000000 0.000000 0.102167
#
#
# Mechanical properties :
#
#
# Convention : Reuss Voigt Hill
#
# Bulk Modulus (GPa) = 71.73353 90.92557 81.32955
# Shear Modulus (GPa) = 25.20967 39.23630 32.22299
#
# Velocity S-wave (km/s) = 3.51963 4.39094 3.97920
# Velocity P-wave (km/s) = 7.19488 8.38970 7.81516
#
# Compressibility (1/GPa) = 0.01394048
#
# Stress axis : x y z
#
# Youngs Moduli (GPa) = 78.63836 86.35092 133.85774
#
# Poissons Ratio (x) = 0.17451 0.77749
# Poissons Ratio (y) = 0.15892 0.14515
# Poissons Ratio (z) = 0.45676 0.09363
#
# Static dielectric constant tensor:
#      x y z
#    x 1.672920 0.000000 0.000000 
#    y 0.000000 1.825460 0.000000 
#    z 0.000000 0.000000 1.710920 
# 
# From -- ./inp_files/31048.got.cif
#   From: 2010.05.17/outbox.cif.g08.bks.cpg/sg51_16_cif.got.tgz:31048.got - 2010.06.03 11:52:47.
