data_PCOD9406808
_publ_section_title
;
Structure prediction by ZEFSAII (Michael W. Deem and Ramdas Pophale) SiO2 
 PCOD9406808
Probable space group: P M M A
;
_chemical_formula_sum "Si O2"
_cell_formula_units_Z 36
_cell_length_a 13.451899
_cell_length_b 14.295105
_cell_length_c 8.670496
_cell_angle_alpha 90.000000
_cell_angle_beta 90.000000
_cell_angle_gamma 90.000000
_cell_volume 1667.304375
_symmetry_space_group_name_H-M "P M M A"
_symmetry_group_IT_number 51
_symmetry_cell_setting 'orthorhombic'
loop_
_space_group_symop_operation_xyz
x,y,z
1/2-x,-y,z
1/2+x,-y,-z
-x,y,-z
-x,-y,-z
1/2+x,y,-z
1/2-x,y,z
x,-y,z
loop_
_atom_site_type_symbol
_atom_site_label
_atom_site_fract_x
_atom_site_fract_y
_atom_site_fract_z
Si Si1 0.130009 0.000000 0.284272
Si Si2 0.630289 0.794800 0.063443
Si Si3 0.131096 0.601289 0.774214
Si Si4 0.130481 0.797628 0.302030
Si Si5 0.629622 0.000000 0.080560
Si Si6 0.000000 0.657653 0.500000
O O1 0.100415 0.098093 0.355982
O O2 0.250000 0.000000 0.285104
O O3 0.104988 0.000000 0.102143
O O4 0.750000 0.797117 0.074884
O O5 0.600262 0.696506 0.138415
O O6 0.597079 0.895724 0.134164
O O7 0.608142 0.792193 0.881029
O O8 0.250000 0.607747 0.747367
O O9 0.113552 0.500000 0.853433
O O10 0.069989 0.602259 0.616530
O O11 0.250000 0.787171 0.319022
O O12 0.072484 0.721851 0.398200
O O13 0.750000 0.000000 0.095924
#
# Coordination Sequence:
#
# PCOD9406808 Si02
#       6
#     4   8   8   8   4   4
#     4   7  12  27  51  77 109 148 184 222 269 319
#     4   8  15  32  58  83 107 139 182 230 275 320
#     4  10  22  41  61  81 108 142 182 229 278 327
#     4   9  18  34  56  82 113 149 188 228 272 325
#     4   7  10  22  51  84 106 132 174 223 276 325
#     4  12  23  35  54  80 114 149 184 222 273 332
#
# _framework density 21.591739
#
# number of rings (size 3 to 8) (size 9 to 14) (size 15 to 20)
#    0.000    3.111    0.000    3.667    0.000    1.333 
#    0.000    5.556    0.000   13.333    0.000    0.000 
#    0.000    0.000    0.000    0.000    0.000    0.667 
#
# Total GULP energy -200743.935759 kJ/mol
# GULP energy per Si atom -5576.220438 kJ/mol
# Density = 2.154260 g / cm^3
# Si number density = 21.591739 Si / 1000 Ang^3
#
#
#
# Elastic Constant Matrix: (Units=GPa)
#
#
# Indices 1 2 3 4 5 6 
#
# 1 90.8653 49.8024 19.6618 0.0000 0.0000 0.0000
# 2 49.8024 227.1091 53.8549 0.0000 0.0000 0.0000
# 3 19.6618 53.8549 40.0755 0.0000 0.0000 0.0000
# 4 0.0000 0.0000 0.0000 29.2963 0.0000 0.0000
# 5 0.0000 0.0000 0.0000 0.0000 30.2185 0.0000
# 6 0.0000 0.0000 0.0000 0.0000 0.0000 -7.5388
#
#
#
# Elastic Compliance Matrix: (Units=1/GPa)
#
#
# Indices 1 2 3 4 5 6 
#
# 1 0.012872 -0.001945 -0.003702 0.000000 0.000000 0.000000
# 2 -0.001945 0.006756 -0.008125 0.000000 0.000000 0.000000
# 3 -0.003702 -0.008125 0.037688 0.000000 0.000000 0.000000
# 4 0.000000 0.000000 0.000000 0.034134 0.000000 0.000000
# 5 0.000000 0.000000 0.000000 0.000000 0.033092 0.000000
# 6 0.000000 0.000000 0.000000 0.000000 0.000000 -0.132646
#
#
# Mechanical properties :
#
#
# Convention : Reuss Voigt Hill
#
# Bulk Modulus (GPa) = 33.58755 67.18759 50.38757
# Shear Modulus (GPa) = 170.26957 26.04390 98.15673
#
# Velocity S-wave (km/s) = 8.88987 3.47680 6.74974
# Velocity P-wave (km/s) = 10.99830 6.87767 9.17238
#
# Compressibility (1/GPa) = 0.02977293
#
# Stress axis : x y z
#
# Youngs Moduli (GPa) = 77.68620 148.00653 26.53353
#
# Poissons Ratio (x) = 0.28787 0.09822
# Poissons Ratio (y) = 0.15110 0.21559
# Poissons Ratio (z) = 0.28757 1.20260
#
# Static dielectric constant tensor:
#      x y z
#    x 1.811050 0.000000 0.000000 
#    y 0.000000 1.819570 0.000000 
#    z 0.000000 0.000000 1.747530 
# 
# From -- ./inp_files/7868.got.cif
#   From: 2010.05.17/outbox.cif.g08.bks.cpg/sg51_4_cif.got.tgz:7868.got - 2010.06.03 11:52:47.
