data_PCOD9406448
_publ_section_title
;
Structure prediction by ZEFSAII (Michael W. Deem and Ramdas Pophale) SiO2 
 PCOD9406448
Probable space group: P M M A
;
_chemical_formula_sum "Si O2"
_cell_formula_units_Z 36
_cell_length_a 10.157801
_cell_length_b 22.060917
_cell_length_c 8.687895
_cell_angle_alpha 90.000000
_cell_angle_beta 90.000000
_cell_angle_gamma 90.000000
_cell_volume 1946.873907
_symmetry_space_group_name_H-M "P M M A"
_symmetry_group_IT_number 51
_symmetry_cell_setting 'orthorhombic'
loop_
_space_group_symop_operation_xyz
x,y,z
1/2-x,-y,z
1/2+x,-y,-z
-x,y,-z
-x,-y,-z
1/2+x,y,-z
1/2-x,y,z
x,-y,z
loop_
_atom_site_type_symbol
_atom_site_label
_atom_site_fract_x
_atom_site_fract_y
_atom_site_fract_z
Si Si1 0.095339 0.500000 0.354292
Si Si2 0.593096 0.737032 0.647740
Si Si3 0.750000 0.926531 0.316755
Si Si4 0.995493 0.140850 0.816984
Si Si5 0.098060 0.382546 0.142815
Si Si6 0.750000 0.928623 0.683085
O O1 0.250000 0.500000 0.400662
O O2 0.072402 0.440556 0.250704
O O3 0.000000 0.500000 0.500000
O O4 0.500000 0.727906 0.500000
O O5 0.750000 0.746878 0.611686
O O6 0.534126 0.794887 0.736919
O O7 0.585223 0.678065 0.755723
O O8 0.624674 0.893157 0.244086
O O9 0.750000 0.915420 0.500544
O O10 0.750000 0.000000 0.291924
O O11 0.875776 0.098907 0.764921
O O12 0.000000 0.148274 0.000000
O O13 0.250000 0.386577 0.089301
O O14 0.000000 0.381486 0.000000
O O15 0.750000 0.000000 0.699678
#
# Coordination Sequence:
#
# PCOD9406448 Si02
#       6
#     4   8   4   8   8   4
#     4  10  21  38  62  92 130 170 217 266 314 376
#     4  11  24  42  64  91 124 163 210 257 311 377
#     4  11  25  43  67  93 121 164 207 252 313 379
#     4  12  25  41  63  92 126 160 204 258 317 371
#     4  10  22  40  62  93 130 167 212 263 316 372
#     4  11  23  43  65  89 123 160 205 254 305 379
#
# _framework density 18.491181999999998
#
# number of rings (size 3 to 8) (size 9 to 14) (size 15 to 20)
#    0.000    1.111    1.111    5.000    1.556    6.222 
#    0.000    0.000    0.000    0.000    0.000    0.000 
#    0.000    0.000    0.000    0.000    0.000    0.000 
#
# Total GULP energy -201257.336981 kJ/mol
# GULP energy per Si atom -5590.481583 kJ/mol
# Density = 1.844909 g / cm^3
# Si number density = 18.491182 Si / 1000 Ang^3
#
#
#
# Elastic Constant Matrix: (Units=GPa)
#
#
# Indices 1 2 3 4 5 6 
#
# 1 194.7558 84.2772 113.8853 0.0000 0.0000 0.0000
# 2 84.2772 120.3273 66.9319 0.0000 0.0000 0.0000
# 3 113.8853 66.9319 143.4434 0.0000 0.0000 0.0000
# 4 0.0000 0.0000 0.0000 33.6323 0.0000 0.0000
# 5 0.0000 0.0000 0.0000 0.0000 45.7282 0.0000
# 6 0.0000 0.0000 0.0000 0.0000 0.0000 30.9011
#
#
#
# Elastic Compliance Matrix: (Units=1/GPa)
#
#
# Indices 1 2 3 4 5 6 
#
# 1 0.010700 -0.003740 -0.006750 0.000000 0.000000 0.000000
# 2 -0.003740 0.012531 -0.002878 0.000000 0.000000 0.000000
# 3 -0.006750 -0.002878 0.013674 0.000000 0.000000 0.000000
# 4 0.000000 0.000000 0.000000 0.029733 0.000000 0.000000
# 5 0.000000 0.000000 0.000000 0.000000 0.021868 0.000000
# 6 0.000000 0.000000 0.000000 0.000000 0.000000 0.032361
#
#
# Mechanical properties :
#
#
# Convention : Reuss Voigt Hill
#
# Bulk Modulus (GPa) = 98.34035 109.85727 104.09881
# Shear Modulus (GPa) = 33.11411 34.94779 34.03095
#
# Velocity S-wave (km/s) = 4.23638 4.35210 4.29463
# Velocity P-wave (km/s) = 8.78789 9.20836 9.00058
#
# Compressibility (1/GPa) = 0.01016877
#
# Stress axis : x y z
#
# Youngs Moduli (GPa) = 93.45596 79.80406 73.13302
#
# Poissons Ratio (x) = 0.29843 0.49368
# Poissons Ratio (y) = 0.34948 0.21048
# Poissons Ratio (z) = 0.63087 0.22967
#
# Static dielectric constant tensor:
#      x y z
#    x 1.611020 0.000000 0.000000 
#    y 0.000000 1.623140 0.000000 
#    z 0.000000 0.000000 1.598140 
# 
# From -- ./inp_files/5077.got.cif
#   From: 2010.05.17/outbox.cif.g08.bks.cpg/sg51_3_cif.got.tgz:5077.got - 2010.06.03 11:52:47.
