data_PCOD9406604
_publ_section_title
;
Structure prediction by ZEFSAII (Michael W. Deem and Ramdas Pophale) SiO2 
 PCOD9406604
Probable space group: P M M A
;
_chemical_formula_sum "Si O2"
_cell_formula_units_Z 24
_cell_length_a 12.412119
_cell_length_b 18.373298
_cell_length_c 5.312784
_cell_angle_alpha 90.000000
_cell_angle_beta 90.000000
_cell_angle_gamma 90.000000
_cell_volume 1211.588686
_symmetry_space_group_name_H-M "P M M A"
_symmetry_group_IT_number 51
_symmetry_cell_setting 'orthorhombic'
loop_
_space_group_symop_operation_xyz
x,y,z
1/2-x,-y,z
1/2+x,-y,-z
-x,y,-z
-x,-y,-z
1/2+x,y,-z
1/2-x,y,z
x,-y,z
loop_
_atom_site_type_symbol
_atom_site_label
_atom_site_fract_x
_atom_site_fract_y
_atom_site_fract_z
Si Si1 0.929159 0.155520 0.748145
Si Si2 0.371660 0.000000 0.103032
Si Si3 0.250000 0.721796 0.251984
Si Si4 0.750000 0.624074 0.248118
Si Si5 0.071462 0.500000 0.750042
O O1 0.872154 0.076529 0.751898
O O2 0.850473 0.223719 0.749122
O O3 0.000000 0.158630 0.500000
O O4 0.000000 0.159685 0.000000
O O5 0.250000 0.000000 0.967071
O O6 0.500000 0.000000 0.000000
O O7 0.250000 0.673197 0.502547
O O8 0.250000 0.672346 0.003278
O O9 0.647155 0.570939 0.249556
O O10 0.000000 0.500000 0.500000
O O11 0.000000 0.500000 0.000000
#
# Coordination Sequence:
#
# PCOD9406604 Si02
#       5
#     8   4   4   4   4
#     4  11  24  42  64  95 130 179 225 277 338 400
#     4  10  21  44  69 100 136 186 242 294 340 406
#     4  12  24  42  64  96 136 168 212 280 328 406
#     4  11  26  42  66 101 128 166 220 267 328 406
#     4  11  24  45  70  94 128 171 212 265 328 402
#
# _framework density 19.808703000000001
#
# number of rings (size 3 to 8) (size 9 to 14) (size 15 to 20)
#    0.000    1.000    1.667    4.500    0.000   10.667 
#    3.000    1.667    0.000    0.000    0.000    0.000 
#    0.000    0.000    0.000    0.000    0.000    0.000 
#
# Total GULP energy -133914.118220 kJ/mol
# GULP energy per Si atom -5579.754926 kJ/mol
# Density = 1.976362 g / cm^3
# Si number density = 19.808703 Si / 1000 Ang^3
#
#
#
# Elastic Constant Matrix: (Units=GPa)
#
#
# Indices 1 2 3 4 5 6 
#
# 1 165.1910 94.0822 94.8023 0.0000 0.0000 0.0000
# 2 94.0822 213.9302 106.5272 0.0000 0.0000 0.0000
# 3 94.8023 106.5272 200.4655 0.0000 0.0000 0.0000
# 4 0.0000 0.0000 0.0000 31.5683 0.0000 0.0000
# 5 0.0000 0.0000 0.0000 0.0000 33.8215 0.0000
# 6 0.0000 0.0000 0.0000 0.0000 0.0000 2.3193
#
#
#
# Elastic Compliance Matrix: (Units=1/GPa)
#
#
# Indices 1 2 3 4 5 6 
#
# 1 0.009241 -0.002567 -0.003006 0.000000 0.000000 0.000000
# 2 -0.002567 0.007070 -0.002543 0.000000 0.000000 0.000000
# 3 -0.003006 -0.002543 0.007761 0.000000 0.000000 0.000000
# 4 0.000000 0.000000 0.000000 0.031677 0.000000 0.000000
# 5 0.000000 0.000000 0.000000 0.000000 0.029567 0.000000
# 6 0.000000 0.000000 0.000000 0.000000 0.000000 0.431158
#
#
# Mechanical properties :
#
#
# Convention : Reuss Voigt Hill
#
# Bulk Modulus (GPa) = 127.55209 130.04558 128.79884
# Shear Modulus (GPa) = 9.34023 32.48683 20.91353
#
# Velocity S-wave (km/s) = 2.17381 4.05412 3.25279
# Velocity P-wave (km/s) = 8.41619 9.36524 8.90337
#
# Compressibility (1/GPa) = 0.00783993
#
# Stress axis : x y z
#
# Youngs Moduli (GPa) = 108.21679 141.45179 128.84748
#
# Poissons Ratio (x) = 0.36312 0.38730
# Poissons Ratio (y) = 0.27780 0.32763
# Poissons Ratio (z) = 0.32529 0.35968
#
# Static dielectric constant tensor:
#      x y z
#    x 1.746960 0.000000 0.000000 
#    y 0.000000 1.670340 0.000000 
#    z 0.000000 0.000000 1.650160 
# 
# From -- ./inp_files/541.got.cif
#   From: 2010.05.17/outbox.cif.g08.bks.cpg/sg51_1_cif.got.tgz:541.got - 2010.06.03 11:52:47.
