data_PCOD9406301
_publ_section_title
;
Structure prediction by ZEFSAII (Michael W. Deem and Ramdas Pophale) SiO2 
 PCOD9406301
Probable space group: P M M A
;
_chemical_formula_sum "Si O2"
_cell_formula_units_Z 32
_cell_length_a 8.742344
_cell_length_b 13.675800
_cell_length_c 11.331067
_cell_angle_alpha 90.000000
_cell_angle_beta 90.000000
_cell_angle_gamma 90.000000
_cell_volume 1354.725919
_symmetry_space_group_name_H-M "P M M A"
_symmetry_group_IT_number 51
_symmetry_cell_setting 'orthorhombic'
loop_
_space_group_symop_operation_xyz
x,y,z
1/2-x,-y,z
1/2+x,-y,-z
-x,y,-z
-x,-y,-z
1/2+x,y,-z
1/2-x,y,z
x,-y,z
loop_
_atom_site_type_symbol
_atom_site_label
_atom_site_fract_x
_atom_site_fract_y
_atom_site_fract_z
Si Si1 0.078987 0.384415 0.613229
Si Si2 0.573275 0.811586 0.121841
Si Si3 0.575209 0.386251 0.852864
Si Si4 0.426428 0.117474 0.370204
O O1 0.250000 0.344959 0.640885
O O2 0.100730 0.500000 0.593052
O O3 0.000000 0.339643 0.500000
O O4 0.952099 0.380348 0.713540
O O5 0.750000 0.837042 0.123778
O O6 0.547873 0.694222 0.109388
O O7 0.501648 0.840497 0.249216
O O8 0.500000 0.853164 0.000000
O O9 0.750000 0.360638 0.882995
O O10 0.547351 0.500000 0.883846
O O11 0.500000 0.135094 0.500000
O O12 0.250000 0.149919 0.373231
O O13 0.431216 0.000000 0.355440
#
# Coordination Sequence:
#
# PCOD9406301 Si02
#       4
#     8   8   8   8
#     4   9  16  27  45  71 104 144 194 253 316 379
#     4  12  26  44  67  97 136 180 228 282 339 402
#     4  10  21  38  59  84 119 166 221 279 336 395
#     4  10  22  44  75 109 143 178 219 270 331 402
#
# _framework density 23.621015
#
# number of rings (size 3 to 8) (size 9 to 14) (size 15 to 20)
#    0.000    1.750    0.000    4.500    0.000    8.000 
#    0.000    5.000    0.000    0.000    0.000    0.000 
#    0.000    0.000    0.000    0.000    0.000    0.000 
#
# Total GULP energy -178507.545902 kJ/mol
# GULP energy per Si atom -5578.360809 kJ/mol
# Density = 2.356725 g / cm^3
# Si number density = 23.621015 Si / 1000 Ang^3
#
#
#
# Elastic Constant Matrix: (Units=GPa)
#
#
# Indices 1 2 3 4 5 6 
#
# 1 185.6900 33.1082 115.5043 0.0000 0.0000 0.0000
# 2 33.1082 72.5024 12.3852 0.0000 0.0000 0.0000
# 3 115.5043 12.3852 203.4973 0.0000 0.0000 0.0000
# 4 0.0000 0.0000 0.0000 -14.9201 0.0000 0.0000
# 5 0.0000 0.0000 0.0000 0.0000 36.8073 0.0000
# 6 0.0000 0.0000 0.0000 0.0000 0.0000 16.0958
#
#
#
# Elastic Compliance Matrix: (Units=1/GPa)
#
#
# Indices 1 2 3 4 5 6 
#
# 1 0.009037 -0.003285 -0.004930 0.000000 0.000000 0.000000
# 2 -0.003285 0.015131 0.000944 0.000000 0.000000 0.000000
# 3 -0.004930 0.000944 0.007655 0.000000 0.000000 0.000000
# 4 0.000000 0.000000 0.000000 -0.067024 0.000000 0.000000
# 5 0.000000 0.000000 0.000000 0.000000 0.027169 0.000000
# 6 0.000000 0.000000 0.000000 0.000000 0.000000 0.062128
#
#
# Mechanical properties :
#
#
# Convention : Reuss Voigt Hill
#
# Bulk Modulus (GPa) = 57.86481 87.07611 72.47046
# Shear Modulus (GPa) = 67.20556 27.64274 47.42415
#
# Velocity S-wave (km/s) = 5.33979 3.42462 4.48561
# Velocity P-wave (km/s) = 7.91000 7.25129 7.58780
#
# Compressibility (1/GPa) = 0.01728166
#
# Stress axis : x y z
#
# Youngs Moduli (GPa) = 110.65150 66.08735 130.63859
#
# Poissons Ratio (x) = 0.21708 0.64400
# Poissons Ratio (y) = 0.36347 -0.12326
# Poissons Ratio (z) = 0.54547 -0.06235
#
# Static dielectric constant tensor:
#      x y z
#    x 1.858680 0.000000 0.000000 
#    y 0.000000 1.931700 0.000000 
#    z 0.000000 0.000000 2.159010 
# 
# From -- ./inp_files/13696.got.cif
#   From: 2010.05.17/outbox.cif.g08.bks.cpg/sg51_7_cif.got.tgz:13696.got - 2010.06.03 11:52:47.
