data_PCOD9406223
_publ_section_title
;
Structure prediction by ZEFSAII (Michael W. Deem and Ramdas Pophale) SiO2 
 PCOD9406223
Probable space group: P M M A
;
_chemical_formula_sum "Si O2"
_cell_formula_units_Z 32
_cell_length_a 15.427466
_cell_length_b 12.574277
_cell_length_c 8.599743
_cell_angle_alpha 90.000000
_cell_angle_beta 90.000000
_cell_angle_gamma 90.000000
_cell_volume 1668.257530
_symmetry_space_group_name_H-M "P M M A"
_symmetry_group_IT_number 51
_symmetry_cell_setting 'orthorhombic'
loop_
_space_group_symop_operation_xyz
x,y,z
1/2-x,-y,z
1/2+x,-y,-z
-x,y,-z
-x,-y,-z
1/2+x,y,-z
1/2-x,y,z
x,-y,z
loop_
_atom_site_type_symbol
_atom_site_label
_atom_site_fract_x
_atom_site_fract_y
_atom_site_fract_z
Si Si1 0.905715 0.776335 0.565077
Si Si2 0.402160 0.223606 0.061984
Si Si3 0.146697 0.000000 0.584663
Si Si4 0.598346 0.000000 0.061515
Si Si5 0.750000 0.622353 0.561701
Si Si6 0.250000 0.620925 0.059106
O O1 0.906708 0.779136 0.751699
O O2 0.834241 0.690011 0.514106
O O3 0.000000 0.749080 0.500000
O O4 0.880453 0.893338 0.504561
O O5 0.336069 0.315398 0.011426
O O6 0.500000 0.238149 0.000000
O O7 0.365097 0.110642 0.002106
O O8 0.102237 0.000000 0.753243
O O9 0.250000 0.000000 0.606032
O O10 0.500000 0.000000 0.000000
O O11 0.750000 0.500000 0.508435
O O12 0.750000 0.620238 0.751269
O O13 0.250000 0.500000 0.004351
#
# Coordination Sequence:
#
# PCOD9406223 Si02
#       6
#     8   8   4   4   4   4
#     4  11  21  39  63  87 121 158 196 243 297 355
#     4  10  21  38  60  88 117 153 196 238 292 353
#     4  12  24  38  61  92 123 157 196 246 296 353
#     4  10  21  38  57  87 120 150 188 234 289 348
#     4   9  20  39  59  86 118 155 202 243 290 355
#     4   9  20  37  59  82 114 157 196 239 290 345
#
# _framework density 19.181691000000001
#
# number of rings (size 3 to 8) (size 9 to 14) (size 15 to 20)
#    0.000    1.750    1.250    4.125    1.750    1.000 
#    0.000    0.000    0.000   10.500    0.000    0.000 
#    0.000    0.000    0.000    0.000    0.000    0.000 
#
# Total GULP energy -178765.380362 kJ/mol
# GULP energy per Si atom -5586.418136 kJ/mol
# Density = 1.913803 g / cm^3
# Si number density = 19.181691 Si / 1000 Ang^3
#
#
#
# Elastic Constant Matrix: (Units=GPa)
#
#
# Indices 1 2 3 4 5 6 
#
# 1 154.5292 101.3794 38.4458 0.0000 0.0000 0.0000
# 2 101.3794 210.4061 42.9655 0.0000 0.0000 0.0000
# 3 38.4458 42.9655 76.7117 0.0000 0.0000 0.0000
# 4 0.0000 0.0000 0.0000 -7.1249 0.0000 0.0000
# 5 0.0000 0.0000 0.0000 0.0000 19.7935 0.0000
# 6 0.0000 0.0000 0.0000 0.0000 0.0000 23.8779
#
#
#
# Elastic Compliance Matrix: (Units=1/GPa)
#
#
# Indices 1 2 3 4 5 6 
#
# 1 0.009896 -0.004241 -0.002585 0.000000 0.000000 0.000000
# 2 -0.004241 0.007184 -0.001898 0.000000 0.000000 0.000000
# 3 -0.002585 -0.001898 0.015394 0.000000 0.000000 0.000000
# 4 0.000000 0.000000 0.000000 -0.140352 0.000000 0.000000
# 5 0.000000 0.000000 0.000000 0.000000 0.050522 0.000000
# 6 0.000000 0.000000 0.000000 0.000000 0.000000 0.041880
#
#
# Mechanical properties :
#
#
# Convention : Reuss Voigt Hill
#
# Bulk Modulus (GPa) = 66.54510 89.69204 78.11857
# Shear Modulus (GPa) = 716.40901 24.56639 370.48770
#
# Velocity S-wave (km/s) = 19.34675 3.58260 13.91279
# Velocity P-wave (km/s) = 23.10475 7.99838 17.28878
#
# Compressibility (1/GPa) = 0.01502740
#
# Stress axis : x y z
#
# Youngs Moduli (GPa) = 101.04757 139.20738 64.95886
#
# Poissons Ratio (x) = 0.59031 0.16790
# Poissons Ratio (y) = 0.42849 0.12330
# Poissons Ratio (z) = 0.26118 0.26424
#
# Static dielectric constant tensor:
#      x y z
#    x 1.662730 0.000000 0.000000 
#    y 0.000000 1.666550 0.000000 
#    z 0.000000 0.000000 1.653760 
# 
# From -- ./inp_files/7635.got.cif
#   From: 2010.05.17/outbox.cif.g08.bks.cpg/sg51_4_cif.got.tgz:7635.got - 2010.06.03 11:52:47.
