data_PCOD9406488
_publ_section_title
;
Structure prediction by ZEFSAII (Michael W. Deem and Ramdas Pophale) SiO2 
 PCOD9406488
Probable space group: P M M A
;
_chemical_formula_sum "Si O2"
_cell_formula_units_Z 64
_cell_length_a 31.934970
_cell_length_b 7.868008
_cell_length_c 12.231773
_cell_angle_alpha 90.000000
_cell_angle_beta 90.000000
_cell_angle_gamma 90.000000
_cell_volume 3073.411543
_symmetry_space_group_name_H-M "P M M A"
_symmetry_group_IT_number 51
_symmetry_cell_setting 'orthorhombic'
loop_
_space_group_symop_operation_xyz
x,y,z
1/2-x,-y,z
1/2+x,-y,-z
-x,y,-z
-x,-y,-z
1/2+x,y,-z
1/2-x,y,z
x,-y,z
loop_
_atom_site_type_symbol
_atom_site_label
_atom_site_fract_x
_atom_site_fract_y
_atom_site_fract_z
Si Si1 0.877088 0.202939 0.635644
Si Si2 0.050859 0.699885 0.774606
Si Si3 0.542390 0.205760 0.768608
Si Si4 0.204065 0.199942 0.239116
Si Si5 0.582993 0.197697 0.994139
Si Si6 0.374934 0.705753 0.616962
Si Si7 0.203288 0.292273 0.762021
Si Si8 0.677704 0.303453 0.997921
O O1 0.919959 0.266200 0.690866
O O2 0.835608 0.273459 0.695517
O O3 0.875876 0.235366 0.507293
O O4 0.877275 0.000000 0.654881
O O5 0.058637 0.500000 0.790929
O O6 0.059238 0.785296 0.891514
O O7 0.084493 0.762253 0.685890
O O8 0.003245 0.727195 0.739229
O O9 0.540040 0.000000 0.764924
O O10 0.555119 0.256421 0.892108
O O11 0.250000 0.274134 0.263460
O O12 0.205877 0.000000 0.266296
O O13 0.194780 0.215080 0.110257
O O14 0.627355 0.291519 0.999521
O O15 0.593189 0.000000 0.973824
O O16 0.374818 0.500000 0.616187
O O17 0.333388 0.764077 0.681143
O O18 0.250000 0.241142 0.728791
O O19 0.201877 0.500000 0.763863
O O20 0.193994 0.235370 0.886086
O O21 0.690538 0.500000 0.990224
#
# Coordination Sequence:
#
# PCOD9406488 Si02
#       8
#     8   8   8   8   8   8   8   8
#     4  10  22  41  60  82 113 153 199 243 286 337
#     4  11  23  39  59  88 121 150 189 240 294 346
#     4  10  22  40  60  84 116 153 192 235 288 348
#     4  10  21  39  61  86 120 157 191 235 292 347
#     4  11  21  37  61  87 119 156 192 232 289 353
#     4  10  22  40  58  82 115 151 193 242 291 338
#     4   9  18  35  58  83 116 153 185 228 287 343
#     4  11  20  34  59  90 122 153 192 238 289 347
#
# _framework density 20.823764000000001
#
# number of rings (size 3 to 8) (size 9 to 14) (size 15 to 20)
#    0.000    1.750    2.500    1.875    0.000    6.250 
#    0.000    2.500    0.000    1.500    0.000    0.000 
#    0.000    0.000    0.000    0.000    0.000    0.000 
#
# Total GULP energy -357655.906475 kJ/mol
# GULP energy per Si atom -5588.373539 kJ/mol
# Density = 2.077637 g / cm^3
# Si number density = 20.823764 Si / 1000 Ang^3
#
#
#
# Elastic Constant Matrix: (Units=GPa)
#
#
# Indices 1 2 3 4 5 6 
#
# 1 188.4291 -4.1532 76.2501 0.0000 0.0000 0.0000
# 2 -4.1532 22.6456 -9.1163 0.0000 0.0000 0.0000
# 3 76.2501 -9.1163 132.2963 0.0000 0.0000 0.0000
# 4 0.0000 0.0000 0.0000 26.8337 0.0000 0.0000
# 5 0.0000 0.0000 0.0000 0.0000 -28.9147 0.0000
# 6 0.0000 0.0000 0.0000 0.0000 0.0000 14.4724
#
#
#
# Elastic Compliance Matrix: (Units=1/GPa)
#
#
# Indices 1 2 3 4 5 6 
#
# 1 0.006924 -0.000346 -0.004015 0.000000 0.000000 0.000000
# 2 -0.000346 0.045436 0.003330 0.000000 0.000000 0.000000
# 3 -0.004015 0.003330 0.010102 0.000000 0.000000 0.000000
# 4 0.000000 0.000000 0.000000 0.037267 0.000000 0.000000
# 5 0.000000 0.000000 0.000000 0.000000 -0.034585 0.000000
# 6 0.000000 0.000000 0.000000 0.000000 0.000000 0.069097
#
#
# Mechanical properties :
#
#
# Convention : Reuss Voigt Hill
#
# Bulk Modulus (GPa) = 16.55596 52.14803 34.35199
# Shear Modulus (GPa) = 31.96206 21.17097 26.56651
#
# Velocity S-wave (km/s) = 3.92201 3.19199 3.57568
# Velocity P-wave (km/s) = 5.33641 6.21948 5.79480
#
# Compressibility (1/GPa) = 0.06040121
#
# Stress axis : x y z
#
# Youngs Moduli (GPa) = 144.42660 22.00906 98.98935
#
# Poissons Ratio (x) = 0.00762 0.39740
# Poissons Ratio (y) = 0.05001 -0.32968
# Poissons Ratio (z) = 0.57980 -0.07330
#
# Static dielectric constant tensor:
#      x y z
#    x 1.747520 0.000000 0.000000 
#    y 0.000000 1.777390 0.000000 
#    z 0.000000 0.000000 1.697660 
# 
# From -- ./inp_files/19526.got.cif
#   From: 2010.05.17/outbox.cif.g08.bks.cpg/sg51_10_cif.got.tgz:19526.got - 2010.06.03 11:52:47.
