data_PCOD9406279
_publ_section_title
;
Structure prediction by ZEFSAII (Michael W. Deem and Ramdas Pophale) SiO2 
 PCOD9406279
Probable space group: P M M A
;
_chemical_formula_sum "Si O2"
_cell_formula_units_Z 48
_cell_length_a 15.578980
_cell_length_b 9.151650
_cell_length_c 17.620717
_cell_angle_alpha 90.000000
_cell_angle_beta 90.000000
_cell_angle_gamma 90.000000
_cell_volume 2512.245045
_symmetry_space_group_name_H-M "P M M A"
_symmetry_group_IT_number 51
_symmetry_cell_setting 'orthorhombic'
loop_
_space_group_symop_operation_xyz
x,y,z
1/2-x,-y,z
1/2+x,-y,-z
-x,y,-z
-x,-y,-z
1/2+x,y,-z
1/2-x,y,z
x,-y,z
loop_
_atom_site_type_symbol
_atom_site_label
_atom_site_fract_x
_atom_site_fract_y
_atom_site_fract_z
Si Si1 0.119183 0.165841 0.657801
Si Si2 0.250000 0.675042 0.926207
Si Si3 0.411257 0.177178 0.194321
Si Si4 0.750000 0.175832 0.910806
Si Si5 0.597244 0.675486 0.188769
Si Si6 0.151267 0.664198 0.504292
Si Si7 0.914597 0.835608 0.637611
O O1 0.135439 0.260239 0.732807
O O2 0.148356 0.242426 0.580892
O O3 0.016300 0.157568 0.650333
O O4 0.151010 0.000000 0.665034
O O5 0.250000 0.500000 0.936675
O O6 0.335290 0.711685 0.877627
O O7 0.250000 0.753113 0.006793
O O8 0.336050 0.215856 0.135865
O O9 0.502791 0.253386 0.177907
O O10 0.381254 0.215691 0.280260
O O11 0.423464 0.000000 0.193960
O O12 0.750000 0.000000 0.917279
O O13 0.589336 0.500000 0.194227
O O14 0.250000 0.657736 0.479759
O O15 0.120044 0.500000 0.519927
O O16 0.101988 0.736958 0.434831
O O17 0.881882 0.000000 0.622237
#
# Coordination Sequence:
#
# PCOD9406279 Si02
#       7
#     8   4   8   4   8   8   8
#     4  10  21  38  59  83 109 145 194 242 287 340
#     4  10  24  42  60  87 122 157 192 235 294 359
#     4   9  20  39  62  90 120 153 196 244 293 347
#     4  10  22  40  64  91 120 155 194 241 294 347
#     4  10  21  39  62  87 119 158 195 240 296 352
#     4  11  24  36  49  78 117 152 190 235 282 336
#     4   9  19  36  58  80 108 145 189 237 285 337
#
# _framework density 19.106415999999999
#
# number of rings (size 3 to 8) (size 9 to 14) (size 15 to 20)
#    0.000    2.167    0.000    3.000    2.333    9.333 
#    0.000    3.333    0.000    0.000    0.000    0.000 
#    0.000    0.000    0.000    0.000    0.000    0.000 
#
# Total GULP energy -267917.860826 kJ/mol
# GULP energy per Si atom -5581.622101 kJ/mol
# Density = 1.906293 g / cm^3
# Si number density = 19.106416 Si / 1000 Ang^3
#
#
#
# Elastic Constant Matrix: (Units=GPa)
#
#
# Indices 1 2 3 4 5 6 
#
# 1 82.7197 38.5157 66.0451 0.0000 0.0000 0.0000
# 2 38.5157 78.0979 61.4407 0.0000 0.0000 0.0000
# 3 66.0451 61.4407 148.5700 0.0000 0.0000 0.0000
# 4 0.0000 0.0000 0.0000 7.0526 0.0000 0.0000
# 5 0.0000 0.0000 0.0000 0.0000 36.1279 0.0000
# 6 0.0000 0.0000 0.0000 0.0000 0.0000 42.2555
#
#
#
# Elastic Compliance Matrix: (Units=1/GPa)
#
#
# Indices 1 2 3 4 5 6 
#
# 1 0.019616 -0.004171 -0.006995 0.000000 0.000000 0.000000
# 2 -0.004171 0.019866 -0.006361 0.000000 0.000000 0.000000
# 3 -0.006995 -0.006361 0.012471 0.000000 0.000000 0.000000
# 4 0.000000 0.000000 0.000000 0.141791 0.000000 0.000000
# 5 0.000000 0.000000 0.000000 0.000000 0.027679 0.000000
# 6 0.000000 0.000000 0.000000 0.000000 0.000000 0.023666
#
#
# Mechanical properties :
#
#
# Convention : Reuss Voigt Hill
#
# Bulk Modulus (GPa) = 59.17752 71.26562 65.22157
# Shear Modulus (GPa) = 17.49610 26.64626 22.07118
#
# Velocity S-wave (km/s) = 3.02937 3.73852 3.40247
# Velocity P-wave (km/s) = 6.57844 7.48436 7.04598
#
# Compressibility (1/GPa) = 0.01689831
#
# Stress axis : x y z
#
# Youngs Moduli (GPa) = 50.97810 50.33712 80.18418
#
# Poissons Ratio (x) = 0.20995 0.56091
# Poissons Ratio (y) = 0.21262 0.51009
# Poissons Ratio (z) = 0.35661 0.32022
#
# Static dielectric constant tensor:
#      x y z
#    x 1.677780 0.000000 0.000000 
#    y 0.000000 1.667840 0.000000 
#    z 0.000000 0.000000 1.640330 
# 
# From -- ./inp_files/29642.got.cif
#   From: 2010.05.17/outbox.cif.g08.bks.cpg/sg51_15_cif.got.tgz:29642.got - 2010.06.03 11:52:47.
