data_PCOD9406879
_publ_section_title
;
Structure prediction by ZEFSAII (Michael W. Deem and Ramdas Pophale) SiO2 
 PCOD9406879
Probable space group: P M M A
;
_chemical_formula_sum "Si O2"
_cell_formula_units_Z 56
_cell_length_a 22.256227
_cell_length_b 8.918994
_cell_length_c 14.958797
_cell_angle_alpha 90.000000
_cell_angle_beta 90.000000
_cell_angle_gamma 90.000000
_cell_volume 2969.368401
_symmetry_space_group_name_H-M "P M M A"
_symmetry_group_IT_number 51
_symmetry_cell_setting 'orthorhombic'
loop_
_space_group_symop_operation_xyz
x,y,z
1/2-x,-y,z
1/2+x,-y,-z
-x,y,-z
-x,-y,-z
1/2+x,y,-z
1/2-x,y,z
x,-y,z
loop_
_atom_site_type_symbol
_atom_site_label
_atom_site_fract_x
_atom_site_fract_y
_atom_site_fract_z
Si Si1 0.682411 0.317736 0.243232
Si Si2 0.428282 0.679730 0.633813
Si Si3 0.134096 0.179438 0.135126
Si Si4 0.750000 0.325322 0.557402
Si Si5 0.376988 0.821678 0.463680
Si Si6 0.179673 0.320174 0.962136
Si Si7 0.250000 0.675495 0.227410
Si Si8 0.952696 0.820703 0.711490
O O1 0.750000 0.266892 0.266575
O O2 0.683538 0.500000 0.244115
O O3 0.630530 0.270632 0.310308
O O4 0.668949 0.274470 0.140581
O O5 0.428450 0.500000 0.626520
O O6 0.421688 0.752037 0.536436
O O7 0.487355 0.735196 0.684420
O O8 0.138257 0.241920 0.035094
O O9 0.191318 0.246923 0.187005
O O10 0.075560 0.220974 0.192987
O O11 0.138665 0.000000 0.134770
O O12 0.750000 0.500000 0.531604
O O13 0.811184 0.249116 0.524737
O O14 0.750000 0.313535 0.665372
O O15 0.402906 0.789302 0.365012
O O16 0.373895 0.000000 0.474297
O O17 0.250000 0.285622 0.982047
O O18 0.173117 0.500000 0.968197
O O19 0.250000 0.500000 0.202396
O O20 0.963737 0.000000 0.710073
#
# Coordination Sequence:
#
# PCOD9406879 Si02
#       8
#     8   8   8   4   8   8   4   8
#     4   8  17  36  59  83 114 146 181 233 296 342
#     4  11  23  38  61  87 110 147 197 246 285 329
#     4  11  21  34  55  83 116 153 189 228 279 339
#     4  11  23  37  57  88 119 146 187 243 284 324
#     4  11  23  40  60  82 116 158 192 228 287 349
#     4   9  17  32  56  84 112 146 184 229 285 341
#     4  11  21  33  53  82 117 150 183 233 286 330
#     4  10  23  41  57  77 114 161 193 225 281 345
#
# _framework density 18.85923
#
# number of rings (size 3 to 8) (size 9 to 14) (size 15 to 20)
#    0.000    1.857    2.143    3.000    1.000    4.571 
#    0.000    2.143    0.000    6.000    0.000    0.000 
#    0.000    0.000    0.000    0.000    0.000    0.000 
#
# Total GULP energy -312809.763678 kJ/mol
# GULP energy per Si atom -5585.888637 kJ/mol
# Density = 1.881631 g / cm^3
# Si number density = 18.859230 Si / 1000 Ang^3
#
#
#
# Elastic Constant Matrix: (Units=GPa)
#
#
# Indices 1 2 3 4 5 6 
#
# 1 69.7754 25.8510 8.4665 0.0000 0.0000 0.0000
# 2 25.8510 37.9398 19.6184 0.0000 0.0000 0.0000
# 3 8.4665 19.6184 50.2567 0.0000 0.0000 0.0000
# 4 0.0000 0.0000 0.0000 17.7786 0.0000 0.0000
# 5 0.0000 0.0000 0.0000 0.0000 19.9369 0.0000
# 6 0.0000 0.0000 0.0000 0.0000 0.0000 31.6714
#
#
#
# Elastic Compliance Matrix: (Units=1/GPa)
#
#
# Indices 1 2 3 4 5 6 
#
# 1 0.019394 -0.014440 0.002369 0.000000 0.000000 0.000000
# 2 -0.014440 0.043774 -0.014655 0.000000 0.000000 0.000000
# 3 0.002369 -0.014655 0.025220 0.000000 0.000000 0.000000
# 4 0.000000 0.000000 0.000000 0.056247 0.000000 0.000000
# 5 0.000000 0.000000 0.000000 0.000000 0.050158 0.000000
# 6 0.000000 0.000000 0.000000 0.000000 0.000000 0.031574
#
#
# Mechanical properties :
#
#
# Convention : Reuss Voigt Hill
#
# Bulk Modulus (GPa) = 28.62301 29.53818 29.08060
# Shear Modulus (GPa) = 17.15477 20.81312 18.98395
#
# Velocity S-wave (km/s) = 3.01927 3.32566 3.17616
# Velocity P-wave (km/s) = 5.23113 5.51753 5.37624
#
# Compressibility (1/GPa) = 0.03493692
#
# Stress axis : x y z
#
# Youngs Moduli (GPa) = 51.56262 22.84444 39.65179
#
# Poissons Ratio (x) = 0.32986 -0.09395
# Poissons Ratio (y) = 0.74454 0.58111
# Poissons Ratio (z) = -0.12218 0.33479
#
# Static dielectric constant tensor:
#      x y z
#    x 1.634070 0.000000 0.000000 
#    y 0.000000 1.628440 0.000000 
#    z 0.000000 0.000000 1.660900 
# 
# From -- ./inp_files/25927.got.cif
#   From: 2010.05.17/outbox.cif.g08.bks.cpg/sg51_13_cif.got.tgz:25927.got - 2010.06.03 11:52:47.
