data_PCOD9406296
_publ_section_title
;
Structure prediction by ZEFSAII (Michael W. Deem and Ramdas Pophale) SiO2 
 PCOD9406296
Probable space group: P M M A
;
_chemical_formula_sum "Si O2"
_cell_formula_units_Z 40
_cell_length_a 8.656478
_cell_length_b 25.539543
_cell_length_c 9.785918
_cell_angle_alpha 90.000000
_cell_angle_beta 90.000000
_cell_angle_gamma 90.000000
_cell_volume 2163.495139
_symmetry_space_group_name_H-M "P M M A"
_symmetry_group_IT_number 51
_symmetry_cell_setting 'orthorhombic'
loop_
_space_group_symop_operation_xyz
x,y,z
1/2-x,-y,z
1/2+x,-y,-z
-x,y,-z
-x,-y,-z
1/2+x,y,-z
1/2-x,y,z
x,-y,z
loop_
_atom_site_type_symbol
_atom_site_label
_atom_site_fract_x
_atom_site_fract_y
_atom_site_fract_z
Si Si1 0.934497 0.351834 0.150503
Si Si2 0.934899 0.440149 0.652855
Si Si3 0.933641 0.937863 0.851053
Si Si4 0.434976 0.237666 0.152168
Si Si5 0.434275 0.147658 0.652983
O O1 0.750000 0.347459 0.145441
O O2 0.987100 0.397346 0.251545
O O3 0.005771 0.295624 0.190473
O O4 0.000000 0.363523 0.000000
O O5 0.750000 0.433179 0.652221
O O6 0.967927 0.500000 0.697977
O O7 0.000000 0.434702 0.500000
O O8 0.750000 0.928106 0.849167
O O9 0.014193 0.904382 0.733872
O O10 0.959848 0.000000 0.832961
O O11 0.000000 0.923092 0.000000
O O12 0.250000 0.236831 0.147373
O O13 0.496972 0.195538 0.259213
O O14 0.500000 0.226396 0.000000
O O15 0.500000 0.147817 0.500000
O O16 0.250000 0.151366 0.649389
#
# Coordination Sequence:
#
# PCOD9406296 Si02
#       5
#     8   8   8   8   8
#     4  11  22  38  60  87 117 150 191 238 289 340
#     4  10  21  38  59  84 115 152 193 236 285 342
#     4  10  21  39  63  90 119 154 196 239 285 339
#     4  11  22  40  63  87 116 151 192 236 286 342
#     4  12  25  41  60  86 119 154 194 239 290 343
#
# _framework density 18.488602
#
# number of rings (size 3 to 8) (size 9 to 14) (size 15 to 20)
#    0.000    1.200    0.000    8.400    0.000    4.000 
#    0.000    4.000    0.000    0.000    0.000    0.000 
#    0.000    0.000    0.000    0.000    0.000    0.000 
#
# Total GULP energy -223740.723643 kJ/mol
# GULP energy per Si atom -5593.518091 kJ/mol
# Density = 1.844652 g / cm^3
# Si number density = 18.488602 Si / 1000 Ang^3
#
#
#
# Elastic Constant Matrix: (Units=GPa)
#
#
# Indices 1 2 3 4 5 6 
#
# 1 195.2302 87.7347 83.2263 0.0000 0.0000 0.0000
# 2 87.7347 108.8926 95.6955 0.0000 0.0000 0.0000
# 3 83.2263 95.6955 124.9257 0.0000 0.0000 0.0000
# 4 0.0000 0.0000 0.0000 145.9343 0.0000 0.0000
# 5 0.0000 0.0000 0.0000 0.0000 38.2386 0.0000
# 6 0.0000 0.0000 0.0000 0.0000 0.0000 38.1881
#
#
#
# Elastic Compliance Matrix: (Units=1/GPa)
#
#
# Indices 1 2 3 4 5 6 
#
# 1 0.008089 -0.005451 -0.001213 0.000000 0.000000 0.000000
# 2 -0.005451 0.031773 -0.020707 0.000000 0.000000 0.000000
# 3 -0.001213 -0.020707 0.024675 0.000000 0.000000 0.000000
# 4 0.000000 0.000000 0.000000 0.006852 0.000000 0.000000
# 5 0.000000 0.000000 0.000000 0.000000 0.026152 0.000000
# 6 0.000000 0.000000 0.000000 0.000000 0.000000 0.026186
#
#
# Mechanical properties :
#
#
# Convention : Reuss Voigt Hill
#
# Bulk Modulus (GPa) = 102.10310 106.92906 104.51608
# Shear Modulus (GPa) = 27.51265 55.29833 41.40549
#
# Velocity S-wave (km/s) = 3.86176 5.47488 4.73748
# Velocity P-wave (km/s) = 8.67347 9.89578 9.30472
#
# Compressibility (1/GPa) = 0.00979402
#
# Stress axis : x y z
#
# Youngs Moduli (GPa) = 123.62366 31.47354 40.52666
#
# Poissons Ratio (x) = 0.17156 0.04918
# Poissons Ratio (y) = 0.67387 0.83919
# Poissons Ratio (z) = 0.15001 0.65172
#
# Static dielectric constant tensor:
#      x y z
#    x 1.614480 0.000000 0.000000 
#    y 0.000000 1.632000 0.000000 
#    z 0.000000 0.000000 1.599590 
# 
# From -- ./inp_files/5219.got.cif
#   From: 2010.05.17/outbox.cif.g08.bks.cpg/sg51_3_cif.got.tgz:5219.got - 2010.06.03 11:52:47.
