data_PCOD9406970
_publ_section_title
;
Structure prediction by ZEFSAII (Michael W. Deem and Ramdas Pophale) SiO2 
 PCOD9406970
Probable space group: P M M A
;
_chemical_formula_sum "Si O2"
_cell_formula_units_Z 58
_cell_length_a 16.702874
_cell_length_b 19.746244
_cell_length_c 8.957845
_cell_angle_alpha 90.000000
_cell_angle_beta 90.000000
_cell_angle_gamma 90.000000
_cell_volume 2954.467709
_symmetry_space_group_name_H-M "P M M A"
_symmetry_group_IT_number 51
_symmetry_cell_setting 'orthorhombic'
loop_
_space_group_symop_operation_xyz
x,y,z
1/2-x,-y,z
1/2+x,-y,-z
-x,y,-z
-x,-y,-z
1/2+x,y,-z
1/2-x,y,z
x,-y,z
loop_
_atom_site_type_symbol
_atom_site_label
_atom_site_fract_x
_atom_site_fract_y
_atom_site_fract_z
Si Si1 0.656040 0.749089 0.645666
Si Si2 0.393268 0.099318 0.362235
Si Si3 0.843996 0.320742 0.932111
Si Si4 0.153020 0.579712 0.818693
Si Si5 0.428854 0.688501 0.617883
Si Si6 0.750000 0.000000 0.721603
Si Si7 0.927208 0.791489 0.115541
Si Si8 0.077615 0.924719 0.709852
O O1 0.750000 0.759690 0.670454
O O2 0.614141 0.820993 0.665667
O O3 0.625818 0.694282 0.766465
O O4 0.640628 0.722670 0.480520
O O5 0.321115 0.058539 0.288863
O O6 0.390036 0.086866 0.541567
O O7 0.481010 0.077475 0.306898
O O8 0.750000 0.331587 0.919757
O O9 0.874491 0.384372 0.026676
O O10 0.862088 0.253139 0.027204
O O11 0.250000 0.589753 0.802010
O O12 0.137998 0.500000 0.817148
O O13 0.105394 0.621023 0.692958
O O14 0.500000 0.678115 0.500000
O O15 0.450592 0.743184 0.745343
O O16 0.899444 0.863280 0.181604
O O17 0.000000 0.801324 0.000000
O O18 0.102008 0.000000 0.760143
#
# Coordination Sequence:
#
# PCOD9406970 Si02
#       8
#     8   8   8   8   8   2   8   8
#     4  11  21  35  60  88 114 146 191 246 290 332
#     4  11  20  35  53  82 112 146 193 240 298 348
#     4   9  20  38  58  84 113 146 191 235 283 347
#     4   9  19  38  61  84 116 156 188 223 282 353
#     4  11  21  35  58  88 117 147 192 241 284 333
#     4  12  20  34  52  84 114 154 186 244 306 354
#     4  11  22  37  57  79 113 156 194 234 288 346
#     4  11  21  36  54  75 114 151 191 242 294 351
#
# _framework density 19.631285999999999
#
# number of rings (size 3 to 8) (size 9 to 14) (size 15 to 20)
#    0.000    1.517    3.448    3.310    0.000    1.103 
#    1.241    0.690    0.000   16.552    0.000    0.966 
#    0.000    0.000    0.000    0.000    0.000    0.000 
#
# Total GULP energy -323234.689910 kJ/mol
# GULP energy per Si atom -5573.011895 kJ/mol
# Density = 1.958660 g / cm^3
# Si number density = 19.631286 Si / 1000 Ang^3
#
#
#
# Elastic Constant Matrix: (Units=GPa)
#
#
# Indices 1 2 3 4 5 6 
#
# 1 14.6134 0.6029 -0.4683 0.0000 0.0000 0.0000
# 2 0.6029 136.9019 35.8146 0.0000 0.0000 0.0000
# 3 -0.4683 35.8146 76.8528 0.0000 0.0000 0.0000
# 4 0.0000 0.0000 0.0000 20.0103 0.0000 0.0000
# 5 0.0000 0.0000 0.0000 0.0000 20.0241 0.0000
# 6 0.0000 0.0000 0.0000 0.0000 0.0000 28.6835
#
#
#
# Elastic Compliance Matrix: (Units=1/GPa)
#
#
# Indices 1 2 3 4 5 6 
#
# 1 0.068470 -0.000468 0.000635 0.000000 0.000000 0.000000
# 2 -0.000468 0.008322 -0.003881 0.000000 0.000000 0.000000
# 3 0.000635 -0.003881 0.014824 0.000000 0.000000 0.000000
# 4 0.000000 0.000000 0.000000 0.049974 0.000000 0.000000
# 5 0.000000 0.000000 0.000000 0.000000 0.049940 0.000000
# 6 0.000000 0.000000 0.000000 0.000000 0.000000 0.034863
#
#
# Mechanical properties :
#
#
# Convention : Reuss Voigt Hill
#
# Bulk Modulus (GPa) = 11.87799 33.36294 22.62046
# Shear Modulus (GPa) = 19.09243 26.57149 22.83196
#
# Velocity S-wave (km/s) = 3.12196 3.68302 3.41404
# Velocity P-wave (km/s) = 4.36568 5.92603 5.20466
#
# Compressibility (1/GPa) = 0.08418935
#
# Stress axis : x y z
#
# Youngs Moduli (GPa) = 14.60490 120.16566 67.45660
#
# Poissons Ratio (x) = 0.05620 -0.04284
# Poissons Ratio (y) = 0.00683 0.26180
# Poissons Ratio (z) = -0.00928 0.46636
#
# Static dielectric constant tensor:
#      x y z
#    x 1.696780 0.000000 0.000000 
#    y 0.000000 1.669040 0.000000 
#    z 0.000000 0.000000 1.714780 
# 
# From -- ./inp_files/9919.got.cif
#   From: 2010.05.17/outbox.cif.g08.bks.cpg/sg51_5_cif.got.tgz:9919.got - 2010.06.03 11:52:47.
