data_PCOD9406029
_publ_section_title
;
Structure prediction by ZEFSAII (Michael W. Deem and Ramdas Pophale) SiO2 
 PCOD9406029
Probable space group: P M M A
;
_chemical_formula_sum "Si O2"
_cell_formula_units_Z 48
_cell_length_a 30.674907
_cell_length_b 8.926333
_cell_length_c 9.791252
_cell_angle_alpha 90.000000
_cell_angle_beta 90.000000
_cell_angle_gamma 90.000000
_cell_volume 2680.986131
_symmetry_space_group_name_H-M "P M M A"
_symmetry_group_IT_number 51
_symmetry_cell_setting 'orthorhombic'
loop_
_space_group_symop_operation_xyz
x,y,z
1/2-x,-y,z
1/2+x,-y,-z
-x,y,-z
-x,-y,-z
1/2+x,y,-z
1/2-x,y,z
x,-y,z
loop_
_atom_site_type_symbol
_atom_site_label
_atom_site_fract_x
_atom_site_fract_y
_atom_site_fract_z
Si Si1 0.376955 0.180518 0.346801
Si Si2 0.698610 0.322012 0.148962
Si Si3 0.551981 0.680410 0.154001
Si Si4 0.049541 0.679902 0.160538
Si Si5 0.699584 0.819814 0.856180
Si Si6 0.373398 0.820216 0.662320
O O1 0.418470 0.245005 0.267655
O O2 0.333788 0.224989 0.262225
O O3 0.375043 0.228047 0.504272
O O4 0.379234 0.000000 0.344526
O O5 0.750000 0.293204 0.172019
O O6 0.691301 0.500000 0.149561
O O7 0.668789 0.244689 0.261531
O O8 0.687684 0.257067 0.999354
O O9 0.556616 0.500000 0.164512
O O10 0.501364 0.717541 0.182282
O O11 0.584843 0.759810 0.255799
O O12 0.561107 0.722017 0.995891
O O13 0.053235 0.500000 0.169655
O O14 0.750000 0.781992 0.824511
O O15 0.697091 0.000000 0.873259
O O16 0.372407 0.000000 0.667473
#
# Coordination Sequence:
#
# PCOD9406029 Si02
#       6
#     8   8   8   8   8   8
#     4  10  22  36  51  77 111 143 176 216 261 311
#     4  10  21  37  57  81 107 136 174 220 265 310
#     4   9  19  37  58  80 105 135 176 222 265 312
#     4   9  19  36  58  80 103 136 177 221 267 313
#     4   9  18  35  58  80 103 136 177 217 259 309
#     4  11  23  36  52  78 111 145 177 213 261 313
#
# _framework density 17.903860999999999
#
# number of rings (size 3 to 8) (size 9 to 14) (size 15 to 20)
#    0.000    2.333    0.000    3.000    0.000    8.333 
#    0.000    6.667    0.000    2.000    0.000    0.000 
#    0.000    0.000    0.000    0.000    0.000    0.000 
#
# Total GULP energy -267999.519694 kJ/mol
# GULP energy per Si atom -5583.323327 kJ/mol
# Density = 1.786311 g / cm^3
# Si number density = 17.903861 Si / 1000 Ang^3
#
#
#
# Elastic Constant Matrix: (Units=GPa)
#
#
# Indices 1 2 3 4 5 6 
#
# 1 112.2806 49.7182 119.5514 0.0000 0.0000 0.0000
# 2 49.7182 31.7053 60.6118 0.0000 0.0000 0.0000
# 3 119.5514 60.6118 190.9618 0.0000 0.0000 0.0000
# 4 0.0000 0.0000 0.0000 14.2868 0.0000 0.0000
# 5 0.0000 0.0000 0.0000 0.0000 -17.0601 0.0000
# 6 0.0000 0.0000 0.0000 0.0000 0.0000 32.7072
#
#
#
# Elastic Compliance Matrix: (Units=1/GPa)
#
#
# Indices 1 2 3 4 5 6 
#
# 1 0.037995 -0.035878 -0.012399 0.000000 0.000000 0.000000
# 2 -0.035878 0.114090 -0.013751 0.000000 0.000000 0.000000
# 3 -0.012399 -0.013751 0.017364 0.000000 0.000000 0.000000
# 4 0.000000 0.000000 0.000000 0.069995 0.000000 0.000000
# 5 0.000000 0.000000 0.000000 0.000000 -0.058616 0.000000
# 6 0.000000 0.000000 0.000000 0.000000 0.000000 0.030574
#
#
# Mechanical properties :
#
#
# Convention : Reuss Voigt Hill
#
# Bulk Modulus (GPa) = 22.02990 88.30116 55.16553
# Shear Modulus (GPa) = 14.26170 12.99119 13.62645
#
# Velocity S-wave (km/s) = 2.82542 2.69663 2.76178
# Velocity P-wave (km/s) = 4.79325 7.68911 6.40694
#
# Compressibility (1/GPa) = 0.04539286
#
# Stress axis : x y z
#
# Youngs Moduli (GPa) = 26.31925 8.76498 57.59118
#
# Poissons Ratio (x) = 0.31447 0.71408
# Poissons Ratio (y) = 0.94428 0.79196
# Poissons Ratio (z) = 0.32633 0.12053
#
# Static dielectric constant tensor:
#      x y z
#    x 1.605110 0.000000 0.000000 
#    y 0.000000 1.598490 0.000000 
#    z 0.000000 0.000000 1.584190 
# 
# From -- ./inp_files/12726.got.cif
#   From: 2010.05.17/outbox.cif.g08.bks.cpg/sg51_7_cif.got.tgz:12726.got - 2010.06.03 11:52:47.
