data_PCOD9406810
_publ_section_title
;
Structure prediction by ZEFSAII (Michael W. Deem and Ramdas Pophale) SiO2 
 PCOD9406810
Probable space group: P M M A
;
_chemical_formula_sum "Si O2"
_cell_formula_units_Z 64
_cell_length_a 8.916979
_cell_length_b 14.275484
_cell_length_c 27.080443
_cell_angle_alpha 90.000000
_cell_angle_beta 90.000000
_cell_angle_gamma 90.000000
_cell_volume 3447.183085
_symmetry_space_group_name_H-M "P M M A"
_symmetry_group_IT_number 51
_symmetry_cell_setting 'orthorhombic'
loop_
_space_group_symop_operation_xyz
x,y,z
1/2-x,-y,z
1/2+x,-y,-z
-x,y,-z
-x,-y,-z
1/2+x,y,-z
1/2-x,y,z
x,-y,z
loop_
_atom_site_type_symbol
_atom_site_label
_atom_site_fract_x
_atom_site_fract_y
_atom_site_fract_z
Si Si1 0.926348 0.612742 0.246783
Si Si2 0.929766 0.894383 0.302087
Si Si3 0.930421 0.389911 0.448446
Si Si4 0.427942 0.709272 0.949873
Si Si5 0.932989 0.709394 0.348648
Si Si6 0.923759 0.613260 0.855804
Si Si7 0.568966 0.890688 0.910473
Si Si8 0.579964 0.886223 0.798567
O O1 0.750000 0.636131 0.240682
O O2 0.938038 0.500000 0.249990
O O3 0.979439 0.655038 0.298841
O O4 0.013921 0.643761 0.197723
O O5 0.750000 0.897890 0.303077
O O6 0.979391 0.816969 0.341170
O O7 0.978356 0.860569 0.247629
O O8 0.987321 0.000000 0.310087
O O9 0.750000 0.382211 0.451282
O O10 0.967249 0.500000 0.442800
O O11 0.984050 0.336038 0.399662
O O12 0.000000 0.356647 0.500000
O O13 0.250000 0.706658 0.953021
O O14 0.485020 0.654851 0.901495
O O15 0.486185 0.815922 0.943934
O O16 0.500000 0.669703 0.000000
O O17 0.750000 0.705045 0.349201
O O18 0.750000 0.640884 0.860769
O O19 0.933317 0.500000 0.857131
O O20 0.750000 0.883214 0.915102
O O21 0.530027 0.862863 0.853805
O O22 0.529690 0.000000 0.918704
O O23 0.750000 0.852700 0.790910
O O24 0.584687 0.000000 0.798900
#
# Coordination Sequence:
#
# PCOD9406810 Si02
#       8
#     8   8   8   8   8   8   8   8
#     4   9  17  31  52  78 106 135 169 208 254 314
#     4   9  17  28  43  67 100 135 173 214 251 295
#     4   9  17  31  51  73  99 133 172 217 265 313
#     4  12  26  42  61  83 108 139 180 227 272 324
#     4   9  17  29  48  74 103 137 175 212 258 311
#     4  10  22  41  62  83 110 142 175 217 271 328
#     4   9  19  37  59  82 111 145 179 218 267 323
#     4   8  15  29  48  70  98 133 169 206 252 303
#
# _framework density 18.565885000000002
#
# number of rings (size 3 to 8) (size 9 to 14) (size 15 to 20)
#    0.000    2.625    0.000    2.625    1.750    3.500 
#    0.000    2.500    0.000    3.375    0.000    0.000 
#    0.000    0.000    0.000    0.000    0.000    0.000 
#
# Total GULP energy -357110.676907 kJ/mol
# GULP energy per Si atom -5579.854327 kJ/mol
# Density = 1.852363 g / cm^3
# Si number density = 18.565885 Si / 1000 Ang^3
#
#
#
# Elastic Constant Matrix: (Units=GPa)
#
#
# Indices 1 2 3 4 5 6 
#
# 1 40.2104 28.2354 44.7630 0.0000 0.0000 0.0000
# 2 28.2354 54.9936 56.3383 0.0000 0.0000 0.0000
# 3 44.7630 56.3383 160.6385 0.0000 0.0000 0.0000
# 4 0.0000 0.0000 0.0000 29.9656 0.0000 0.0000
# 5 0.0000 0.0000 0.0000 0.0000 29.5358 0.0000
# 6 0.0000 0.0000 0.0000 0.0000 0.0000 17.8189
#
#
#
# Elastic Compliance Matrix: (Units=1/GPa)
#
#
# Indices 1 2 3 4 5 6 
#
# 1 0.042962 -0.015286 -0.006611 0.000000 0.000000 0.000000
# 2 -0.015286 0.033819 -0.007602 0.000000 0.000000 0.000000
# 3 -0.006611 -0.007602 0.010733 0.000000 0.000000 0.000000
# 4 0.000000 0.000000 0.000000 0.033372 0.000000 0.000000
# 5 0.000000 0.000000 0.000000 0.000000 0.033857 0.000000
# 6 0.000000 0.000000 0.000000 0.000000 0.000000 0.056120
#
#
# Mechanical properties :
#
#
# Convention : Reuss Voigt Hill
#
# Bulk Modulus (GPa) = 35.06459 57.16843 46.11651
# Shear Modulus (GPa) = 17.89772 23.89779 20.89775
#
# Velocity S-wave (km/s) = 3.10822 3.59163 3.35864
# Velocity P-wave (km/s) = 5.63994 6.93245 6.31933
#
# Compressibility (1/GPa) = 0.02851880
#
# Stress axis : x y z
#
# Youngs Moduli (GPa) = 23.27651 29.56883 93.16843
#
# Poissons Ratio (x) = 0.45198 0.61591
# Poissons Ratio (y) = 0.35579 0.70822
# Poissons Ratio (z) = 0.15387 0.22477
#
# Static dielectric constant tensor:
#      x y z
#    x 1.626920 0.000000 0.000000 
#    y 0.000000 1.684080 0.000000 
#    z 0.000000 0.000000 1.628780 
# 
# From -- ./inp_files/34951.got.cif
#   From: 2010.05.17/outbox.cif.g08.bks.cpg/sg51_18_cif.got.tgz:34951.got - 2010.06.03 11:52:47.
