data_PCOD9406191
_publ_section_title
;
Structure prediction by ZEFSAII (Michael W. Deem and Ramdas Pophale) SiO2 
 PCOD9406191
Probable space group: P M M A
;
_chemical_formula_sum "Si O2"
_cell_formula_units_Z 48
_cell_length_a 9.827336
_cell_length_b 8.759723
_cell_length_c 29.963168
_cell_angle_alpha 90.000000
_cell_angle_beta 90.000000
_cell_angle_gamma 90.000000
_cell_volume 2579.371562
_symmetry_space_group_name_H-M "P M M A"
_symmetry_group_IT_number 51
_symmetry_cell_setting 'orthorhombic'
loop_
_space_group_symop_operation_xyz
x,y,z
1/2-x,-y,z
1/2+x,-y,-z
-x,y,-z
-x,-y,-z
1/2+x,y,-z
1/2-x,y,z
x,-y,z
loop_
_atom_site_type_symbol
_atom_site_label
_atom_site_fract_x
_atom_site_fract_y
_atom_site_fract_z
Si Si1 0.750000 0.816907 0.947189
Si Si2 0.410631 0.815589 0.543703
Si Si3 0.588655 0.679421 0.202059
Si Si4 0.750000 0.183339 0.051205
Si Si5 0.000778 0.683346 0.894293
Si Si6 0.909722 0.316756 0.624492
Si Si7 0.908293 0.818032 0.298087
O O1 0.625049 0.749420 0.920483
O O2 0.750000 0.000000 0.945967
O O3 0.750000 0.771247 0.999212
O O4 0.500000 0.775030 0.500000
O O5 0.250000 0.768051 0.541690
O O6 0.494679 0.748247 0.585135
O O7 0.409977 0.000000 0.547327
O O8 0.750000 0.691697 0.191828
O O9 0.560283 0.500000 0.210603
O O10 0.510348 0.729850 0.157678
O O11 0.562782 0.772753 0.246936
O O12 0.624639 0.250708 0.077819
O O13 0.750000 0.000000 0.052930
O O14 0.003234 0.500000 0.894759
O O15 0.750000 0.267645 0.621228
O O16 0.911101 0.500000 0.622723
O O17 0.983388 0.260725 0.669566
O O18 0.750000 0.770947 0.307659
O O19 0.915159 0.000000 0.303898
#
# Coordination Sequence:
#
# PCOD9406191 Si02
#       7
#     4   8   8   4   8   8   8
#     4  11  25  41  55  83 121 157 193 237 298 355
#     4  10  21  38  62  91 122 159 202 248 299 352
#     4   9  18  36  60  86 115 147 187 236 290 348
#     4  11  23  39  61  85 117 155 193 241 294 351
#     4  11  22  39  62  88 115 151 197 243 292 352
#     4  11  24  40  58  84 119 160 202 244 294 349
#     4  10  21  37  60  89 115 145 190 240 291 350
#
# _framework density 18.609185
#
# number of rings (size 3 to 8) (size 9 to 14) (size 15 to 20)
#    0.000    1.667    0.833    3.500    0.000   10.333 
#    1.500    0.000    0.000    0.000    0.000    0.000 
#    0.000    0.000    0.000    0.000    0.000    0.000 
#
# Total GULP energy -267969.305036 kJ/mol
# GULP energy per Si atom -5582.693855 kJ/mol
# Density = 1.856683 g / cm^3
# Si number density = 18.609185 Si / 1000 Ang^3
#
#
#
# Elastic Constant Matrix: (Units=GPa)
#
#
# Indices 1 2 3 4 5 6 
#
# 1 168.5933 36.8315 82.2969 0.0000 0.0000 0.0000
# 2 36.8315 33.2040 37.0643 0.0000 0.0000 0.0000
# 3 82.2969 37.0643 138.2413 0.0000 0.0000 0.0000
# 4 0.0000 0.0000 0.0000 37.4239 0.0000 0.0000
# 5 0.0000 0.0000 0.0000 0.0000 206.4478 0.0000
# 6 0.0000 0.0000 0.0000 0.0000 0.0000 83.3538
#
#
#
# Elastic Compliance Matrix: (Units=1/GPa)
#
#
# Indices 1 2 3 4 5 6 
#
# 1 0.009072 -0.005758 -0.003857 0.000000 0.000000 0.000000
# 2 -0.005758 0.046634 -0.009076 0.000000 0.000000 0.000000
# 3 -0.003857 -0.009076 0.011963 0.000000 0.000000 0.000000
# 4 0.000000 0.000000 0.000000 0.026721 0.000000 0.000000
# 5 0.000000 0.000000 0.000000 0.000000 0.004844 0.000000
# 6 0.000000 0.000000 0.000000 0.000000 0.000000 0.011997
#
#
# Mechanical properties :
#
#
# Convention : Reuss Voigt Hill
#
# Bulk Modulus (GPa) = 33.01549 72.49157 52.75353
# Shear Modulus (GPa) = 31.50437 77.70149 54.60293
#
# Velocity S-wave (km/s) = 4.11901 6.46877 5.42270
# Velocity P-wave (km/s) = 6.35623 9.73821 8.22296
#
# Compressibility (1/GPa) = 0.03028881
#
# Stress axis : x y z
#
# Youngs Moduli (GPa) = 110.22891 21.44344 83.59025
#
# Poissons Ratio (x) = 0.12347 0.32241
# Poissons Ratio (y) = 0.63467 0.75863
# Poissons Ratio (z) = 0.42515 0.19461
#
# Static dielectric constant tensor:
#      x y z
#    x 1.610630 0.000000 0.000000 
#    y 0.000000 1.625830 0.000000 
#    z 0.000000 0.000000 1.628730 
# 
# From -- ./inp_files/37162.got.cif
#   From: 2010.05.17/outbox.cif.g08.bks.cpg/sg51_19_cif.got.tgz:37162.got - 2010.06.03 11:52:47.
