data_PCOD9406614
_publ_section_title
;
Structure prediction by ZEFSAII (Michael W. Deem and Ramdas Pophale) SiO2 
 PCOD9406614
Probable space group: P M M A
;
_chemical_formula_sum "Si O2"
_cell_formula_units_Z 44
_cell_length_a 7.523395
_cell_length_b 7.723924
_cell_length_c 35.484138
_cell_angle_alpha 90.000000
_cell_angle_beta 90.000000
_cell_angle_gamma 90.000000
_cell_volume 2061.987915
_symmetry_space_group_name_H-M "P M M A"
_symmetry_group_IT_number 51
_symmetry_cell_setting 'orthorhombic'
loop_
_space_group_symop_operation_xyz
x,y,z
1/2-x,-y,z
1/2+x,-y,-z
-x,y,-z
-x,-y,-z
1/2+x,y,-z
1/2-x,y,z
x,-y,z
loop_
_atom_site_type_symbol
_atom_site_label
_atom_site_fract_x
_atom_site_fract_y
_atom_site_fract_z
Si Si1 0.535973 0.500000 0.455868
Si Si2 0.468161 0.500000 0.096875
Si Si3 0.543593 0.210060 0.678343
Si Si4 0.042236 0.805530 0.595171
Si Si5 0.967093 0.500000 0.816655
Si Si6 0.462916 0.195995 0.042764
Si Si7 0.467743 0.200020 0.239333
O O1 0.750000 0.500000 0.451087
O O2 0.500000 0.500000 0.500000
O O3 0.465557 0.330491 0.434270
O O4 0.250000 0.500000 0.096796
O O5 0.525425 0.500000 0.140149
O O6 0.527542 0.331556 0.073606
O O7 0.750000 0.258929 0.677115
O O8 0.466952 0.262844 0.638174
O O9 0.471871 0.263864 0.719169
O O10 0.530835 0.000000 0.679364
O O11 0.250000 0.822614 0.586315
O O12 0.964098 0.000000 0.594006
O O13 0.750000 0.500000 0.816857
O O14 0.022666 0.669695 0.793346
O O15 0.250000 0.188046 0.046616
O O16 0.532694 0.000000 0.046967
O O17 0.500000 0.254305 0.000000
O O18 0.250000 0.199532 0.240590
O O19 0.521776 0.000000 0.233560
#
# Coordination Sequence:
#
# PCOD9406614 Si02
#       7
#     4   4   8   8   4   8   8
#     4  10  22  37  50  68  93 119 150 183 215 259
#     4   9  17  27  39  59  87 115 145 181 216 256
#     4   8  14  26  45  69  93 115 144 182 219 255
#     4   9  18  33  51  70  93 119 146 180 222 263
#     4   9  16  24  36  57  84 116 148 172 208 259
#     4   9  17  29  45  65  87 110 139 178 223 267
#     4   8  14  24  37  56  85 115 141 174 212 249
#
# _framework density 21.338630999999999
#
# number of rings (size 3 to 8) (size 9 to 14) (size 15 to 20)
#    0.000    3.273    0.000    1.364    0.000    2.545 
#    0.000    4.545    0.000    0.000    0.000    2.545 
#    0.000    5.818    0.000    0.000    0.000    0.000 
#
# Total GULP energy -245396.618955 kJ/mol
# GULP energy per Si atom -5577.195885 kJ/mol
# Density = 2.129006 g / cm^3
# Si number density = 21.338631 Si / 1000 Ang^3
#
#
#
# Elastic Constant Matrix: (Units=GPa)
#
#
# Indices 1 2 3 4 5 6 
#
# 1 48.9354 4.4982 1.9959 0.0000 0.0000 0.0000
# 2 4.4982 125.8383 124.5271 0.0000 0.0000 0.0000
# 3 1.9959 124.5271 226.2865 0.0000 0.0000 0.0000
# 4 0.0000 0.0000 0.0000 380.4475 0.0000 0.0000
# 5 0.0000 0.0000 0.0000 0.0000 14.7053 0.0000
# 6 0.0000 0.0000 0.0000 0.0000 0.0000 -8.4826
#
#
#
# Elastic Compliance Matrix: (Units=1/GPa)
#
#
# Indices 1 2 3 4 5 6 
#
# 1 0.020527 -0.001218 0.000489 0.000000 0.000000 0.000000
# 2 -0.001218 0.017521 -0.009631 0.000000 0.000000 0.000000
# 3 0.000489 -0.009631 0.009715 0.000000 0.000000 0.000000
# 4 0.000000 0.000000 0.000000 0.002628 0.000000 0.000000
# 5 0.000000 0.000000 0.000000 0.000000 0.068003 0.000000
# 6 0.000000 0.000000 0.000000 0.000000 0.000000 -0.117888
#
#
# Mechanical properties :
#
#
# Convention : Reuss Voigt Hill
#
# Bulk Modulus (GPa) = 36.97760 73.67808 55.32784
# Shear Modulus (GPa) = 165.34108 95.33664 130.33886
#
# Velocity S-wave (km/s) = 8.81207 6.69141 7.82392
# Velocity P-wave (km/s) = 10.99561 9.71097 10.37319
#
# Compressibility (1/GPa) = 0.02704340
#
# Stress axis : x y z
#
# Youngs Moduli (GPa) = 48.71606 57.07376 102.93323
#
# Poissons Ratio (x) = 0.06950 -0.05034
# Poissons Ratio (y) = 0.05932 0.99138
# Poissons Ratio (z) = -0.02383 0.54969
#
# Static dielectric constant tensor:
#      x y z
#    x 1.835760 0.000000 0.000000 
#    y 0.000000 1.788670 0.000000 
#    z 0.000000 0.000000 1.735330 
# 
# From -- ./inp_files/36864.got.cif
#   From: 2010.05.17/outbox.cif.g08.bks.cpg/sg51_19_cif.got.tgz:36864.got - 2010.06.03 11:52:47.
