data_PCOD9406208
_publ_section_title
;
Structure prediction by ZEFSAII (Michael W. Deem and Ramdas Pophale) SiO2 
 PCOD9406208
Probable space group: P M M A
;
_chemical_formula_sum "Si O2"
_cell_formula_units_Z 48
_cell_length_a 17.974337
_cell_length_b 14.327162
_cell_length_c 9.379728
_cell_angle_alpha 90.000000
_cell_angle_beta 90.000000
_cell_angle_gamma 90.000000
_cell_volume 2415.479167
_symmetry_space_group_name_H-M "P M M A"
_symmetry_group_IT_number 51
_symmetry_cell_setting 'orthorhombic'
loop_
_space_group_symop_operation_xyz
x,y,z
1/2-x,-y,z
1/2+x,-y,-z
-x,y,-z
-x,-y,-z
1/2+x,y,-z
1/2-x,y,z
x,-y,z
loop_
_atom_site_type_symbol
_atom_site_label
_atom_site_fract_x
_atom_site_fract_y
_atom_site_fract_z
Si Si1 0.913941 0.395571 0.043500
Si Si2 0.931801 0.770262 0.603847
Si Si3 0.934523 0.109681 0.882892
Si Si4 0.661347 0.104668 0.393333
Si Si5 0.836938 0.393317 0.736591
Si Si6 0.162187 0.787006 0.896138
O O1 0.907891 0.500000 0.107145
O O2 0.864450 0.393595 0.900223
O O3 0.883536 0.308128 0.130636
O O4 0.000000 0.381369 0.000000
O O5 0.954160 0.832424 0.741307
O O6 0.875470 0.831700 0.511262
O O7 0.889648 0.678081 0.655495
O O8 0.000000 0.748603 0.500000
O O9 0.919671 0.000000 0.853486
O O10 0.866199 0.162669 0.960264
O O11 0.000000 0.114690 0.000000
O O12 0.750000 0.103233 0.414155
O O13 0.648276 0.144239 0.235573
O O14 0.631442 0.000000 0.403216
O O15 0.750000 0.366887 0.728709
O O16 0.844412 0.500000 0.684355
O O17 0.250000 0.766986 0.904487
#
# Coordination Sequence:
#
# PCOD9406208 Si02
#       6
#     8   8   8   8   8   8
#     4  10  21  37  63  96 128 161 204 260 318 375
#     4  12  25  39  64  94 125 167 212 262 321 391
#     4  11  24  41  62  89 124 162 212 270 318 373
#     4  10  23  42  61  87 129 172 208 255 316 378
#     4  10  22  42  66  92 126 168 213 264 321 379
#     4  11  22  38  64  93 123 164 213 262 316 372
#
# _framework density 19.871832000000001
#
# number of rings (size 3 to 8) (size 9 to 14) (size 15 to 20)
#    0.000    1.333    1.667    3.500    2.333    5.667 
#    0.000    0.833    0.000    1.000    0.000    0.000 
#    0.000    0.000    0.000    0.000    0.000    0.000 
#
# Total GULP energy -268370.881530 kJ/mol
# GULP energy per Si atom -5591.060032 kJ/mol
# Density = 1.982660 g / cm^3
# Si number density = 19.871832 Si / 1000 Ang^3
#
#
#
# Elastic Constant Matrix: (Units=GPa)
#
#
# Indices 1 2 3 4 5 6 
#
# 1 59.0973 29.0540 14.4424 0.0000 0.0000 0.0000
# 2 29.0540 95.7465 5.3385 0.0000 0.0000 0.0000
# 3 14.4424 5.3385 56.7057 0.0000 0.0000 0.0000
# 4 0.0000 0.0000 0.0000 -13.7019 0.0000 0.0000
# 5 0.0000 0.0000 0.0000 0.0000 32.8517 0.0000
# 6 0.0000 0.0000 0.0000 0.0000 0.0000 28.7768
#
#
#
# Elastic Compliance Matrix: (Units=1/GPa)
#
#
# Indices 1 2 3 4 5 6 
#
# 1 0.021112 -0.006139 -0.004799 0.000000 0.000000 0.000000
# 2 -0.006139 0.012284 0.000407 0.000000 0.000000 0.000000
# 3 -0.004799 0.000407 0.018819 0.000000 0.000000 0.000000
# 4 0.000000 0.000000 0.000000 -0.072982 0.000000 0.000000
# 5 0.000000 0.000000 0.000000 0.000000 0.030440 0.000000
# 6 0.000000 0.000000 0.000000 0.000000 0.000000 0.034750
#
#
# Mechanical properties :
#
#
# Convention : Reuss Voigt Hill
#
# Bulk Modulus (GPa) = 32.09914 34.35768 33.22841
# Shear Modulus (GPa) = 65.90266 20.43294 43.16780
#
# Velocity S-wave (km/s) = 5.76505 3.21009 4.66586
# Velocity P-wave (km/s) = 7.77834 5.57376 6.76644
#
# Compressibility (1/GPa) = 0.03115348
#
# Stress axis : x y z
#
# Youngs Moduli (GPa) = 47.36615 81.40430 53.13804
#
# Poissons Ratio (x) = 0.49973 0.25502
# Poissons Ratio (y) = 0.29077 -0.02163
# Poissons Ratio (z) = 0.22732 -0.03313
#
# Static dielectric constant tensor:
#      x y z
#    x 1.701230 0.000000 0.000000 
#    y 0.000000 1.709100 0.000000 
#    z 0.000000 0.000000 1.672340 
# 
# From -- ./inp_files/9571.got.cif
#   From: 2010.05.17/outbox.cif.g08.bks.cpg/sg51_5_cif.got.tgz:9571.got - 2010.06.03 11:52:47.
