data_PCOD9406248
_publ_section_title
;
Structure prediction by ZEFSAII (Michael W. Deem and Ramdas Pophale) SiO2 
 PCOD9406248
Probable space group: P M M A
;
_chemical_formula_sum "Si O2"
_cell_formula_units_Z 40
_cell_length_a 7.852093
_cell_length_b 16.624274
_cell_length_c 14.314688
_cell_angle_alpha 90.000000
_cell_angle_beta 90.000000
_cell_angle_gamma 90.000000
_cell_volume 1868.572744
_symmetry_space_group_name_H-M "P M M A"
_symmetry_group_IT_number 51
_symmetry_cell_setting 'orthorhombic'
loop_
_space_group_symop_operation_xyz
x,y,z
1/2-x,-y,z
1/2+x,-y,-z
-x,y,-z
-x,-y,-z
1/2+x,y,-z
1/2-x,y,z
x,-y,z
loop_
_atom_site_type_symbol
_atom_site_label
_atom_site_fract_x
_atom_site_fract_y
_atom_site_fract_z
Si Si1 0.455306 0.413906 0.610468
Si Si2 0.050232 0.000000 0.108187
Si Si3 0.544355 0.675040 0.109370
Si Si4 0.045101 0.236849 0.607473
Si Si5 0.045643 0.836188 0.789894
Si Si6 0.044541 0.500000 0.889144
O O1 0.500000 0.414968 0.500000
O O2 0.250000 0.414247 0.621664
O O3 0.517937 0.500000 0.649162
O O4 0.516450 0.325778 0.640473
O O5 0.992240 0.081050 0.159224
O O6 0.250000 0.000000 0.111904
O O7 0.000000 0.000000 0.000000
O O8 0.750000 0.674365 0.118892
O O9 0.479896 0.756493 0.156986
O O10 0.483809 0.587404 0.146488
O O11 0.500000 0.678685 0.000000
O O12 0.250000 0.239881 0.609983
O O13 0.985657 0.171832 0.682764
O O14 0.000000 0.222926 0.500000
O O15 0.250000 0.829711 0.789220
O O16 0.250000 0.500000 0.878993
O O17 0.000000 0.500000 0.000000
#
# Coordination Sequence:
#
# PCOD9406248 Si02
#       6
#     8   4   8   8   8   4
#     4   8  13  23  41  67  99 139 186 231 273 317
#     4  12  26  44  67  92 115 142 177 224 284 346
#     4   9  17  30  50  76 107 142 179 219 269 326
#     4   9  18  33  53  78 111 151 192 236 282 327
#     4  10  21  38  58  84 115 147 186 233 283 336
#     4   8  14  26  44  70 103 140 178 216 259 318
#
# _framework density 21.406713
#
# number of rings (size 3 to 8) (size 9 to 14) (size 15 to 20)
#    0.000    2.800    0.000    1.500    0.000    3.200 
#    1.800    0.500    0.000    0.000    0.000    0.000 
#    0.000    0.000    0.000    0.000    0.000    0.000 
#
# Total GULP energy -223026.592662 kJ/mol
# GULP energy per Si atom -5575.664817 kJ/mol
# Density = 2.135799 g / cm^3
# Si number density = 21.406713 Si / 1000 Ang^3
#
#
#
# Elastic Constant Matrix: (Units=GPa)
#
#
# Indices 1 2 3 4 5 6 
#
# 1 29.3090 15.4488 9.2840 0.0000 0.0000 0.0000
# 2 15.4488 205.8191 112.6047 0.0000 0.0000 0.0000
# 3 9.2840 112.6047 129.0520 0.0000 0.0000 0.0000
# 4 0.0000 0.0000 0.0000 40.3900 0.0000 0.0000
# 5 0.0000 0.0000 0.0000 0.0000 9.5086 0.0000
# 6 0.0000 0.0000 0.0000 0.0000 0.0000 10.9299
#
#
#
# Elastic Compliance Matrix: (Units=1/GPa)
#
#
# Indices 1 2 3 4 5 6 
#
# 1 0.035538 -0.002428 -0.000438 0.000000 0.000000 0.000000
# 2 -0.002428 0.009462 -0.008082 0.000000 0.000000 0.000000
# 3 -0.000438 -0.008082 0.014832 0.000000 0.000000 0.000000
# 4 0.000000 0.000000 0.000000 0.024759 0.000000 0.000000
# 5 0.000000 0.000000 0.000000 0.000000 0.105168 0.000000
# 6 0.000000 0.000000 0.000000 0.000000 0.000000 0.091492
#
#
# Mechanical properties :
#
#
# Convention : Reuss Voigt Hill
#
# Bulk Modulus (GPa) = 26.35971 70.98390 48.67181
# Shear Modulus (GPa) = 15.83316 27.28852 21.56084
#
# Velocity S-wave (km/s) = 2.72257 3.57426 3.17708
# Velocity P-wave (km/s) = 4.71420 7.08981 6.02034
#
# Compressibility (1/GPa) = 0.03793668
#
# Stress axis : x y z
#
# Youngs Moduli (GPa) = 28.13913 105.68033 67.42073
#
# Poissons Ratio (x) = 0.25655 0.02955
# Poissons Ratio (y) = 0.06831 0.54489
# Poissons Ratio (z) = 0.01233 0.85410
#
# Static dielectric constant tensor:
#      x y z
#    x 1.812950 0.000000 0.000000 
#    y 0.000000 -2.506280 0.000000 
#    z 0.000000 0.000000 1.872490 
# 
# From -- ./inp_files/20580.got.cif
#   From: 2010.05.17/outbox.cif.g08.bks.cpg/sg51_11_cif.got.tgz:20580.got - 2010.06.03 11:52:47.
