data_PCOD9406593
_publ_section_title
;
Structure prediction by ZEFSAII (Michael W. Deem and Ramdas Pophale) SiO2 
 PCOD9406593
Probable space group: P M M A
;
_chemical_formula_sum "Si O2"
_cell_formula_units_Z 48
_cell_length_a 16.648895
_cell_length_b 14.556421
_cell_length_c 10.102235
_cell_angle_alpha 90.000000
_cell_angle_beta 90.000000
_cell_angle_gamma 90.000000
_cell_volume 2448.259729
_symmetry_space_group_name_H-M "P M M A"
_symmetry_group_IT_number 51
_symmetry_cell_setting 'orthorhombic'
loop_
_space_group_symop_operation_xyz
x,y,z
1/2-x,-y,z
1/2+x,-y,-z
-x,y,-z
-x,-y,-z
1/2+x,y,-z
1/2-x,y,z
x,-y,z
loop_
_atom_site_type_symbol
_atom_site_label
_atom_site_fract_x
_atom_site_fract_y
_atom_site_fract_z
Si Si1 0.595919 0.601180 0.981632
Si Si2 0.654178 0.604858 0.680659
Si Si3 0.656873 0.891485 0.790816
Si Si4 0.909249 0.783434 0.549628
Si Si5 0.343884 0.892971 0.694656
Si Si6 0.407616 0.201141 0.950503
O O1 0.629071 0.500000 0.018839
O O2 0.621618 0.692924 0.058164
O O3 0.500000 0.596268 0.000000
O O4 0.616839 0.616815 0.827283
O O5 0.750000 0.616060 0.692828
O O6 0.637374 0.500000 0.638700
O O7 0.620309 0.681118 0.582688
O O8 0.750000 0.875947 0.753200
O O9 0.601846 0.840097 0.684957
O O10 0.641477 0.000000 0.790967
O O11 0.641570 0.850520 0.935403
O O12 0.858234 0.834763 0.437433
O O13 0.000000 0.782400 0.500000
O O14 0.250000 0.888228 0.732421
O O15 0.395814 0.850611 0.813144
O O16 0.364306 0.000000 0.671941
O O17 0.500000 0.201369 0.000000
#
# Coordination Sequence:
#
# PCOD9406593 Si02
#       6
#     8   8   8   8   8   8
#     4   9  19  36  62  93 126 160 198 248 306 364
#     4  10  21  40  67  95 123 162 211 257 303 363
#     4  11  23  40  63  88 117 161 217 266 307 366
#     4  12  25  40  63  91 123 163 204 256 311 368
#     4  11  25  43  61  86 125 167 202 249 315 371
#     4  11  22  37  62  93 125 160 201 256 312 368
#
# _framework density 19.605764000000001
#
# number of rings (size 3 to 8) (size 9 to 14) (size 15 to 20)
#    0.000    1.333    1.667    4.000    2.333    7.667 
#    0.000    0.833    0.000    1.000    0.000    0.000 
#    0.000    0.000    0.000    0.000    0.000    0.000 
#
# Total GULP energy -268255.253497 kJ/mol
# GULP energy per Si atom -5588.651115 kJ/mol
# Density = 1.956114 g / cm^3
# Si number density = 19.605764 Si / 1000 Ang^3
#
#
#
# Elastic Constant Matrix: (Units=GPa)
#
#
# Indices 1 2 3 4 5 6 
#
# 1 55.9435 45.4498 13.2140 0.0000 0.0000 0.0000
# 2 45.4498 149.1334 34.2981 0.0000 0.0000 0.0000
# 3 13.2140 34.2981 63.0384 0.0000 0.0000 0.0000
# 4 0.0000 0.0000 0.0000 43.9940 0.0000 0.0000
# 5 0.0000 0.0000 0.0000 0.0000 32.2505 0.0000
# 6 0.0000 0.0000 0.0000 0.0000 0.0000 18.0451
#
#
#
# Elastic Compliance Matrix: (Units=1/GPa)
#
#
# Indices 1 2 3 4 5 6 
#
# 1 0.023836 -0.006990 -0.001193 0.000000 0.000000 0.000000
# 2 -0.006990 0.009714 -0.003820 0.000000 0.000000 0.000000
# 3 -0.001193 -0.003820 0.018192 0.000000 0.000000 0.000000
# 4 0.000000 0.000000 0.000000 0.022730 0.000000 0.000000
# 5 0.000000 0.000000 0.000000 0.000000 0.031007 0.000000
# 6 0.000000 0.000000 0.000000 0.000000 0.000000 0.055417
#
#
# Mechanical properties :
#
#
# Convention : Reuss Voigt Hill
#
# Bulk Modulus (GPa) = 36.05515 50.44880 43.25198
# Shear Modulus (GPa) = 25.75360 30.53481 28.14420
#
# Velocity S-wave (km/s) = 3.62826 3.95072 3.79292
# Velocity P-wave (km/s) = 5.99853 6.82630 6.42576
#
# Compressibility (1/GPa) = 0.02773529
#
# Stress axis : x y z
#
# Youngs Moduli (GPa) = 41.95404 102.94285 54.96923
#
# Poissons Ratio (x) = 0.71953 0.06560
# Poissons Ratio (y) = 0.29324 0.20999
# Poissons Ratio (z) = 0.05007 0.39326
#
# Static dielectric constant tensor:
#      x y z
#    x 1.693700 0.000000 0.000000 
#    y 0.000000 1.707960 0.000000 
#    z 0.000000 0.000000 1.646090 
# 
# From -- ./inp_files/9582.got.cif
#   From: 2010.05.17/outbox.cif.g08.bks.cpg/sg51_5_cif.got.tgz:9582.got - 2010.06.03 11:52:47.
