data_PCOD9406643
_publ_section_title
;
Structure prediction by ZEFSAII (Michael W. Deem and Ramdas Pophale) SiO2 
 PCOD9406643
Probable space group: P M M A
;
_chemical_formula_sum "Si O2"
_cell_formula_units_Z 40
_cell_length_a 19.260686
_cell_length_b 7.424638
_cell_length_c 11.170545
_cell_angle_alpha 90.000000
_cell_angle_beta 90.000000
_cell_angle_gamma 90.000000
_cell_volume 1597.428386
_symmetry_space_group_name_H-M "P M M A"
_symmetry_group_IT_number 51
_symmetry_cell_setting 'orthorhombic'
loop_
_space_group_symop_operation_xyz
x,y,z
1/2-x,-y,z
1/2+x,-y,-z
-x,y,-z
-x,-y,-z
1/2+x,y,-z
1/2-x,y,z
x,-y,z
loop_
_atom_site_type_symbol
_atom_site_label
_atom_site_fract_x
_atom_site_fract_y
_atom_site_fract_z
Si Si1 0.832548 0.285553 0.251806
Si Si2 0.463084 0.778892 0.121626
Si Si3 0.327345 0.790147 0.012547
Si Si4 0.830243 0.281837 0.516637
Si Si5 0.971231 0.791332 0.622128
O O1 0.750000 0.244595 0.251654
O O2 0.840662 0.500000 0.249201
O O3 0.857198 0.216568 0.123512
O O4 0.855162 0.221466 0.383057
O O5 0.492018 0.714874 0.248943
O O6 0.464481 0.000000 0.124041
O O7 0.500000 0.721936 0.000000
O O8 0.383809 0.716419 0.103175
O O9 0.250000 0.709600 0.014521
O O10 0.320646 0.000000 0.040766
O O11 0.750000 0.225449 0.535866
O O12 0.830069 0.500000 0.516543
O O13 0.887680 0.216950 0.609231
O O14 0.000000 0.706271 0.500000
O O15 0.992669 0.000000 0.622734
#
# Coordination Sequence:
#
# PCOD9406643 Si02
#       5
#     8   8   8   8   8
#     4   8  15  29  49  75 107 139 169 209 265 320
#     4   9  19  35  53  74 108 147 174 213 275 328
#     4   9  17  29  50  78 102 131 176 221 263 317
#     4   9  19  36  57  81 111 147 184 225 279 335
#     4  10  22  37  56  84 113 144 187 233 274 324
#
# _framework density 25.040246
#
# number of rings (size 3 to 8) (size 9 to 14) (size 15 to 20)
#    0.000    3.000    0.000    1.200    2.800    2.400 
#    0.000    5.000    0.000    3.600    0.000    0.000 
#    0.000    0.000    0.000    0.000    0.000    0.000 
#
# Total GULP energy -223382.890335 kJ/mol
# GULP energy per Si atom -5584.572258 kJ/mol
# Density = 2.498325 g / cm^3
# Si number density = 25.040246 Si / 1000 Ang^3
#
#
#
# Elastic Constant Matrix: (Units=GPa)
#
#
# Indices 1 2 3 4 5 6 
#
# 1 84.8608 -8.8065 61.1618 0.0000 0.0000 0.0000
# 2 -8.8065 73.7354 5.7614 0.0000 0.0000 0.0000
# 3 61.1618 5.7614 188.5165 0.0000 0.0000 0.0000
# 4 0.0000 0.0000 0.0000 23.0343 0.0000 0.0000
# 5 0.0000 0.0000 0.0000 0.0000 43.9803 0.0000
# 6 0.0000 0.0000 0.0000 0.0000 0.0000 -22.6303
#
#
#
# Elastic Compliance Matrix: (Units=1/GPa)
#
#
# Indices 1 2 3 4 5 6 
#
# 1 0.015756 0.002287 -0.005182 0.000000 0.000000 0.000000
# 2 0.002287 0.013926 -0.001167 0.000000 0.000000 0.000000
# 3 -0.005182 -0.001167 0.007021 0.000000 0.000000 0.000000
# 4 0.000000 0.000000 0.000000 0.043414 0.000000 0.000000
# 5 0.000000 0.000000 0.000000 0.000000 0.022737 0.000000
# 6 0.000000 0.000000 0.000000 0.000000 0.000000 -0.044188
#
#
# Mechanical properties :
#
#
# Convention : Reuss Voigt Hill
#
# Bulk Modulus (GPa) = 34.99123 51.48292 43.23708
# Shear Modulus (GPa) = 65.51589 28.14325 46.82957
#
# Velocity S-wave (km/s) = 5.12065 3.35613 4.32924
# Velocity P-wave (km/s) = 6.99755 5.96849 6.50341
#
# Compressibility (1/GPa) = 0.02857859
#
# Stress axis : x y z
#
# Youngs Moduli (GPa) = 63.46827 71.80642 142.42189
#
# Poissons Ratio (x) = -0.16420 0.73799
# Poissons Ratio (y) = -0.14513 0.16628
# Poissons Ratio (z) = 0.32887 0.08383
#
# Static dielectric constant tensor:
#      x y z
#    x 2.016920 0.000000 0.000000 
#    y 0.000000 1.907560 0.000000 
#    z 0.000000 0.000000 1.985270 
# 
# From -- ./inp_files/9282.got.cif
#   From: 2010.05.17/outbox.cif.g08.bks.cpg/sg51_5_cif.got.tgz:9282.got - 2010.06.03 11:52:47.
