data_PCOD9406424
_publ_section_title
;
Structure prediction by ZEFSAII (Michael W. Deem and Ramdas Pophale) SiO2 
 PCOD9406424
Probable space group: P M M A
;
_chemical_formula_sum "Si O2"
_cell_formula_units_Z 48
_cell_length_a 8.551008
_cell_length_b 17.249501
_cell_length_c 16.352917
_cell_angle_alpha 90.000000
_cell_angle_beta 90.000000
_cell_angle_gamma 90.000000
_cell_volume 2412.065413
_symmetry_space_group_name_H-M "P M M A"
_symmetry_group_IT_number 51
_symmetry_cell_setting 'orthorhombic'
loop_
_space_group_symop_operation_xyz
x,y,z
1/2-x,-y,z
1/2+x,-y,-z
-x,y,-z
-x,-y,-z
1/2+x,y,-z
1/2-x,y,z
x,-y,z
loop_
_atom_site_type_symbol
_atom_site_label
_atom_site_fract_x
_atom_site_fract_y
_atom_site_fract_z
Si Si1 0.059365 0.589405 0.251023
Si Si2 0.937979 0.834626 0.337750
Si Si3 0.438398 0.000000 0.591671
Si Si4 0.935535 0.000000 0.091683
Si Si5 0.436827 0.160739 0.158585
Si Si6 0.561311 0.321129 0.913002
Si Si7 0.937811 0.317271 0.586605
O O1 0.250000 0.591275 0.250691
O O2 0.010123 0.500000 0.252156
O O3 0.008624 0.631321 0.167177
O O4 0.010667 0.633465 0.333855
O O5 0.750000 0.832607 0.333011
O O6 0.011435 0.817514 0.249753
O O7 0.997238 0.769317 0.399566
O O8 0.988301 0.920928 0.364168
O O9 0.500000 0.000000 0.500000
O O10 0.250000 0.000000 0.590531
O O11 0.992576 0.078146 0.135209
O O12 0.750000 0.000000 0.090408
O O13 0.000000 0.000000 0.000000
O O14 0.250000 0.155296 0.154754
O O15 0.487993 0.231556 0.100643
O O16 0.750000 0.323304 0.914135
O O17 0.500000 0.350073 0.000000
O O18 0.750000 0.315513 0.585090
O O19 0.000000 0.347852 0.500000
#
# Coordination Sequence:
#
# PCOD9406424 Si02
#       7
#     8   8   4   4   8   8   8
#     4   9  19  39  64  88 121 162 200 247 309 374
#     4  11  22  38  60  87 120 159 203 253 306 365
#     4  10  23  38  53  79 113 151 197 243 292 349
#     4  12  25  40  57  85 121 163 211 261 310 367
#     4  11  22  39  61  87 119 161 208 255 308 369
#     4  10  21  38  61  91 122 159 204 247 302 367
#     4  11  22  39  62  91 123 161 207 254 308 372
#
# _framework density 19.899958000000002
#
# number of rings (size 3 to 8) (size 9 to 14) (size 15 to 20)
#    0.000    1.500    1.667    3.750    0.000    6.667 
#    0.000    0.000    0.000    3.500    0.000    0.000 
#    0.000    0.000    0.000    0.000    0.000    0.000 
#
# Total GULP energy -268273.015227 kJ/mol
# GULP energy per Si atom -5589.021151 kJ/mol
# Density = 1.985466 g / cm^3
# Si number density = 19.899958 Si / 1000 Ang^3
#
#
#
# Elastic Constant Matrix: (Units=GPa)
#
#
# Indices 1 2 3 4 5 6 
#
# 1 41.3053 23.2884 16.6506 0.0000 0.0000 0.0000
# 2 23.2884 125.9445 56.4081 0.0000 0.0000 0.0000
# 3 16.6506 56.4081 148.4204 0.0000 0.0000 0.0000
# 4 0.0000 0.0000 0.0000 14.3266 0.0000 0.0000
# 5 0.0000 0.0000 0.0000 0.0000 37.4234 0.0000
# 6 0.0000 0.0000 0.0000 0.0000 0.0000 8.3387
#
#
#
# Elastic Compliance Matrix: (Units=1/GPa)
#
#
# Indices 1 2 3 4 5 6 
#
# 1 0.027259 -0.004424 -0.001377 0.000000 0.000000 0.000000
# 2 -0.004424 0.010287 -0.003413 0.000000 0.000000 0.000000
# 3 -0.001377 -0.003413 0.008189 0.000000 0.000000 0.000000
# 4 0.000000 0.000000 0.000000 0.069800 0.000000 0.000000
# 5 0.000000 0.000000 0.000000 0.000000 0.026721 0.000000
# 6 0.000000 0.000000 0.000000 0.000000 0.000000 0.119922
#
#
# Mechanical properties :
#
#
# Convention : Reuss Voigt Hill
#
# Bulk Modulus (GPa) = 36.62000 56.48493 46.55247
# Shear Modulus (GPa) = 17.25869 26.63930 21.94899
#
# Velocity S-wave (km/s) = 2.94814 3.66274 3.32470
# Velocity P-wave (km/s) = 5.48003 6.80688 6.17917
#
# Compressibility (1/GPa) = 0.02730748
#
# Stress axis : x y z
#
# Youngs Moduli (GPa) = 36.68489 97.21246 122.11057
#
# Poissons Ratio (x) = 0.43005 0.16812
# Poissons Ratio (y) = 0.16229 0.41679
# Poissons Ratio (z) = 0.05051 0.33181
#
# Static dielectric constant tensor:
#      x y z
#    x 1.680290 0.000000 0.000000 
#    y 0.000000 1.677180 0.000000 
#    z 0.000000 0.000000 1.697480 
# 
# From -- ./inp_files/21201.got.cif
#   From: 2010.05.17/outbox.cif.g08.bks.cpg/sg51_11_cif.got.tgz:21201.got - 2010.06.03 11:52:47.
