data_PCOD9406389
_publ_section_title
;
Structure prediction by ZEFSAII (Michael W. Deem and Ramdas Pophale) SiO2 
 PCOD9406389
Probable space group: P M M A
;
_chemical_formula_sum "Si O2"
_cell_formula_units_Z 48
_cell_length_a 9.363500
_cell_length_b 7.922369
_cell_length_c 32.381729
_cell_angle_alpha 90.000000
_cell_angle_beta 90.000000
_cell_angle_gamma 90.000000
_cell_volume 2402.112346
_symmetry_space_group_name_H-M "P M M A"
_symmetry_group_IT_number 51
_symmetry_cell_setting 'orthorhombic'
loop_
_space_group_symop_operation_xyz
x,y,z
1/2-x,-y,z
1/2+x,-y,-z
-x,y,-z
-x,-y,-z
1/2+x,y,-z
1/2-x,y,z
x,-y,z
loop_
_atom_site_type_symbol
_atom_site_label
_atom_site_fract_x
_atom_site_fract_y
_atom_site_fract_z
Si Si1 0.423951 0.303172 0.370222
Si Si2 0.088714 0.798482 0.961033
Si Si3 0.584990 0.295305 0.719885
Si Si4 0.911990 0.699747 0.881133
Si Si5 0.084098 0.706843 0.459664
Si Si6 0.587444 0.201055 0.199163
O O1 0.250000 0.300989 0.370794
O O2 0.467919 0.500000 0.369965
O O3 0.463797 0.231386 0.325459
O O4 0.469900 0.232175 0.414662
O O5 0.250000 0.729916 0.959097
O O6 0.004182 0.770776 0.918748
O O7 0.099972 0.000000 0.966833
O O8 0.000000 0.729569 0.000000
O O9 0.750000 0.241602 0.726904
O O10 0.586624 0.500000 0.718133
O O11 0.484951 0.242166 0.757167
O O12 0.750000 0.768349 0.880700
O O13 0.903880 0.500000 0.887358
O O14 0.990606 0.731290 0.837925
O O15 0.250000 0.752948 0.463588
O O16 0.078060 0.500000 0.458616
O O17 0.000000 0.763668 0.500000
O O18 0.750000 0.266752 0.196956
O O19 0.592573 0.000000 0.194526
#
# Coordination Sequence:
#
# PCOD9406389 Si02
#       6
#     8   8   8   8   8   8
#     4   7  11  21  37  57  83 116 152 191 237 287
#     4  10  21  38  61  88 117 150 186 221 259 303
#     4   9  17  31  52  75  97 125 165 209 251 299
#     4  11  24  40  59  84 111 140 177 219 261 305
#     4   8  12  18  29  47  75 112 150 186 226 275
#     4  11  24  39  54  75 104 136 169 207 255 310
#
# _framework density 19.982412
#
# number of rings (size 3 to 8) (size 9 to 14) (size 15 to 20)
#    0.000    2.667    0.000    4.500    0.000    8.333 
#    0.000    0.833    0.000    3.000    0.000    0.000 
#    0.000    0.667    0.000    1.500    0.000    4.333 
#
# Total GULP energy -267678.147890 kJ/mol
# GULP energy per Si atom -5576.628081 kJ/mol
# Density = 1.993693 g / cm^3
# Si number density = 19.982412 Si / 1000 Ang^3
#
#
#
# Elastic Constant Matrix: (Units=GPa)
#
#
# Indices 1 2 3 4 5 6 
#
# 1 131.7008 5.0318 86.4768 0.0000 0.0000 0.0000
# 2 5.0318 19.1307 -8.4850 0.0000 0.0000 0.0000
# 3 86.4768 -8.4850 175.7758 0.0000 0.0000 0.0000
# 4 0.0000 0.0000 0.0000 20.8535 0.0000 0.0000
# 5 0.0000 0.0000 0.0000 0.0000 26.0512 0.0000
# 6 0.0000 0.0000 0.0000 0.0000 0.0000 15.0872
#
#
#
# Elastic Compliance Matrix: (Units=1/GPa)
#
#
# Indices 1 2 3 4 5 6 
#
# 1 0.011816 -0.005811 -0.006094 0.000000 0.000000 0.000000
# 2 -0.005811 0.056273 0.005575 0.000000 0.000000 0.000000
# 3 -0.006094 0.005575 0.008956 0.000000 0.000000 0.000000
# 4 0.000000 0.000000 0.000000 0.047954 0.000000 0.000000
# 5 0.000000 0.000000 0.000000 0.000000 0.038386 0.000000
# 6 0.000000 0.000000 0.000000 0.000000 0.000000 0.066282
#
#
# Mechanical properties :
#
#
# Convention : Reuss Voigt Hill
#
# Bulk Modulus (GPa) = 15.53115 54.73939 35.13527
# Shear Modulus (GPa) = 18.95466 28.63729 23.79597
#
# Velocity S-wave (km/s) = 3.08322 3.78977 3.45461
# Velocity P-wave (km/s) = 4.52375 6.82664 5.79083
#
# Compressibility (1/GPa) = 0.06438672
#
# Stress axis : x y z
#
# Youngs Moduli (GPa) = 84.62943 17.77050 111.65522
#
# Poissons Ratio (x) = 0.10326 0.68040
# Poissons Ratio (y) = 0.49176 -0.62249
# Poissons Ratio (z) = 0.51571 -0.09907
#
# Static dielectric constant tensor:
#      x y z
#    x 1.693630 0.000000 0.000000 
#    y 0.000000 1.732440 0.000000 
#    z 0.000000 0.000000 1.713530 
# 
# From -- ./inp_files/37041.got.cif
#   From: 2010.05.17/outbox.cif.g08.bks.cpg/sg51_19_cif.got.tgz:37041.got - 2010.06.03 11:52:47.
