data_PCOD9406005
_publ_section_title
;
Structure prediction by ZEFSAII (Michael W. Deem and Ramdas Pophale) SiO2 
 PCOD9406005
Probable space group: P M M A
;
_chemical_formula_sum "Si O2"
_cell_formula_units_Z 48
_cell_length_a 9.654534
_cell_length_b 8.172174
_cell_length_c 31.903146
_cell_angle_alpha 90.000000
_cell_angle_beta 90.000000
_cell_angle_gamma 90.000000
_cell_volume 2517.111377
_symmetry_space_group_name_H-M "P M M A"
_symmetry_group_IT_number 51
_symmetry_cell_setting 'orthorhombic'
loop_
_space_group_symop_operation_xyz
x,y,z
1/2-x,-y,z
1/2+x,-y,-z
-x,y,-z
-x,-y,-z
1/2+x,y,-z
1/2-x,y,z
x,-y,z
loop_
_atom_site_type_symbol
_atom_site_label
_atom_site_fract_x
_atom_site_fract_y
_atom_site_fract_z
Si Si1 0.090330 0.200231 0.540162
Si Si2 0.091184 0.802730 0.381354
Si Si3 0.410476 0.300443 0.039034
Si Si4 0.091986 0.695448 0.288201
Si Si5 0.406884 0.804966 0.789343
Si Si6 0.409719 0.302414 0.132642
O O1 0.250000 0.253658 0.537924
O O2 0.000000 0.250690 0.500000
O O3 0.012368 0.254278 0.582435
O O4 0.091727 0.000000 0.540226
O O5 0.250000 0.745238 0.388389
O O6 0.049246 0.752347 0.334560
O O7 0.093707 0.000000 0.383075
O O8 0.250000 0.255496 0.033707
O O9 0.416774 0.500000 0.038802
O O10 0.453970 0.248324 0.085852
O O11 0.500000 0.240620 0.000000
O O12 0.250000 0.756662 0.280921
O O13 0.096231 0.500000 0.287926
O O14 0.990657 0.751282 0.251712
O O15 0.250000 0.738708 0.789534
O O16 0.490717 0.753275 0.830578
O O17 0.399982 0.000000 0.788921
O O18 0.250000 0.248763 0.139571
O O19 0.408070 0.500000 0.132627
#
# Coordination Sequence:
#
# PCOD9406005 Si02
#       6
#     8   8   8   8   8   8
#     4   9  16  26  43  69 100 132 166 205 247 290
#     4   9  17  30  49  73 101 132 165 202 246 295
#     4   8  14  25  43  70 102 132 163 201 244 291
#     4  10  21  37  57  79 102 131 168 208 252 306
#     4  11  24  38  52  74 103 133 168 211 256 302
#     4   9  18  33  53  77 104 134 170 210 251 299
#
# _framework density 19.069476999999999
#
# number of rings (size 3 to 8) (size 9 to 14) (size 15 to 20)
#    0.000    2.667    0.000    3.000    0.000    8.000 
#    0.000    3.333    0.000    1.000    0.000    0.000 
#    0.000    0.000    0.000    0.000    0.000    0.000 
#
# Total GULP energy -267795.498861 kJ/mol
# GULP energy per Si atom -5579.072893 kJ/mol
# Density = 1.902607 g / cm^3
# Si number density = 19.069477 Si / 1000 Ang^3
#
#
#
# Elastic Constant Matrix: (Units=GPa)
#
#
# Indices 1 2 3 4 5 6 
#
# 1 144.3291 14.1858 146.4587 0.0000 0.0000 0.0000
# 2 14.1858 11.1655 17.4063 0.0000 0.0000 0.0000
# 3 146.4587 17.4063 222.3796 0.0000 0.0000 0.0000
# 4 0.0000 0.0000 0.0000 21.8899 0.0000 0.0000
# 5 0.0000 0.0000 0.0000 0.0000 40.3842 0.0000
# 6 0.0000 0.0000 0.0000 0.0000 0.0000 9.8426
#
#
#
# Elastic Compliance Matrix: (Units=1/GPa)
#
#
# Indices 1 2 3 4 5 6 
#
# 1 0.021224 -0.005893 -0.013517 0.000000 0.000000 0.000000
# 2 -0.005893 0.103645 -0.004231 0.000000 0.000000 0.000000
# 3 -0.013517 -0.004231 0.013730 0.000000 0.000000 0.000000
# 4 0.000000 0.000000 0.000000 0.045683 0.000000 0.000000
# 5 0.000000 0.000000 0.000000 0.000000 0.024762 0.000000
# 6 0.000000 0.000000 0.000000 0.000000 0.000000 0.101599
#
#
# Mechanical properties :
#
#
# Convention : Reuss Voigt Hill
#
# Bulk Modulus (GPa) = 10.95092 81.55286 46.25189
# Shear Modulus (GPa) = 12.87445 27.74490 20.30968
#
# Velocity S-wave (km/s) = 2.60115 3.81850 3.26703
# Velocity P-wave (km/s) = 3.84401 7.89305 6.20793
#
# Compressibility (1/GPa) = 0.09131654
#
# Stress axis : x y z
#
# Youngs Moduli (GPa) = 47.11587 9.64830 72.83192
#
# Poissons Ratio (x) = 0.05686 0.98447
# Poissons Ratio (y) = 0.27768 0.30816
# Poissons Ratio (z) = 0.63686 0.04082
#
# Static dielectric constant tensor:
#      x y z
#    x 3.643410 0.000000 0.000000 
#    y 0.000000 1.682240 0.000000 
#    z 0.000000 0.000000 1.647050 
# 
# From -- ./inp_files/37027.got.cif
#   From: 2010.05.17/outbox.cif.g08.bks.cpg/sg51_19_cif.got.tgz:37027.got - 2010.06.03 11:52:47.
