data_PCOD9406003
_publ_section_title
;
Structure prediction by ZEFSAII (Michael W. Deem and Ramdas Pophale) SiO2 
 PCOD9406003
Probable space group: P M M A
;
_chemical_formula_sum "Si O2"
_cell_formula_units_Z 30
_cell_length_a 21.500742
_cell_length_b 11.942863
_cell_length_c 5.086988
_cell_angle_alpha 90.000000
_cell_angle_beta 90.000000
_cell_angle_gamma 90.000000
_cell_volume 1306.238895
_symmetry_space_group_name_H-M "P M M A"
_symmetry_group_IT_number 51
_symmetry_cell_setting 'orthorhombic'
loop_
_space_group_symop_operation_xyz
x,y,z
1/2-x,-y,z
1/2+x,-y,-z
-x,y,-z
-x,-y,-z
1/2+x,y,-z
1/2-x,y,z
x,-y,z
loop_
_atom_site_type_symbol
_atom_site_label
_atom_site_fract_x
_atom_site_fract_y
_atom_site_fract_z
Si Si1 0.104637 0.630807 0.602426
Si Si2 0.039765 0.839830 0.746436
Si Si3 0.345041 0.000000 0.757153
Si Si4 0.318481 0.633522 0.116128
Si Si5 0.250000 0.000000 0.257209
O O1 0.087778 0.500000 0.583885
O O2 0.050404 0.707201 0.712266
O O3 0.130627 0.675002 0.323704
O O4 0.159926 0.641610 0.816778
O O5 0.107556 0.894948 0.756829
O O6 0.000000 0.878519 0.500000
O O7 0.000000 0.865337 0.000000
O O8 0.303882 0.000000 0.493451
O O9 0.303899 0.000000 0.020899
O O10 0.250000 0.684445 0.156056
O O11 0.314320 0.500000 0.173122
#
# Coordination Sequence:
#
# PCOD9406003 Si02
#       5
#     8   8   4   8   2
#     4  10  21  37  56  90 129 168 216 261 315 375
#     4  12  25  43  68  96 131 175 223 266 311 380
#     4  11  24  49  72 103 126 169 210 270 330 391
#     4   9  17  33  55  81 120 167 216 260 310 377
#     4  10  24  48  76 100 138 154 208 272 344 396
#
# _framework density 22.966705000000001
#
# number of rings (size 3 to 8) (size 9 to 14) (size 15 to 20)
#    0.000    1.600    0.000    4.800    0.000    4.267 
#   14.400    0.000    0.000    0.000    0.000    0.000 
#    0.000    0.000    0.000    0.000    0.000    0.000 
#
# Total GULP energy -167263.120535 kJ/mol
# GULP energy per Si atom -5575.437351 kJ/mol
# Density = 2.291443 g / cm^3
# Si number density = 22.966705 Si / 1000 Ang^3
#
#
#
# Elastic Constant Matrix: (Units=GPa)
#
#
# Indices 1 2 3 4 5 6 
#
# 1 134.9808 34.0491 71.4513 0.0000 0.0000 0.0000
# 2 34.0491 78.1896 11.5480 0.0000 0.0000 0.0000
# 3 71.4513 11.5480 170.7950 0.0000 0.0000 0.0000
# 4 0.0000 0.0000 0.0000 15.1026 0.0000 0.0000
# 5 0.0000 0.0000 0.0000 0.0000 40.6977 0.0000
# 6 0.0000 0.0000 0.0000 0.0000 0.0000 10.1702
#
#
#
# Elastic Compliance Matrix: (Units=1/GPa)
#
#
# Indices 1 2 3 4 5 6 
#
# 1 0.010631 -0.004013 -0.004176 0.000000 0.000000 0.000000
# 2 -0.004013 0.014433 0.000703 0.000000 0.000000 0.000000
# 3 -0.004176 0.000703 0.007555 0.000000 0.000000 0.000000
# 4 0.000000 0.000000 0.000000 0.066214 0.000000 0.000000
# 5 0.000000 0.000000 0.000000 0.000000 0.024571 0.000000
# 6 0.000000 0.000000 0.000000 0.000000 0.000000 0.098326
#
#
# Mechanical properties :
#
#
# Convention : Reuss Voigt Hill
#
# Bulk Modulus (GPa) = 56.66816 68.67357 62.67086
# Shear Modulus (GPa) = 20.61130 30.98858 25.79994
#
# Velocity S-wave (km/s) = 2.99898 3.67724 3.35530
# Velocity P-wave (km/s) = 6.05966 6.92790 6.50827
#
# Compressibility (1/GPa) = 0.01764660
#
# Stress axis : x y z
#
# Youngs Moduli (GPa) = 94.06117 69.28536 132.37024
#
# Poissons Ratio (x) = 0.27803 0.55281
# Poissons Ratio (y) = 0.37745 -0.09304
# Poissons Ratio (z) = 0.39282 -0.04870
#
# Static dielectric constant tensor:
#      x y z
#    x 1.852330 0.000000 0.000000 
#    y 0.000000 1.949520 0.000000 
#    z 0.000000 0.000000 1.796420 
# 
# From -- ./inp_files/2296.got.cif
#   From: 2010.05.17/outbox.cif.g08.bks.cpg/sg51_2_cif.got.tgz:2296.got - 2010.06.03 11:52:47.
