data_PCOD9406951
_publ_section_title
;
Structure prediction by ZEFSAII (Michael W. Deem and Ramdas Pophale) SiO2 
 PCOD9406951
Probable space group: P M M A
;
_chemical_formula_sum "Si O2"
_cell_formula_units_Z 48
_cell_length_a 19.205874
_cell_length_b 13.976171
_cell_length_c 9.731067
_cell_angle_alpha 90.000000
_cell_angle_beta 90.000000
_cell_angle_gamma 90.000000
_cell_volume 2612.057565
_symmetry_space_group_name_H-M "P M M A"
_symmetry_group_IT_number 51
_symmetry_cell_setting 'orthorhombic'
loop_
_space_group_symop_operation_xyz
x,y,z
1/2-x,-y,z
1/2+x,-y,-z
-x,y,-z
-x,-y,-z
1/2+x,y,-z
1/2-x,y,z
x,-y,z
loop_
_atom_site_type_symbol
_atom_site_label
_atom_site_fract_x
_atom_site_fract_y
_atom_site_fract_z
Si Si1 0.396590 0.000000 0.120947
Si Si2 0.327501 0.710408 0.507331
Si Si3 0.997793 0.500000 0.733427
Si Si4 0.438739 0.000000 0.809460
Si Si5 0.615675 0.500000 0.489091
Si Si6 0.036693 0.701387 0.139289
Si Si7 0.544411 0.180593 0.365734
Si Si8 0.670371 0.202577 0.798857
O O1 0.477754 0.000000 0.163805
O O2 0.359964 0.904019 0.177449
O O3 0.399325 0.000000 0.954705
O O4 0.250000 0.727338 0.565150
O O5 0.340471 0.596868 0.495072
O O6 0.392421 0.751114 0.591575
O O7 0.330267 0.763608 0.359942
O O8 0.072019 0.500000 0.654332
O O9 0.941171 0.500000 0.610941
O O10 0.984162 0.593679 0.823921
O O11 0.424747 0.907599 0.717806
O O12 0.118256 0.723504 0.127361
O O13 0.008001 0.763650 0.265694
O O14 0.000000 0.733489 0.000000
O O15 0.500000 0.151248 0.500000
O O16 0.750000 0.206169 0.847023
#
# Coordination Sequence:
#
# PCOD9406951 Si02
#       8
#     4   8   4   4   4   8   8   8
#     4  11  21  42  61  92 124 169 213 257 317 375
#     4  11  23  39  63  94 129 167 209 262 320 377
#     4  11  21  36  66  96 124 160 215 266 313 371
#     4  11  23  36  67  94 122 164 218 266 306 371
#     4  11  19  38  66  94 122 166 214 263 318 374
#     4  12  23  40  64  94 129 167 212 262 315 381
#     4  12  21  40  63  96 128 164 214 264 315 370
#     4  11  23  40  63  92 125 168 211 256 315 375
#
# _framework density 18.376318000000001
#
# number of rings (size 3 to 8) (size 9 to 14) (size 15 to 20)
#    0.000    0.667    6.667    2.000    0.000    0.667 
#    0.000    5.833    0.000    0.000    0.000    0.000 
#    0.000    0.000    0.000    0.000    0.000    0.000 
#
# Total GULP energy -268103.457206 kJ/mol
# GULP energy per Si atom -5585.488692 kJ/mol
# Density = 1.833449 g / cm^3
# Si number density = 18.376318 Si / 1000 Ang^3
#
#
#
# Elastic Constant Matrix: (Units=GPa)
#
#
# Indices 1 2 3 4 5 6 
#
# 1 111.3714 18.8522 31.4224 0.0000 0.0000 0.0000
# 2 18.8522 113.8044 36.9180 0.0000 0.0000 0.0000
# 3 31.4224 36.9180 78.6554 0.0000 0.0000 0.0000
# 4 0.0000 0.0000 0.0000 24.3907 0.0000 0.0000
# 5 0.0000 0.0000 0.0000 0.0000 19.8270 0.0000
# 6 0.0000 0.0000 0.0000 0.0000 0.0000 -84.6730
#
#
#
# Elastic Compliance Matrix: (Units=1/GPa)
#
#
# Indices 1 2 3 4 5 6 
#
# 1 0.010137 -0.000431 -0.003847 0.000000 0.000000 0.000000
# 2 -0.000431 0.010384 -0.004701 0.000000 0.000000 0.000000
# 3 -0.003847 -0.004701 0.016457 0.000000 0.000000 0.000000
# 4 0.000000 0.000000 0.000000 0.040999 0.000000 0.000000
# 5 0.000000 0.000000 0.000000 0.000000 0.050436 0.000000
# 6 0.000000 0.000000 0.000000 0.000000 0.000000 -0.011810
#
#
# Mechanical properties :
#
#
# Convention : Reuss Voigt Hill
#
# Bulk Modulus (GPa) = 52.58101 53.13516 52.85809
# Shear Modulus (GPa) = 35.48530 6.35151 20.91841
#
# Velocity S-wave (km/s) = 4.39912 1.86115 3.37758
# Velocity P-wave (km/s) = 7.38096 5.79623 6.63607
#
# Compressibility (1/GPa) = 0.01901827
#
# Stress axis : x y z
#
# Youngs Moduli (GPa) = 98.64376 96.30599 60.76293
#
# Poissons Ratio (x) = 0.04153 0.23378
# Poissons Ratio (y) = 0.04254 0.28567
# Poissons Ratio (z) = 0.37953 0.45277
#
# Static dielectric constant tensor:
#      x y z
#    x 1.639720 0.000000 0.000000 
#    y 0.000000 1.644390 0.000000 
#    z 0.000000 0.000000 1.621160 
# 
# From -- ./inp_files/9743.got.cif
#   From: 2010.05.17/outbox.cif.g08.bks.cpg/sg51_5_cif.got.tgz:9743.got - 2010.06.03 11:52:47.
