data_PCOD9406406
_publ_section_title
;
Structure prediction by ZEFSAII (Michael W. Deem and Ramdas Pophale) SiO2 
 PCOD9406406
Probable space group: P M M A
;
_chemical_formula_sum "Si O2"
_cell_formula_units_Z 64
_cell_length_a 18.127282
_cell_length_b 9.062063
_cell_length_c 21.342171
_cell_angle_alpha 90.000000
_cell_angle_beta 90.000000
_cell_angle_gamma 90.000000
_cell_volume 3505.890627
_symmetry_space_group_name_H-M "P M M A"
_symmetry_group_IT_number 51
_symmetry_cell_setting 'orthorhombic'
loop_
_space_group_symop_operation_xyz
x,y,z
1/2-x,-y,z
1/2+x,-y,-z
-x,y,-z
-x,-y,-z
1/2+x,y,-z
1/2-x,y,z
x,-y,z
loop_
_atom_site_type_symbol
_atom_site_label
_atom_site_fract_x
_atom_site_fract_y
_atom_site_fract_z
Si Si1 0.835721 0.676755 0.690807
Si Si2 0.417665 0.176526 0.819172
Si Si3 0.838849 0.172859 0.932639
Si Si4 0.921946 0.322174 0.817558
Si Si5 0.160079 0.830004 0.436803
Si Si6 0.839752 0.671164 0.437590
Si Si7 0.661378 0.675573 0.297329
Si Si8 0.161075 0.327263 0.936621
O O1 0.750000 0.721590 0.700031
O O2 0.836969 0.500000 0.684289
O O3 0.882301 0.716144 0.751912
O O4 0.863577 0.746252 0.626008
O O5 0.498544 0.247374 0.819606
O O6 0.377234 0.231646 0.756323
O O7 0.374182 0.242069 0.878608
O O8 0.420416 0.000000 0.822033
O O9 0.750000 0.181053 0.927672
O O10 0.874702 0.258796 0.875002
O O11 0.859852 0.000000 0.932390
O O12 0.860185 0.249979 0.998062
O O13 0.927287 0.500000 0.821677
O O14 0.250000 0.820452 0.437699
O O15 0.133952 0.760698 0.502232
O O16 0.139396 0.000000 0.433045
O O17 0.750000 0.676833 0.437382
O O18 0.860226 0.500000 0.444980
O O19 0.862297 0.720005 0.367860
O O20 0.750000 0.691812 0.292817
O O21 0.645553 0.500000 0.289744
O O22 0.250000 0.320304 0.931515
O O23 0.139793 0.500000 0.936180
#
# Coordination Sequence:
#
# PCOD9406406 Si02
#       8
#     8   8   8   8   8   8   8   8
#     4   9  18  33  54  78 103 135 177 222 265 313
#     4  12  25  38  54  79 112 146 180 222 274 324
#     4  10  21  38  61  89 118 143 171 215 270 322
#     4  11  23  39  58  79 107 145 188 227 264 314
#     4   9  16  25  42  72 107 138 169 211 264 318
#     4   8  14  26  46  72 102 135 172 216 263 312
#     4   9  18  34  56  80 106 140 182 224 267 319
#     4  10  21  39  63  87 111 142 181 221 260 311
#
# _framework density 18.254989999999999
#
# number of rings (size 3 to 8) (size 9 to 14) (size 15 to 20)
#    0.000    2.250    0.000    4.125    0.000    7.250 
#    0.000    5.000    0.000    0.750    0.000    5.250 
#    0.000    0.000    0.000    0.000    0.000    0.000 
#
# Total GULP energy -357223.138874 kJ/mol
# GULP energy per Si atom -5581.611545 kJ/mol
# Density = 1.821344 g / cm^3
# Si number density = 18.254990 Si / 1000 Ang^3
#
#
#
# Elastic Constant Matrix: (Units=GPa)
#
#
# Indices 1 2 3 4 5 6 
#
# 1 25.5466 39.1414 47.7148 0.0000 0.0000 0.0000
# 2 39.1414 111.8743 95.9357 0.0000 0.0000 0.0000
# 3 47.7148 95.9357 199.5741 0.0000 0.0000 0.0000
# 4 0.0000 0.0000 0.0000 -37.6803 0.0000 0.0000
# 5 0.0000 0.0000 0.0000 0.0000 -12.8990 0.0000
# 6 0.0000 0.0000 0.0000 0.0000 0.0000 21.9099
#
#
#
# Elastic Compliance Matrix: (Units=1/GPa)
#
#
# Indices 1 2 3 4 5 6 
#
# 1 0.098566 -0.024290 -0.011889 0.000000 0.000000 0.000000
# 2 -0.024290 0.021193 -0.004380 0.000000 0.000000 0.000000
# 3 -0.011889 -0.004380 0.009959 0.000000 0.000000 0.000000
# 4 0.000000 0.000000 0.000000 -0.026539 0.000000 0.000000
# 5 0.000000 0.000000 0.000000 0.000000 -0.077525 0.000000
# 6 0.000000 0.000000 0.000000 0.000000 0.000000 0.045641
#
#
# Mechanical properties :
#
#
# Convention : Reuss Voigt Hill
#
# Bulk Modulus (GPa) = 20.57643 78.06431 49.32037
# Shear Modulus (GPa) = 29.65350 4.54634 17.09992
#
# Velocity S-wave (km/s) = 4.03476 1.57983 3.06392
# Velocity P-wave (km/s) = 5.74473 6.79588 6.29229
#
# Compressibility (1/GPa) = 0.04859931
#
# Stress axis : x y z
#
# Youngs Moduli (GPa) = 10.14544 47.18512 100.41357
#
# Poissons Ratio (x) = 1.14612 1.19385
# Poissons Ratio (y) = 0.24643 0.43984
# Poissons Ratio (z) = 0.12062 0.20668
#
# Static dielectric constant tensor:
#      x y z
#    x 1.613770 0.000000 0.000000 
#    y 0.000000 1.606470 0.000000 
#    z 0.000000 0.000000 1.614250 
# 
# From -- ./inp_files/33802.got.cif
#   From: 2010.05.17/outbox.cif.g08.bks.cpg/sg51_17_cif.got.tgz:33802.got - 2010.06.03 11:52:47.
