data_PCOD9406446
_publ_section_title
;
Structure prediction by ZEFSAII (Michael W. Deem and Ramdas Pophale) SiO2 
 PCOD9406446
Probable space group: P M M A
;
_chemical_formula_sum "Si O2"
_cell_formula_units_Z 40
_cell_length_a 8.648920
_cell_length_b 12.136711
_cell_length_c 20.885583
_cell_angle_alpha 90.000000
_cell_angle_beta 90.000000
_cell_angle_gamma 90.000000
_cell_volume 2192.348004
_symmetry_space_group_name_H-M "P M M A"
_symmetry_group_IT_number 51
_symmetry_cell_setting 'orthorhombic'
loop_
_space_group_symop_operation_xyz
x,y,z
1/2-x,-y,z
1/2+x,-y,-z
-x,y,-z
-x,-y,-z
1/2+x,y,-z
1/2-x,y,z
x,-y,z
loop_
_atom_site_type_symbol
_atom_site_label
_atom_site_fract_x
_atom_site_fract_y
_atom_site_fract_z
Si Si1 0.063347 0.872429 0.187585
Si Si2 0.435273 0.127893 0.570276
Si Si3 0.064533 0.735652 0.930492
Si Si4 0.062218 0.500000 0.876663
Si Si5 0.935719 0.500000 0.272478
Si Si6 0.564443 0.732614 0.687308
O O1 0.250000 0.867988 0.183430
O O2 0.015942 0.802681 0.249957
O O3 0.993479 0.817364 0.124501
O O4 0.017486 0.000000 0.193967
O O5 0.500000 0.155162 0.500000
O O6 0.250000 0.135391 0.569608
O O7 0.503268 0.206081 0.624577
O O8 0.478349 0.000000 0.583741
O O9 0.250000 0.736375 0.931960
O O10 0.010995 0.611945 0.911151
O O11 0.000000 0.764703 0.000000
O O12 0.250000 0.500000 0.877148
O O13 0.013853 0.500000 0.802336
O O14 0.750000 0.500000 0.273862
O O15 0.998525 0.389756 0.305058
O O16 0.750000 0.729033 0.685865
#
# Coordination Sequence:
#
# PCOD9406446 Si02
#       6
#     8   8   8   4   4   8
#     4  10  22  39  58  82 113 150 192 238 288 344
#     4  10  21  38  62  92 125 162 201 241 288 341
#     4  11  22  38  58  83 112 147 189 238 293 349
#     4   9  19  36  58  83 112 144 185 236 288 343
#     4  11  21  38  61  87 119 153 194 243 292 349
#     4  11  22  38  61  90 121 155 196 243 294 348
#
# _framework density 18.245277999999999
#
# number of rings (size 3 to 8) (size 9 to 14) (size 15 to 20)
#    0.000    1.600    2.000    3.000    0.000    3.600 
#    0.000    2.000    0.000    0.000    0.000    0.000 
#    0.000    0.000    0.000    0.000    0.000    0.000 
#
# Total GULP energy -223567.470586 kJ/mol
# GULP energy per Si atom -5589.186765 kJ/mol
# Density = 1.820375 g / cm^3
# Si number density = 18.245278 Si / 1000 Ang^3
#
#
#
# Elastic Constant Matrix: (Units=GPa)
#
#
# Indices 1 2 3 4 5 6 
#
# 1 47.1624 50.4759 50.6241 0.0000 0.0000 0.0000
# 2 50.4759 168.0149 106.7383 0.0000 0.0000 0.0000
# 3 50.6241 106.7383 174.9169 0.0000 0.0000 0.0000
# 4 0.0000 0.0000 0.0000 40.6160 0.0000 0.0000
# 5 0.0000 0.0000 0.0000 0.0000 27.2214 0.0000
# 6 0.0000 0.0000 0.0000 0.0000 0.0000 17.7029
#
#
#
# Elastic Compliance Matrix: (Units=1/GPa)
#
#
# Indices 1 2 3 4 5 6 
#
# 1 0.034743 -0.006613 -0.006019 0.000000 0.000000 0.000000
# 2 -0.006613 0.010979 -0.004786 0.000000 0.000000 0.000000
# 3 -0.006019 -0.004786 0.010379 0.000000 0.000000 0.000000
# 4 0.000000 0.000000 0.000000 0.024621 0.000000 0.000000
# 5 0.000000 0.000000 0.000000 0.000000 0.036736 0.000000
# 6 0.000000 0.000000 0.000000 0.000000 0.000000 0.056488
#
#
# Mechanical properties :
#
#
# Convention : Reuss Voigt Hill
#
# Bulk Modulus (GPa) = 47.02763 89.53008 68.27886
# Shear Modulus (GPa) = 23.16201 29.25846 26.21023
#
# Velocity S-wave (km/s) = 3.56684 4.00886 3.79430
# Velocity P-wave (km/s) = 6.54174 8.40267 7.52991
#
# Compressibility (1/GPa) = 0.02126410
#
# Stress axis : x y z
#
# Youngs Moduli (GPa) = 28.78297 91.08381 96.34487
#
# Poissons Ratio (x) = 0.60238 0.57995
# Poissons Ratio (y) = 0.19036 0.46106
# Poissons Ratio (z) = 0.17326 0.43588
#
# Static dielectric constant tensor:
#      x y z
#    x 1.609560 0.000000 0.000000 
#    y 0.000000 1.608410 0.000000 
#    z 0.000000 0.000000 1.589300 
# 
# From -- ./inp_files/31448.got.cif
#   From: 2010.05.17/outbox.cif.g08.bks.cpg/sg51_16_cif.got.tgz:31448.got - 2010.06.03 11:52:47.
