data_PCOD9406761
_publ_section_title
;
Structure prediction by ZEFSAII (Michael W. Deem and Ramdas Pophale) SiO2 
 PCOD9406761
Probable space group: P M M A
;
_chemical_formula_sum "Si O2"
_cell_formula_units_Z 48
_cell_length_a 17.819525
_cell_length_b 7.576860
_cell_length_c 15.879756
_cell_angle_alpha 90.000000
_cell_angle_beta 90.000000
_cell_angle_gamma 90.000000
_cell_volume 2144.021870
_symmetry_space_group_name_H-M "P M M A"
_symmetry_group_IT_number 51
_symmetry_cell_setting 'orthorhombic'
loop_
_space_group_symop_operation_xyz
x,y,z
1/2-x,-y,z
1/2+x,-y,-z
-x,y,-z
-x,-y,-z
1/2+x,y,-z
1/2-x,y,z
x,-y,z
loop_
_atom_site_type_symbol
_atom_site_label
_atom_site_fract_x
_atom_site_fract_y
_atom_site_fract_z
Si Si1 0.331330 0.295137 0.995594
Si Si2 0.658678 0.206746 0.539589
Si Si3 0.162435 0.215003 0.275543
Si Si4 0.661926 0.215285 0.357631
Si Si5 0.052648 0.297058 0.125315
Si Si6 0.609804 0.798862 0.179377
O O1 0.250000 0.215938 0.016442
O O2 0.329126 0.500000 0.021936
O O3 0.402305 0.219345 0.045673
O O4 0.345053 0.289427 0.896226
O O5 0.750000 0.212999 0.538199
O O6 0.637100 0.277622 0.631234
O O7 0.634029 0.280742 0.449113
O O8 0.637373 0.000000 0.540712
O O9 0.250000 0.262014 0.263719
O O10 0.111092 0.287914 0.202052
O O11 0.158361 0.000000 0.274093
O O12 0.750000 0.259139 0.349259
O O13 0.620962 0.275699 0.273041
O O14 0.656908 0.000000 0.361606
O O15 0.030819 0.500000 0.107038
O O16 0.976805 0.204649 0.153203
O O17 0.637349 0.000000 0.181994
#
# Coordination Sequence:
#
# PCOD9406761 Si02
#       6
#     8   8   8   8   8   8
#     4  10  22  40  59  77  99 132 173 212 255 314
#     4   7  11  23  46  75 104 132 164 207 258 307
#     4   9  17  31  54  82 106 130 169 221 266 301
#     4   8  14  27  49  77 106 134 167 209 258 312
#     4  11  23  38  54  73 104 146 181 208 250 311
#     4  11  22  35  54  81 109 136 170 216 265 305
#
# _framework density 22.387832
#
# number of rings (size 3 to 8) (size 9 to 14) (size 15 to 20)
#    0.000    2.667    0.000    4.500    0.000    5.333 
#    0.000    0.833    0.000    7.000    0.000    4.667 
#    0.000    0.000    0.000    0.000    0.000    0.000 
#
# Total GULP energy -267844.453232 kJ/mol
# GULP energy per Si atom -5580.092776 kJ/mol
# Density = 2.233688 g / cm^3
# Si number density = 22.387832 Si / 1000 Ang^3
#
#
#
# Elastic Constant Matrix: (Units=GPa)
#
#
# Indices 1 2 3 4 5 6 
#
# 1 41.7410 -5.2440 14.6215 0.0000 0.0000 0.0000
# 2 -5.2440 52.5584 -3.5987 0.0000 0.0000 0.0000
# 3 14.6215 -3.5987 126.5097 0.0000 0.0000 0.0000
# 4 0.0000 0.0000 0.0000 27.4508 0.0000 0.0000
# 5 0.0000 0.0000 0.0000 0.0000 -25.4185 0.0000
# 6 0.0000 0.0000 0.0000 0.0000 0.0000 19.5349
#
#
#
# Elastic Compliance Matrix: (Units=1/GPa)
#
#
# Indices 1 2 3 4 5 6 
#
# 1 0.025248 0.002324 -0.002852 0.000000 0.000000 0.000000
# 2 0.002324 0.019277 0.000280 0.000000 0.000000 0.000000
# 3 -0.002852 0.000280 0.008242 0.000000 0.000000 0.000000
# 4 0.000000 0.000000 0.000000 0.036429 0.000000 0.000000
# 5 0.000000 0.000000 0.000000 0.000000 -0.039341 0.000000
# 6 0.000000 0.000000 0.000000 0.000000 0.000000 0.051190
#
#
# Mechanical properties :
#
#
# Convention : Reuss Voigt Hill
#
# Bulk Modulus (GPa) = 19.13100 25.81852 22.47476
# Shear Modulus (GPa) = 42.02882 18.64880 30.33881
#
# Velocity S-wave (km/s) = 4.33749 2.88928 3.68523
# Velocity P-wave (km/s) = 5.80077 4.76320 5.30740
#
# Compressibility (1/GPa) = 0.05227118
#
# Stress axis : x y z
#
# Youngs Moduli (GPa) = 39.60671 51.87399 121.32816
#
# Poissons Ratio (x) = -0.12055 0.34603
# Poissons Ratio (y) = -0.09204 -0.03394
# Poissons Ratio (z) = 0.11296 -0.01451
#
# Static dielectric constant tensor:
#      x y z
#    x 1.799990 0.000000 0.000000 
#    y 0.000000 1.847120 0.000000 
#    z 0.000000 0.000000 1.861720 
# 
# From -- ./inp_files/24674.got.cif
#   From: 2010.05.17/outbox.cif.g08.bks.cpg/sg51_13_cif.got.tgz:24674.got - 2010.06.03 11:52:47.
