data_PCOD9406362
_publ_section_title
;
Structure prediction by ZEFSAII (Michael W. Deem and Ramdas Pophale) SiO2 
 PCOD9406362
Probable space group: P M M A
;
_chemical_formula_sum "Si O2"
_cell_formula_units_Z 56
_cell_length_a 15.423393
_cell_length_b 18.890702
_cell_length_c 9.996885
_cell_angle_alpha 90.000000
_cell_angle_beta 90.000000
_cell_angle_gamma 90.000000
_cell_volume 2912.679628
_symmetry_space_group_name_H-M "P M M A"
_symmetry_group_IT_number 51
_symmetry_cell_setting 'orthorhombic'
loop_
_space_group_symop_operation_xyz
x,y,z
1/2-x,-y,z
1/2+x,-y,-z
-x,y,-z
-x,-y,-z
1/2+x,y,-z
1/2-x,y,z
x,-y,z
loop_
_atom_site_type_symbol
_atom_site_label
_atom_site_fract_x
_atom_site_fract_y
_atom_site_fract_z
Si Si1 0.094102 0.077272 0.428577
Si Si2 0.101867 0.227945 0.026877
Si Si3 0.494815 0.416547 0.661190
Si Si4 0.651733 0.312104 0.231637
Si Si5 0.151915 0.321760 0.277304
Si Si6 0.604572 0.225489 0.479600
Si Si7 0.851809 0.079710 0.868822
O O1 0.137369 0.147286 0.486321
O O2 0.092402 0.087183 0.267692
O O3 0.000000 0.075204 0.500000
O O4 0.134948 0.000000 0.451461
O O5 0.124715 0.263499 0.168231
O O6 0.130659 0.145933 0.034722
O O7 0.143111 0.278305 0.914683
O O8 0.000000 0.229117 0.000000
O O9 0.500000 0.404435 0.500000
O O10 0.485794 0.500000 0.683121
O O11 0.416609 0.372964 0.728901
O O12 0.583151 0.384945 0.721686
O O13 0.750000 0.336310 0.254081
O O14 0.628167 0.248427 0.331831
O O15 0.250000 0.345043 0.253628
O O16 0.144403 0.282195 0.419163
O O17 0.500000 0.227394 0.500000
O O18 0.750000 0.083039 0.830076
O O19 0.867761 0.000000 0.923017
#
# Coordination Sequence:
#
# PCOD9406362 Si02
#       7
#     8   8   8   8   8   8   8
#     4   9  19  33  56  88 122 161 209 260 313 365
#     4  12  24  41  65  91 126 169 216 263 314 376
#     4  11  24  44  68  99 132 162 203 255 313 378
#     4  12  24  41  63  95 129 165 208 257 319 375
#     4  12  22  40  67  96 125 164 214 256 304 373
#     4  11  19  36  62  89 126 164 210 261 311 366
#     4  10  21  38  60  89 124 166 218 269 316 375
#
# _framework density 19.226282999999999
#
# number of rings (size 3 to 8) (size 9 to 14) (size 15 to 20)
#    0.000    1.000    5.714    1.714    2.000    1.429 
#    0.000    3.571    0.000    2.571    0.000    0.000 
#    0.000    0.000    0.000    0.000    0.000    0.000 
#
# Total GULP energy -312642.332820 kJ/mol
# GULP energy per Si atom -5582.898800 kJ/mol
# Density = 1.918252 g / cm^3
# Si number density = 19.226283 Si / 1000 Ang^3
#
#
#
# Elastic Constant Matrix: (Units=GPa)
#
#
# Indices 1 2 3 4 5 6 
#
# 1 135.7595 37.8989 7.9193 0.0000 0.0000 0.0000
# 2 37.8989 148.0068 11.3961 0.0000 0.0000 0.0000
# 3 7.9193 11.3961 28.0108 0.0000 0.0000 0.0000
# 4 0.0000 0.0000 0.0000 24.0754 0.0000 0.0000
# 5 0.0000 0.0000 0.0000 0.0000 17.2951 0.0000
# 6 0.0000 0.0000 0.0000 0.0000 0.0000 0.0629
#
#
#
# Elastic Compliance Matrix: (Units=1/GPa)
#
#
# Indices 1 2 3 4 5 6 
#
# 1 0.007991 -0.001933 -0.001473 0.000000 0.000000 0.000000
# 2 -0.001933 0.007442 -0.002481 0.000000 0.000000 0.000000
# 3 -0.001473 -0.002481 0.037127 0.000000 0.000000 0.000000
# 4 0.000000 0.000000 0.000000 0.041536 0.000000 0.000000
# 5 0.000000 0.000000 0.000000 0.000000 0.057820 0.000000
# 6 0.000000 0.000000 0.000000 0.000000 0.000000 15.889975
#
#
# Mechanical properties :
#
#
# Convention : Reuss Voigt Hill
#
# Bulk Modulus (GPa) = 24.51836 47.35620 35.93728
# Shear Modulus (GPa) = 0.31119 25.25754 12.78436
#
# Velocity S-wave (km/s) = 0.40275 3.62843 2.58144
# Velocity P-wave (km/s) = 3.60506 6.49911 5.25523
#
# Compressibility (1/GPa) = 0.04078576
#
# Stress axis : x y z
#
# Youngs Moduli (GPa) = 125.13325 134.36430 26.93493
#
# Poissons Ratio (x) = 0.25971 0.03967
# Poissons Ratio (y) = 0.24187 0.06684
# Poissons Ratio (z) = 0.18432 0.33342
#
# Static dielectric constant tensor:
#      x y z
#    x 1.696860 0.000000 0.000000 
#    y 0.000000 1.671890 0.000000 
#    z 0.000000 0.000000 1.654770 
# 
# From -- ./inp_files/8543.got.cif
#   From: 2010.05.17/outbox.cif.g08.bks.cpg/sg51_5_cif.got.tgz:8543.got - 2010.06.03 11:52:47.
