data_PCOD9406853
_publ_section_title
;
Structure prediction by ZEFSAII (Michael W. Deem and Ramdas Pophale) SiO2 
 PCOD9406853
Probable space group: P M M A
;
_chemical_formula_sum "Si O2"
_cell_formula_units_Z 38
_cell_length_a 8.867202
_cell_length_b 16.873392
_cell_length_c 12.308553
_cell_angle_alpha 90.000000
_cell_angle_beta 90.000000
_cell_angle_gamma 90.000000
_cell_volume 1841.602934
_symmetry_space_group_name_H-M "P M M A"
_symmetry_group_IT_number 51
_symmetry_cell_setting 'orthorhombic'
loop_
_space_group_symop_operation_xyz
x,y,z
1/2-x,-y,z
1/2+x,-y,-z
-x,y,-z
-x,-y,-z
1/2+x,y,-z
1/2-x,y,z
x,-y,z
loop_
_atom_site_type_symbol
_atom_site_label
_atom_site_fract_x
_atom_site_fract_y
_atom_site_fract_z
Si Si1 0.572700 0.655209 0.603493
Si Si2 0.568763 0.500000 0.313953
Si Si3 0.250000 0.500000 0.179119
Si Si4 0.250000 0.591590 0.970280
Si Si5 0.500000 0.710647 0.000000
Si Si6 0.071094 0.091687 0.615878
Si Si7 0.579391 0.790574 0.777790
O O1 0.500000 0.698178 0.500000
O O2 0.750000 0.634664 0.589005
O O3 0.467247 0.579150 0.620026
O O4 0.562715 0.710261 0.708308
O O5 0.750000 0.500000 0.286757
O O6 0.416702 0.500000 0.234374
O O7 0.250000 0.576791 0.100489
O O8 0.250000 0.500000 0.932001
O O9 0.388156 0.647468 0.943273
O O10 0.443510 0.766421 0.097013
O O11 0.250000 0.095177 0.603494
O O12 0.000000 0.116103 0.500000
O O13 0.024280 0.145550 0.717920
O O14 0.025554 0.000000 0.634818
O O15 0.750000 0.819234 0.763754
#
# Coordination Sequence:
#
# PCOD9406853 Si02
#       7
#     8   4   2   4   4   8   8
#     4  11  23  42  61  91 134 171 224 286 344 417
#     4  12  23  39  65  93 126 179 226 278 359 422
#     4  10  22  46  62  90 128 162 228 304 332 410
#     4  10  24  44  66  89 129 176 234 298 347 391
#     4  12  23  46  65  98 134 180 236 288 353 407
#     4  10  22  42  72 108 142 177 221 274 335 413
#     4  11  25  43  66  96 136 182 223 284 345 404
#
# _framework density 20.634198000000001
#
# number of rings (size 3 to 8) (size 9 to 14) (size 15 to 20)
#    0.316    0.842    2.105    3.789    1.474    4.632 
#    7.579    0.526    0.000    0.000    0.000    0.000 
#    0.000    0.000    0.000    0.000    0.000    0.000 
#
# Total GULP energy -211887.585490 kJ/mol
# GULP energy per Si atom -5575.989092 kJ/mol
# Density = 2.058723 g / cm^3
# Si number density = 20.634198 Si / 1000 Ang^3
#
#
#
# Elastic Constant Matrix: (Units=GPa)
#
#
# Indices 1 2 3 4 5 6 
#
# 1 110.9966 39.4473 34.2167 0.0000 0.0000 0.0000
# 2 39.4473 95.3895 26.5697 0.0000 0.0000 0.0000
# 3 34.2167 26.5697 106.7704 0.0000 0.0000 0.0000
# 4 0.0000 0.0000 0.0000 8.0332 0.0000 0.0000
# 5 0.0000 0.0000 0.0000 0.0000 30.2538 0.0000
# 6 0.0000 0.0000 0.0000 0.0000 0.0000 53.6838
#
#
#
# Elastic Compliance Matrix: (Units=1/GPa)
#
#
# Indices 1 2 3 4 5 6 
#
# 1 0.011204 -0.003904 -0.002619 0.000000 0.000000 0.000000
# 2 -0.003904 0.012624 -0.001890 0.000000 0.000000 0.000000
# 3 -0.002619 -0.001890 0.010676 0.000000 0.000000 0.000000
# 4 0.000000 0.000000 0.000000 0.124484 0.000000 0.000000
# 5 0.000000 0.000000 0.000000 0.000000 0.033054 0.000000
# 6 0.000000 0.000000 0.000000 0.000000 0.000000 0.018628
#
#
# Mechanical properties :
#
#
# Convention : Reuss Voigt Hill
#
# Bulk Modulus (GPa) = 56.56994 57.06932 56.81963
# Shear Modulus (GPa) = 21.42355 32.58903 27.00629
#
# Velocity S-wave (km/s) = 3.22569 3.97844 3.62168
# Velocity P-wave (km/s) = 6.43029 6.98725 6.71455
#
# Compressibility (1/GPa) = 0.01767723
#
# Stress axis : x y z
#
# Youngs Moduli (GPa) = 89.25344 79.21245 93.67088
#
# Poissons Ratio (x) = 0.30923 0.24533
# Poissons Ratio (y) = 0.34843 0.17708
# Poissons Ratio (z) = 0.23376 0.14975
#
# Static dielectric constant tensor:
#      x y z
#    x 1.700950 0.000000 0.000000 
#    y 0.000000 1.735030 0.000000 
#    z 0.000000 0.000000 1.747020 
# 
# From -- ./inp_files/14092.got.cif
#   From: 2010.05.17/outbox.cif.g08.bks.cpg/sg51_8_cif.got.tgz:14092.got - 2010.06.03 11:52:47.
