data_PCOD9406721
_publ_section_title
;
Structure prediction by ZEFSAII (Michael W. Deem and Ramdas Pophale) SiO2 
 PCOD9406721
Probable space group: P M M A
;
_chemical_formula_sum "Si O2"
_cell_formula_units_Z 48
_cell_length_a 19.439716
_cell_length_b 14.051049
_cell_length_c 10.048149
_cell_angle_alpha 90.000000
_cell_angle_beta 90.000000
_cell_angle_gamma 90.000000
_cell_volume 2744.635843
_symmetry_space_group_name_H-M "P M M A"
_symmetry_group_IT_number 51
_symmetry_cell_setting 'orthorhombic'
loop_
_space_group_symop_operation_xyz
x,y,z
1/2-x,-y,z
1/2+x,-y,-z
-x,y,-z
-x,-y,-z
1/2+x,y,-z
1/2-x,y,z
x,-y,z
loop_
_atom_site_type_symbol
_atom_site_label
_atom_site_fract_x
_atom_site_fract_y
_atom_site_fract_z
Si Si1 0.057522 0.609542 0.691925
Si Si2 0.828117 0.205012 0.705307
Si Si3 0.897494 0.390488 0.605260
Si Si4 0.035780 0.112740 0.363819
Si Si5 0.828390 0.112204 0.995311
Si Si6 0.952709 0.215706 0.129662
O O1 0.071628 0.500000 0.729337
O O2 0.096796 0.629483 0.553075
O O3 0.072192 0.685635 0.805576
O O4 0.975887 0.616331 0.658776
O O5 0.750000 0.190158 0.660891
O O6 0.851337 0.313292 0.679432
O O7 0.884730 0.141636 0.631430
O O8 0.832459 0.172293 0.858864
O O9 0.875091 0.500000 0.622762
O O10 0.000000 0.144493 0.500000
O O11 0.999424 0.163872 0.240214
O O12 0.028279 0.000000 0.349595
O O13 0.750000 0.121895 0.047060
O O14 0.839594 0.000000 0.965977
O O15 0.887724 0.151103 0.090446
O O16 0.000000 0.231333 0.000000
#
# Coordination Sequence:
#
# PCOD9406721 Si02
#       6
#     8   8   8   8   8   8
#     4   9  18  33  57  84 114 148 187 238 289 335
#     4  11  21  35  57  84 114 150 191 237 287 343
#     4   9  17  34  57  82 113 150 189 232 284 344
#     4  11  23  38  57  84 116 149 193 247 292 340
#     4  10  22  39  57  81 116 156 196 239 289 342
#     4  12  21  34  60  87 114 150 197 244 280 343
#
# _framework density 17.488658000000001
#
# number of rings (size 3 to 8) (size 9 to 14) (size 15 to 20)
#    0.000    1.667    3.333    3.000    0.000    2.333 
#    0.000    4.167    0.000    3.500    0.000    0.000 
#    0.000    0.000    0.000    0.000    0.000    0.000 
#
# Total GULP energy -267904.899606 kJ/mol
# GULP energy per Si atom -5581.352075 kJ/mol
# Density = 1.744885 g / cm^3
# Si number density = 17.488658 Si / 1000 Ang^3
#
#
#
# Elastic Constant Matrix: (Units=GPa)
#
#
# Indices 1 2 3 4 5 6 
#
# 1 98.0664 45.1205 40.9181 0.0000 0.0000 0.0000
# 2 45.1205 120.0680 65.6938 0.0000 0.0000 0.0000
# 3 40.9181 65.6938 84.2879 0.0000 0.0000 0.0000
# 4 0.0000 0.0000 0.0000 17.8067 0.0000 0.0000
# 5 0.0000 0.0000 0.0000 0.0000 21.7271 0.0000
# 6 0.0000 0.0000 0.0000 0.0000 0.0000 28.5275
#
#
#
# Elastic Compliance Matrix: (Units=1/GPa)
#
#
# Indices 1 2 3 4 5 6 
#
# 1 0.013217 -0.002539 -0.004437 0.000000 0.000000 0.000000
# 2 -0.002539 0.015009 -0.010465 0.000000 0.000000 0.000000
# 3 -0.004437 -0.010465 0.022175 0.000000 0.000000 0.000000
# 4 0.000000 0.000000 0.000000 0.056159 0.000000 0.000000
# 5 0.000000 0.000000 0.000000 0.000000 0.046026 0.000000
# 6 0.000000 0.000000 0.000000 0.000000 0.000000 0.035054
#
#
# Mechanical properties :
#
#
# Convention : Reuss Voigt Hill
#
# Bulk Modulus (GPa) = 64.44406 67.32080 65.88243
# Shear Modulus (GPa) = 21.95934 23.65825 22.80880
#
# Velocity S-wave (km/s) = 3.54734 3.68200 3.61530
# Velocity P-wave (km/s) = 7.32852 7.52687 7.42835
#
# Compressibility (1/GPa) = 0.01551733
#
# Stress axis : x y z
#
# Youngs Moduli (GPa) = 75.66123 66.62846 45.09631
#
# Poissons Ratio (x) = 0.16916 0.20011
# Poissons Ratio (y) = 0.19210 0.47194
# Poissons Ratio (z) = 0.33574 0.69728
#
# Static dielectric constant tensor:
#      x y z
#    x 1.590470 0.000000 0.000000 
#    y 0.000000 1.611350 0.000000 
#    z 0.000000 0.000000 1.581210 
# 
# From -- ./inp_files/10818.got.cif
#   From: 2010.05.17/outbox.cif.g08.bks.cpg/sg51_6_cif.got.tgz:10818.got - 2010.06.03 11:52:47.
