data_PCOD9406947
_publ_section_title
;
Structure prediction by ZEFSAII (Michael W. Deem and Ramdas Pophale) SiO2 
 PCOD9406947
Probable space group: P M M A
;
_chemical_formula_sum "Si O2"
_cell_formula_units_Z 56
_cell_length_a 16.340875
_cell_length_b 14.442018
_cell_length_c 15.104182
_cell_angle_alpha 90.000000
_cell_angle_beta 90.000000
_cell_angle_gamma 90.000000
_cell_volume 3564.514616
_symmetry_space_group_name_H-M "P M M A"
_symmetry_group_IT_number 51
_symmetry_cell_setting 'orthorhombic'
loop_
_space_group_symop_operation_xyz
x,y,z
1/2-x,-y,z
1/2+x,-y,-z
-x,y,-z
-x,-y,-z
1/2+x,y,-z
1/2-x,y,z
x,-y,z
loop_
_atom_site_type_symbol
_atom_site_label
_atom_site_fract_x
_atom_site_fract_y
_atom_site_fract_z
Si Si1 0.844098 0.605783 0.349510
Si Si2 0.076696 0.712090 0.807173
Si Si3 0.115036 0.294080 0.163169
Si Si4 0.750000 0.612362 0.716499
Si Si5 0.250000 0.387870 0.488546
Si Si6 0.901369 0.393300 0.016463
Si Si7 0.848368 0.891629 0.119414
Si Si8 0.348387 0.102697 0.084687
O O1 0.750000 0.602994 0.315337
O O2 0.875797 0.500000 0.348336
O O3 0.893404 0.671360 0.285387
O O4 0.828589 0.638497 0.450960
O O5 0.115587 0.656595 0.890664
O O6 0.103236 0.818158 0.821762
O O7 0.980135 0.695204 0.815103
O O8 0.171868 0.343402 0.234763
O O9 0.128843 0.184928 0.149649
O O10 0.134808 0.340407 0.067906
O O11 0.750000 0.500000 0.723798
O O12 0.750000 0.639076 0.612822
O O13 0.250000 0.500000 0.491405
O O14 0.875420 0.500000 0.018708
O O15 0.000000 0.391488 0.000000
O O16 0.750000 0.875601 0.125565
O O17 0.862495 0.000000 0.140158
O O18 0.874780 0.877337 0.016655
O O19 0.250000 0.098918 0.081305
O O20 0.378770 0.000000 0.109077
#
# Coordination Sequence:
#
# PCOD9406947 Si02
#       8
#     8   8   8   4   4   8   8   8
#     4   8  16  32  53  75  96 123 163 203 248 304
#     4  11  19  29  50  74 103 136 167 208 244 292
#     4  11  21  32  47  74 101 134 177 205 244 299
#     4  11  22  38  54  70  99 134 168 214 261 301
#     4   7  16  36  57  72  93 126 161 210 264 305
#     4   9  18  30  41  61 100 140 167 196 236 284
#     4   9  18  31  48  72 103 139 174 208 249 292
#     4   9  17  32  50  66  95 138 180 217 241 274
#
# _framework density 15.710414999999999
#
# number of rings (size 3 to 8) (size 9 to 14) (size 15 to 20)
#    0.429    2.143    2.143    2.143    0.000    2.286 
#    1.286    2.143    0.000    2.571    0.000    2.000 
#    0.000    2.286    0.000    0.000    0.000    0.000 
#
# Total GULP energy -311815.981595 kJ/mol
# GULP energy per Si atom -5568.142528 kJ/mol
# Density = 1.567466 g / cm^3
# Si number density = 15.710415 Si / 1000 Ang^3
#
#
#
# Elastic Constant Matrix: (Units=GPa)
#
#
# Indices 1 2 3 4 5 6 
#
# 1 42.0409 26.5222 39.1952 0.0000 0.0000 0.0000
# 2 26.5222 97.6399 58.1202 0.0000 0.0000 0.0000
# 3 39.1952 58.1202 121.4479 0.0000 0.0000 0.0000
# 4 0.0000 0.0000 0.0000 9.4283 0.0000 0.0000
# 5 0.0000 0.0000 0.0000 0.0000 14.0718 0.0000
# 6 0.0000 0.0000 0.0000 0.0000 0.0000 16.0428
#
#
#
# Elastic Compliance Matrix: (Units=1/GPa)
#
#
# Indices 1 2 3 4 5 6 
#
# 1 0.035053 -0.003898 -0.009447 0.000000 0.000000 0.000000
# 2 -0.003898 0.014755 -0.005803 0.000000 0.000000 0.000000
# 3 -0.009447 -0.005803 0.014060 0.000000 0.000000 0.000000
# 4 0.000000 0.000000 0.000000 0.106064 0.000000 0.000000
# 5 0.000000 0.000000 0.000000 0.000000 0.071064 0.000000
# 6 0.000000 0.000000 0.000000 0.000000 0.000000 0.062333
#
#
# Mechanical properties :
#
#
# Convention : Reuss Voigt Hill
#
# Bulk Modulus (GPa) = 39.10640 56.53377 47.82009
# Shear Modulus (GPa) = 14.27956 17.06130 15.67043
#
# Velocity S-wave (km/s) = 3.01811 3.29901 3.16168
# Velocity P-wave (km/s) = 6.09027 7.11156 6.62064
#
# Compressibility (1/GPa) = 0.02557126
#
# Stress axis : x y z
#
# Youngs Moduli (GPa) = 28.52785 67.77434 71.12333
#
# Poissons Ratio (x) = 0.26419 0.67193
# Poissons Ratio (y) = 0.11120 0.41273
# Poissons Ratio (z) = 0.26951 0.39330
#
# Static dielectric constant tensor:
#      x y z
#    x 1.553370 0.000000 0.000000 
#    y 0.000000 1.536900 0.000000 
#    z 0.000000 0.000000 1.513630 
# 
# From -- ./inp_files/25297.got.cif
#   From: 2010.05.17/outbox.cif.g08.bks.cpg/sg51_13_cif.got.tgz:25297.got - 2010.06.03 11:52:47.
