data_PCOD9406835
_publ_section_title
;
Structure prediction by ZEFSAII (Michael W. Deem and Ramdas Pophale) SiO2 
 PCOD9406835
Probable space group: P M M A
;
_chemical_formula_sum "Si O2"
_cell_formula_units_Z 48
_cell_length_a 18.321021
_cell_length_b 8.492023
_cell_length_c 16.475959
_cell_angle_alpha 90.000000
_cell_angle_beta 90.000000
_cell_angle_gamma 90.000000
_cell_volume 2563.371414
_symmetry_space_group_name_H-M "P M M A"
_symmetry_group_IT_number 51
_symmetry_cell_setting 'orthorhombic'
loop_
_space_group_symop_operation_xyz
x,y,z
1/2-x,-y,z
1/2+x,-y,-z
-x,y,-z
-x,-y,-z
1/2+x,y,-z
1/2-x,y,z
x,-y,z
loop_
_atom_site_type_symbol
_atom_site_label
_atom_site_fract_x
_atom_site_fract_y
_atom_site_fract_z
Si Si1 0.750000 0.815517 0.202607
Si Si2 0.965771 0.190489 0.628824
Si Si3 0.750000 0.318423 0.378914
Si Si4 0.541268 0.810896 0.814024
Si Si5 0.387623 0.190540 0.530134
Si Si6 0.390803 0.311370 0.890572
Si Si7 0.334825 0.309537 0.068170
O O1 0.750000 0.787007 0.298480
O O2 0.822913 0.739947 0.165154
O O3 0.750000 0.000000 0.184069
O O4 0.959063 0.248070 0.720628
O O5 0.906037 0.238978 0.562118
O O6 0.043078 0.227919 0.587228
O O7 0.962386 0.000000 0.631940
O O8 0.750000 0.500000 0.353571
O O9 0.680538 0.276952 0.432659
O O10 0.467194 0.756161 0.858611
O O11 0.612488 0.751833 0.861472
O O12 0.541504 0.000000 0.813147
O O13 0.377744 0.000000 0.531894
O O14 0.396260 0.500000 0.890196
O O15 0.369838 0.260201 0.981917
O O16 0.250000 0.258249 0.073643
O O17 0.334895 0.500000 0.069689
#
# Coordination Sequence:
#
# PCOD9406835 Si02
#       7
#     4   8   4   8   8   8   8
#     4  12  24  38  60  89 120 153 192 243 296 349
#     4   8  17  35  59  84 110 144 190 238 288 339
#     4  12  24  36  52  85 122 151 186 231 284 345
#     4  11  22  36  58  92 122 150 196 250 294 347
#     4   9  17  36  62  81 107 151 193 233 284 343
#     4  11  22  40  62  86 117 156 196 240 296 356
#     4  10  22  42  61  79 113 162 204 240 293 355
#
# _framework density 18.725339000000002
#
# number of rings (size 3 to 8) (size 9 to 14) (size 15 to 20)
#    0.000    1.833    0.833    5.000    0.000    5.000 
#    1.500    4.167    0.000    0.000    0.000    0.000 
#    0.000    0.000    0.000    0.000    0.000    0.000 
#
# Total GULP energy -268062.370854 kJ/mol
# GULP energy per Si atom -5584.632726 kJ/mol
# Density = 1.868272 g / cm^3
# Si number density = 18.725339 Si / 1000 Ang^3
#
#
#
# Elastic Constant Matrix: (Units=GPa)
#
#
# Indices 1 2 3 4 5 6 
#
# 1 84.7423 7.1210 90.4934 0.0000 0.0000 0.0000
# 2 7.1210 20.2851 20.2835 0.0000 0.0000 0.0000
# 3 90.4934 20.2835 162.8827 0.0000 0.0000 0.0000
# 4 0.0000 0.0000 0.0000 -71.9758 0.0000 0.0000
# 5 0.0000 0.0000 0.0000 0.0000 23.7481 0.0000
# 6 0.0000 0.0000 0.0000 0.0000 0.0000 33.5657
#
#
#
# Elastic Compliance Matrix: (Units=1/GPa)
#
#
# Indices 1 2 3 4 5 6 
#
# 1 0.029853 0.006973 -0.017454 0.000000 0.000000 0.000000
# 2 0.006973 0.057937 -0.011089 0.000000 0.000000 0.000000
# 3 -0.017454 -0.011089 0.017217 0.000000 0.000000 0.000000
# 4 0.000000 0.000000 0.000000 -0.013894 0.000000 0.000000
# 5 0.000000 0.000000 0.000000 0.000000 0.042109 0.000000
# 6 0.000000 0.000000 0.000000 0.000000 0.000000 0.029792
#
#
# Mechanical properties :
#
#
# Convention : Reuss Voigt Hill
#
# Bulk Modulus (GPa) = 16.16354 55.96734 36.06544
# Shear Modulus (GPa) = 22.04813 7.06839 14.55826
#
# Velocity S-wave (km/s) = 3.43512 1.94499 2.79133
# Velocity P-wave (km/s) = 4.93802 5.91586 5.44892
#
# Compressibility (1/GPa) = 0.06186763
#
# Stress axis : x y z
#
# Youngs Moduli (GPa) = 33.49773 17.26004 58.08195
#
# Poissons Ratio (x) = -0.12035 1.01375
# Poissons Ratio (y) = -0.23357 0.64405
# Poissons Ratio (z) = 0.58466 0.19139
#
# Static dielectric constant tensor:
#      x y z
#    x 1.630330 0.000000 0.000000 
#    y 0.000000 1.639810 0.000000 
#    z 0.000000 0.000000 1.648530 
# 
# From -- ./inp_files/24896.got.cif
#   From: 2010.05.17/outbox.cif.g08.bks.cpg/sg51_13_cif.got.tgz:24896.got - 2010.06.03 11:52:47.
