data_PCOD9406043
_publ_section_title
;
Structure prediction by ZEFSAII (Michael W. Deem and Ramdas Pophale) SiO2 
 PCOD9406043
Probable space group: P M M A
;
_chemical_formula_sum "Si O2"
_cell_formula_units_Z 48
_cell_length_a 8.729354
_cell_length_b 29.422952
_cell_length_c 10.449635
_cell_angle_alpha 90.000000
_cell_angle_beta 90.000000
_cell_angle_gamma 90.000000
_cell_volume 2683.919403
_symmetry_space_group_name_H-M "P M M A"
_symmetry_group_IT_number 51
_symmetry_cell_setting 'orthorhombic'
loop_
_space_group_symop_operation_xyz
x,y,z
1/2-x,-y,z
1/2+x,-y,-z
-x,y,-z
-x,-y,-z
1/2+x,y,-z
1/2-x,y,z
x,-y,z
loop_
_atom_site_type_symbol
_atom_site_label
_atom_site_fract_x
_atom_site_fract_y
_atom_site_fract_z
Si Si1 0.433520 0.783788 0.362498
Si Si2 0.067321 0.614668 0.861723
Si Si3 0.066705 0.884853 0.637000
Si Si4 0.567667 0.946038 0.861085
Si Si5 0.566731 0.552963 0.638181
Si Si6 0.566451 0.278391 0.139134
O O1 0.500000 0.768608 0.500000
O O2 0.250000 0.785210 0.367919
O O3 0.498715 0.834502 0.340646
O O4 0.490934 0.751267 0.250037
O O5 0.250000 0.609671 0.864181
O O6 0.031864 0.668092 0.840907
O O7 0.997922 0.584288 0.749902
O O8 0.000000 0.601771 0.000000
O O9 0.250000 0.882428 0.630307
O O10 0.000000 0.900421 0.500000
O O11 0.012581 0.917680 0.749831
O O12 0.750000 0.937959 0.859398
O O13 0.541357 0.000000 0.842538
O O14 0.500000 0.933777 0.000000
O O15 0.500000 0.566287 0.500000
O O16 0.750000 0.556056 0.634590
O O17 0.524343 0.500000 0.660117
O O18 0.750000 0.272569 0.139838
O O19 0.500000 0.265725 0.000000
#
# Coordination Sequence:
#
# PCOD9406043 Si02
#       6
#     8   8   8   8   8   8
#     4  11  22  38  59  83 112 146 184 227 275 326
#     4  10  21  37  58  82 111 145 182 226 273 325
#     4  11  22  38  59  83 113 147 185 229 276 327
#     4  10  21  38  59  84 114 147 185 229 276 327
#     4  10  21  37  57  81 110 144 183 227 274 325
#     4  10  21  38  58  83 112 144 183 226 274 325
#
# _framework density 17.884293
#
# number of rings (size 3 to 8) (size 9 to 14) (size 15 to 20)
#    0.000    1.667    0.000    6.000    0.000    6.000 
#    0.000    3.333    0.000    0.000    0.000    0.000 
#    0.000    0.000    0.000    0.000    0.000    0.000 
#
# Total GULP energy -268260.235144 kJ/mol
# GULP energy per Si atom -5588.754899 kJ/mol
# Density = 1.784359 g / cm^3
# Si number density = 17.884293 Si / 1000 Ang^3
#
#
#
# Elastic Constant Matrix: (Units=GPa)
#
#
# Indices 1 2 3 4 5 6 
#
# 1 131.9073 65.2559 99.3537 0.0000 0.0000 0.0000
# 2 65.2559 69.7825 107.4586 0.0000 0.0000 0.0000
# 3 99.3537 107.4586 207.2437 0.0000 0.0000 0.0000
# 4 0.0000 0.0000 0.0000 -86.6899 0.0000 0.0000
# 5 0.0000 0.0000 0.0000 0.0000 40.6373 0.0000
# 6 0.0000 0.0000 0.0000 0.0000 0.0000 30.3278
#
#
#
# Elastic Compliance Matrix: (Units=1/GPa)
#
#
# Indices 1 2 3 4 5 6 
#
# 1 0.014114 -0.013788 0.000383 0.000000 0.000000 0.000000
# 2 -0.013788 0.084575 -0.037243 0.000000 0.000000 0.000000
# 3 0.000383 -0.037243 0.023953 0.000000 0.000000 0.000000
# 4 0.000000 0.000000 0.000000 -0.011535 0.000000 0.000000
# 5 0.000000 0.000000 0.000000 0.000000 0.024608 0.000000
# 6 0.000000 0.000000 0.000000 0.000000 0.000000 0.032973
#
#
# Mechanical properties :
#
#
# Convention : Reuss Voigt Hill
#
# Bulk Modulus (GPa) = 46.84951 105.89665 76.37308
# Shear Modulus (GPa) = 18.04413 5.97941 12.01177
#
# Velocity S-wave (km/s) = 3.17982 1.83048 2.59441
# Velocity P-wave (km/s) = 6.30353 7.98800 7.19523
#
# Compressibility (1/GPa) = 0.02134494
#
# Stress axis : x y z
#
# Youngs Moduli (GPa) = 70.85349 11.82379 41.74927
#
# Poissons Ratio (x) = 0.16303 -0.01600
# Poissons Ratio (y) = 0.97696 1.55487
# Poissons Ratio (z) = -0.02716 0.44035
#
# Static dielectric constant tensor:
#      x y z
#    x 1.594520 0.000000 0.000000 
#    y 0.000000 1.593780 0.000000 
#    z 0.000000 0.000000 1.577220 
# 
# From -- ./inp_files/5956.got.cif
#   From: 2010.05.17/outbox.cif.g08.bks.cpg/sg51_3_cif.got.tgz:5956.got - 2010.06.03 11:52:47.
