data_PCOD9406868
_publ_section_title
;
Structure prediction by ZEFSAII (Michael W. Deem and Ramdas Pophale) SiO2 
 PCOD9406868
Probable space group: P M M A
;
_chemical_formula_sum "Si O2"
_cell_formula_units_Z 36
_cell_length_a 8.273258
_cell_length_b 24.490454
_cell_length_c 9.217206
_cell_angle_alpha 90.000000
_cell_angle_beta 90.000000
_cell_angle_gamma 90.000000
_cell_volume 1867.551977
_symmetry_space_group_name_H-M "P M M A"
_symmetry_group_IT_number 51
_symmetry_cell_setting 'orthorhombic'
loop_
_space_group_symop_operation_xyz
x,y,z
1/2-x,-y,z
1/2+x,-y,-z
-x,y,-z
-x,-y,-z
1/2+x,y,-z
1/2-x,y,z
x,-y,z
loop_
_atom_site_type_symbol
_atom_site_label
_atom_site_fract_x
_atom_site_fract_y
_atom_site_fract_z
Si Si1 0.945713 0.322337 0.332811
Si Si2 0.443404 0.784818 0.835045
Si Si3 0.945488 0.000000 0.834154
Si Si4 0.556537 0.891888 0.665486
Si Si5 0.445279 0.441402 0.668144
O O1 0.750000 0.321904 0.331776
O O2 0.004264 0.271165 0.239268
O O3 0.999985 0.382164 0.275120
O O4 0.000000 0.316692 0.500000
O O5 0.250000 0.783496 0.832938
O O6 0.499061 0.837080 0.744078
O O7 0.500000 0.789111 0.000000
O O8 0.002435 0.054475 0.751598
O O9 0.750000 0.000000 0.831234
O O10 0.000000 0.000000 0.000000
O O11 0.500000 0.893280 0.500000
O O12 0.750000 0.892521 0.667729
O O13 0.500000 0.441475 0.500000
O O14 0.250000 0.441547 0.672751
O O15 0.501307 0.500000 0.731334
#
# Coordination Sequence:
#
# PCOD9406868 Si02
#       5
#     8   8   4   8   8
#     4   9  18  31  49  74 102 132 169 213 261 313
#     4  11  23  38  55  77 106 141 180 222 269 320
#     4  10  23  40  60  86 116 148 181 218 261 310
#     4  11  23  40  61  86 113 143 180 221 265 312
#     4   8  13  23  41  66  95 126 161 204 254 306
#
# _framework density 19.276572999999999
#
# number of rings (size 3 to 8) (size 9 to 14) (size 15 to 20)
#    0.000    2.222    0.000    3.000    0.000    7.111 
#    0.000    0.000    0.000    0.667    0.000    0.000 
#    0.000    0.000    0.000    0.000    0.000    0.222 
#
# Total GULP energy -200817.199785 kJ/mol
# GULP energy per Si atom -5578.255550 kJ/mol
# Density = 1.923270 g / cm^3
# Si number density = 19.276573 Si / 1000 Ang^3
#
#
#
# Elastic Constant Matrix: (Units=GPa)
#
#
# Indices 1 2 3 4 5 6 
#
# 1 23.2655 26.5477 13.3139 0.0000 0.0000 0.0000
# 2 26.5477 247.8363 106.2861 0.0000 0.0000 0.0000
# 3 13.3139 106.2861 129.6313 0.0000 0.0000 0.0000
# 4 0.0000 0.0000 0.0000 -4.6412 0.0000 0.0000
# 5 0.0000 0.0000 0.0000 0.0000 28.1961 0.0000
# 6 0.0000 0.0000 0.0000 0.0000 0.0000 0.3637
#
#
#
# Elastic Compliance Matrix: (Units=1/GPa)
#
#
# Indices 1 2 3 4 5 6 
#
# 1 0.049074 -0.004774 -0.001126 0.000000 0.000000 0.000000
# 2 -0.004774 0.006687 -0.004993 0.000000 0.000000 0.000000
# 3 -0.001126 -0.004993 0.011924 0.000000 0.000000 0.000000
# 4 0.000000 0.000000 0.000000 -0.215459 0.000000 0.000000
# 5 0.000000 0.000000 0.000000 0.000000 0.035466 0.000000
# 6 0.000000 0.000000 0.000000 0.000000 0.000000 2.749196
#
#
# Mechanical properties :
#
#
# Convention : Reuss Voigt Hill
#
# Bulk Modulus (GPa) = 21.78682 77.00317 49.39500
# Shear Modulus (GPa) = 1.86988 21.75608 11.81298
#
# Velocity S-wave (km/s) = 0.98597 3.36315 2.47820
# Velocity P-wave (km/s) = 3.55288 7.42390 5.81967
#
# Compressibility (1/GPa) = 0.04589931
#
# Stress axis : x y z
#
# Youngs Moduli (GPa) = 20.37753 149.53288 83.86763
#
# Poissons Ratio (x) = 0.71383 0.09444
# Poissons Ratio (y) = 0.09728 0.41874
# Poissons Ratio (z) = 0.02295 0.74660
#
# Static dielectric constant tensor:
#      x y z
#    x 1.670330 0.000000 0.000000 
#    y 0.000000 1.731610 0.000000 
#    z 0.000000 0.000000 1.611120 
# 
# From -- ./inp_files/5264.got.cif
#   From: 2010.05.17/outbox.cif.g08.bks.cpg/sg51_3_cif.got.tgz:5264.got - 2010.06.03 11:52:47.
