data_PCOD9406016
_publ_section_title
;
Structure prediction by ZEFSAII (Michael W. Deem and Ramdas Pophale) SiO2 
 PCOD9406016
Probable space group: P M M A
;
_chemical_formula_sum "Si O2"
_cell_formula_units_Z 48
_cell_length_a 7.838841
_cell_length_b 9.651638
_cell_length_c 31.839319
_cell_angle_alpha 90.000000
_cell_angle_beta 90.000000
_cell_angle_gamma 90.000000
_cell_volume 2408.888234
_symmetry_space_group_name_H-M "P M M A"
_symmetry_group_IT_number 51
_symmetry_cell_setting 'orthorhombic'
loop_
_space_group_symop_operation_xyz
x,y,z
1/2-x,-y,z
1/2+x,-y,-z
-x,y,-z
-x,-y,-z
1/2+x,y,-z
1/2-x,y,z
x,-y,z
loop_
_atom_site_type_symbol
_atom_site_label
_atom_site_fract_x
_atom_site_fract_y
_atom_site_fract_z
Si Si1 0.458256 0.159512 0.876454
Si Si2 0.044561 0.658290 0.954023
Si Si3 0.047851 0.657284 0.297229
Si Si4 0.544422 0.341773 0.452659
Si Si5 0.046375 0.843547 0.623702
Si Si6 0.543862 0.159386 0.218002
O O1 0.250000 0.163799 0.876581
O O2 0.519298 0.254490 0.914463
O O3 0.511991 0.199129 0.829218
O O4 0.507582 0.000000 0.883202
O O5 0.250000 0.654447 0.951390
O O6 0.980526 0.500000 0.952198
O O7 0.000000 0.716037 0.000000
O O8 0.250000 0.648906 0.302614
O O9 0.978101 0.500000 0.298018
O O10 0.980784 0.751891 0.334991
O O11 0.012486 0.734813 0.253524
O O12 0.500000 0.298742 0.500000
O O13 0.750000 0.345992 0.449568
O O14 0.481660 0.500000 0.446423
O O15 0.478406 0.239052 0.416834
O O16 0.250000 0.854864 0.618092
O O17 0.978025 0.000000 0.627939
O O18 0.750000 0.157265 0.218151
O O19 0.487793 0.000000 0.226323
#
# Coordination Sequence:
#
# PCOD9406016 Si02
#       6
#     8   8   8   8   8   8
#     4   8  15  29  49  72  96 122 156 199 242 287
#     4   9  17  29  45  66  93 125 160 197 238 284
#     4  11  24  38  52  75 106 137 170 209 254 304
#     4   9  18  33  53  77 106 139 173 210 252 297
#     4  10  21  37  57  80 105 136 176 217 255 300
#     4   9  18  34  56  79 101 128 165 208 254 304
#
# _framework density 19.926203000000001
#
# number of rings (size 3 to 8) (size 9 to 14) (size 15 to 20)
#    0.000    2.667    0.000    2.500    0.000    6.667 
#    0.000    4.167    0.000    3.000    0.000    0.000 
#    0.000    0.000    0.000    0.000    0.000    0.000 
#
# Total GULP energy -267818.487099 kJ/mol
# GULP energy per Si atom -5579.551815 kJ/mol
# Density = 1.988085 g / cm^3
# Si number density = 19.926203 Si / 1000 Ang^3
#
#
#
# Elastic Constant Matrix: (Units=GPa)
#
#
# Indices 1 2 3 4 5 6 
#
# 1 21.0066 5.7728 -1.0697 0.0000 0.0000 0.0000
# 2 5.7728 142.6733 126.6532 0.0000 0.0000 0.0000
# 3 -1.0697 126.6532 189.2152 0.0000 0.0000 0.0000
# 4 0.0000 0.0000 0.0000 42.3756 0.0000 0.0000
# 5 0.0000 0.0000 0.0000 0.0000 24.4264 0.0000
# 6 0.0000 0.0000 0.0000 0.0000 0.0000 9.2720
#
#
#
# Elastic Compliance Matrix: (Units=1/GPa)
#
#
# Indices 1 2 3 4 5 6 
#
# 1 0.049326 -0.005528 0.003979 0.000000 0.000000 0.000000
# 2 -0.005528 0.017892 -0.012007 0.000000 0.000000 0.000000
# 3 0.003979 -0.012007 0.013345 0.000000 0.000000 0.000000
# 4 0.000000 0.000000 0.000000 0.023598 0.000000 0.000000
# 5 0.000000 0.000000 0.000000 0.000000 0.040939 0.000000
# 6 0.000000 0.000000 0.000000 0.000000 0.000000 0.107851
#
#
# Mechanical properties :
#
#
# Convention : Reuss Voigt Hill
#
# Bulk Modulus (GPa) = 18.70911 68.40085 43.55498
# Shear Modulus (GPa) = 16.78525 29.98407 23.38466
#
# Velocity S-wave (km/s) = 2.90551 3.88333 3.42945
# Velocity P-wave (km/s) = 4.54594 7.38299 6.13083
#
# Compressibility (1/GPa) = 0.05344990
#
# Stress axis : x y z
#
# Youngs Moduli (GPa) = 20.27328 55.89179 74.93631
#
# Poissons Ratio (x) = 0.30898 -0.29819
# Poissons Ratio (y) = 0.11207 0.89978
# Poissons Ratio (z) = -0.08067 0.67111
#
# Static dielectric constant tensor:
#      x y z
#    x 1.736180 0.000000 0.000000 
#    y 0.000000 1.703800 0.000000 
#    z 0.000000 0.000000 1.681720 
# 
# From -- ./inp_files/37014.got.cif
#   From: 2010.05.17/outbox.cif.g08.bks.cpg/sg51_19_cif.got.tgz:37014.got - 2010.06.03 11:52:47.
