data_PCOD9406569
_publ_section_title
;
Structure prediction by ZEFSAII (Michael W. Deem and Ramdas Pophale) SiO2 
 PCOD9406569
Probable space group: P M M A
;
_chemical_formula_sum "Si O2"
_cell_formula_units_Z 56
_cell_length_a 18.713603
_cell_length_b 13.562198
_cell_length_c 11.863104
_cell_angle_alpha 90.000000
_cell_angle_beta 90.000000
_cell_angle_gamma 90.000000
_cell_volume 3010.827195
_symmetry_space_group_name_H-M "P M M A"
_symmetry_group_IT_number 51
_symmetry_cell_setting 'orthorhombic'
loop_
_space_group_symop_operation_xyz
x,y,z
1/2-x,-y,z
1/2+x,-y,-z
-x,y,-z
-x,-y,-z
1/2+x,y,-z
1/2-x,y,z
x,-y,z
loop_
_atom_site_type_symbol
_atom_site_label
_atom_site_fract_x
_atom_site_fract_y
_atom_site_fract_z
Si Si1 0.668721 0.758488 0.624586
Si Si2 0.664524 0.883296 0.103678
Si Si3 0.330847 0.253524 0.108069
Si Si4 0.043830 0.892810 0.385567
Si Si5 0.084941 0.615626 0.525016
Si Si6 0.434645 0.749518 0.735380
Si Si7 0.965040 0.392020 0.878748
O O1 0.750000 0.758720 0.584897
O O2 0.668627 0.772314 0.759581
O O3 0.619825 0.847372 0.582610
O O4 0.628862 0.660267 0.580363
O O5 0.750000 0.877298 0.125941
O O6 0.620413 0.815338 0.191676
O O7 0.644775 0.000000 0.107761
O O8 0.652722 0.835124 0.979204
O O9 0.250000 0.287551 0.080722
O O10 0.390757 0.336584 0.101180
O O11 0.000000 0.899977 0.500000
O O12 0.997112 0.821106 0.309264
O O13 0.051686 0.000000 0.332555
O O14 0.100834 0.500000 0.544957
O O15 0.099288 0.687670 0.631579
O O16 0.000000 0.624257 0.500000
O O17 0.478491 0.670286 0.807680
O O18 0.953878 0.500000 0.826562
O O19 0.000000 0.401847 0.000000
#
# Coordination Sequence:
#
# PCOD9406569 Si02
#       7
#     8   8   8   8   8   8   8
#     4  11  22  39  61  88 122 158 200 251 302 358
#     4  10  23  42  63  89 124 165 207 255 311 367
#     4  10  21  40  62  86 120 162 204 249 304 362
#     4  11  22  39  60  86 120 157 197 245 301 358
#     4  11  22  40  66  91 120 161 204 249 307 367
#     4  12  20  40  66  94 118 161 200 254 308 372
#     4  11  22  37  59  89 122 156 199 248 299 357
#
# _framework density 18.599540000000001
#
# number of rings (size 3 to 8) (size 9 to 14) (size 15 to 20)
#    0.000    1.143    5.714    0.857    0.000    3.714 
#    0.000    3.571    0.000    1.286    0.000    0.000 
#    0.000    0.000    0.000    0.000    0.000    0.000 
#
# Total GULP energy -312296.720625 kJ/mol
# GULP energy per Si atom -5576.727154 kJ/mol
# Density = 1.855721 g / cm^3
# Si number density = 18.599540 Si / 1000 Ang^3
#
#
#
# Elastic Constant Matrix: (Units=GPa)
#
#
# Indices 1 2 3 4 5 6 
#
# 1 98.3148 51.8710 27.4589 0.0000 0.0000 0.0000
# 2 51.8710 151.6938 48.8907 0.0000 0.0000 0.0000
# 3 27.4589 48.8907 79.8385 0.0000 0.0000 0.0000
# 4 0.0000 0.0000 0.0000 11.7535 0.0000 0.0000
# 5 0.0000 0.0000 0.0000 0.0000 24.5666 0.0000
# 6 0.0000 0.0000 0.0000 0.0000 0.0000 30.4027
#
#
#
# Elastic Compliance Matrix: (Units=1/GPa)
#
#
# Indices 1 2 3 4 5 6 
#
# 1 0.012694 -0.003655 -0.002128 0.000000 0.000000 0.000000
# 2 -0.003655 0.009266 -0.004417 0.000000 0.000000 0.000000
# 3 -0.002128 -0.004417 0.015962 0.000000 0.000000 0.000000
# 4 0.000000 0.000000 0.000000 0.085081 0.000000 0.000000
# 5 0.000000 0.000000 0.000000 0.000000 0.040706 0.000000
# 6 0.000000 0.000000 0.000000 0.000000 0.000000 0.032892
#
#
# Mechanical properties :
#
#
# Convention : Reuss Voigt Hill
#
# Bulk Modulus (GPa) = 57.06991 65.14315 61.10653
# Shear Modulus (GPa) = 22.43762 26.78631 24.61196
#
# Velocity S-wave (km/s) = 3.47703 3.79906 3.64161
# Velocity P-wave (km/s) = 6.84615 7.37183 7.11385
#
# Compressibility (1/GPa) = 0.01752237
#
# Stress axis : x y z
#
# Youngs Moduli (GPa) = 78.77743 107.92639 62.64930
#
# Poissons Ratio (x) = 0.39446 0.13330
# Poissons Ratio (y) = 0.28792 0.27672
# Poissons Ratio (z) = 0.16762 0.47670
#
# Static dielectric constant tensor:
#      x y z
#    x 1.627550 0.000000 0.000000 
#    y 0.000000 1.689240 0.000000 
#    z 0.000000 0.000000 1.680900 
# 
# From -- ./inp_files/16637.got.cif
#   From: 2010.05.17/outbox.cif.g08.bks.cpg/sg51_9_cif.got.tgz:16637.got - 2010.06.03 11:52:47.
