data_PCOD9406129
_publ_section_title
;
Structure prediction by ZEFSAII (Michael W. Deem and Ramdas Pophale) SiO2 
 PCOD9406129
Probable space group: P M M A
;
_chemical_formula_sum "Si O2"
_cell_formula_units_Z 48
_cell_length_a 20.944202
_cell_length_b 22.913218
_cell_length_c 5.109182
_cell_angle_alpha 90.000000
_cell_angle_beta 90.000000
_cell_angle_gamma 90.000000
_cell_volume 2451.891671
_symmetry_space_group_name_H-M "P M M A"
_symmetry_group_IT_number 51
_symmetry_cell_setting 'orthorhombic'
loop_
_space_group_symop_operation_xyz
x,y,z
1/2-x,-y,z
1/2+x,-y,-z
-x,y,-z
-x,-y,-z
1/2+x,y,-z
1/2-x,y,z
x,-y,z
loop_
_atom_site_type_symbol
_atom_site_label
_atom_site_fract_x
_atom_site_fract_y
_atom_site_fract_z
Si Si1 0.939488 0.066489 0.187907
Si Si2 0.827471 0.637425 0.076600
Si Si3 0.326907 0.230531 0.066236
Si Si4 0.827878 0.566544 0.573669
Si Si5 0.632905 0.839754 0.449109
Si Si6 0.318160 0.935233 0.193006
O O1 0.929268 0.120495 0.384718
O O2 0.942233 0.000000 0.300084
O O3 0.876819 0.069786 0.004103
O O4 0.000000 0.073594 0.000000
O O5 0.750000 0.637986 0.083366
O O6 0.845290 0.703376 0.007292
O O7 0.849403 0.611596 0.351752
O O8 0.847045 0.592289 0.852225
O O9 0.250000 0.228585 0.121713
O O10 0.342146 0.190535 0.814453
O O11 0.366127 0.207854 0.317941
O O12 0.750000 0.565746 0.568231
O O13 0.848697 0.500000 0.530204
O O14 0.677744 0.888703 0.578012
O O15 0.250000 0.928630 0.054333
O O16 0.321106 0.000000 0.308040
#
# Coordination Sequence:
#
# PCOD9406129 Si02
#       6
#     8   8   8   8   8   8
#     4  10  23  43  64  85 112 146 186 235 292 353
#     4   9  17  28  40  62  95 134 178 225 273 318
#     4  11  22  34  52  76 109 146 184 231 282 338
#     4   9  15  24  40  61  89 130 183 233 268 307
#     4  12  22  37  56  80 106 141 186 229 285 336
#     4  10  21  37  58  85 114 141 178 235 291 337
#
# _framework density 19.576720999999999
#
# number of rings (size 3 to 8) (size 9 to 14) (size 15 to 20)
#    0.000    1.833    1.667    3.500    0.000    6.667 
#    0.000    4.167    0.000    0.000    0.000    0.000 
#    0.000    0.000    0.000    0.000    0.000   58.333 
#
# Total GULP energy -267805.339221 kJ/mol
# GULP energy per Si atom -5579.277900 kJ/mol
# Density = 1.953216 g / cm^3
# Si number density = 19.576721 Si / 1000 Ang^3
#
#
#
# Elastic Constant Matrix: (Units=GPa)
#
#
# Indices 1 2 3 4 5 6 
#
# 1 72.2319 7.8516 15.1950 0.0000 0.0000 0.0000
# 2 7.8516 92.1786 -9.0299 0.0000 0.0000 0.0000
# 3 15.1950 -9.0299 53.3997 0.0000 0.0000 0.0000
# 4 0.0000 0.0000 0.0000 8.4416 0.0000 0.0000
# 5 0.0000 0.0000 0.0000 0.0000 19.9313 0.0000
# 6 0.0000 0.0000 0.0000 0.0000 0.0000 10.0798
#
#
#
# Elastic Compliance Matrix: (Units=1/GPa)
#
#
# Indices 1 2 3 4 5 6 
#
# 1 0.014990 -0.001723 -0.004557 0.000000 0.000000 0.000000
# 2 -0.001723 0.011229 0.002389 0.000000 0.000000 0.000000
# 3 -0.004557 0.002389 0.020427 0.000000 0.000000 0.000000
# 4 0.000000 0.000000 0.000000 0.118461 0.000000 0.000000
# 5 0.000000 0.000000 0.000000 0.000000 0.050172 0.000000
# 6 0.000000 0.000000 0.000000 0.000000 0.000000 0.099208
#
#
# Mechanical properties :
#
#
# Convention : Reuss Voigt Hill
#
# Bulk Modulus (GPa) = 25.73001 27.31597 26.52299
# Shear Modulus (GPa) = 14.91536 21.27678 18.09607
#
# Velocity S-wave (km/s) = 2.76323 3.30030 3.04364
# Velocity P-wave (km/s) = 4.83242 5.33913 5.09208
#
# Compressibility (1/GPa) = 0.03886512
#
# Stress axis : x y z
#
# Youngs Moduli (GPa) = 66.71019 89.05246 48.95394
#
# Poissons Ratio (x) = 0.15346 0.22308
# Poissons Ratio (y) = 0.11496 -0.11696
# Poissons Ratio (z) = 0.30399 -0.21277
#
# Static dielectric constant tensor:
#      x y z
#    x 1.693300 0.000000 0.000000 
#    y 0.000000 1.713130 0.000000 
#    z 0.000000 0.000000 1.718050 
# 
# From -- ./inp_files/2537.got.cif
#   From: 2010.05.17/outbox.cif.g08.bks.cpg/sg51_2_cif.got.tgz:2537.got - 2010.06.03 11:52:47.
