data_PCOD9406525
_publ_section_title
;
Structure prediction by ZEFSAII (Michael W. Deem and Ramdas Pophale) SiO2 
 PCOD9406525
Probable space group: P M M A
;
_chemical_formula_sum "Si O2"
_cell_formula_units_Z 32
_cell_length_a 8.688807
_cell_length_b 20.497272
_cell_length_c 9.536932
_cell_angle_alpha 90.000000
_cell_angle_beta 90.000000
_cell_angle_gamma 90.000000
_cell_volume 1698.497457
_symmetry_space_group_name_H-M "P M M A"
_symmetry_group_IT_number 51
_symmetry_cell_setting 'orthorhombic'
loop_
_space_group_symop_operation_xyz
x,y,z
1/2-x,-y,z
1/2+x,-y,-z
-x,y,-z
-x,-y,-z
1/2+x,y,-z
1/2-x,y,z
x,-y,z
loop_
_atom_site_type_symbol
_atom_site_label
_atom_site_fract_x
_atom_site_fract_y
_atom_site_fract_z
Si Si1 0.564810 0.694897 0.843763
Si Si2 0.066367 0.812065 0.656149
Si Si3 0.564583 0.574412 0.653024
Si Si4 0.433446 0.922963 0.153265
O O1 0.750000 0.698609 0.847093
O O2 0.500331 0.753628 0.750245
O O3 0.518320 0.627118 0.768582
O O4 0.500000 0.698743 0.000000
O O5 0.250000 0.808431 0.652397
O O6 0.000000 0.807617 0.500000
O O7 0.012494 0.878788 0.730048
O O8 0.500000 0.592213 0.500000
O O9 0.750000 0.574970 0.645018
O O10 0.514964 0.500000 0.684515
O O11 0.250000 0.912087 0.154024
O O12 0.462180 0.000000 0.175593
O O13 0.500000 0.905666 0.000000
#
# Coordination Sequence:
#
# PCOD9406525 Si02
#       4
#     8   8   8   8
#     4  11  23  39  59  84 116 152 193 239 288 342
#     4  12  25  41  61  85 116 152 193 239 288 342
#     4   9  19  36  58  84 114 149 189 234 285 341
#     4  10  21  39  63  90 120 154 192 234 283 339
#
# _framework density 18.84018
#
# number of rings (size 3 to 8) (size 9 to 14) (size 15 to 20)
#    0.000    1.500    0.000    5.250    0.000    6.500 
#    0.000    0.000    0.000    0.000    0.000    0.000 
#    0.000    0.000    0.000    0.000    0.000    0.000 
#
# Total GULP energy -178936.472655 kJ/mol
# GULP energy per Si atom -5591.764770 kJ/mol
# Density = 1.879730 g / cm^3
# Si number density = 18.840180 Si / 1000 Ang^3
#
#
#
# Elastic Constant Matrix: (Units=GPa)
#
#
# Indices 1 2 3 4 5 6 
#
# 1 98.1751 61.8207 74.4160 0.0000 0.0000 0.0000
# 2 61.8207 95.6080 104.0966 0.0000 0.0000 0.0000
# 3 74.4160 104.0966 198.5315 0.0000 0.0000 0.0000
# 4 0.0000 0.0000 0.0000 36.0340 0.0000 0.0000
# 5 0.0000 0.0000 0.0000 0.0000 39.2619 0.0000
# 6 0.0000 0.0000 0.0000 0.0000 0.0000 77.3618
#
#
#
# Elastic Compliance Matrix: (Units=1/GPa)
#
#
# Indices 1 2 3 4 5 6 
#
# 1 0.017359 -0.009648 -0.001448 0.000000 0.000000 0.000000
# 2 -0.009648 0.029736 -0.011976 0.000000 0.000000 0.000000
# 3 -0.001448 -0.011976 0.011859 0.000000 0.000000 0.000000
# 4 0.000000 0.000000 0.000000 0.027752 0.000000 0.000000
# 5 0.000000 0.000000 0.000000 0.000000 0.025470 0.000000
# 6 0.000000 0.000000 0.000000 0.000000 0.000000 0.012926
#
#
# Mechanical properties :
#
#
# Convention : Reuss Voigt Hill
#
# Bulk Modulus (GPa) = 78.05441 96.99790 87.52615
# Shear Modulus (GPa) = 28.48772 40.66363 34.57568
#
# Velocity S-wave (km/s) = 3.89276 4.65084 4.28858
# Velocity P-wave (km/s) = 7.85649 8.96866 8.43093
#
# Compressibility (1/GPa) = 0.01281158
#
# Stress axis : x y z
#
# Youngs Moduli (GPa) = 57.60861 33.62891 84.32496
#
# Poissons Ratio (x) = 0.32444 0.12210
# Poissons Ratio (y) = 0.55578 1.00983
# Poissons Ratio (z) = 0.08342 0.40272
#
# Static dielectric constant tensor:
#      x y z
#    x 1.629370 0.000000 0.000000 
#    y 0.000000 1.659270 0.000000 
#    z 0.000000 0.000000 1.602090 
# 
# From -- ./inp_files/4848.got.cif
#   From: 2010.05.17/outbox.cif.g08.bks.cpg/sg51_3_cif.got.tgz:4848.got - 2010.06.03 11:52:47.
