data_PCOD9406920
_publ_section_title
;
Structure prediction by ZEFSAII (Michael W. Deem and Ramdas Pophale) SiO2 
 PCOD9406920
Probable space group: P M M A
;
_chemical_formula_sum "Si O2"
_cell_formula_units_Z 40
_cell_length_a 8.553866
_cell_length_b 10.478700
_cell_length_c 26.021044
_cell_angle_alpha 90.000000
_cell_angle_beta 90.000000
_cell_angle_gamma 90.000000
_cell_volume 2332.354532
_symmetry_space_group_name_H-M "P M M A"
_symmetry_group_IT_number 51
_symmetry_cell_setting 'orthorhombic'
loop_
_space_group_symop_operation_xyz
x,y,z
1/2-x,-y,z
1/2+x,-y,-z
-x,y,-z
-x,-y,-z
1/2+x,y,-z
1/2-x,y,z
x,-y,z
loop_
_atom_site_type_symbol
_atom_site_label
_atom_site_fract_x
_atom_site_fract_y
_atom_site_fract_z
Si Si1 0.562494 0.754712 0.882117
Si Si2 0.434835 0.845156 0.664327
Si Si3 0.938903 0.500000 0.941878
Si Si4 0.060492 0.150151 0.776939
Si Si5 0.563595 0.000000 0.057680
Si Si6 0.938238 0.151040 0.446469
O O1 0.750000 0.759439 0.882733
O O2 0.511061 0.625966 0.910841
O O3 0.504355 0.768436 0.823791
O O4 0.496656 0.875479 0.912872
O O5 0.250000 0.814489 0.664488
O O6 0.496841 0.806571 0.720289
O O7 0.497172 0.798771 0.609018
O O8 0.445064 0.000000 0.663924
O O9 0.750000 0.500000 0.943833
O O10 0.000000 0.500000 0.000000
O O11 0.250000 0.154471 0.777289
O O12 0.017639 0.000000 0.784182
O O13 0.750000 0.000000 0.057420
O O14 0.500000 0.000000 0.000000
O O15 0.750000 0.158685 0.446715
O O16 0.000000 0.206951 0.500000
O O17 0.979791 0.000000 0.446739
#
# Coordination Sequence:
#
# PCOD9406920 Si02
#       6
#     8   8   4   8   4   8
#     4  11  22  37  55  77 103 130 160 198 242 287
#     4   7  11  20  34  52  77 111 149 188 229 275
#     4  10  24  42  58  76 100 130 161 194 237 290
#     4   9  16  28  47  70  94 122 160 199 238 285
#     4  12  24  38  56  80 104 128 159 196 237 282
#     4   8  12  18  28  43  67 103 146 187 226 267
#
# _framework density 17.150051000000001
#
# number of rings (size 3 to 8) (size 9 to 14) (size 15 to 20)
#    0.000    2.800    1.000    4.500    0.000    3.200 
#    0.000    1.000    0.000    3.600    0.000    0.000 
#    0.000    0.000    0.000    0.900    0.000   11.200 
#
# Total GULP energy -222673.036083 kJ/mol
# GULP energy per Si atom -5566.825902 kJ/mol
# Density = 1.711102 g / cm^3
# Si number density = 17.150051 Si / 1000 Ang^3
#
#
#
# Elastic Constant Matrix: (Units=GPa)
#
#
# Indices 1 2 3 4 5 6 
#
# 1 17.4981 18.6933 30.9707 0.0000 0.0000 0.0000
# 2 18.6933 73.9334 61.6211 0.0000 0.0000 0.0000
# 3 30.9707 61.6211 227.5743 0.0000 0.0000 0.0000
# 4 0.0000 0.0000 0.0000 10.7228 0.0000 0.0000
# 5 0.0000 0.0000 0.0000 0.0000 28.1259 0.0000
# 6 0.0000 0.0000 0.0000 0.0000 0.0000 -8.5874
#
#
#
# Elastic Compliance Matrix: (Units=1/GPa)
#
#
# Indices 1 2 3 4 5 6 
#
# 1 0.087508 -0.015755 -0.007643 0.000000 0.000000 0.000000
# 2 -0.015755 0.020305 -0.003354 0.000000 0.000000 0.000000
# 3 -0.007643 -0.003354 0.006342 0.000000 0.000000 0.000000
# 4 0.000000 0.000000 0.000000 0.093259 0.000000 0.000000
# 5 0.000000 0.000000 0.000000 0.000000 0.035554 0.000000
# 6 0.000000 0.000000 0.000000 0.000000 0.000000 -0.116450
#
#
# Mechanical properties :
#
#
# Convention : Reuss Voigt Hill
#
# Bulk Modulus (GPa) = 16.48783 60.17511 38.33147
# Shear Modulus (GPa) = 24.97003 19.90031 22.43517
#
# Velocity S-wave (km/s) = 3.81986 3.41011 3.62079
# Velocity P-wave (km/s) = 5.39350 7.11820 6.31501
#
# Compressibility (1/GPa) = 0.06065079
#
# Stress axis : x y z
#
# Youngs Moduli (GPa) = 11.42753 49.25008 157.66909
#
# Poissons Ratio (x) = 0.77596 1.20504
# Poissons Ratio (y) = 0.18005 0.52879
# Poissons Ratio (z) = 0.08734 0.16517
#
# Static dielectric constant tensor:
#      x y z
#    x 1.586140 0.000000 0.000000 
#    y 0.000000 1.560070 0.000000 
#    z 0.000000 0.000000 1.647700 
# 
# From -- ./inp_files/36090.got.cif
#   From: 2010.05.17/outbox.cif.g08.bks.cpg/sg51_19_cif.got.tgz:36090.got - 2010.06.03 11:52:47.
