data_PCOD9406181
_publ_section_title
;
Structure prediction by ZEFSAII (Michael W. Deem and Ramdas Pophale) SiO2 
 PCOD9406181
Probable space group: P M M A
;
_chemical_formula_sum "Si O2"
_cell_formula_units_Z 64
_cell_length_a 8.546819
_cell_length_b 24.478406
_cell_length_c 15.929687
_cell_angle_alpha 90.000000
_cell_angle_beta 90.000000
_cell_angle_gamma 90.000000
_cell_volume 3332.689729
_symmetry_space_group_name_H-M "P M M A"
_symmetry_group_IT_number 51
_symmetry_cell_setting 'orthorhombic'
loop_
_space_group_symop_operation_xyz
x,y,z
1/2-x,-y,z
1/2+x,-y,-z
-x,y,-z
-x,-y,-z
1/2+x,y,-z
1/2-x,y,z
x,-y,z
loop_
_atom_site_type_symbol
_atom_site_label
_atom_site_fract_x
_atom_site_fract_y
_atom_site_fract_z
Si Si1 0.438733 0.436786 0.409223
Si Si2 0.439227 0.368068 0.247868
Si Si3 0.563709 0.174211 0.588792
Si Si4 0.060237 0.059770 0.848149
Si Si5 0.439492 0.758332 0.248278
Si Si6 0.938373 0.060815 0.350197
Si Si7 0.062640 0.563257 0.908253
Si Si8 0.562440 0.175802 0.088962
O O1 0.500000 0.418545 0.500000
O O2 0.250000 0.435813 0.411107
O O3 0.488323 0.500000 0.396784
O O4 0.491955 0.399896 0.331618
O O5 0.250000 0.369651 0.246500
O O6 0.487650 0.304883 0.250067
O O7 0.499884 0.398800 0.165602
O O8 0.500000 0.194380 0.500000
O O9 0.750000 0.176686 0.587191
O O10 0.507337 0.209497 0.668331
O O11 0.512100 0.111629 0.602637
O O12 0.750000 0.059184 0.146780
O O13 0.022637 0.065409 0.749124
O O14 0.004279 0.113403 0.895988
O O15 0.003508 0.000000 0.877131
O O16 0.250000 0.760463 0.245972
O O17 0.504060 0.788293 0.166360
O O18 0.750000 0.063929 0.357149
O O19 0.987535 0.000000 0.378345
O O20 0.250000 0.564940 0.909369
O O21 0.013027 0.500000 0.893708
O O22 0.000000 0.579525 0.000000
O O23 0.750000 0.175500 0.088463
O O24 0.500000 0.196026 0.000000
#
# Coordination Sequence:
#
# PCOD9406181 Si02
#       8
#     8   8   8   8   8   8   8   8
#     4   9  18  33  55  84 116 148 181 220 270 325
#     4  10  21  38  60  83 112 151 193 236 282 329
#     4  11  23  38  58  82 112 147 188 235 285 342
#     4   8  15  30  54  82 110 140 175 220 276 336
#     4  10  23  42  59  80 111 147 192 242 282 325
#     4   9  17  33  58  84 110 141 180 228 283 342
#     4  10  21  37  59  89 122 153 187 229 278 332
#     4  11  22  37  60  84 111 147 186 229 281 339
#
# _framework density 19.203709
#
# number of rings (size 3 to 8) (size 9 to 14) (size 15 to 20)
#    0.000    2.250    1.250    2.250    0.000    4.500 
#    0.000    1.250    0.000    1.125    0.000    0.000 
#    0.000    0.000    0.000    0.000    0.000    0.000 
#
# Total GULP energy -357348.217464 kJ/mol
# GULP energy per Si atom -5583.565898 kJ/mol
# Density = 1.916000 g / cm^3
# Si number density = 19.203709 Si / 1000 Ang^3
#
#
#
# Elastic Constant Matrix: (Units=GPa)
#
#
# Indices 1 2 3 4 5 6 
#
# 1 17.0104 29.3041 31.0928 0.0000 0.0000 0.0000
# 2 29.3041 133.0448 106.2318 0.0000 0.0000 0.0000
# 3 31.0928 106.2318 179.1039 0.0000 0.0000 0.0000
# 4 0.0000 0.0000 0.0000 -5.7848 0.0000 0.0000
# 5 0.0000 0.0000 0.0000 0.0000 29.3051 0.0000
# 6 0.0000 0.0000 0.0000 0.0000 0.0000 22.0586
#
#
#
# Elastic Compliance Matrix: (Units=1/GPa)
#
#
# Indices 1 2 3 4 5 6 
#
# 1 0.100725 -0.015622 -0.008220 0.000000 0.000000 0.000000
# 2 -0.015622 0.016701 -0.007194 0.000000 0.000000 0.000000
# 3 -0.008220 -0.007194 0.011277 0.000000 0.000000 0.000000
# 4 0.000000 0.000000 0.000000 -0.172867 0.000000 0.000000
# 5 0.000000 0.000000 0.000000 0.000000 0.034124 0.000000
# 6 0.000000 0.000000 0.000000 0.000000 0.000000 0.045334
#
#
# Mechanical properties :
#
#
# Convention : Reuss Voigt Hill
#
# Bulk Modulus (GPa) = 15.00792 73.60186 44.30489
# Shear Modulus (GPa) = 41.81397 19.95113 30.88255
#
# Velocity S-wave (km/s) = 4.67131 3.22673 4.01453
# Velocity P-wave (km/s) = 6.07676 7.23135 6.67905
#
# Compressibility (1/GPa) = 0.06663147
#
# Stress axis : x y z
#
# Youngs Moduli (GPa) = 9.92800 59.87552 88.67262
#
# Poissons Ratio (x) = 0.93536 0.72892
# Poissons Ratio (y) = 0.15509 0.63792
# Poissons Ratio (z) = 0.08161 0.43075
#
# Static dielectric constant tensor:
#      x y z
#    x 1.652610 0.000000 0.000000 
#    y 0.000000 1.667340 0.000000 
#    z 0.000000 0.000000 1.651110 
# 
# From -- ./inp_files/22358.got.cif
#   From: 2010.05.17/outbox.cif.g08.bks.cpg/sg51_12_cif.got.tgz:22358.got - 2010.06.03 11:52:47.
