data_PCOD9406539
_publ_section_title
;
Structure prediction by ZEFSAII (Michael W. Deem and Ramdas Pophale) SiO2 
 PCOD9406539
Probable space group: P M M A
;
_chemical_formula_sum "Si O2"
_cell_formula_units_Z 36
_cell_length_a 8.642003
_cell_length_b 23.345596
_cell_length_c 9.224159
_cell_angle_alpha 90.000000
_cell_angle_beta 90.000000
_cell_angle_gamma 90.000000
_cell_volume 1860.999082
_symmetry_space_group_name_H-M "P M M A"
_symmetry_group_IT_number 51
_symmetry_cell_setting 'orthorhombic'
loop_
_space_group_symop_operation_xyz
x,y,z
1/2-x,-y,z
1/2+x,-y,-z
-x,y,-z
-x,-y,-z
1/2+x,y,-z
1/2-x,y,z
x,-y,z
loop_
_atom_site_type_symbol
_atom_site_label
_atom_site_fract_x
_atom_site_fract_y
_atom_site_fract_z
Si Si1 0.436530 0.886004 0.662770
Si Si2 0.934628 0.329700 0.338676
Si Si3 0.936218 0.000000 0.162286
Si Si4 0.934997 0.433116 0.839261
Si Si5 0.064816 0.777493 0.162336
O O1 0.500000 0.888491 0.500000
O O2 0.250000 0.882746 0.659956
O O3 0.483348 0.943113 0.750486
O O4 0.503274 0.830830 0.744354
O O5 0.750000 0.325290 0.340183
O O6 0.000000 0.322457 0.500000
O O7 0.986881 0.390535 0.273723
O O8 0.004437 0.280465 0.236594
O O9 0.750000 0.000000 0.154885
O O10 0.000000 0.000000 0.000000
O O11 0.750000 0.424856 0.838745
O O12 0.967310 0.500000 0.807743
O O13 0.000000 0.420851 0.000000
O O14 0.250000 0.777659 0.159604
O O15 0.000000 0.781758 0.000000
#
# Coordination Sequence:
#
# PCOD9406539 Si02
#       5
#     8   8   4   8   8
#     4  11  23  41  63  92 125 162 204 250 304 360
#     4  12  25  42  63  89 122 160 202 250 303 360
#     4  10  23  40  62  90 124 162 205 252 301 358
#     4  10  21  39  63  91 123 160 202 248 299 357
#     4  12  25  43  65  91 122 159 202 250 302 360
#
# _framework density 19.344446999999999
#
# number of rings (size 3 to 8) (size 9 to 14) (size 15 to 20)
#    0.000    0.889    0.000    7.667    0.000    5.333 
#    0.000    0.000    0.000    0.000    0.000    0.000 
#    0.000    0.000    0.000    0.000    0.000    0.000 
#
# Total GULP energy -201547.283418 kJ/mol
# GULP energy per Si atom -5598.535650 kJ/mol
# Density = 1.930042 g / cm^3
# Si number density = 19.344447 Si / 1000 Ang^3
#
#
#
# Elastic Constant Matrix: (Units=GPa)
#
#
# Indices 1 2 3 4 5 6 
#
# 1 142.2517 60.9011 68.2928 0.0000 0.0000 0.0000
# 2 60.9011 105.9875 81.6458 0.0000 0.0000 0.0000
# 3 68.2928 81.6458 183.8211 0.0000 0.0000 0.0000
# 4 0.0000 0.0000 0.0000 36.3529 0.0000 0.0000
# 5 0.0000 0.0000 0.0000 0.0000 42.7267 0.0000
# 6 0.0000 0.0000 0.0000 0.0000 0.0000 55.1875
#
#
#
# Elastic Compliance Matrix: (Units=1/GPa)
#
#
# Indices 1 2 3 4 5 6 
#
# 1 0.009664 -0.004237 -0.001708 0.000000 0.000000 0.000000
# 2 -0.004237 0.016200 -0.005621 0.000000 0.000000 0.000000
# 3 -0.001708 -0.005621 0.008572 0.000000 0.000000 0.000000
# 4 0.000000 0.000000 0.000000 0.027508 0.000000 0.000000
# 5 0.000000 0.000000 0.000000 0.000000 0.023405 0.000000
# 6 0.000000 0.000000 0.000000 0.000000 0.000000 0.018120
#
#
# Mechanical properties :
#
#
# Convention : Reuss Voigt Hill
#
# Bulk Modulus (GPa) = 88.47886 94.85997 91.66942
# Shear Modulus (GPa) = 38.35283 41.60145 39.97714
#
# Velocity S-wave (km/s) = 4.45750 4.64245 4.55091
# Velocity P-wave (km/s) = 8.50473 8.82498 8.66633
#
# Compressibility (1/GPa) = 0.01130213
#
# Stress axis : x y z
#
# Youngs Moduli (GPa) = 103.47808 61.72910 116.66525
#
# Poissons Ratio (x) = 0.26154 0.19932
# Poissons Ratio (y) = 0.43842 0.65580
# Poissons Ratio (z) = 0.17679 0.34699
#
# Static dielectric constant tensor:
#      x y z
#    x 1.647480 0.000000 0.000000 
#    y 0.000000 1.657610 0.000000 
#    z 0.000000 0.000000 1.628180 
# 
# From -- ./inp_files/5281.got.cif
#   From: 2010.05.17/outbox.cif.g08.bks.cpg/sg51_3_cif.got.tgz:5281.got - 2010.06.03 11:52:47.
