data_PCOD9406776
_publ_section_title
;
Structure prediction by ZEFSAII (Michael W. Deem and Ramdas Pophale) SiO2 
 PCOD9406776
Probable space group: P M M A
;
_chemical_formula_sum "Si O2"
_cell_formula_units_Z 64
_cell_length_a 15.258583
_cell_length_b 22.312143
_cell_length_c 9.960880
_cell_angle_alpha 90.000000
_cell_angle_beta 90.000000
_cell_angle_gamma 90.000000
_cell_volume 3391.198389
_symmetry_space_group_name_H-M "P M M A"
_symmetry_group_IT_number 51
_symmetry_cell_setting 'orthorhombic'
loop_
_space_group_symop_operation_xyz
x,y,z
1/2-x,-y,z
1/2+x,-y,-z
-x,y,-z
-x,-y,-z
1/2+x,y,-z
1/2-x,y,z
x,-y,z
loop_
_atom_site_type_symbol
_atom_site_label
_atom_site_fract_x
_atom_site_fract_y
_atom_site_fract_z
Si Si1 0.355362 0.931257 0.223605
Si Si2 0.350692 0.428462 0.047986
Si Si3 0.101662 0.152857 0.462069
Si Si4 0.017723 0.311532 0.655716
Si Si5 0.845809 0.792523 0.270777
Si Si6 0.153191 0.743277 0.251766
Si Si7 0.398301 0.827674 0.017959
Si Si8 0.530588 0.428916 0.207866
O O1 0.250000 0.928025 0.217887
O O2 0.383137 0.904808 0.368485
O O3 0.390076 0.888453 0.104695
O O4 0.383083 0.000000 0.207951
O O5 0.250000 0.404147 0.065692
O O6 0.340644 0.500000 0.041654
O O7 0.399623 0.411681 0.909011
O O8 0.430169 0.420690 0.154951
O O9 0.147697 0.161511 0.604833
O O10 0.134899 0.206464 0.365802
O O11 0.000000 0.157802 0.500000
O O12 0.083527 0.260240 0.708462
O O13 0.000000 0.300722 0.500000
O O14 0.926591 0.301502 0.733198
O O15 0.046999 0.379738 0.678191
O O16 0.750000 0.764373 0.271590
O O17 0.859733 0.826749 0.130830
O O18 0.250000 0.718114 0.271117
O O19 0.146443 0.777262 0.110165
O O20 0.500000 0.812843 0.000000
O O21 0.541315 0.500000 0.238714
#
# Coordination Sequence:
#
# PCOD9406776 Si02
#       8
#     8   8   8   8   8   8   8   8
#     4  10  22  40  60  86 122 167 209 237 283 364
#     4   8  15  33  59  82 107 144 188 233 286 349
#     4  11  19  38  62  86 116 154 199 252 295 349
#     4  12  24  39  57  85 117 155 202 253 298 358
#     4  12  22  37  60  89 118 151 197 254 312 352
#     4  11  21  39  61  83 114 158 200 240 302 367
#     4  11  21  38  61  88 123 152 193 251 304 355
#     4   9  20  36  57  85 118 154 194 241 298 363
#
# _framework density 18.872385999999999
#
# number of rings (size 3 to 8) (size 9 to 14) (size 15 to 20)
#    0.000    1.500    3.750    4.500    0.000    3.750 
#    0.000    0.625    0.000    2.250    0.000    5.250 
#    0.000    0.000    0.000    0.000    0.000    0.000 
#
# Total GULP energy -356752.996419 kJ/mol
# GULP energy per Si atom -5574.265569 kJ/mol
# Density = 1.882943 g / cm^3
# Si number density = 18.872386 Si / 1000 Ang^3
#
#
#
# Elastic Constant Matrix: (Units=GPa)
#
#
# Indices 1 2 3 4 5 6 
#
# 1 122.9153 11.2523 15.5792 0.0000 0.0000 0.0000
# 2 11.2523 82.1253 39.0621 0.0000 0.0000 0.0000
# 3 15.5792 39.0621 119.9261 0.0000 0.0000 0.0000
# 4 0.0000 0.0000 0.0000 19.7175 0.0000 0.0000
# 5 0.0000 0.0000 0.0000 0.0000 42.5878 0.0000
# 6 0.0000 0.0000 0.0000 0.0000 0.0000 -0.4910
#
#
#
# Elastic Compliance Matrix: (Units=1/GPa)
#
#
# Indices 1 2 3 4 5 6 
#
# 1 0.008310 -0.000740 -0.000839 0.000000 0.000000 0.000000
# 2 -0.000740 0.014475 -0.004619 0.000000 0.000000 0.000000
# 3 -0.000839 -0.004619 0.009952 0.000000 0.000000 0.000000
# 4 0.000000 0.000000 0.000000 0.050716 0.000000 0.000000
# 5 0.000000 0.000000 0.000000 0.000000 0.023481 0.000000
# 6 0.000000 0.000000 0.000000 0.000000 0.000000 -2.036605
#
#
# Mechanical properties :
#
#
# Convention : Reuss Voigt Hill
#
# Bulk Modulus (GPa) = 49.15828 50.75046 49.95437
# Shear Modulus (GPa) = -2.61712 29.63440 13.50864
#
# Velocity S-wave (km/s) = -1.17888 3.96694 2.67833
# Velocity P-wave (km/s) = 4.92456 6.92329 6.00763
#
# Compressibility (1/GPa) = 0.02034245
#
# Stress axis : x y z
#
# Youngs Moduli (GPa) = 120.34152 69.08632 100.48483
#
# Poissons Ratio (x) = 0.05110 0.08426
# Poissons Ratio (y) = 0.08902 0.46410
# Poissons Ratio (z) = 0.10091 0.31908
#
# Static dielectric constant tensor:
#      x y z
#    x 1.735120 0.000000 0.000000 
#    y 0.000000 1.642280 0.000000 
#    z 0.000000 0.000000 1.676960 
# 
# From -- ./inp_files/8721.got.cif
#   From: 2010.05.17/outbox.cif.g08.bks.cpg/sg51_5_cif.got.tgz:8721.got - 2010.06.03 11:52:47.
