data_PCOD9406969
_publ_section_title
;
Structure prediction by ZEFSAII (Michael W. Deem and Ramdas Pophale) SiO2 
 PCOD9406969
Probable space group: P M M A
;
_chemical_formula_sum "Si O2"
_cell_formula_units_Z 48
_cell_length_a 18.644349
_cell_length_b 11.954055
_cell_length_c 13.094797
_cell_angle_alpha 90.000000
_cell_angle_beta 90.000000
_cell_angle_gamma 90.000000
_cell_volume 2918.510390
_symmetry_space_group_name_H-M "P M M A"
_symmetry_group_IT_number 51
_symmetry_cell_setting 'orthorhombic'
loop_
_space_group_symop_operation_xyz
x,y,z
1/2-x,-y,z
1/2+x,-y,-z
-x,y,-z
-x,-y,-z
1/2+x,y,-z
1/2-x,y,z
x,-y,z
loop_
_atom_site_type_symbol
_atom_site_label
_atom_site_fract_x
_atom_site_fract_y
_atom_site_fract_z
Si Si1 0.662606 0.871046 0.090388
Si Si2 0.335647 0.134075 0.676717
Si Si3 0.546425 0.500000 0.286062
Si Si4 0.924097 0.310710 0.449875
Si Si5 0.673089 0.500000 0.127597
Si Si6 0.112086 0.500000 0.203366
Si Si7 0.665390 0.500000 0.568877
Si Si8 0.667667 0.682063 0.950743
O O1 0.750000 0.864819 0.087838
O O2 0.642989 0.835258 0.206012
O O3 0.642236 0.000000 0.078407
O O4 0.635885 0.796052 0.996371
O O5 0.250000 0.154464 0.666881
O O6 0.379101 0.207814 0.595905
O O7 0.346630 0.000000 0.665405
O O8 0.554592 0.607642 0.357287
O O9 0.609393 0.500000 0.205070
O O10 0.470506 0.500000 0.232144
O O11 0.875700 0.390660 0.523331
O O12 0.000000 0.276819 0.500000
O O13 0.750000 0.500000 0.182278
O O14 0.670134 0.604788 0.051733
O O15 0.156003 0.500000 0.308867
O O16 0.129729 0.390642 0.135660
O O17 0.750000 0.500000 0.541732
O O18 0.750000 0.699832 0.916752
#
# Coordination Sequence:
#
# PCOD9406969 Si02
#       8
#     8   8   4   8   4   4   4   8
#     4   8  14  27  48  75 104 129 157 205 261 302
#     4   9  18  33  56  83 104 128 169 213 256 314
#     4  11  21  34  51  72 108 134 169 214 259 316
#     4  11  21  36  51  74 107 136 167 218 267 312
#     4   9  18  30  47  73  99 123 157 209 259 302
#     4  11  20  34  48  70 104 145 173 210 246 295
#     4  11  21  36  56  75  99 142 182 216 257 298
#     4   9  17  29  47  73 101 131 173 210 244 302
#
# _framework density 16.446746999999998
#
# number of rings (size 3 to 8) (size 9 to 14) (size 15 to 20)
#    0.000    2.333    1.667    4.250    0.000    5.000 
#    0.000    0.000    0.000    2.000    0.000    5.833 
#    0.000    0.000    0.000    0.000    0.000    0.000 
#
# Total GULP energy -267442.390342 kJ/mol
# GULP energy per Si atom -5571.716465 kJ/mol
# Density = 1.640931 g / cm^3
# Si number density = 16.446747 Si / 1000 Ang^3
#
#
#
# Elastic Constant Matrix: (Units=GPa)
#
#
# Indices 1 2 3 4 5 6 
#
# 1 90.1795 33.0529 48.2998 0.0000 0.0000 0.0000
# 2 33.0529 81.9773 50.4138 0.0000 0.0000 0.0000
# 3 48.2998 50.4138 98.0322 0.0000 0.0000 0.0000
# 4 0.0000 0.0000 0.0000 27.0589 0.0000 0.0000
# 5 0.0000 0.0000 0.0000 0.0000 25.9540 0.0000
# 6 0.0000 0.0000 0.0000 0.0000 0.0000 128.0886
#
#
#
# Elastic Compliance Matrix: (Units=1/GPa)
#
#
# Indices 1 2 3 4 5 6 
#
# 1 0.015342 -0.002248 -0.006403 0.000000 0.000000 0.000000
# 2 -0.002248 0.018170 -0.008236 0.000000 0.000000 0.000000
# 3 -0.006403 -0.008236 0.017591 0.000000 0.000000 0.000000
# 4 0.000000 0.000000 0.000000 0.036956 0.000000 0.000000
# 5 0.000000 0.000000 0.000000 0.000000 0.038530 0.000000
# 6 0.000000 0.000000 0.000000 0.000000 0.000000 0.007807
#
#
# Mechanical properties :
#
#
# Convention : Reuss Voigt Hill
#
# Bulk Modulus (GPa) = 57.70898 59.30243 58.50571
# Shear Modulus (GPa) = 28.74418 45.44846 37.09632
#
# Velocity S-wave (km/s) = 4.18510 5.26248 4.75441
# Velocity P-wave (km/s) = 7.64970 8.54754 8.11106
#
# Compressibility (1/GPa) = 0.01732833
#
# Stress axis : x y z
#
# Youngs Moduli (GPa) = 65.17871 55.03512 56.84729
#
# Poissons Ratio (x) = 0.12374 0.36398
# Poissons Ratio (y) = 0.14655 0.46822
# Poissons Ratio (z) = 0.41733 0.45329
#
# Static dielectric constant tensor:
#      x y z
#    x 1.550520 0.000000 0.000000 
#    y 0.000000 1.587110 0.000000 
#    z 0.000000 0.000000 1.547390 
# 
# From -- ./inp_files/18189.got.cif
#   From: 2010.05.17/outbox.cif.g08.bks.cpg/sg51_10_cif.got.tgz:18189.got - 2010.06.03 11:52:47.
