data_PCOD9406737
_publ_section_title
;
Structure prediction by ZEFSAII (Michael W. Deem and Ramdas Pophale) SiO2 
 PCOD9406737
Probable space group: P M M A
;
_chemical_formula_sum "Si O2"
_cell_formula_units_Z 64
_cell_length_a 15.274410
_cell_length_b 22.777956
_cell_length_c 8.949914
_cell_angle_alpha 90.000000
_cell_angle_beta 90.000000
_cell_angle_gamma 90.000000
_cell_volume 3113.852637
_symmetry_space_group_name_H-M "P M M A"
_symmetry_group_IT_number 51
_symmetry_cell_setting 'orthorhombic'
loop_
_space_group_symop_operation_xyz
x,y,z
1/2-x,-y,z
1/2+x,-y,-z
-x,y,-z
-x,-y,-z
1/2+x,y,-z
1/2-x,y,z
x,-y,z
loop_
_atom_site_type_symbol
_atom_site_label
_atom_site_fract_x
_atom_site_fract_y
_atom_site_fract_z
Si Si1 0.846492 0.888911 0.265877
Si Si2 0.021641 0.066066 0.170431
Si Si3 0.594953 0.850591 0.575923
Si Si4 0.346741 0.260543 0.258183
Si Si5 0.899008 0.220823 0.053986
Si Si6 0.648745 0.566162 0.852523
Si Si7 0.851729 0.352068 0.142114
Si Si8 0.020421 0.364492 0.327350
O O1 0.750000 0.907435 0.217384
O O2 0.924915 0.933714 0.240326
O O3 0.848331 0.877253 0.442756
O O4 0.873184 0.830760 0.168670
O O5 0.078235 0.109072 0.276670
O O6 0.058317 0.000000 0.166952
O O7 0.000000 0.084959 0.000000
O O8 0.500000 0.841553 0.500000
O O9 0.635258 0.788569 0.619260
O O10 0.250000 0.287848 0.274875
O O11 0.425176 0.307483 0.268267
O O12 0.348589 0.225021 0.102693
O O13 0.874779 0.283374 0.125810
O O14 0.000000 0.217894 0.000000
O O15 0.750000 0.568978 0.805657
O O16 0.631658 0.500000 0.907671
O O17 0.584459 0.582889 0.719029
O O18 0.637443 0.613359 0.985643
O O19 0.750000 0.358751 0.187668
O O20 0.927372 0.374687 0.249387
O O21 0.000000 0.357028 0.500000
#
# Coordination Sequence:
#
# PCOD9406737 Si02
#       8
#     8   8   8   8   8   8   8   8
#     4  11  23  37  59  93 127 164 208 265 332 394
#     4  10  22  42  67  90 119 167 221 269 315 380
#     4  10  22  39  59  88 124 165 206 257 320 395
#     4  12  23  38  60  88 126 168 214 267 326 389
#     4  12  21  38  62  88 126 166 214 270 324 385
#     4  10  22  45  73  97 125 168 223 278 328 389
#     4  11  23  41  64  93 126 168 221 274 325 386
#     4  12  26  40  60  95 135 176 214 268 332 403
#
# _framework density 20.553318000000001
#
# number of rings (size 3 to 8) (size 9 to 14) (size 15 to 20)
#    0.000    1.000    2.500    5.250    1.750    4.750 
#    0.000    0.625    0.000    4.125    0.000    0.000 
#    0.000    0.000    0.000    0.000    0.000    0.000 
#
# Total GULP energy -357228.634254 kJ/mol
# GULP energy per Si atom -5581.697410 kJ/mol
# Density = 2.050654 g / cm^3
# Si number density = 20.553318 Si / 1000 Ang^3
#
#
#
# Elastic Constant Matrix: (Units=GPa)
#
#
# Indices 1 2 3 4 5 6 
#
# 1 124.6899 17.7813 40.4644 0.0000 0.0000 0.0000
# 2 17.7813 79.3159 16.2247 0.0000 0.0000 0.0000
# 3 40.4644 16.2247 96.4495 0.0000 0.0000 0.0000
# 4 0.0000 0.0000 0.0000 8.0506 0.0000 0.0000
# 5 0.0000 0.0000 0.0000 0.0000 8.6154 0.0000
# 6 0.0000 0.0000 0.0000 0.0000 0.0000 18.2512
#
#
#
# Elastic Compliance Matrix: (Units=1/GPa)
#
#
# Indices 1 2 3 4 5 6 
#
# 1 0.009421 -0.001350 -0.003726 0.000000 0.000000 0.000000
# 2 -0.001350 0.013251 -0.001663 0.000000 0.000000 0.000000
# 3 -0.003726 -0.001663 0.012211 0.000000 0.000000 0.000000
# 4 0.000000 0.000000 0.000000 0.124215 0.000000 0.000000
# 5 0.000000 0.000000 0.000000 0.000000 0.116071 0.000000
# 6 0.000000 0.000000 0.000000 0.000000 0.000000 0.054791
#
#
# Mechanical properties :
#
#
# Convention : Reuss Voigt Hill
#
# Bulk Modulus (GPa) = 46.71498 49.93290 48.32394
# Shear Modulus (GPa) = 14.26240 22.04908 18.15574
#
# Velocity S-wave (km/s) = 2.63710 3.27888 2.97534
# Velocity P-wave (km/s) = 5.66131 6.21947 5.94694
#
# Compressibility (1/GPa) = 0.02140641
#
# Stress axis : x y z
#
# Youngs Moduli (GPa) = 106.14084 75.46846 81.89452
#
# Poissons Ratio (x) = 0.10188 0.30510
# Poissons Ratio (y) = 0.14329 0.13616
# Poissons Ratio (z) = 0.39544 0.12547
#
# Static dielectric constant tensor:
#      x y z
#    x 1.756050 0.000000 0.000000 
#    y 0.000000 1.749770 0.000000 
#    z 0.000000 0.000000 1.759610 
# 
# From -- ./inp_files/8742.got.cif
#   From: 2010.05.17/outbox.cif.g08.bks.cpg/sg51_5_cif.got.tgz:8742.got - 2010.06.03 11:52:47.
