data_PCOD9406023
_publ_section_title
;
Structure prediction by ZEFSAII (Michael W. Deem and Ramdas Pophale) SiO2 
 PCOD9406023
Probable space group: P M M A
;
_chemical_formula_sum "Si O2"
_cell_formula_units_Z 48
_cell_length_a 15.490736
_cell_length_b 9.370634
_cell_length_c 17.705100
_cell_angle_alpha 90.000000
_cell_angle_beta 90.000000
_cell_angle_gamma 90.000000
_cell_volume 2570.037215
_symmetry_space_group_name_H-M "P M M A"
_symmetry_group_IT_number 51
_symmetry_cell_setting 'orthorhombic'
loop_
_space_group_symop_operation_xyz
x,y,z
1/2-x,-y,z
1/2+x,-y,-z
-x,y,-z
-x,-y,-z
1/2+x,y,-z
1/2-x,y,z
x,-y,z
loop_
_atom_site_type_symbol
_atom_site_label
_atom_site_fract_x
_atom_site_fract_y
_atom_site_fract_z
Si Si1 0.602509 0.659897 0.998176
Si Si2 0.853538 0.838687 0.849661
Si Si3 0.646766 0.160636 0.144650
Si Si4 0.351209 0.670323 0.300466
Si Si5 0.148423 0.827762 0.686376
Si Si6 0.506500 0.328923 0.411914
O O1 0.639403 0.500000 0.992084
O O2 0.628001 0.735860 0.075851
O O3 0.500000 0.649384 0.000000
O O4 0.626085 0.754409 0.925930
O O5 0.750000 0.847098 0.845532
O O6 0.880292 0.753471 0.774772
O O7 0.888424 0.000000 0.851186
O O8 0.750000 0.149704 0.150730
O O9 0.618673 0.209482 0.227959
O O10 0.613281 0.000000 0.129417
O O11 0.250000 0.704731 0.316676
O O12 0.355094 0.500000 0.286404
O O13 0.417216 0.704105 0.367891
O O14 0.250000 0.789232 0.676755
O O15 0.085433 0.751530 0.628062
O O16 0.143083 0.000000 0.680498
O O17 0.500000 0.291413 0.500000
O O18 0.519994 0.500000 0.406355
#
# Coordination Sequence:
#
# PCOD9406023 Si02
#       6
#     8   8   8   8   8   8
#     4  11  24  36  49  77 114 148 184 227 274 327
#     4  10  21  37  57  80 106 141 187 234 279 329
#     4   9  19  37  58  79 106 143 187 232 278 329
#     4   9  19  37  59  82 114 154 191 232 284 339
#     4   9  20  39  61  86 117 153 192 236 288 342
#     4  10  22  38  59  89 120 151 189 234 285 344
#
# _framework density 18.676772
#
# number of rings (size 3 to 8) (size 9 to 14) (size 15 to 20)
#    0.000    2.333    0.000    2.500    2.333    7.333 
#    0.000    3.333    0.000    2.000    0.000    0.000 
#    0.000    0.000    0.000    0.000    0.000    0.000 
#
# Total GULP energy -267852.405424 kJ/mol
# GULP energy per Si atom -5580.258446 kJ/mol
# Density = 1.863426 g / cm^3
# Si number density = 18.676772 Si / 1000 Ang^3
#
#
#
# Elastic Constant Matrix: (Units=GPa)
#
#
# Indices 1 2 3 4 5 6 
#
# 1 75.9896 41.9972 69.2176 0.0000 0.0000 0.0000
# 2 41.9972 83.3528 90.4665 0.0000 0.0000 0.0000
# 3 69.2176 90.4665 199.6097 0.0000 0.0000 0.0000
# 4 0.0000 0.0000 0.0000 41.6363 0.0000 0.0000
# 5 0.0000 0.0000 0.0000 0.0000 36.9298 0.0000
# 6 0.0000 0.0000 0.0000 0.0000 0.0000 11.5223
#
#
#
# Elastic Compliance Matrix: (Units=1/GPa)
#
#
# Indices 1 2 3 4 5 6 
#
# 1 0.020275 -0.005087 -0.004725 0.000000 0.000000 0.000000
# 2 -0.005087 0.024888 -0.009516 0.000000 0.000000 0.000000
# 3 -0.004725 -0.009516 0.010961 0.000000 0.000000 0.000000
# 4 0.000000 0.000000 0.000000 0.024018 0.000000 0.000000
# 5 0.000000 0.000000 0.000000 0.000000 0.027078 0.000000
# 6 0.000000 0.000000 0.000000 0.000000 0.000000 0.086788
#
#
# Mechanical properties :
#
#
# Convention : Reuss Voigt Hill
#
# Bulk Modulus (GPa) = 57.24658 84.70163 70.97410
# Shear Modulus (GPa) = 20.96546 28.50239 24.73393
#
# Velocity S-wave (km/s) = 3.35407 3.91076 3.64306
# Velocity P-wave (km/s) = 6.76147 8.11430 7.46858
#
# Compressibility (1/GPa) = 0.01746829
#
# Stress axis : x y z
#
# Youngs Moduli (GPa) = 49.32101 40.17969 91.23321
#
# Poissons Ratio (x) = 0.20441 0.43109
# Poissons Ratio (y) = 0.25091 0.86814
# Poissons Ratio (z) = 0.23305 0.38234
#
# Static dielectric constant tensor:
#      x y z
#    x 1.654750 0.000000 0.000000 
#    y 0.000000 1.660810 0.000000 
#    z 0.000000 0.000000 1.638830 
# 
# From -- ./inp_files/29400.got.cif
#   From: 2010.05.17/outbox.cif.g08.bks.cpg/sg51_15_cif.got.tgz:29400.got - 2010.06.03 11:52:47.
