data_PCOD9406503
_publ_section_title
;
Structure prediction by ZEFSAII (Michael W. Deem and Ramdas Pophale) SiO2 
 PCOD9406503
Probable space group: P M M A
;
_chemical_formula_sum "Si O2"
_cell_formula_units_Z 40
_cell_length_a 16.682823
_cell_length_b 7.656620
_cell_length_c 13.980687
_cell_angle_alpha 90.000000
_cell_angle_beta 90.000000
_cell_angle_gamma 90.000000
_cell_volume 1785.809580
_symmetry_space_group_name_H-M "P M M A"
_symmetry_group_IT_number 51
_symmetry_cell_setting 'orthorhombic'
loop_
_space_group_symop_operation_xyz
x,y,z
1/2-x,-y,z
1/2+x,-y,-z
-x,y,-z
-x,-y,-z
1/2+x,y,-z
1/2-x,y,z
x,-y,z
loop_
_atom_site_type_symbol
_atom_site_label
_atom_site_fract_x
_atom_site_fract_y
_atom_site_fract_z
Si Si1 0.250000 0.212407 0.743116
Si Si2 0.081187 0.202084 0.045522
Si Si3 0.750000 0.213483 0.034109
Si Si4 0.087093 0.794741 0.643927
Si Si5 0.423265 0.299937 0.261616
Si Si6 0.159756 0.288479 0.448982
O O1 0.250000 0.258555 0.854168
O O2 0.330821 0.272939 0.691619
O O3 0.250000 0.000000 0.736446
O O4 0.075616 0.207740 0.159883
O O5 0.082469 0.000000 0.012573
O O6 0.166886 0.276933 0.012683
O O7 0.000000 0.281091 0.000000
O O8 0.750000 0.000000 0.025786
O O9 0.099166 0.772001 0.530793
O O10 0.010220 0.704853 0.688916
O O11 0.078914 0.000000 0.665551
O O12 0.400060 0.500000 0.242324
O O13 0.364786 0.226959 0.343495
O O14 0.250000 0.231555 0.473247
O O15 0.157588 0.500000 0.447838
#
# Coordination Sequence:
#
# PCOD9406503 Si02
#       6
#     4   8   4   8   8   8
#     4   9  18  34  58  87 116 148 189 241 300 355
#     4  10  21  39  62  88 118 155 199 253 310 359
#     4   9  18  34  58  85 114 150 193 243 304 365
#     4  11  21  37  61  90 119 152 197 250 299 350
#     4  11  24  39  59  85 119 161 201 241 295 358
#     4  10  22  40  59  82 119 162 199 239 293 357
#
# _framework density 22.398804999999999
#
# number of rings (size 3 to 8) (size 9 to 14) (size 15 to 20)
#    0.000    1.800    1.000    3.000    1.400    7.600 
#    0.000    0.000    0.000    2.400    0.000    0.000 
#    0.000    0.000    0.000    0.000    0.000    0.000 
#
# Total GULP energy -223612.517240 kJ/mol
# GULP energy per Si atom -5590.312931 kJ/mol
# Density = 2.234782 g / cm^3
# Si number density = 22.398805 Si / 1000 Ang^3
#
#
#
# Elastic Constant Matrix: (Units=GPa)
#
#
# Indices 1 2 3 4 5 6 
#
# 1 124.5962 0.4858 49.7580 0.0000 0.0000 0.0000
# 2 0.4858 46.0570 -9.8971 0.0000 0.0000 0.0000
# 3 49.7580 -9.8971 120.2889 0.0000 0.0000 0.0000
# 4 0.0000 0.0000 0.0000 32.1791 0.0000 0.0000
# 5 0.0000 0.0000 0.0000 0.0000 29.4839 0.0000
# 6 0.0000 0.0000 0.0000 0.0000 0.0000 8.6870
#
#
#
# Elastic Compliance Matrix: (Units=1/GPa)
#
#
# Indices 1 2 3 4 5 6 
#
# 1 0.009657 -0.000978 -0.004075 0.000000 0.000000 0.000000
# 2 -0.000978 0.022202 0.002231 0.000000 0.000000 0.000000
# 3 -0.004075 0.002231 0.010183 0.000000 0.000000 0.000000
# 4 0.000000 0.000000 0.000000 0.031076 0.000000 0.000000
# 5 0.000000 0.000000 0.000000 0.000000 0.033917 0.000000
# 6 0.000000 0.000000 0.000000 0.000000 0.000000 0.115114
#
#
# Mechanical properties :
#
#
# Convention : Reuss Voigt Hill
#
# Bulk Modulus (GPa) = 27.47368 41.29283 34.38325
# Shear Modulus (GPa) = 20.83988 30.77638 25.80813
#
# Velocity S-wave (km/s) = 3.05356 3.71080 3.39810
# Velocity P-wave (km/s) = 4.97238 6.06921 5.54797
#
# Compressibility (1/GPa) = 0.03639848
#
# Stress axis : x y z
#
# Youngs Moduli (GPa) = 103.55006 45.04108 98.20678
#
# Poissons Ratio (x) = 0.04403 0.40021
# Poissons Ratio (y) = 0.10123 -0.21911
# Poissons Ratio (z) = 0.42198 -0.10049
#
# Static dielectric constant tensor:
#      x y z
#    x 1.823630 0.000000 0.000000 
#    y 0.000000 1.850820 0.000000 
#    z 0.000000 0.000000 1.771260 
# 
# From -- ./inp_files/23732.got.cif
#   From: 2010.05.17/outbox.cif.g08.bks.cpg/sg51_12_cif.got.tgz:23732.got - 2010.06.03 11:52:47.
