data_PCOD9406030
_publ_section_title
;
Structure prediction by ZEFSAII (Michael W. Deem and Ramdas Pophale) SiO2 
 PCOD9406030
Probable space group: P M M A
;
_chemical_formula_sum "Si O2"
_cell_formula_units_Z 64
_cell_length_a 21.917966
_cell_length_b 8.880225
_cell_length_c 17.151000
_cell_angle_alpha 90.000000
_cell_angle_beta 90.000000
_cell_angle_gamma 90.000000
_cell_volume 3338.210090
_symmetry_space_group_name_H-M "P M M A"
_symmetry_group_IT_number 51
_symmetry_cell_setting 'orthorhombic'
loop_
_space_group_symop_operation_xyz
x,y,z
1/2-x,-y,z
1/2+x,-y,-z
-x,y,-z
-x,-y,-z
1/2+x,y,-z
1/2-x,y,z
x,-y,z
loop_
_atom_site_type_symbol
_atom_site_label
_atom_site_fract_x
_atom_site_fract_y
_atom_site_fract_z
Si Si1 0.820272 0.181210 0.560121
Si Si2 0.820551 0.181161 0.382548
Si Si3 0.909331 0.174169 0.955666
Si Si4 0.010677 0.318228 0.171547
Si Si5 0.181562 0.681213 0.923764
Si Si6 0.611238 0.673473 0.698722
Si Si7 0.621512 0.680622 0.233232
Si Si8 0.820047 0.668333 0.848707
O O1 0.750000 0.230911 0.577057
O O2 0.835134 0.228272 0.471304
O O3 0.869337 0.238387 0.622229
O O4 0.819620 0.000000 0.561818
O O5 0.750000 0.224654 0.367548
O O6 0.862550 0.248430 0.315725
O O7 0.823770 0.000000 0.379928
O O8 0.966679 0.248820 0.910567
O O9 0.856794 0.201670 0.890707
O O10 0.920938 0.000000 0.971405
O O11 0.875790 0.253032 0.028482
O O12 0.012313 0.500000 0.163890
O O13 0.056700 0.276876 0.242950
O O14 0.943650 0.271616 0.198207
O O15 0.250000 0.731239 0.948111
O O16 0.179587 0.500000 0.932358
O O17 0.171093 0.718071 0.833065
O O18 0.598569 0.500000 0.678162
O O19 0.669135 0.678356 0.756929
O O20 0.620061 0.500000 0.241461
O O21 0.750000 0.673567 0.868857
O O22 0.843952 0.500000 0.872090
#
# Coordination Sequence:
#
# PCOD9406030 Si02
#       8
#     8   8   8   8   8   8   8   8
#     4   9  18  32  50  75 108 143 176 212 260 317
#     4   9  19  36  56  79 110 143 170 208 270 327
#     4  11  22  34  51  77 107 139 177 215 252 306
#     4   9  20  39  57  75 106 144 178 217 267 314
#     4  10  21  37  57  81 108 135 166 212 270 322
#     4   9  17  30  49  73 101 135 175 216 259 308
#     4  10  21  38  61  83 101 132 182 229 263 307
#     4   9  17  30  48  70 101 140 176 214 265 316
#
# _framework density 19.171952000000001
#
# number of rings (size 3 to 8) (size 9 to 14) (size 15 to 20)
#    0.000    2.500    0.000    3.750    0.000    7.500 
#    0.000    4.375    0.000    3.750    0.000    0.000 
#    0.000    0.000    0.000    0.000    0.000    0.000 
#
# Total GULP energy -356733.628134 kJ/mol
# GULP energy per Si atom -5573.962940 kJ/mol
# Density = 1.912832 g / cm^3
# Si number density = 19.171952 Si / 1000 Ang^3
#
#
#
# Elastic Constant Matrix: (Units=GPa)
#
#
# Indices 1 2 3 4 5 6 
#
# 1 69.1916 14.2222 35.3149 0.0000 0.0000 0.0000
# 2 14.2222 27.0683 26.6001 0.0000 0.0000 0.0000
# 3 35.3149 26.6001 113.4067 0.0000 0.0000 0.0000
# 4 0.0000 0.0000 0.0000 36.4864 0.0000 0.0000
# 5 0.0000 0.0000 0.0000 0.0000 24.4023 0.0000
# 6 0.0000 0.0000 0.0000 0.0000 0.0000 19.0901
#
#
#
# Elastic Compliance Matrix: (Units=1/GPa)
#
#
# Indices 1 2 3 4 5 6 
#
# 1 0.017699 -0.005046 -0.004328 0.000000 0.000000 0.000000
# 2 -0.005046 0.049448 -0.010027 0.000000 0.000000 0.000000
# 3 -0.004328 -0.010027 0.012517 0.000000 0.000000 0.000000
# 4 0.000000 0.000000 0.000000 0.027407 0.000000 0.000000
# 5 0.000000 0.000000 0.000000 0.000000 0.040980 0.000000
# 6 0.000000 0.000000 0.000000 0.000000 0.000000 0.052383
#
#
# Mechanical properties :
#
#
# Convention : Reuss Voigt Hill
#
# Bulk Modulus (GPa) = 24.47230 40.21566 32.34398
# Shear Modulus (GPa) = 19.77396 24.89772 22.33584
#
# Velocity S-wave (km/s) = 3.21503 3.60759 3.41695
# Velocity P-wave (km/s) = 5.15502 6.19474 5.69864
#
# Compressibility (1/GPa) = 0.04086253
#
# Stress axis : x y z
#
# Youngs Moduli (GPa) = 56.50123 20.22306 79.88915
#
# Poissons Ratio (x) = 0.10205 0.34574
# Poissons Ratio (y) = 0.28512 0.80104
# Poissons Ratio (z) = 0.24452 0.20278
#
# Static dielectric constant tensor:
#      x y z
#    x 1.696740 0.000000 0.000000 
#    y 0.000000 1.725690 0.000000 
#    z 0.000000 0.000000 1.669790 
# 
# From -- ./inp_files/26327.got.cif
#   From: 2010.05.17/outbox.cif.g08.bks.cpg/sg51_14_cif.got.tgz:26327.got - 2010.06.03 11:52:47.
