data_PCOD9406496
_publ_section_title
;
Structure prediction by ZEFSAII (Michael W. Deem and Ramdas Pophale) SiO2 
 PCOD9406496
Probable space group: P M M A
;
_chemical_formula_sum "Si O2"
_cell_formula_units_Z 48
_cell_length_a 31.433090
_cell_length_b 8.870032
_cell_length_c 9.309531
_cell_angle_alpha 90.000000
_cell_angle_beta 90.000000
_cell_angle_gamma 90.000000
_cell_volume 2595.613744
_symmetry_space_group_name_H-M "P M M A"
_symmetry_group_IT_number 51
_symmetry_cell_setting 'orthorhombic'
loop_
_space_group_symop_operation_xyz
x,y,z
1/2-x,-y,z
1/2+x,-y,-z
-x,y,-z
-x,-y,-z
1/2+x,y,-z
1/2-x,y,z
x,-y,z
loop_
_atom_site_type_symbol
_atom_site_label
_atom_site_fract_x
_atom_site_fract_y
_atom_site_fract_z
Si Si1 0.123875 0.181540 0.086348
Si Si2 0.621858 0.819164 0.581398
Si Si3 0.457466 0.680531 0.588397
Si Si4 0.200865 0.681257 0.580684
Si Si5 0.798427 0.681361 0.083638
Si Si6 0.958913 0.818114 0.095315
O O1 0.118377 0.227381 0.251896
O O2 0.125859 0.000000 0.083294
O O3 0.166574 0.246510 0.017566
O O4 0.083490 0.227905 0.990491
O O5 0.583529 0.748910 0.490311
O O6 0.666413 0.762961 0.516500
O O7 0.619448 0.000000 0.573210
O O8 0.500000 0.721095 0.500000
O O9 0.453789 0.500000 0.591768
O O10 0.460488 0.743475 0.749215
O O11 0.250000 0.718862 0.545944
O O12 0.196322 0.500000 0.567028
O O13 0.193647 0.719716 0.748769
O O14 0.750000 0.727385 0.048361
O O15 0.800498 0.500000 0.073004
O O16 0.958359 0.000000 0.112366
O O17 0.000000 0.779196 0.000000
#
# Coordination Sequence:
#
# PCOD9406496 Si02
#       6
#     8   8   8   8   8   8
#     4  10  22  37  54  81 113 145 183 227 274 324
#     4  11  23  38  57  82 114 150 188 230 277 331
#     4  11  24  40  59  85 115 146 184 230 279 332
#     4   9  19  37  59  83 113 148 187 232 281 333
#     4   9  19  36  57  80 107 143 185 227 275 329
#     4  10  21  39  62  85 112 147 185 225 274 332
#
# _framework density 18.492735
#
# number of rings (size 3 to 8) (size 9 to 14) (size 15 to 20)
#    0.000    2.000    0.000    4.000    0.000    9.667 
#    0.000    5.000    0.000    0.000    0.000    0.000 
#    0.000    0.000    0.000    0.000    0.000    0.000 
#
# Total GULP energy -268198.250810 kJ/mol
# GULP energy per Si atom -5587.463559 kJ/mol
# Density = 1.845064 g / cm^3
# Si number density = 18.492735 Si / 1000 Ang^3
#
#
#
# Elastic Constant Matrix: (Units=GPa)
#
#
# Indices 1 2 3 4 5 6 
#
# 1 152.3027 49.2949 120.0657 0.0000 0.0000 0.0000
# 2 49.2949 28.7905 56.2465 0.0000 0.0000 0.0000
# 3 120.0657 56.2465 183.4606 0.0000 0.0000 0.0000
# 4 0.0000 0.0000 0.0000 24.6399 0.0000 0.0000
# 5 0.0000 0.0000 0.0000 0.0000 39.2712 0.0000
# 6 0.0000 0.0000 0.0000 0.0000 0.0000 27.1083
#
#
#
# Elastic Compliance Matrix: (Units=1/GPa)
#
#
# Indices 1 2 3 4 5 6 
#
# 1 0.016604 -0.017953 -0.005362 0.000000 0.000000 0.000000
# 2 -0.017953 0.106021 -0.020755 0.000000 0.000000 0.000000
# 3 -0.005362 -0.020755 0.015323 0.000000 0.000000 0.000000
# 4 0.000000 0.000000 0.000000 0.040585 0.000000 0.000000
# 5 0.000000 0.000000 0.000000 0.000000 0.025464 0.000000
# 6 0.000000 0.000000 0.000000 0.000000 0.000000 0.036889
#
#
# Mechanical properties :
#
#
# Convention : Reuss Voigt Hill
#
# Bulk Modulus (GPa) = 20.07739 90.64089 55.35914
# Shear Modulus (GPa) = 14.46635 27.46700 20.96668
#
# Velocity S-wave (km/s) = 2.79995 3.85812 3.37082
# Velocity P-wave (km/s) = 4.61881 8.30467 6.71941
#
# Compressibility (1/GPa) = 0.04980727
#
# Stress axis : x y z
#
# Youngs Moduli (GPa) = 60.22680 9.43207 65.26007
#
# Poissons Ratio (x) = 0.16934 0.34994
# Poissons Ratio (y) = 1.08126 1.35448
# Poissons Ratio (z) = 0.32295 0.19576
#
# Static dielectric constant tensor:
#      x y z
#    x 1.613530 0.000000 0.000000 
#    y 0.000000 1.620580 0.000000 
#    z 0.000000 0.000000 1.609570 
# 
# From -- ./inp_files/12736.got.cif
#   From: 2010.05.17/outbox.cif.g08.bks.cpg/sg51_7_cif.got.tgz:12736.got - 2010.06.03 11:52:47.
