data_PCOD9406679
_publ_section_title
;
Structure prediction by ZEFSAII (Michael W. Deem and Ramdas Pophale) SiO2 
 PCOD9406679
Probable space group: P M M A
;
_chemical_formula_sum "Si O2"
_cell_formula_units_Z 28
_cell_length_a 9.367030
_cell_length_b 7.310576
_cell_length_c 20.554437
_cell_angle_alpha 90.000000
_cell_angle_beta 90.000000
_cell_angle_gamma 90.000000
_cell_volume 1407.534644
_symmetry_space_group_name_H-M "P M M A"
_symmetry_group_IT_number 51
_symmetry_cell_setting 'orthorhombic'
loop_
_space_group_symop_operation_xyz
x,y,z
1/2-x,-y,z
1/2+x,-y,-z
-x,y,-z
-x,-y,-z
1/2+x,y,-z
1/2-x,y,z
x,-y,z
loop_
_atom_site_type_symbol
_atom_site_label
_atom_site_fract_x
_atom_site_fract_y
_atom_site_fract_z
Si Si1 0.914225 0.222834 0.807764
Si Si2 0.585409 0.223171 0.064254
Si Si3 0.081991 0.217180 0.678641
Si Si4 0.420387 0.500000 0.568078
O O1 0.750000 0.281225 0.811362
O O2 0.004287 0.281582 0.870469
O O3 0.989547 0.276733 0.740573
O O4 0.914895 0.000000 0.808437
O O5 0.750000 0.281146 0.063103
O O6 0.585736 0.000000 0.064348
O O7 0.500000 0.280324 0.000000
O O8 0.250000 0.251258 0.692424
O O9 0.044145 0.326432 0.613629
O O10 0.063696 0.000000 0.669650
O O11 0.250000 0.500000 0.556981
O O12 0.500000 0.500000 0.500000
#
# Coordination Sequence:
#
# PCOD9406679 Si02
#       4
#     8   8   8   4
#     4   9  16  26  42  66  95 128 169 214 257 303
#     4   9  15  22  34  56  90 131 172 215 261 305
#     4   9  18  34  54  75 102 136 171 208 252 301
#     4  10  22  38  56  80 107 134 167 206 250 304
#
# _framework density 19.892937
#
# number of rings (size 3 to 8) (size 9 to 14) (size 15 to 20)
#    0.000    2.857    0.000    1.714    0.000    8.571 
#    0.000    0.000    0.000    0.000    0.000    1.000 
#    0.000    0.000    0.000    0.000    0.000    0.000 
#
# Total GULP energy -156418.078161 kJ/mol
# GULP energy per Si atom -5586.359934 kJ/mol
# Density = 1.984766 g / cm^3
# Si number density = 19.892937 Si / 1000 Ang^3
#
#
#
# Elastic Constant Matrix: (Units=GPa)
#
#
# Indices 1 2 3 4 5 6 
#
# 1 168.6011 36.7206 142.0926 0.0000 0.0000 0.0000
# 2 36.7206 80.7294 43.2655 0.0000 0.0000 0.0000
# 3 142.0926 43.2655 238.4946 0.0000 0.0000 0.0000
# 4 0.0000 0.0000 0.0000 67.1599 0.0000 0.0000
# 5 0.0000 0.0000 0.0000 0.0000 47.6153 0.0000
# 6 0.0000 0.0000 0.0000 0.0000 0.0000 -2.1583
#
#
#
# Elastic Compliance Matrix: (Units=1/GPa)
#
#
# Indices 1 2 3 4 5 6 
#
# 1 0.012151 -0.001824 -0.006908 0.000000 0.000000 0.000000
# 2 -0.001824 0.013995 -0.001452 0.000000 0.000000 0.000000
# 3 -0.006908 -0.001452 0.008572 0.000000 0.000000 0.000000
# 4 0.000000 0.000000 0.000000 0.014890 0.000000 0.000000
# 5 0.000000 0.000000 0.000000 0.000000 0.021002 0.000000
# 6 0.000000 0.000000 0.000000 0.000000 0.000000 -0.463325
#
#
# Mechanical properties :
#
#
# Convention : Reuss Voigt Hill
#
# Bulk Modulus (GPa) = 69.69258 103.55362 86.62310
# Shear Modulus (GPa) = -13.60308 40.23982 13.31837
#
# Velocity S-wave (km/s) = -2.61782 4.50246 2.59028
# Velocity P-wave (km/s) = 5.09633 8.89932 7.25157
#
# Compressibility (1/GPa) = 0.01434873
#
# Stress axis : x y z
#
# Youngs Moduli (GPa) = 82.30061 71.45390 116.65643
#
# Poissons Ratio (x) = 0.13037 0.80589
# Poissons Ratio (y) = 0.15016 0.16937
# Poissons Ratio (z) = 0.56855 0.10374
#
# Static dielectric constant tensor:
#      x y z
#    x 1.662850 0.000000 0.000000 
#    y 0.000000 1.770170 0.000000 
#    z 0.000000 0.000000 1.634940 
# 
# From -- ./inp_files/26855.got.cif
#   From: 2010.05.17/outbox.cif.g08.bks.cpg/sg51_14_cif.got.tgz:26855.got - 2010.06.03 11:52:47.
