data_PCOD9406515
_publ_section_title
;
Structure prediction by ZEFSAII (Michael W. Deem and Ramdas Pophale) SiO2 
 PCOD9406515
Probable space group: P M M A
;
_chemical_formula_sum "Si O2"
_cell_formula_units_Z 38
_cell_length_a 7.778784
_cell_length_b 9.752858
_cell_length_c 24.801797
_cell_angle_alpha 90.000000
_cell_angle_beta 90.000000
_cell_angle_gamma 90.000000
_cell_volume 1881.597649
_symmetry_space_group_name_H-M "P M M A"
_symmetry_group_IT_number 51
_symmetry_cell_setting 'orthorhombic'
loop_
_space_group_symop_operation_xyz
x,y,z
1/2-x,-y,z
1/2+x,-y,-z
-x,y,-z
-x,-y,-z
1/2+x,y,-z
1/2-x,y,z
x,-y,z
loop_
_atom_site_type_symbol
_atom_site_label
_atom_site_fract_x
_atom_site_fract_y
_atom_site_fract_z
Si Si1 0.549787 0.231388 0.628176
Si Si2 0.455277 0.344574 0.937931
Si Si3 0.450626 0.343402 0.740809
Si Si4 0.047972 0.156161 0.160126
Si Si5 0.250000 0.000000 0.619763
Si Si6 0.545476 0.500000 0.562544
O O1 0.750000 0.193928 0.614137
O O2 0.548699 0.278455 0.690554
O O3 0.404394 0.117516 0.620912
O O4 0.491234 0.362427 0.592963
O O5 0.250000 0.346031 0.932477
O O6 0.518816 0.500000 0.925842
O O7 0.524407 0.232862 0.896629
O O8 0.500000 0.314929 0.000000
O O9 0.250000 0.347045 0.725664
O O10 0.507200 0.500000 0.751486
O O11 0.467237 0.249760 0.793490
O O12 0.250000 0.149714 0.171864
O O13 0.980411 0.000000 0.159289
O O14 0.750000 0.500000 0.567307
O O15 0.500000 0.500000 0.500000
#
# Coordination Sequence:
#
# PCOD9406515 Si02
#       6
#     8   8   8   8   2   4
#     4  11  24  44  69 105 136 182 234 281 343 406
#     4  10  21  39  63  88 115 152 203 260 319 388
#     4  11  23  40  65  95 129 170 219 276 332 395
#     4  11  25  40  57  87 125 166 210 262 324 393
#     4  12  26  42  70  98 150 190 216 282 342 426
#     4  10  24  44  78 106 136 180 241 297 338 396
#
# _framework density 20.195603999999999
#
# number of rings (size 3 to 8) (size 9 to 14) (size 15 to 20)
#    0.000    1.263    2.105    2.842    2.947    7.158 
#    0.000    0.526    0.000    0.000    0.000    0.000 
#    0.000    0.000    0.000    0.000    0.000    0.000 
#
# Total GULP energy -211777.238917 kJ/mol
# GULP energy per Si atom -5573.085235 kJ/mol
# Density = 2.014964 g / cm^3
# Si number density = 20.195604 Si / 1000 Ang^3
#
#
#
# Elastic Constant Matrix: (Units=GPa)
#
#
# Indices 1 2 3 4 5 6 
#
# 1 105.5946 61.1216 9.8014 0.0000 0.0000 0.0000
# 2 61.1216 196.8881 72.0323 0.0000 0.0000 0.0000
# 3 9.8014 72.0323 87.4963 0.0000 0.0000 0.0000
# 4 0.0000 0.0000 0.0000 -11.8641 0.0000 0.0000
# 5 0.0000 0.0000 0.0000 0.0000 31.3360 0.0000
# 6 0.0000 0.0000 0.0000 0.0000 0.0000 30.8331
#
#
#
# Elastic Compliance Matrix: (Units=1/GPa)
#
#
# Indices 1 2 3 4 5 6 
#
# 1 0.011899 -0.004588 0.002444 0.000000 0.000000 0.000000
# 2 -0.004588 0.009037 -0.006926 0.000000 0.000000 0.000000
# 3 0.002444 -0.006926 0.016857 0.000000 0.000000 0.000000
# 4 0.000000 0.000000 0.000000 -0.084288 0.000000 0.000000
# 5 0.000000 0.000000 0.000000 0.000000 0.031912 0.000000
# 6 0.000000 0.000000 0.000000 0.000000 0.000000 0.032433
#
#
# Mechanical properties :
#
#
# Convention : Reuss Voigt Hill
#
# Bulk Modulus (GPa) = 50.88093 75.09884 62.98989
# Shear Modulus (GPa) = 117.53108 26.52924 72.03016
#
# Velocity S-wave (km/s) = 7.63693 3.62831 5.97860
# Velocity P-wave (km/s) = 10.14950 7.40401 8.88346
#
# Compressibility (1/GPa) = 0.01965373
#
# Stress axis : x y z
#
# Youngs Moduli (GPa) = 84.03996 110.65215 59.32172
#
# Poissons Ratio (x) = 0.50770 -0.14500
# Poissons Ratio (y) = 0.38559 0.41087
# Poissons Ratio (z) = -0.20542 0.76639
#
# Static dielectric constant tensor:
#      x y z
#    x 1.738210 0.000000 0.000000 
#    y 0.000000 1.714010 0.000000 
#    z 0.000000 0.000000 1.672450 
# 
# From -- ./inp_files/34357.got.cif
#   From: 2010.05.17/outbox.cif.g08.bks.cpg/sg51_18_cif.got.tgz:34357.got - 2010.06.03 11:52:47.
