data_PCOD9406506
_publ_section_title
;
Structure prediction by ZEFSAII (Michael W. Deem and Ramdas Pophale) SiO2 
 PCOD9406506
Probable space group: P M M A
;
_chemical_formula_sum "Si O2"
_cell_formula_units_Z 34
_cell_length_a 23.609610
_cell_length_b 7.380397
_cell_length_c 8.038887
_cell_angle_alpha 90.000000
_cell_angle_beta 90.000000
_cell_angle_gamma 90.000000
_cell_volume 1400.762352
_symmetry_space_group_name_H-M "P M M A"
_symmetry_group_IT_number 51
_symmetry_cell_setting 'orthorhombic'
loop_
_space_group_symop_operation_xyz
x,y,z
1/2-x,-y,z
1/2+x,-y,-z
-x,y,-z
-x,-y,-z
1/2+x,y,-z
1/2-x,y,z
x,-y,z
loop_
_atom_site_type_symbol
_atom_site_label
_atom_site_fract_x
_atom_site_fract_y
_atom_site_fract_z
Si Si1 0.556960 0.783226 0.084111
Si Si2 0.688195 0.280927 0.570697
Si Si3 0.563442 0.705297 0.462490
Si Si4 0.825999 0.291807 0.955230
Si Si5 0.250000 0.000000 0.886534
O O1 0.566499 0.701739 0.264210
O O2 0.554699 0.000000 0.104173
O O3 0.500000 0.720035 0.000000
O O4 0.607439 0.731188 0.964299
O O5 0.750000 0.216136 0.498383
O O6 0.687718 0.500000 0.547227
O O7 0.625384 0.215703 0.515112
O O8 0.691342 0.242922 0.767793
O O9 0.500000 0.784906 0.500000
O O10 0.561965 0.500000 0.533162
O O11 0.811626 0.500000 0.986843
O O12 0.798530 0.158473 0.087836
#
# Coordination Sequence:
#
# PCOD9406506 Si02
#       5
#     8   8   8   8   2
#     4  11  24  42  62  93 130 167 219 276 326 389
#     4   9  18  36  60  89 122 163 211 256 312 385
#     4  10  21  39  62  89 122 164 216 267 323 391
#     4  11  22  41  68  94 130 172 213 266 322 381
#     4  12  22  40  62 100 132 168 220 264 306 398
#
# _framework density 24.272496
#
# number of rings (size 3 to 8) (size 9 to 14) (size 15 to 20)
#    0.000    1.647    2.353    2.471    0.000    4.235 
#    4.235    0.000    0.000    0.000    0.000    0.000 
#    0.000    0.000    0.000    0.000    0.000    0.000 
#
# Total GULP energy -189362.494059 kJ/mol
# GULP energy per Si atom -5569.485119 kJ/mol
# Density = 2.421725 g / cm^3
# Si number density = 24.272496 Si / 1000 Ang^3
#
#
#
# Elastic Constant Matrix: (Units=GPa)
#
#
# Indices 1 2 3 4 5 6 
#
# 1 294.3351 6.8808 36.8193 0.0000 0.0000 0.0000
# 2 6.8808 102.7513 -9.5410 0.0000 0.0000 0.0000
# 3 36.8193 -9.5410 50.1065 0.0000 0.0000 0.0000
# 4 0.0000 0.0000 0.0000 26.0121 0.0000 0.0000
# 5 0.0000 0.0000 0.0000 0.0000 37.1925 0.0000
# 6 0.0000 0.0000 0.0000 0.0000 0.0000 3.6591
#
#
#
# Elastic Compliance Matrix: (Units=1/GPa)
#
#
# Indices 1 2 3 4 5 6 
#
# 1 0.003768 -0.000519 -0.002868 0.000000 0.000000 0.000000
# 2 -0.000519 0.009979 0.002281 0.000000 0.000000 0.000000
# 3 -0.002868 0.002281 0.022499 0.000000 0.000000 0.000000
# 4 0.000000 0.000000 0.000000 0.038444 0.000000 0.000000
# 5 0.000000 0.000000 0.000000 0.000000 0.026887 0.000000
# 6 0.000000 0.000000 0.000000 0.000000 0.000000 0.273294
#
#
# Mechanical properties :
#
#
# Convention : Reuss Voigt Hill
#
# Bulk Modulus (GPa) = 29.38079 57.27901 43.32990
# Shear Modulus (GPa) = 12.87244 40.90832 26.89038
#
# Velocity S-wave (km/s) = 2.30539 4.10979 3.33205
# Velocity P-wave (km/s) = 4.38375 6.79485 5.71784
#
# Compressibility (1/GPa) = 0.03403584
#
# Stress axis : x y z
#
# Youngs Moduli (GPa) = 265.36752 100.21253 44.44603
#
# Poissons Ratio (x) = 0.05197 0.12746
# Poissons Ratio (y) = 0.13763 -0.10139
# Poissons Ratio (z) = 0.76103 -0.22861
#
# Static dielectric constant tensor:
#      x y z
#    x 1.909590 0.000000 0.000000 
#    y 0.000000 1.928850 0.000000 
#    z 0.000000 0.000000 1.901000 
# 
# From -- ./inp_files/10375.got.cif
#   From: 2010.05.17/outbox.cif.g08.bks.cpg/sg51_6_cif.got.tgz:10375.got - 2010.06.03 11:52:47.
