data_PCOD9406526
_publ_section_title
;
Structure prediction by ZEFSAII (Michael W. Deem and Ramdas Pophale) SiO2 
 PCOD9406526
Probable space group: P M M A
;
_chemical_formula_sum "Si O2"
_cell_formula_units_Z 48
_cell_length_a 8.554982
_cell_length_b 32.071442
_cell_length_c 9.334467
_cell_angle_alpha 90.000000
_cell_angle_beta 90.000000
_cell_angle_gamma 90.000000
_cell_volume 2561.103396
_symmetry_space_group_name_H-M "P M M A"
_symmetry_group_IT_number 51
_symmetry_cell_setting 'orthorhombic'
loop_
_space_group_symop_operation_xyz
x,y,z
1/2-x,-y,z
1/2+x,-y,-z
-x,y,-z
-x,-y,-z
1/2+x,y,-z
1/2-x,y,z
x,-y,z
loop_
_atom_site_type_symbol
_atom_site_label
_atom_site_fract_x
_atom_site_fract_y
_atom_site_fract_z
Si Si1 0.937697 0.798231 0.661086
Si Si2 0.561140 0.283450 0.839120
Si Si3 0.436052 0.876240 0.839858
Si Si4 0.439230 0.364077 0.337353
Si Si5 0.937348 0.951745 0.659021
Si Si6 0.561156 0.455246 0.663419
O O1 0.750000 0.799490 0.658467
O O2 0.987738 0.756941 0.747884
O O3 0.000000 0.796788 0.500000
O O4 0.999439 0.838942 0.742005
O O5 0.750000 0.283863 0.842439
O O6 0.507604 0.325682 0.759898
O O7 0.500000 0.281066 0.000000
O O8 0.250000 0.874609 0.841729
O O9 0.491821 0.919702 0.771445
O O10 0.500000 0.871661 0.000000
O O11 0.500000 0.359646 0.500000
O O12 0.250000 0.363190 0.342591
O O13 0.488182 0.409913 0.278829
O O14 0.750000 0.948186 0.659100
O O15 0.000000 0.941759 0.500000
O O16 0.979120 0.000000 0.689477
O O17 0.500000 0.455363 0.500000
O O18 0.750000 0.455337 0.661816
O O19 0.510139 0.500000 0.728269
#
# Coordination Sequence:
#
# PCOD9406526 Si02
#       6
#     8   8   8   8   8   8
#     4  11  23  40  61  85 111 141 180 223 271 325
#     4  10  22  37  54  76 104 138 175 217 264 317
#     4  12  25  41  61  86 118 153 189 230 277 328
#     4   9  17  30  48  73 101 130 169 213 259 312
#     4  10  21  39  63  90 120 155 195 237 280 326
#     4   8  13  22  39  64  94 126 160 203 254 305
#
# _framework density 18.741921999999999
#
# number of rings (size 3 to 8) (size 9 to 14) (size 15 to 20)
#    0.000    2.000    0.000    4.000    0.000    4.667 
#    0.000    0.000    0.000    0.500    0.000    0.000 
#    0.000    0.000    0.000    0.000    0.000    0.000 
#
# Total GULP energy -267919.467962 kJ/mol
# GULP energy per Si atom -5581.655583 kJ/mol
# Density = 1.869926 g / cm^3
# Si number density = 18.741922 Si / 1000 Ang^3
#
#
#
# Elastic Constant Matrix: (Units=GPa)
#
#
# Indices 1 2 3 4 5 6 
#
# 1 46.6635 42.3705 32.8650 0.0000 0.0000 0.0000
# 2 42.3705 155.9725 97.2449 0.0000 0.0000 0.0000
# 3 32.8650 97.2449 137.5904 0.0000 0.0000 0.0000
# 4 0.0000 0.0000 0.0000 -9.0964 0.0000 0.0000
# 5 0.0000 0.0000 0.0000 0.0000 32.3079 0.0000
# 6 0.0000 0.0000 0.0000 0.0000 0.0000 0.2974
#
#
#
# Elastic Compliance Matrix: (Units=1/GPa)
#
#
# Indices 1 2 3 4 5 6 
#
# 1 0.028891 -0.006339 -0.002421 0.000000 0.000000 0.000000
# 2 -0.006339 0.012853 -0.007570 0.000000 0.000000 0.000000
# 3 -0.002421 -0.007570 0.013196 0.000000 0.000000 0.000000
# 4 0.000000 0.000000 0.000000 -0.109934 0.000000 0.000000
# 5 0.000000 0.000000 0.000000 0.000000 0.030952 0.000000
# 6 0.000000 0.000000 0.000000 0.000000 0.000000 3.362808
#
#
# Mechanical properties :
#
#
# Convention : Reuss Voigt Hill
#
# Bulk Modulus (GPa) = 44.88163 76.13192 60.50677
# Shear Modulus (GPa) = 1.47979 15.88484 8.68232
#
# Velocity S-wave (km/s) = 0.88954 2.91444 2.15467
# Velocity P-wave (km/s) = 5.00542 7.21351 6.20842
#
# Compressibility (1/GPa) = 0.02228083
#
# Stress axis : x y z
#
# Youngs Moduli (GPa) = 34.61312 77.80164 75.77792
#
# Poissons Ratio (x) = 0.49319 0.18343
# Poissons Ratio (y) = 0.21942 0.57365
# Poissons Ratio (z) = 0.08378 0.58897
#
# Static dielectric constant tensor:
#      x y z
#    x 1.631380 0.000000 0.000000 
#    y 0.000000 1.687100 0.000000 
#    z 0.000000 0.000000 1.594220 
# 
# From -- ./inp_files/5966.got.cif
#   From: 2010.05.17/outbox.cif.g08.bks.cpg/sg51_3_cif.got.tgz:5966.got - 2010.06.03 11:52:47.
