data_PCOD9406353
_publ_section_title
;
Structure prediction by ZEFSAII (Michael W. Deem and Ramdas Pophale) SiO2 
 PCOD9406353
Probable space group: P M M A
;
_chemical_formula_sum "Si O2"
_cell_formula_units_Z 48
_cell_length_a 9.408824
_cell_length_b 29.338561
_cell_length_c 9.568606
_cell_angle_alpha 90.000000
_cell_angle_beta 90.000000
_cell_angle_gamma 90.000000
_cell_volume 2641.330984
_symmetry_space_group_name_H-M "P M M A"
_symmetry_group_IT_number 51
_symmetry_cell_setting 'orthorhombic'
loop_
_space_group_symop_operation_xyz
x,y,z
1/2-x,-y,z
1/2+x,-y,-z
-x,y,-z
-x,-y,-z
1/2+x,y,-z
1/2-x,y,z
x,-y,z
loop_
_atom_site_type_symbol
_atom_site_label
_atom_site_fract_x
_atom_site_fract_y
_atom_site_fract_z
Si Si1 0.419700 0.713965 0.354140
Si Si2 0.750000 0.944972 0.332807
Si Si3 0.750000 0.945576 0.662562
Si Si4 0.581294 0.553773 0.852678
Si Si5 0.424178 0.376561 0.651708
Si Si6 0.082777 0.796509 0.138961
Si Si7 0.502206 0.899356 0.833033
O O1 0.500000 0.723726 0.500000
O O2 0.250000 0.703096 0.374195
O O3 0.508511 0.671140 0.293042
O O4 0.428284 0.757664 0.255104
O O5 0.750000 0.933513 0.497997
O O6 0.625130 0.921835 0.248431
O O7 0.750000 0.000000 0.322308
O O8 0.624722 0.924285 0.750221
O O9 0.750000 0.000000 0.668685
O O10 0.750000 0.566850 0.858973
O O11 0.577319 0.500000 0.817018
O O12 0.490123 0.583204 0.744138
O O13 0.500000 0.559297 0.000000
O O14 0.500000 0.380733 0.500000
O O15 0.250000 0.376455 0.646320
O O16 0.250000 0.804300 0.108315
O O17 0.017003 0.844919 0.183966
O O18 0.000000 0.781853 0.000000
O O19 0.500000 0.907837 0.000000
#
# Coordination Sequence:
#
# PCOD9406353 Si02
#       7
#     8   4   4   8   8   8   8
#     4  10  21  39  60  88 120 154 198 245 296 357
#     4  11  25  41  61  91 121 159 199 243 302 355
#     4  11  23  41  63  87 125 157 195 249 294 357
#     4  10  21  38  60  87 120 159 204 254 307 366
#     4  11  22  38  60  87 121 161 204 253 305 359
#     4  10  23  41  62  88 118 152 192 241 294 348
#     4  11  23  41  62  90 120 157 201 245 298 357
#
# _framework density 18.172657000000001
#
# number of rings (size 3 to 8) (size 9 to 14) (size 15 to 20)
#    0.000    1.500    0.833    5.000    3.500    8.000 
#    0.000    1.667    0.000    0.000    0.000    0.000 
#    0.000    0.000    0.000    0.000    0.000    0.000 
#
# Total GULP energy -267518.506753 kJ/mol
# GULP energy per Si atom -5573.302224 kJ/mol
# Density = 1.813129 g / cm^3
# Si number density = 18.172657 Si / 1000 Ang^3
#
#
#
# Elastic Constant Matrix: (Units=GPa)
#
#
# Indices 1 2 3 4 5 6 
#
# 1 203.0479 71.1601 72.3228 0.0000 0.0000 0.0000
# 2 71.1601 95.4142 83.7897 0.0000 0.0000 0.0000
# 3 72.3228 83.7897 109.0458 0.0000 0.0000 0.0000
# 4 0.0000 0.0000 0.0000 39.6118 0.0000 0.0000
# 5 0.0000 0.0000 0.0000 0.0000 17.7905 0.0000
# 6 0.0000 0.0000 0.0000 0.0000 0.0000 33.5157
#
#
#
# Elastic Compliance Matrix: (Units=1/GPa)
#
#
# Indices 1 2 3 4 5 6 
#
# 1 0.006791 -0.003411 -0.001883 0.000000 0.000000 0.000000
# 2 -0.003411 0.033940 -0.023816 0.000000 0.000000 0.000000
# 3 -0.001883 -0.023816 0.028719 0.000000 0.000000 0.000000
# 4 0.000000 0.000000 0.000000 0.025245 0.000000 0.000000
# 5 0.000000 0.000000 0.000000 0.000000 0.056210 0.000000
# 6 0.000000 0.000000 0.000000 0.000000 0.000000 0.029837
#
#
# Mechanical properties :
#
#
# Convention : Reuss Voigt Hill
#
# Bulk Modulus (GPa) = 89.05429 95.78367 92.41898
# Shear Modulus (GPa) = 20.60108 30.19928 25.40018
#
# Velocity S-wave (km/s) = 3.37060 4.08094 3.74266
# Velocity P-wave (km/s) = 8.01616 8.66184 8.34524
#
# Compressibility (1/GPa) = 0.01122911
#
# Stress axis : x y z
#
# Youngs Moduli (GPa) = 147.25061 29.46413 34.81968
#
# Poissons Ratio (x) = 0.10051 0.06556
# Poissons Ratio (y) = 0.50233 0.82927
# Poissons Ratio (z) = 0.27724 0.70173
#
# Static dielectric constant tensor:
#      x y z
#    x 1.587640 0.000000 0.000000 
#    y 0.000000 2.149490 0.000000 
#    z 0.000000 0.000000 1.605240 
# 
# From -- ./inp_files/6290.got.cif
#   From: 2010.05.17/outbox.cif.g08.bks.cpg/sg51_4_cif.got.tgz:6290.got - 2010.06.03 11:52:47.
