data_PCOD9406182
_publ_section_title
;
Structure prediction by ZEFSAII (Michael W. Deem and Ramdas Pophale) SiO2 
 PCOD9406182
Probable space group: P M M A
;
_chemical_formula_sum "Si O2"
_cell_formula_units_Z 48
_cell_length_a 15.635745
_cell_length_b 7.843307
_cell_length_c 19.497435
_cell_angle_alpha 90.000000
_cell_angle_beta 90.000000
_cell_angle_gamma 90.000000
_cell_volume 2391.086429
_symmetry_space_group_name_H-M "P M M A"
_symmetry_group_IT_number 51
_symmetry_cell_setting 'orthorhombic'
loop_
_space_group_symop_operation_xyz
x,y,z
1/2-x,-y,z
1/2+x,-y,-z
-x,y,-z
-x,-y,-z
1/2+x,y,-z
1/2-x,y,z
x,-y,z
loop_
_atom_site_type_symbol
_atom_site_label
_atom_site_fract_x
_atom_site_fract_y
_atom_site_fract_z
Si Si1 0.354322 0.000000 0.281883
Si Si2 0.847376 0.798455 0.171863
Si Si3 0.848351 0.000000 0.566146
Si Si4 0.095673 0.691537 0.527297
Si Si5 0.495682 0.207415 0.079537
Si Si6 0.650992 0.295518 0.324176
Si Si7 0.351072 0.305500 0.182370
O O1 0.378670 0.168520 0.239504
O O2 0.250000 0.000000 0.281519
O O3 0.391207 0.000000 0.358785
O O4 0.750000 0.727464 0.165617
O O5 0.876255 0.775761 0.250762
O O6 0.919939 0.731769 0.120738
O O7 0.841162 0.000000 0.158589
O O8 0.864498 0.166558 0.521027
O O9 0.750000 0.000000 0.582819
O O10 0.134633 0.500000 0.523294
O O11 0.100810 0.748240 0.606626
O O12 0.000000 0.678764 0.500000
O O13 0.411389 0.276179 0.117137
O O14 0.492522 0.000000 0.083409
O O15 0.500000 0.255507 0.000000
O O16 0.750000 0.242811 0.334992
O O17 0.648377 0.500000 0.317581
O O18 0.250000 0.278444 0.166723
O O19 0.360564 0.500000 0.206864
#
# Coordination Sequence:
#
# PCOD9406182 Si02
#       7
#     4   8   4   8   8   8   8
#     4   9  20  39  58  84 118 151 196 250 294 347
#     4   9  19  35  55  83 116 151 197 246 293 354
#     4  11  23  37  59  86 113 151 196 244 300 351
#     4  10  22  39  56  82 120 156 194 243 300 361
#     4  10  21  37  59  89 123 158 195 242 304 364
#     4   9  18  34  56  80 109 149 194 239 291 351
#     4  10  21  39  63  88 118 161 207 250 300 358
#
# _framework density 20.074556000000001
#
# number of rings (size 3 to 8) (size 9 to 14) (size 15 to 20)
#    0.000    2.333    0.833    0.750    1.167    4.667 
#    0.000    5.000    0.000    2.000    0.000    0.000 
#    0.000    0.000    0.000    0.000    0.000    0.000 
#
# Total GULP energy -267760.686247 kJ/mol
# GULP energy per Si atom -5578.347630 kJ/mol
# Density = 2.002887 g / cm^3
# Si number density = 20.074556 Si / 1000 Ang^3
#
#
#
# Elastic Constant Matrix: (Units=GPa)
#
#
# Indices 1 2 3 4 5 6 
#
# 1 73.2187 27.1094 70.8254 0.0000 0.0000 0.0000
# 2 27.1094 85.6622 50.8754 0.0000 0.0000 0.0000
# 3 70.8254 50.8754 170.8255 0.0000 0.0000 0.0000
# 4 0.0000 0.0000 0.0000 -9.5901 0.0000 0.0000
# 5 0.0000 0.0000 0.0000 0.0000 34.8546 0.0000
# 6 0.0000 0.0000 0.0000 0.0000 0.0000 37.8513
#
#
#
# Elastic Compliance Matrix: (Units=1/GPa)
#
#
# Indices 1 2 3 4 5 6 
#
# 1 0.023073 -0.001969 -0.008980 0.000000 0.000000 0.000000
# 2 -0.001969 0.014350 -0.003458 0.000000 0.000000 0.000000
# 3 -0.008980 -0.003458 0.010607 0.000000 0.000000 0.000000
# 4 0.000000 0.000000 0.000000 -0.104274 0.000000 0.000000
# 5 0.000000 0.000000 0.000000 0.000000 0.028691 0.000000
# 6 0.000000 0.000000 0.000000 0.000000 0.000000 0.026419
#
#
# Mechanical properties :
#
#
# Convention : Reuss Voigt Hill
#
# Bulk Modulus (GPa) = 52.03523 69.70300 60.86911
# Shear Modulus (GPa) = 146.69519 24.68289 85.68904
#
# Velocity S-wave (km/s) = 8.55768 3.51031 6.54049
# Velocity P-wave (km/s) = 11.11856 7.15732 9.35012
#
# Compressibility (1/GPa) = 0.01921775
#
# Stress axis : x y z
#
# Youngs Moduli (GPa) = 43.34072 69.68513 94.27903
#
# Poissons Ratio (x) = 0.13718 0.84662
# Poissons Ratio (y) = 0.08532 0.32598
# Poissons Ratio (z) = 0.38920 0.24094
#
# Static dielectric constant tensor:
#      x y z
#    x 1.716570 0.000000 0.000000 
#    y 0.000000 4.233830 0.000000 
#    z 0.000000 0.000000 1.700770 
# 
# From -- ./inp_files/29624.got.cif
#   From: 2010.05.17/outbox.cif.g08.bks.cpg/sg51_15_cif.got.tgz:29624.got - 2010.06.03 11:52:47.
