data_PCOD9406368
_publ_section_title
;
Structure prediction by ZEFSAII (Michael W. Deem and Ramdas Pophale) SiO2 
 PCOD9406368
Probable space group: P M M A
;
_chemical_formula_sum "Si O2"
_cell_formula_units_Z 48
_cell_length_a 14.804682
_cell_length_b 15.840983
_cell_length_c 10.358800
_cell_angle_alpha 90.000000
_cell_angle_beta 90.000000
_cell_angle_gamma 90.000000
_cell_volume 2429.353192
_symmetry_space_group_name_H-M "P M M A"
_symmetry_group_IT_number 51
_symmetry_cell_setting 'orthorhombic'
loop_
_space_group_symop_operation_xyz
x,y,z
1/2-x,-y,z
1/2+x,-y,-z
-x,y,-z
-x,-y,-z
1/2+x,y,-z
1/2-x,y,z
x,-y,z
loop_
_atom_site_type_symbol
_atom_site_label
_atom_site_fract_x
_atom_site_fract_y
_atom_site_fract_z
Si Si1 0.576710 0.000000 0.893290
Si Si2 0.855513 0.822450 0.973073
Si Si3 0.482557 0.403442 0.846036
Si Si4 0.643191 0.184084 0.518182
Si Si5 0.139156 0.248058 0.760213
Si Si6 0.140488 0.693921 0.249644
Si Si7 0.420113 0.000000 0.400627
O O1 0.546631 0.000000 0.745919
O O2 0.500000 0.000000 0.000000
O O3 0.631257 0.915060 0.918518
O O4 0.750000 0.805796 0.982527
O O5 0.890274 0.810217 0.118161
O O6 0.887944 0.754338 0.869918
O O7 0.452867 0.500000 0.827977
O O8 0.409433 0.336926 0.790705
O O9 0.577426 0.386453 0.772488
O O10 0.500000 0.391361 0.000000
O O11 0.750000 0.193730 0.508914
O O12 0.608335 0.205635 0.374553
O O13 0.614516 0.253930 0.622469
O O14 0.628238 0.089124 0.569639
O O15 0.250000 0.256320 0.757996
O O16 0.250000 0.680309 0.247957
O O17 0.500000 0.000000 0.500000
#
# Coordination Sequence:
#
# PCOD9406368 Si02
#       7
#     4   8   8   8   8   8   4
#     4  12  27  37  56  90 126 165 210 262 304 355
#     4  10  21  38  61  85 117 162 205 253 302 352
#     4  11  24  40  66  96 124 160 203 259 319 377
#     4  10  23  42  65  88 123 171 208 253 309 367
#     4  10  23  42  65  93 126 164 206 255 314 374
#     4  10  21  40  65  93 122 162 208 253 308 366
#     4  12  27  39  56  90 126 165 213 257 301 360
#
# _framework density 19.758347000000001
#
# number of rings (size 3 to 8) (size 9 to 14) (size 15 to 20)
#    0.000    1.500    3.333    0.500    7.000    1.333 
#    0.000    5.833    0.000    3.000    0.000    0.000 
#    0.000    0.000    0.000    0.000    0.000    0.000 
#
# Total GULP energy -267764.174052 kJ/mol
# GULP energy per Si atom -5578.420293 kJ/mol
# Density = 1.971338 g / cm^3
# Si number density = 19.758347 Si / 1000 Ang^3
#
#
#
# Elastic Constant Matrix: (Units=GPa)
#
#
# Indices 1 2 3 4 5 6 
#
# 1 40.2636 -0.2386 17.2076 0.0000 0.0000 0.0000
# 2 -0.2386 87.0510 36.3372 0.0000 0.0000 0.0000
# 3 17.2076 36.3372 170.5701 0.0000 0.0000 0.0000
# 4 0.0000 0.0000 0.0000 23.4955 0.0000 0.0000
# 5 0.0000 0.0000 0.0000 0.0000 18.6086 0.0000
# 6 0.0000 0.0000 0.0000 0.0000 0.0000 28.7928
#
#
#
# Elastic Compliance Matrix: (Units=1/GPa)
#
#
# Indices 1 2 3 4 5 6 
#
# 1 0.026086 0.001284 -0.002905 0.000000 0.000000 0.000000
# 2 0.001284 0.012672 -0.002829 0.000000 0.000000 0.000000
# 3 -0.002905 -0.002829 0.006758 0.000000 0.000000 0.000000
# 4 0.000000 0.000000 0.000000 0.042561 0.000000 0.000000
# 5 0.000000 0.000000 0.000000 0.000000 0.053739 0.000000
# 6 0.000000 0.000000 0.000000 0.000000 0.000000 0.034731
#
#
# Mechanical properties :
#
#
# Convention : Reuss Voigt Hill
#
# Bulk Modulus (GPa) = 27.31062 44.94412 36.12737
# Shear Modulus (GPa) = 25.29696 30.48461 27.89078
#
# Velocity S-wave (km/s) = 3.58203 3.93220 3.76120
# Velocity P-wave (km/s) = 5.56420 6.58882 6.09807
#
# Compressibility (1/GPa) = 0.03661579
#
# Stress axis : x y z
#
# Youngs Moduli (GPa) = 38.33543 78.91425 147.96252
#
# Poissons Ratio (x) = -0.10134 0.42985
# Poissons Ratio (y) = -0.04923 0.41860
# Poissons Ratio (z) = 0.11137 0.22326
#
# Static dielectric constant tensor:
#      x y z
#    x 1.650760 0.000000 0.000000 
#    y 0.000000 3.001580 0.000000 
#    z 0.000000 0.000000 1.729700 
# 
# From -- ./inp_files/8330.got.cif
#   From: 2010.05.17/outbox.cif.g08.bks.cpg/sg51_5_cif.got.tgz:8330.got - 2010.06.03 11:52:47.
