data_PCOD9406161
_publ_section_title
;
Structure prediction by ZEFSAII (Michael W. Deem and Ramdas Pophale) SiO2 
 PCOD9406161
Probable space group: P M M A
;
_chemical_formula_sum "Si O2"
_cell_formula_units_Z 28
_cell_length_a 23.032787
_cell_length_b 9.903026
_cell_length_c 6.417266
_cell_angle_alpha 90.000000
_cell_angle_beta 90.000000
_cell_angle_gamma 90.000000
_cell_volume 1463.741722
_symmetry_space_group_name_H-M "P M M A"
_symmetry_group_IT_number 51
_symmetry_cell_setting 'orthorhombic'
loop_
_space_group_symop_operation_xyz
x,y,z
1/2-x,-y,z
1/2+x,-y,-z
-x,y,-z
-x,-y,-z
1/2+x,y,-z
1/2-x,y,z
x,-y,z
loop_
_atom_site_type_symbol
_atom_site_label
_atom_site_fract_x
_atom_site_fract_y
_atom_site_fract_z
Si Si1 0.398223 0.845057 0.284943
Si Si2 0.318263 0.655750 0.016527
Si Si3 0.412657 0.349305 0.665782
Si Si4 0.500000 0.246853 0.000000
O O1 0.346686 0.760144 0.177068
O O2 0.415934 0.765304 0.492718
O O3 0.452176 0.837500 0.125284
O O4 0.382884 0.000000 0.325742
O O5 0.250000 0.678570 0.988773
O O6 0.326721 0.500000 0.088622
O O7 0.353876 0.667057 0.800920
O O8 0.414139 0.500000 0.573500
O O9 0.464607 0.333582 0.831391
#
# Coordination Sequence:
#
# PCOD9406161 Si02
#       4
#     8   8   8   4
#     4  11  23  37  56  84 116 150 186 227 279 335
#     4   9  20  40  62  82 108 145 188 232 277 328
#     4  10  21  37  59  86 113 145 188 235 281 330
#     4  10  22  38  58  80 112 152 192 232 272 326
#
# _framework density 19.129059000000002
#
# number of rings (size 3 to 8) (size 9 to 14) (size 15 to 20)
#    0.000    2.000    0.000    2.571    0.000   13.143 
#    0.000    2.857    0.000    0.000    0.000    0.000 
#    0.000    0.000    0.000    0.000    0.000    0.000 
#
# Total GULP energy -156383.351733 kJ/mol
# GULP energy per Si atom -5585.119705 kJ/mol
# Density = 1.908552 g / cm^3
# Si number density = 19.129059 Si / 1000 Ang^3
#
#
#
# Elastic Constant Matrix: (Units=GPa)
#
#
# Indices 1 2 3 4 5 6 
#
# 1 114.7886 45.5358 28.2847 0.0000 0.0000 0.0000
# 2 45.5358 157.2901 63.1380 0.0000 0.0000 0.0000
# 3 28.2847 63.1380 74.1123 0.0000 0.0000 0.0000
# 4 0.0000 0.0000 0.0000 27.9917 0.0000 0.0000
# 5 0.0000 0.0000 0.0000 0.0000 10.5401 0.0000
# 6 0.0000 0.0000 0.0000 0.0000 0.0000 10.7061
#
#
#
# Elastic Compliance Matrix: (Units=1/GPa)
#
#
# Indices 1 2 3 4 5 6 
#
# 1 0.010045 -0.002081 -0.002061 0.000000 0.000000 0.000000
# 2 -0.002081 0.010093 -0.007804 0.000000 0.000000 0.000000
# 3 -0.002061 -0.007804 0.020928 0.000000 0.000000 0.000000
# 4 0.000000 0.000000 0.000000 0.035725 0.000000 0.000000
# 5 0.000000 0.000000 0.000000 0.000000 0.094875 0.000000
# 6 0.000000 0.000000 0.000000 0.000000 0.000000 0.093404
#
#
# Mechanical properties :
#
#
# Convention : Reuss Voigt Hill
#
# Bulk Modulus (GPa) = 58.22728 68.90091 63.56409
# Shear Modulus (GPa) = 16.96717 23.79642 20.38180
#
# Velocity S-wave (km/s) = 2.98146 3.53086 3.26772
# Velocity P-wave (km/s) = 6.50825 7.26084 6.89482
#
# Compressibility (1/GPa) = 0.01717408
#
# Stress axis : x y z
#
# Youngs Moduli (GPa) = 99.55284 99.08141 47.78257
#
# Poissons Ratio (x) = 0.20616 0.09848
# Poissons Ratio (y) = 0.20714 0.37290
# Poissons Ratio (z) = 0.20518 0.77324
#
# Static dielectric constant tensor:
#      x y z
#    x 1.656780 0.000000 0.000000 
#    y 0.000000 1.653900 0.000000 
#    z 0.000000 0.000000 1.657300 
# 
# From -- ./inp_files/2221.got.cif
#   From: 2010.05.17/outbox.cif.g08.bks.cpg/sg51_2_cif.got.tgz:2221.got - 2010.06.03 11:52:47.
