data_PCOD9406302
_publ_section_title
;
Structure prediction by ZEFSAII (Michael W. Deem and Ramdas Pophale) SiO2 
 PCOD9406302
Probable space group: P M M A
;
_chemical_formula_sum "Si O2"
_cell_formula_units_Z 64
_cell_length_a 27.700327
_cell_length_b 18.447022
_cell_length_c 6.841351
_cell_angle_alpha 90.000000
_cell_angle_beta 90.000000
_cell_angle_gamma 90.000000
_cell_volume 3495.851970
_symmetry_space_group_name_H-M "P M M A"
_symmetry_group_IT_number 51
_symmetry_cell_setting 'orthorhombic'
loop_
_space_group_symop_operation_xyz
x,y,z
1/2-x,-y,z
1/2+x,-y,-z
-x,y,-z
-x,-y,-z
1/2+x,y,-z
1/2-x,y,z
x,-y,z
loop_
_atom_site_type_symbol
_atom_site_label
_atom_site_fract_x
_atom_site_fract_y
_atom_site_fract_z
Si Si1 0.618707 0.174499 0.917191
Si Si2 0.806797 0.414850 0.359795
Si Si3 0.880475 0.335941 0.078833
Si Si4 0.120329 0.582828 0.313463
Si Si5 0.055378 0.848222 0.439300
Si Si6 0.055334 0.688059 0.568252
Si Si7 0.806722 0.914078 0.654719
Si Si8 0.630391 0.918058 0.301890
O O1 0.625456 0.258964 0.969049
O O2 0.619182 0.132986 0.121639
O O3 0.570333 0.159950 0.787958
O O4 0.661598 0.139120 0.788472
O O5 0.750000 0.400664 0.350269
O O6 0.814960 0.500000 0.302473
O O7 0.837672 0.360194 0.225530
O O8 0.827982 0.408041 0.579444
O O9 0.928964 0.331491 0.211257
O O10 0.880974 0.395838 0.911054
O O11 0.105564 0.500000 0.341764
O O12 0.084711 0.635281 0.428585
O O13 0.070957 0.770962 0.531559
O O14 0.087642 0.909252 0.540201
O O15 0.000000 0.858795 0.500000
O O16 0.000000 0.683868 0.500000
O O17 0.750000 0.903565 0.684386
O O18 0.822287 0.899984 0.429821
O O19 0.817806 0.000000 0.692117
O O20 0.634310 0.000000 0.231015
#
# Coordination Sequence:
#
# PCOD9406302 Si02
#       8
#     8   8   8   8   8   8   8   8
#     4  11  21  36  59  86 117 152 197 242 289 340
#     4   9  20  38  59  84 118 158 195 235 290 350
#     4  11  21  36  59  86 117 152 197 242 289 340
#     4  10  21  38  59  85 116 151 192 244 292 342
#     4  10  21  39  59  82 114 155 193 235 292 352
#     4  10  21  39  59  82 114 155 193 235 292 352
#     4   9  20  38  59  84 118 158 195 235 290 350
#     4  10  21  38  59  85 116 151 192 244 292 342
#
# _framework density 18.307410999999998
#
# number of rings (size 3 to 8) (size 9 to 14) (size 15 to 20)
#    0.000    2.000    2.500    0.750    0.000    4.000 
#    0.000    5.000    0.000    0.000    0.000    0.000 
#    0.000    0.000    0.000    0.000    0.000    0.000 
#
# Total GULP energy -356734.752335 kJ/mol
# GULP energy per Si atom -5573.980505 kJ/mol
# Density = 1.826574 g / cm^3
# Si number density = 18.307411 Si / 1000 Ang^3
#
#
#
# Elastic Constant Matrix: (Units=GPa)
#
#
# Indices 1 2 3 4 5 6 
#
# 1 88.8199 39.3555 36.4944 0.0000 0.0000 0.0000
# 2 39.3555 35.3087 14.3853 0.0000 0.0000 0.0000
# 3 36.4944 14.3853 83.6722 0.0000 0.0000 0.0000
# 4 0.0000 0.0000 0.0000 36.0281 0.0000 0.0000
# 5 0.0000 0.0000 0.0000 0.0000 18.3115 0.0000
# 6 0.0000 0.0000 0.0000 0.0000 0.0000 62.7968
#
#
#
# Elastic Compliance Matrix: (Units=1/GPa)
#
#
# Indices 1 2 3 4 5 6 
#
# 1 0.025269 -0.025458 -0.006644 0.000000 0.000000 0.000000
# 2 -0.025458 0.056104 0.001458 0.000000 0.000000 0.000000
# 3 -0.006644 0.001458 0.014599 0.000000 0.000000 0.000000
# 4 0.000000 0.000000 0.000000 0.027756 0.000000 0.000000
# 5 0.000000 0.000000 0.000000 0.000000 0.054611 0.000000
# 6 0.000000 0.000000 0.000000 0.000000 0.000000 0.015924
#
#
# Mechanical properties :
#
#
# Convention : Reuss Voigt Hill
#
# Bulk Modulus (GPa) = 28.83293 43.14127 35.98710
# Shear Modulus (GPa) = 18.71867 31.26497 24.99182
#
# Velocity S-wave (km/s) = 3.20107 4.13701 3.69876
# Velocity P-wave (km/s) = 5.42641 6.81439 6.15962
#
# Compressibility (1/GPa) = 0.03468256
#
# Stress axis : x y z
#
# Youngs Moduli (GPa) = 39.57375 17.82412 68.49904
#
# Poissons Ratio (x) = 0.45377 0.45514
# Poissons Ratio (y) = 1.00748 -0.09989
# Poissons Ratio (z) = 0.26295 -0.02599
#
# Static dielectric constant tensor:
#      x y z
#    x 1.625800 0.000000 0.000000 
#    y 0.000000 1.615390 0.000000 
#    z 0.000000 0.000000 1.641360 
# 
# From -- ./inp_files/3664.got.cif
#   From: 2010.05.17/outbox.cif.g08.bks.cpg/sg51_2_cif.got.tgz:3664.got - 2010.06.03 11:52:47.
