data_PCOD9406786
_publ_section_title
;
Structure prediction by ZEFSAII (Michael W. Deem and Ramdas Pophale) SiO2 
 PCOD9406786
Probable space group: P M M A
;
_chemical_formula_sum "Si O2"
_cell_formula_units_Z 48
_cell_length_a 8.873347
_cell_length_b 17.138558
_cell_length_c 16.071825
_cell_angle_alpha 90.000000
_cell_angle_beta 90.000000
_cell_angle_gamma 90.000000
_cell_volume 2444.144841
_symmetry_space_group_name_H-M "P M M A"
_symmetry_group_IT_number 51
_symmetry_cell_setting 'orthorhombic'
loop_
_space_group_symop_operation_xyz
x,y,z
1/2-x,-y,z
1/2+x,-y,-z
-x,y,-z
-x,-y,-z
1/2+x,y,-z
1/2-x,y,z
x,-y,z
loop_
_atom_site_type_symbol
_atom_site_label
_atom_site_fract_x
_atom_site_fract_y
_atom_site_fract_z
Si Si1 0.425868 0.156321 0.654038
Si Si2 0.069245 0.591755 0.254087
Si Si3 0.071901 0.000000 0.408870
Si Si4 0.569080 0.322211 0.412813
Si Si5 0.069555 0.000000 0.091958
Si Si6 0.569329 0.683924 0.913897
Si Si7 0.426461 0.159743 0.849228
O O1 0.250000 0.140605 0.634759
O O2 0.476344 0.231667 0.602255
O O3 0.435614 0.177818 0.751155
O O4 0.517129 0.078293 0.636401
O O5 0.250000 0.601440 0.263773
O O6 0.035902 0.500000 0.249584
O O7 0.026531 0.633697 0.167521
O O8 0.989624 0.629878 0.333613
O O9 0.000000 0.000000 0.500000
O O10 0.250000 0.000000 0.415080
O O11 0.500000 0.349785 0.500000
O O12 0.750000 0.325460 0.415612
O O13 0.007671 0.077780 0.135400
O O14 0.250000 0.000000 0.089806
O O15 0.000000 0.000000 0.000000
O O16 0.750000 0.685726 0.919899
O O17 0.505538 0.770747 0.898703
O O18 0.500000 0.653314 0.000000
O O19 0.250000 0.153862 0.872480
#
# Coordination Sequence:
#
# PCOD9406786 Si02
#       7
#     8   8   4   8   4   8   8
#     4  10  22  40  62  88 122 162 207 257 313 369
#     4  10  23  44  68  95 128 165 207 259 316 377
#     4  12  25  38  57  85 121 163 211 259 308 365
#     4  11  23  41  66  97 128 168 212 259 315 376
#     4  12  25  40  57  85 121 163 213 261 312 367
#     4  11  23  40  65  95 129 168 211 259 313 376
#     4  11  22  40  63  89 123 163 208 260 314 370
#
# _framework density 19.638769
#
# number of rings (size 3 to 8) (size 9 to 14) (size 15 to 20)
#    0.000    1.167    1.667    4.500    0.000    7.667 
#    0.000    0.000    0.000    0.000    0.000    0.000 
#    0.000    0.000    0.000    0.000    0.000    0.000 
#
# Total GULP energy -268480.337038 kJ/mol
# GULP energy per Si atom -5593.340355 kJ/mol
# Density = 1.959407 g / cm^3
# Si number density = 19.638769 Si / 1000 Ang^3
#
#
#
# Elastic Constant Matrix: (Units=GPa)
#
#
# Indices 1 2 3 4 5 6 
#
# 1 90.3785 50.3884 59.4831 0.0000 0.0000 0.0000
# 2 50.3884 114.9395 62.0409 0.0000 0.0000 0.0000
# 3 59.4831 62.0409 142.7752 0.0000 0.0000 0.0000
# 4 0.0000 0.0000 0.0000 5.7319 0.0000 0.0000
# 5 0.0000 0.0000 0.0000 0.0000 35.2063 0.0000
# 6 0.0000 0.0000 0.0000 0.0000 0.0000 26.2211
#
#
#
# Elastic Compliance Matrix: (Units=1/GPa)
#
#
# Indices 1 2 3 4 5 6 
#
# 1 0.017021 -0.004748 -0.005028 0.000000 0.000000 0.000000
# 2 -0.004748 0.012690 -0.003536 0.000000 0.000000 0.000000
# 3 -0.005028 -0.003536 0.010636 0.000000 0.000000 0.000000
# 4 0.000000 0.000000 0.000000 0.174461 0.000000 0.000000
# 5 0.000000 0.000000 0.000000 0.000000 0.028404 0.000000
# 6 0.000000 0.000000 0.000000 0.000000 0.000000 0.038137
#
#
# Mechanical properties :
#
#
# Convention : Reuss Voigt Hill
#
# Bulk Modulus (GPa) = 72.87474 76.87977 74.87726
# Shear Modulus (GPa) = 15.99752 25.17724 20.58738
#
# Velocity S-wave (km/s) = 2.85720 3.58441 3.24126
# Velocity P-wave (km/s) = 6.93346 7.50750 7.22619
#
# Compressibility (1/GPa) = 0.01372218
#
# Stress axis : x y z
#
# Youngs Moduli (GPa) = 58.75128 78.79931 94.02400
#
# Poissons Ratio (x) = 0.37412 0.47277
# Poissons Ratio (y) = 0.27894 0.33251
# Poissons Ratio (z) = 0.29541 0.27867
#
# Static dielectric constant tensor:
#      x y z
#    x 1.659250 0.000000 0.000000 
#    y 0.000000 1.674880 0.000000 
#    z 0.000000 0.000000 1.692870 
# 
# From -- ./inp_files/21199.got.cif
#   From: 2010.05.17/outbox.cif.g08.bks.cpg/sg51_11_cif.got.tgz:21199.got - 2010.06.03 11:52:47.
