data_PCOD9406757
_publ_section_title
;
Structure prediction by ZEFSAII (Michael W. Deem and Ramdas Pophale) SiO2 
 PCOD9406757
Probable space group: P M M A
;
_chemical_formula_sum "Si O2"
_cell_formula_units_Z 48
_cell_length_a 10.267942
_cell_length_b 8.171346
_cell_length_c 30.512793
_cell_angle_alpha 90.000000
_cell_angle_beta 90.000000
_cell_angle_gamma 90.000000
_cell_volume 2560.112027
_symmetry_space_group_name_H-M "P M M A"
_symmetry_group_IT_number 51
_symmetry_cell_setting 'orthorhombic'
loop_
_space_group_symop_operation_xyz
x,y,z
1/2-x,-y,z
1/2+x,-y,-z
-x,y,-z
-x,-y,-z
1/2+x,y,-z
1/2-x,y,z
x,-y,z
loop_
_atom_site_type_symbol
_atom_site_label
_atom_site_fract_x
_atom_site_fract_y
_atom_site_fract_z
Si Si1 0.896906 0.697831 0.302554
Si Si2 0.408170 0.188392 0.133793
Si Si3 0.399516 0.198046 0.229325
Si Si4 0.250000 0.803948 0.436006
Si Si5 0.750000 0.805282 0.464165
Si Si6 0.599233 0.799275 0.962209
Si Si7 0.475536 0.304800 0.600465
O O1 0.750000 0.752396 0.291721
O O2 0.897010 0.500000 0.303416
O O3 0.002592 0.752521 0.267283
O O4 0.933188 0.756481 0.351499
O O5 0.250000 0.183484 0.133973
O O6 0.443350 0.261057 0.181085
O O7 0.442765 0.260095 0.086385
O O8 0.455088 0.000000 0.133632
O O9 0.250000 0.252080 0.237622
O O10 0.396428 0.000000 0.226641
O O11 0.250000 0.740104 0.486180
O O12 0.120555 0.747205 0.411599
O O13 0.250000 0.000000 0.437319
O O14 0.623846 0.753526 0.436750
O O15 0.750000 0.000000 0.467089
O O16 0.750000 0.751713 0.970190
O O17 0.598484 0.000000 0.960806
O O18 0.500000 0.747894 0.000000
O O19 0.468049 0.500000 0.601646
#
# Coordination Sequence:
#
# PCOD9406757 Si02
#       7
#     8   8   8   4   4   8   8
#     4  10  22  40  56  74 104 138 171 211 259 308
#     4   7  11  22  38  57  87 123 157 198 247 297
#     4   9  18  32  52  78 102 129 170 215 258 308
#     4  11  25  41  59  89 121 143 175 223 270 309
#     4  11  23  41  63  87 117 149 177 217 268 315
#     4   8  12  18  30  49  77 117 159 195 236 287
#     4  11  23  41  62  84 111 147 186 220 261 318
#
# _framework density 18.749179000000002
#
# number of rings (size 3 to 8) (size 9 to 14) (size 15 to 20)
#    0.000    2.667    0.833    3.500    1.167    5.333 
#    0.000    0.833    0.000    3.000    0.000    0.000 
#    0.000    0.667    0.000    1.500    0.000    4.333 
#
# Total GULP energy -267584.467357 kJ/mol
# GULP energy per Si atom -5574.676403 kJ/mol
# Density = 1.870651 g / cm^3
# Si number density = 18.749179 Si / 1000 Ang^3
#
#
#
# Elastic Constant Matrix: (Units=GPa)
#
#
# Indices 1 2 3 4 5 6 
#
# 1 120.9495 10.1177 73.4580 0.0000 0.0000 0.0000
# 2 10.1177 15.9430 11.4893 0.0000 0.0000 0.0000
# 3 73.4580 11.4893 151.8130 0.0000 0.0000 0.0000
# 4 0.0000 0.0000 0.0000 39.8541 0.0000 0.0000
# 5 0.0000 0.0000 0.0000 0.0000 36.9838 0.0000
# 6 0.0000 0.0000 0.0000 0.0000 0.0000 22.4068
#
#
#
# Elastic Compliance Matrix: (Units=1/GPa)
#
#
# Indices 1 2 3 4 5 6 
#
# 1 0.011901 -0.003599 -0.005486 0.000000 0.000000 0.000000
# 2 -0.003599 0.067430 -0.003362 0.000000 0.000000 0.000000
# 3 -0.005486 -0.003362 0.009496 0.000000 0.000000 0.000000
# 4 0.000000 0.000000 0.000000 0.025091 0.000000 0.000000
# 5 0.000000 0.000000 0.000000 0.000000 0.027039 0.000000
# 6 0.000000 0.000000 0.000000 0.000000 0.000000 0.044629
#
#
# Mechanical properties :
#
#
# Convention : Reuss Voigt Hill
#
# Bulk Modulus (GPa) = 15.64131 53.20396 34.42263
# Shear Modulus (GPa) = 21.57111 32.75830 27.16471
#
# Velocity S-wave (km/s) = 3.39560 4.18447 3.81050
# Velocity P-wave (km/s) = 4.87175 7.19616 6.14486
#
# Compressibility (1/GPa) = 0.06393326
#
# Stress axis : x y z
#
# Youngs Moduli (GPa) = 84.02671 14.83022 105.30670
#
# Poissons Ratio (x) = 0.05337 0.57773
# Poissons Ratio (y) = 0.30241 0.35401
# Poissons Ratio (z) = 0.46099 0.04985
#
# Static dielectric constant tensor:
#      x y z
#    x 1.614080 0.000000 0.000000 
#    y 0.000000 1.671010 0.000000 
#    z 0.000000 0.000000 1.680680 
# 
# From -- ./inp_files/37134.got.cif
#   From: 2010.05.17/outbox.cif.g08.bks.cpg/sg51_19_cif.got.tgz:37134.got - 2010.06.03 11:52:47.
