data_PCOD9406885
_publ_section_title
;
Structure prediction by ZEFSAII (Michael W. Deem and Ramdas Pophale) SiO2 
 PCOD9406885
Probable space group: P M M A
;
_chemical_formula_sum "Si O2"
_cell_formula_units_Z 48
_cell_length_a 20.481312
_cell_length_b 14.144287
_cell_length_c 9.225753
_cell_angle_alpha 90.000000
_cell_angle_beta 90.000000
_cell_angle_gamma 90.000000
_cell_volume 2672.641185
_symmetry_space_group_name_H-M "P M M A"
_symmetry_group_IT_number 51
_symmetry_cell_setting 'orthorhombic'
loop_
_space_group_symop_operation_xyz
x,y,z
1/2-x,-y,z
1/2+x,-y,-z
-x,y,-z
-x,-y,-z
1/2+x,y,-z
1/2-x,y,z
x,-y,z
loop_
_atom_site_type_symbol
_atom_site_label
_atom_site_fract_x
_atom_site_fract_y
_atom_site_fract_z
Si Si1 0.458293 0.891649 0.727898
Si Si2 0.173314 0.388803 0.085169
Si Si3 0.563146 0.292108 0.100815
Si Si4 0.100092 0.891234 0.404244
Si Si5 0.825797 0.702942 0.601452
Si Si6 0.936251 0.387311 0.409028
O O1 0.433475 0.815259 0.841496
O O2 0.534646 0.874658 0.690355
O O3 0.421794 0.882541 0.572910
O O4 0.451080 0.000000 0.776732
O O5 0.250000 0.376166 0.049747
O O6 0.157472 0.500000 0.070630
O O7 0.126442 0.327162 0.984872
O O8 0.164243 0.356236 0.251202
O O9 0.444732 0.354758 0.755146
O O10 0.500000 0.302618 0.000000
O O11 0.152405 0.810941 0.371869
O O12 0.120951 0.000000 0.381301
O O13 0.750000 0.697410 0.560668
O O14 0.873150 0.660706 0.479782
O O15 0.930431 0.500000 0.418608
O O16 0.000000 0.356826 0.500000
#
# Coordination Sequence:
#
# PCOD9406885 Si02
#       6
#     8   8   8   8   8   8
#     4   9  18  34  59  88 118 152 191 237 288 343
#     4  10  23  42  59  79 115 160 200 239 294 360
#     4  12  23  36  60  87 119 153 193 241 291 349
#     4   9  17  34  60  88 119 151 187 237 294 347
#     4  11  22  38  62  88 115 152 198 250 300 347
#     4  11  23  38  58  85 116 149 196 250 295 345
#
# _framework density 17.959762000000001
#
# number of rings (size 3 to 8) (size 9 to 14) (size 15 to 20)
#    0.000    1.667    1.667    5.000    0.000    5.000 
#    0.000    0.833    0.000    1.500    0.000    0.000 
#    0.000    0.000    0.000    0.000    0.000    0.000 
#
# Total GULP energy -268188.945745 kJ/mol
# GULP energy per Si atom -5587.269703 kJ/mol
# Density = 1.791888 g / cm^3
# Si number density = 17.959762 Si / 1000 Ang^3
#
#
#
# Elastic Constant Matrix: (Units=GPa)
#
#
# Indices 1 2 3 4 5 6 
#
# 1 79.0189 66.6071 48.6652 0.0000 0.0000 0.0000
# 2 66.6071 125.3130 50.3802 0.0000 0.0000 0.0000
# 3 48.6652 50.3802 74.2642 0.0000 0.0000 0.0000
# 4 0.0000 0.0000 0.0000 18.4971 0.0000 0.0000
# 5 0.0000 0.0000 0.0000 0.0000 29.5603 0.0000
# 6 0.0000 0.0000 0.0000 0.0000 0.0000 -181.2731
#
#
#
# Elastic Compliance Matrix: (Units=1/GPa)
#
#
# Indices 1 2 3 4 5 6 
#
# 1 0.028780 -0.010609 -0.011663 0.000000 0.000000 0.000000
# 2 -0.010609 0.014883 -0.003145 0.000000 0.000000 0.000000
# 3 -0.011663 -0.003145 0.023241 0.000000 0.000000 0.000000
# 4 0.000000 0.000000 0.000000 0.054062 0.000000 0.000000
# 5 0.000000 0.000000 0.000000 0.000000 0.033829 0.000000
# 6 0.000000 0.000000 0.000000 0.000000 0.000000 -0.005517
#
#
# Mechanical properties :
#
#
# Convention : Reuss Voigt Hill
#
# Bulk Modulus (GPa) = 62.21862 67.76679 64.99271
# Shear Modulus (GPa) = 24.33452 -19.11355 2.61048
#
# Velocity S-wave (km/s) = 3.68495 -3.26581 1.20693
# Velocity P-wave (km/s) = 7.26799 4.85734 6.18132
#
# Compressibility (1/GPa) = 0.01607236
#
# Stress axis : x y z
#
# Youngs Moduli (GPa) = 34.74617 67.19050 43.02660
#
# Poissons Ratio (x) = 0.71279 0.50181
# Poissons Ratio (y) = 0.36861 0.13531
# Poissons Ratio (z) = 0.40524 0.21130
#
# Static dielectric constant tensor:
#      x y z
#    x 1.583250 0.000000 0.000000 
#    y 0.000000 1.626810 0.000000 
#    z 0.000000 0.000000 1.595890 
# 
# From -- ./inp_files/9621.got.cif
#   From: 2010.05.17/outbox.cif.g08.bks.cpg/sg51_5_cif.got.tgz:9621.got - 2010.06.03 11:52:47.
