data_PCOD9406617
_publ_section_title
;
Structure prediction by ZEFSAII (Michael W. Deem and Ramdas Pophale) SiO2 
 PCOD9406617
Probable space group: P M M A
;
_chemical_formula_sum "Si O2"
_cell_formula_units_Z 40
_cell_length_a 11.142953
_cell_length_b 12.904831
_cell_length_c 12.889590
_cell_angle_alpha 90.000000
_cell_angle_beta 90.000000
_cell_angle_gamma 90.000000
_cell_volume 1853.496300
_symmetry_space_group_name_H-M "P M M A"
_symmetry_group_IT_number 51
_symmetry_cell_setting 'orthorhombic'
loop_
_space_group_symop_operation_xyz
x,y,z
1/2-x,-y,z
1/2+x,-y,-z
-x,y,-z
-x,-y,-z
1/2+x,y,-z
1/2-x,y,z
x,-y,z
loop_
_atom_site_type_symbol
_atom_site_label
_atom_site_fract_x
_atom_site_fract_y
_atom_site_fract_z
Si Si1 0.879334 0.881779 0.933854
Si Si2 0.968287 0.751406 0.754154
Si Si3 0.120210 0.321597 0.454707
Si Si4 0.109633 0.377592 0.916495
Si Si5 0.882366 0.119035 0.401232
O O1 0.750000 0.872079 0.989606
O O2 0.885353 0.802512 0.840072
O O3 0.885327 0.000000 0.895024
O O4 0.000000 0.866786 0.000000
O O5 0.897847 0.685755 0.668303
O O6 0.069547 0.686761 0.815346
O O7 0.027736 0.842494 0.686321
O O8 0.250000 0.366729 0.481069
O O9 0.119971 0.205092 0.506777
O O10 0.000000 0.372002 0.500000
O O11 0.250000 0.354627 0.947440
O O12 0.106796 0.500000 0.893971
O O13 0.000000 0.360722 0.000000
O O14 0.750000 0.123558 0.353825
O O15 0.900581 0.000000 0.434027
#
# Coordination Sequence:
#
# PCOD9406617 Si02
#       5
#     8   8   8   8   8
#     4  10  22  37  51  73 109 150 189 230 278 336
#     4  11  20  32  57  84 110 144 189 237 287 341
#     4   9  19  33  51  78 112 148 186 228 273 324
#     4  10  23  43  65  89 116 147 188 242 304 365
#     4   9  18  32  51  80 118 156 192 231 277 331
#
# _framework density 21.580836000000001
#
# number of rings (size 3 to 8) (size 9 to 14) (size 15 to 20)
#    0.000    2.200    0.000    2.400    0.000   10.000 
#    0.000    4.000    0.000    5.400    0.000    5.600 
#    0.000    0.000    0.000    0.000    0.000    0.000 
#
# Total GULP energy -222831.482384 kJ/mol
# GULP energy per Si atom -5570.787060 kJ/mol
# Density = 2.153172 g / cm^3
# Si number density = 21.580836 Si / 1000 Ang^3
#
#
#
# Elastic Constant Matrix: (Units=GPa)
#
#
# Indices 1 2 3 4 5 6 
#
# 1 215.7627 8.1543 45.3812 0.0000 0.0000 0.0000
# 2 8.1543 77.1691 11.1042 0.0000 0.0000 0.0000
# 3 45.3812 11.1042 74.2088 0.0000 0.0000 0.0000
# 4 0.0000 0.0000 0.0000 1.9964 0.0000 0.0000
# 5 0.0000 0.0000 0.0000 0.0000 27.6656 0.0000
# 6 0.0000 0.0000 0.0000 0.0000 0.0000 -31.4210
#
#
#
# Elastic Compliance Matrix: (Units=1/GPa)
#
#
# Indices 1 2 3 4 5 6 
#
# 1 0.005320 -0.000096 -0.003239 0.000000 0.000000 0.000000
# 2 -0.000096 0.013245 -0.001923 0.000000 0.000000 0.000000
# 3 -0.003239 -0.001923 0.015744 0.000000 0.000000 0.000000
# 4 0.000000 0.000000 0.000000 0.500912 0.000000 0.000000
# 5 0.000000 0.000000 0.000000 0.000000 0.036146 0.000000
# 6 0.000000 0.000000 0.000000 0.000000 0.000000 -0.031826
#
#
# Mechanical properties :
#
#
# Convention : Reuss Voigt Hill
#
# Bulk Modulus (GPa) = 42.02943 55.15777 48.59360
# Shear Modulus (GPa) = 8.96076 19.81490 14.38783
#
# Velocity S-wave (km/s) = 2.03990 3.03342 2.58484
# Velocity P-wave (km/s) = 5.00658 6.15492 5.61021
#
# Compressibility (1/GPa) = 0.02379285
#
# Stress axis : x y z
#
# Youngs Moduli (GPa) = 187.98586 75.49761 63.51685
#
# Poissons Ratio (x) = 0.00725 0.20571
# Poissons Ratio (y) = 0.01806 0.12216
# Poissons Ratio (z) = 0.60883 0.14520
#
# Static dielectric constant tensor:
#      x y z
#    x 1.472310 0.000000 0.000000 
#    y 0.000000 1.786310 0.000000 
#    z 0.000000 0.000000 1.761090 
# 
# From -- ./inp_files/15334.got.cif
#   From: 2010.05.17/outbox.cif.g08.bks.cpg/sg51_8_cif.got.tgz:15334.got - 2010.06.03 11:52:47.
