data_PCOD9406447
_publ_section_title
;
Structure prediction by ZEFSAII (Michael W. Deem and Ramdas Pophale) SiO2 
 PCOD9406447
Probable space group: P M M A
;
_chemical_formula_sum "Si O2"
_cell_formula_units_Z 64
_cell_length_a 8.999925
_cell_length_b 25.189425
_cell_length_c 15.159071
_cell_angle_alpha 90.000000
_cell_angle_beta 90.000000
_cell_angle_gamma 90.000000
_cell_volume 3436.605900
_symmetry_space_group_name_H-M "P M M A"
_symmetry_group_IT_number 51
_symmetry_cell_setting 'orthorhombic'
loop_
_space_group_symop_operation_xyz
x,y,z
1/2-x,-y,z
1/2+x,-y,-z
-x,y,-z
-x,-y,-z
1/2+x,y,-z
1/2-x,y,z
x,-y,z
loop_
_atom_site_type_symbol
_atom_site_label
_atom_site_fract_x
_atom_site_fract_y
_atom_site_fract_z
Si Si1 0.074686 0.769599 0.911494
Si Si2 0.575885 0.063625 0.906362
Si Si3 0.574582 0.409687 0.410625
Si Si4 0.421039 0.330633 0.159621
Si Si5 0.579305 0.696801 0.633108
Si Si6 0.928198 0.858522 0.230087
Si Si7 0.571485 0.441196 0.772936
Si Si8 0.927723 0.819884 0.592860
O O1 0.250000 0.770762 0.922055
O O2 0.035313 0.806187 0.828132
O O3 0.018822 0.710098 0.894586
O O4 0.000000 0.790805 0.000000
O O5 0.750000 0.078254 0.908514
O O6 0.494034 0.093328 0.826873
O O7 0.565064 0.000000 0.895727
O O8 0.500000 0.077080 0.000000
O O9 0.500000 0.430562 0.500000
O O10 0.750000 0.417328 0.412369
O O11 0.531879 0.347195 0.404011
O O12 0.504482 0.434427 0.322288
O O13 0.250000 0.328525 0.128810
O O14 0.423307 0.310512 0.261204
O O15 0.473027 0.391641 0.165867
O O16 0.750000 0.685064 0.604483
O O17 0.541984 0.756892 0.608022
O O18 0.750000 0.862608 0.237434
O O19 0.001718 0.851238 0.325307
O O20 0.750000 0.435867 0.760263
O O21 0.540055 0.500000 0.807821
O O22 0.750000 0.826480 0.591505
O O23 0.000000 0.835394 0.500000
#
# Coordination Sequence:
#
# PCOD9406447 Si02
#       8
#     8   8   8   8   8   8   8   8
#     4  11  23  36  55  84 117 151 185 225 277 339
#     4  10  21  38  62  92 125 162 203 246 294 347
#     4  11  21  31  46  68  97 131 171 221 274 331
#     4   9  17  33  55  78 105 137 173 217 274 335
#     4   9  18  33  52  74 102 141 183 226 277 330
#     4  11  23  38  58  87 122 160 200 242 290 343
#     4   9  19  36  55  73  95 128 171 218 273 337
#     4  11  22  36  55  80 114 156 200 246 290 341
#
# _framework density 18.623027
#
# number of rings (size 3 to 8) (size 9 to 14) (size 15 to 20)
#    0.000    1.875    1.250    4.125    0.000    7.750 
#    0.000    0.000    0.000    0.750    0.000    0.000 
#    0.000    0.000    0.000    0.000    0.000    0.000 
#
# Total GULP energy -357505.865844 kJ/mol
# GULP energy per Si atom -5586.029154 kJ/mol
# Density = 1.858064 g / cm^3
# Si number density = 18.623027 Si / 1000 Ang^3
#
#
#
# Elastic Constant Matrix: (Units=GPa)
#
#
# Indices 1 2 3 4 5 6 
#
# 1 63.3568 37.5747 44.7977 0.0000 0.0000 0.0000
# 2 37.5747 73.7407 40.4419 0.0000 0.0000 0.0000
# 3 44.7977 40.4419 101.6419 0.0000 0.0000 0.0000
# 4 0.0000 0.0000 0.0000 6.5620 0.0000 0.0000
# 5 0.0000 0.0000 0.0000 0.0000 30.9558 0.0000
# 6 0.0000 0.0000 0.0000 0.0000 0.0000 19.2775
#
#
#
# Elastic Compliance Matrix: (Units=1/GPa)
#
#
# Indices 1 2 3 4 5 6 
#
# 1 0.027140 -0.009298 -0.008262 0.000000 0.000000 0.000000
# 2 -0.009298 0.020532 -0.004071 0.000000 0.000000 0.000000
# 3 -0.008262 -0.004071 0.015100 0.000000 0.000000 0.000000
# 4 0.000000 0.000000 0.000000 0.152394 0.000000 0.000000
# 5 0.000000 0.000000 0.000000 0.000000 0.032304 0.000000
# 6 0.000000 0.000000 0.000000 0.000000 0.000000 0.051874
#
#
# Mechanical properties :
#
#
# Convention : Reuss Voigt Hill
#
# Bulk Modulus (GPa) = 51.25933 53.81867 52.53900
# Shear Modulus (GPa) = 14.32220 19.08739 16.70479
#
# Velocity S-wave (km/s) = 2.77620 3.20493 2.99824
# Velocity P-wave (km/s) = 6.15312 6.53125 6.34500
#
# Compressibility (1/GPa) = 0.01950864
#
# Stress axis : x y z
#
# Youngs Moduli (GPa) = 36.84627 48.70532 66.22610
#
# Poissons Ratio (x) = 0.45286 0.54716
# Poissons Ratio (y) = 0.34259 0.26962
# Poissons Ratio (z) = 0.30443 0.19829
#
# Static dielectric constant tensor:
#      x y z
#    x 1.623200 0.000000 0.000000 
#    y 0.000000 1.659210 0.000000 
#    z 0.000000 0.000000 1.630900 
# 
# From -- ./inp_files/22398.got.cif
#   From: 2010.05.17/outbox.cif.g08.bks.cpg/sg51_12_cif.got.tgz:22398.got - 2010.06.03 11:52:47.
