data_PCOD9406162
_publ_section_title
;
Structure prediction by ZEFSAII (Michael W. Deem and Ramdas Pophale) SiO2 
 PCOD9406162
Probable space group: P M M A
;
_chemical_formula_sum "Si O2"
_cell_formula_units_Z 58
_cell_length_a 24.175126
_cell_length_b 7.726559
_cell_length_c 15.109697
_cell_angle_alpha 90.000000
_cell_angle_beta 90.000000
_cell_angle_gamma 90.000000
_cell_volume 2822.348422
_symmetry_space_group_name_H-M "P M M A"
_symmetry_group_IT_number 51
_symmetry_cell_setting 'orthorhombic'
loop_
_space_group_symop_operation_xyz
x,y,z
1/2-x,-y,z
1/2+x,-y,-z
-x,y,-z
-x,-y,-z
1/2+x,y,-z
1/2-x,y,z
x,-y,z
loop_
_atom_site_type_symbol
_atom_site_label
_atom_site_fract_x
_atom_site_fract_y
_atom_site_fract_z
Si Si1 0.060400 0.295825 0.401930
Si Si2 0.170178 0.800306 0.698577
Si Si3 0.565227 0.710635 0.401625
Si Si4 0.868028 0.208399 0.114531
Si Si5 0.099467 0.201330 0.214633
Si Si6 0.685986 0.212300 0.929732
Si Si7 0.250000 0.500000 0.639830
Si Si8 0.005701 0.296436 0.899970
O O1 0.053903 0.500000 0.414407
O O2 0.081072 0.234910 0.497792
O O3 0.095615 0.269596 0.314188
O O4 0.997893 0.230612 0.387027
O O5 0.107049 0.791448 0.666935
O O6 0.170233 0.747441 0.801948
O O7 0.202737 0.654735 0.645248
O O8 0.188703 0.000000 0.689864
O O9 0.567571 0.500000 0.393019
O O10 0.930618 0.272943 0.126758
O O11 0.871086 0.000000 0.112067
O O12 0.841952 0.268413 0.022051
O O13 0.147116 0.274317 0.150554
O O14 0.040370 0.221681 0.165483
O O15 0.111182 0.000000 0.223218
O O16 0.750000 0.264926 0.923179
O O17 0.685209 0.000000 0.930237
O O18 0.993394 0.500000 0.903183
O O19 0.000000 0.224367 0.000000
#
# Coordination Sequence:
#
# PCOD9406162 Si02
#       8
#     8   8   8   8   8   8   2   8
#     4   9  19  35  63  90 121 156 193 235 304 375
#     4  11  24  40  64  93 121 160 210 255 305 369
#     4   9  18  38  62  91 122 159 190 241 312 371
#     4  10  21  37  59  86 114 150 198 249 298 355
#     4  11  21  34  56  84 115 153 195 243 297 350
#     4   9  19  36  56  76 107 151 199 246 291 341
#     4  12  26  44  64  84 126 166 202 260 312 364
#     4  11  22  34  52  80 118 156 192 237 299 369
#
# _framework density 20.550262
#
# number of rings (size 3 to 8) (size 9 to 14) (size 15 to 20)
#    0.000    1.931    2.069    2.690    1.931    3.862 
#    0.000    1.379    1.517    3.310    0.000    0.000 
#    0.000    0.000    0.000    0.000    0.000    0.000 
#
# Total GULP energy -323282.929198 kJ/mol
# GULP energy per Si atom -5573.843607 kJ/mol
# Density = 2.050349 g / cm^3
# Si number density = 20.550262 Si / 1000 Ang^3
#
#
#
# Elastic Constant Matrix: (Units=GPa)
#
#
# Indices 1 2 3 4 5 6 
#
# 1 85.0711 0.8163 27.8057 0.0000 0.0000 0.0000
# 2 0.8163 50.7018 1.5665 0.0000 0.0000 0.0000
# 3 27.8057 1.5665 102.9987 0.0000 0.0000 0.0000
# 4 0.0000 0.0000 0.0000 20.9580 0.0000 0.0000
# 5 0.0000 0.0000 0.0000 0.0000 -64.1042 0.0000
# 6 0.0000 0.0000 0.0000 0.0000 0.0000 89.9770
#
#
#
# Elastic Compliance Matrix: (Units=1/GPa)
#
#
# Indices 1 2 3 4 5 6 
#
# 1 0.012893 -0.000100 -0.003479 0.000000 0.000000 0.000000
# 2 -0.000100 0.019733 -0.000273 0.000000 0.000000 0.000000
# 3 -0.003479 -0.000273 0.010652 0.000000 0.000000 0.000000
# 4 0.000000 0.000000 0.000000 0.047714 0.000000 0.000000
# 5 0.000000 0.000000 0.000000 0.000000 -0.015600 0.000000
# 6 0.000000 0.000000 0.000000 0.000000 0.000000 0.011114
#
#
# Mechanical properties :
#
#
# Convention : Reuss Voigt Hill
#
# Bulk Modulus (GPa) = 28.11051 33.23874 30.67462
# Shear Modulus (GPa) = 47.13880 23.27170 35.20525
#
# Velocity S-wave (km/s) = 4.79459 3.36881 4.14349
# Velocity P-wave (km/s) = 6.66028 5.59833 6.15226
#
# Compressibility (1/GPa) = 0.03557388
#
# Stress axis : x y z
#
# Youngs Moduli (GPa) = 77.56155 50.67602 93.87703
#
# Poissons Ratio (x) = 0.00507 0.32661
# Poissons Ratio (y) = 0.00776 0.02564
# Poissons Ratio (z) = 0.26984 0.01384
#
# Static dielectric constant tensor:
#      x y z
#    x 1.691220 0.000000 0.000000 
#    y 0.000000 1.744110 0.000000 
#    z 0.000000 0.000000 1.760500 
# 
# From -- ./inp_files/26122.got.cif
#   From: 2010.05.17/outbox.cif.g08.bks.cpg/sg51_14_cif.got.tgz:26122.got - 2010.06.03 11:52:47.
