data_PCOD9406870
_publ_section_title
;
Structure prediction by ZEFSAII (Michael W. Deem and Ramdas Pophale) SiO2 
 PCOD9406870
Probable space group: P M M A
;
_chemical_formula_sum "Si O2"
_cell_formula_units_Z 48
_cell_length_a 25.097678
_cell_length_b 14.014646
_cell_length_c 5.335332
_cell_angle_alpha 90.000000
_cell_angle_beta 90.000000
_cell_angle_gamma 90.000000
_cell_volume 1876.623388
_symmetry_space_group_name_H-M "P M M A"
_symmetry_group_IT_number 51
_symmetry_cell_setting 'orthorhombic'
loop_
_space_group_symop_operation_xyz
x,y,z
1/2-x,-y,z
1/2+x,-y,-z
-x,y,-z
-x,-y,-z
1/2+x,y,-z
1/2-x,y,z
x,-y,z
loop_
_atom_site_type_symbol
_atom_site_label
_atom_site_fract_x
_atom_site_fract_y
_atom_site_fract_z
Si Si1 0.750000 0.400980 0.219147
Si Si2 0.659308 0.605747 0.622098
Si Si3 0.946027 0.610412 0.338929
Si Si4 0.250000 0.113613 0.574057
Si Si5 0.135302 0.886241 0.801960
Si Si6 0.750000 0.264201 0.847486
Si Si7 0.000000 0.754332 0.000000
Si Si8 0.425641 0.115979 0.301671
O O1 0.750000 0.500000 0.058195
O O2 0.750000 0.292358 0.134007
O O3 0.802878 0.406551 0.382198
O O4 0.652152 0.500000 0.738645
O O5 0.602478 0.637619 0.520361
O O6 0.695699 0.677558 0.777496
O O7 0.937364 0.500000 0.255838
O O8 0.955377 0.683248 0.112444
O O9 0.000000 0.612327 0.500000
O O10 0.304274 0.133789 0.725057
O O11 0.250000 0.168739 0.309317
O O12 0.250000 0.000000 0.520716
O O13 0.097241 0.856178 0.572392
O O14 0.130698 0.000000 0.802403
O O15 0.116884 0.859284 0.080479
O O16 0.023356 0.824170 0.213049
O O17 0.435095 0.000000 0.298584
#
# Coordination Sequence:
#
# PCOD9406870 Si02
#       8
#     4   8   8   4   8   4   4   8
#     4   9  18  35  61  93 121 154 200 260 327 378
#     4   9  20  39  61  91 127 156 203 270 324 387
#     4  10  24  44  63  89 128 172 218 271 334 402
#     4  10  23  40  60  91 133 172 213 265 320 392
#     4   9  21  43  65  93 132 178 219 267 333 389
#     4  11  21  35  65  90 122 162 217 253 327 388
#     4  12  26  38  68  90 128 162 228 270 338 394
#     4  10  23  42  68  98 134 172 220 280 331 394
#
# _framework density 25.577856000000001
#
# number of rings (size 3 to 8) (size 9 to 14) (size 15 to 20)
#    0.000    2.167    0.000    1.750    4.667    3.333 
#    3.000   10.833    0.000    0.000    0.000    0.000 
#    0.000    0.000    0.000    0.000    0.000    0.000 
#
# Total GULP energy -268466.587822 kJ/mol
# GULP energy per Si atom -5593.053913 kJ/mol
# Density = 2.551964 g / cm^3
# Si number density = 25.577856 Si / 1000 Ang^3
#
#
#
# Elastic Constant Matrix: (Units=GPa)
#
#
# Indices 1 2 3 4 5 6 
#
# 1 136.5716 11.9929 7.5702 0.0000 0.0000 0.0000
# 2 11.9929 134.8663 8.1190 0.0000 0.0000 0.0000
# 3 7.5702 8.1190 53.2684 0.0000 0.0000 0.0000
# 4 0.0000 0.0000 0.0000 27.2651 0.0000 0.0000
# 5 0.0000 0.0000 0.0000 0.0000 143.8420 0.0000
# 6 0.0000 0.0000 0.0000 0.0000 0.0000 28.9387
#
#
#
# Elastic Compliance Matrix: (Units=1/GPa)
#
#
# Indices 1 2 3 4 5 6 
#
# 1 0.007429 -0.000603 -0.000964 0.000000 0.000000 0.000000
# 2 -0.000603 0.007532 -0.001062 0.000000 0.000000 0.000000
# 3 -0.000964 -0.001062 0.019072 0.000000 0.000000 0.000000
# 4 0.000000 0.000000 0.000000 0.036677 0.000000 0.000000
# 5 0.000000 0.000000 0.000000 0.000000 0.006952 0.000000
# 6 0.000000 0.000000 0.000000 0.000000 0.000000 0.034556
#
#
# Mechanical properties :
#
#
# Convention : Reuss Voigt Hill
#
# Bulk Modulus (GPa) = 34.75250 42.23005 38.49127
# Shear Modulus (GPa) = 39.34945 59.81078 49.58012
#
# Velocity S-wave (km/s) = 3.92652 4.84093 4.40750
# Velocity P-wave (km/s) = 5.84579 6.91320 6.40178
#
# Compressibility (1/GPa) = 0.02877491
#
# Stress axis : x y z
#
# Youngs Moduli (GPa) = 134.61656 132.76179 52.43357
#
# Poissons Ratio (x) = 0.08000 0.05054
# Poissons Ratio (y) = 0.08111 0.05571
# Poissons Ratio (z) = 0.12975 0.14105
#
# Static dielectric constant tensor:
#      x y z
#    x 1.965660 0.000000 0.000000 
#    y 0.000000 2.048540 0.000000 
#    z 0.000000 0.000000 2.077200 
# 
# From -- ./inp_files/3565.got.cif
#   From: 2010.05.17/outbox.cif.g08.bks.cpg/sg51_2_cif.got.tgz:3565.got - 2010.06.03 11:52:47.
