data_PCOD9406218
_publ_section_title
;
Structure prediction by ZEFSAII (Michael W. Deem and Ramdas Pophale) SiO2 
 PCOD9406218
Probable space group: P M M A
;
_chemical_formula_sum "Si O2"
_cell_formula_units_Z 64
_cell_length_a 31.781242
_cell_length_b 8.038552
_cell_length_c 12.527216
_cell_angle_alpha 90.000000
_cell_angle_beta 90.000000
_cell_angle_gamma 90.000000
_cell_volume 3200.392593
_symmetry_space_group_name_H-M "P M M A"
_symmetry_group_IT_number 51
_symmetry_cell_setting 'orthorhombic'
loop_
_space_group_symop_operation_xyz
x,y,z
1/2-x,-y,z
1/2+x,-y,-z
-x,y,-z
-x,-y,-z
1/2+x,y,-z
1/2-x,y,z
x,-y,z
loop_
_atom_site_type_symbol
_atom_site_label
_atom_site_fract_x
_atom_site_fract_y
_atom_site_fract_z
Si Si1 0.383825 0.691560 0.863851
Si Si2 0.547269 0.197201 0.528566
Si Si3 0.297963 0.196837 0.500270
Si Si4 0.524545 0.193260 0.107514
Si Si5 0.379001 0.303707 0.628508
Si Si6 0.050811 0.304089 0.235866
Si Si7 0.869563 0.295975 0.903404
Si Si8 0.202217 0.700945 0.258330
O O1 0.369151 0.500000 0.860451
O O2 0.434154 0.699355 0.876459
O O3 0.374700 0.768007 0.748290
O O4 0.367028 0.765029 0.975009
O O5 0.500000 0.258207 0.500000
O O6 0.581832 0.230439 0.437577
O O7 0.561613 0.276039 0.640686
O O8 0.544519 0.000000 0.545384
O O9 0.250000 0.258101 0.521261
O O10 0.335241 0.278206 0.567057
O O11 0.306633 0.227436 0.375176
O O12 0.298723 0.000000 0.520793
O O13 0.492263 0.214007 0.204660
O O14 0.536847 0.000000 0.096846
O O15 0.500000 0.243377 0.000000
O O16 0.387796 0.500000 0.637721
O O17 0.044802 0.500000 0.217302
O O18 0.087698 0.244367 0.156826
O O19 0.870362 0.500000 0.906205
O O20 0.830837 0.244088 0.829970
O O21 0.250000 0.745273 0.229478
O O22 0.199635 0.500000 0.266844
#
# Coordination Sequence:
#
# PCOD9406218 Si02
#       8
#     8   8   8   8   8   8   8   8
#     4  10  21  38  57  78 109 149 192 233 276 335
#     4  11  24  40  57  80 116 155 191 236 289 344
#     4  10  21  38  61  87 115 149 188 234 292 353
#     4  11  22  35  52  78 111 146 189 234 280 333
#     4  11  23  38  59  85 114 152 197 242 290 343
#     4  11  21  34  57  81 107 143 186 234 279 330
#     4   9  18  33  53  80 109 138 175 219 271 324
#     4   9  17  32  57  86 114 142 175 222 277 335
#
# _framework density 19.997544999999999
#
# number of rings (size 3 to 8) (size 9 to 14) (size 15 to 20)
#    0.000    1.750    1.250    3.375    0.000    6.250 
#    0.000    1.875    0.000    2.250    0.000    1.750 
#    0.000    0.000    0.000    0.000    0.000    0.000 
#
# Total GULP energy -357494.091513 kJ/mol
# GULP energy per Si atom -5585.845180 kJ/mol
# Density = 1.995203 g / cm^3
# Si number density = 19.997545 Si / 1000 Ang^3
#
#
#
# Elastic Constant Matrix: (Units=GPa)
#
#
# Indices 1 2 3 4 5 6 
#
# 1 77.3096 -2.9766 45.6822 0.0000 0.0000 0.0000
# 2 -2.9766 21.3065 -4.5398 0.0000 0.0000 0.0000
# 3 45.6822 -4.5398 113.8377 0.0000 0.0000 0.0000
# 4 0.0000 0.0000 0.0000 9.3572 0.0000 0.0000
# 5 0.0000 0.0000 0.0000 0.0000 35.5771 0.0000
# 6 0.0000 0.0000 0.0000 0.0000 0.0000 12.6386
#
#
#
# Elastic Compliance Matrix: (Units=1/GPa)
#
#
# Indices 1 2 3 4 5 6 
#
# 1 0.016974 0.000928 -0.006774 0.000000 0.000000 0.000000
# 2 0.000928 0.047387 0.001517 0.000000 0.000000 0.000000
# 3 -0.006774 0.001517 0.011563 0.000000 0.000000 0.000000
# 4 0.000000 0.000000 0.000000 0.106869 0.000000 0.000000
# 5 0.000000 0.000000 0.000000 0.000000 0.028108 0.000000
# 6 0.000000 0.000000 0.000000 0.000000 0.000000 0.079123
#
#
# Mechanical properties :
#
#
# Convention : Reuss Voigt Hill
#
# Bulk Modulus (GPa) = 14.86634 32.08725 23.47679
# Shear Modulus (GPa) = 15.57126 23.13378 19.35252
#
# Velocity S-wave (km/s) = 2.79347 3.40491 3.11423
# Velocity P-wave (km/s) = 4.22550 5.61590 4.96957
#
# Compressibility (1/GPa) = 0.06726605
#
# Stress axis : x y z
#
# Youngs Moduli (GPa) = 58.91460 21.10280 86.47923
#
# Poissons Ratio (x) = -0.01958 0.58585
# Poissons Ratio (y) = -0.05467 -0.13123
# Poissons Ratio (z) = 0.39911 -0.03202
#
# Static dielectric constant tensor:
#      x y z
#    x 1.686040 0.000000 0.000000 
#    y 0.000000 1.720410 0.000000 
#    z 0.000000 0.000000 1.723690 
# 
# From -- ./inp_files/19447.got.cif
#   From: 2010.05.17/outbox.cif.g08.bks.cpg/sg51_10_cif.got.tgz:19447.got - 2010.06.03 11:52:47.
