data_PCOD9406692
_publ_section_title
;
Structure prediction by ZEFSAII (Michael W. Deem and Ramdas Pophale) SiO2 
 PCOD9406692
Probable space group: P M M A
;
_chemical_formula_sum "Si O2"
_cell_formula_units_Z 48
_cell_length_a 14.635971
_cell_length_b 9.548264
_cell_length_c 17.849242
_cell_angle_alpha 90.000000
_cell_angle_beta 90.000000
_cell_angle_gamma 90.000000
_cell_volume 2494.397924
_symmetry_space_group_name_H-M "P M M A"
_symmetry_group_IT_number 51
_symmetry_cell_setting 'orthorhombic'
loop_
_space_group_symop_operation_xyz
x,y,z
1/2-x,-y,z
1/2+x,-y,-z
-x,y,-z
-x,-y,-z
1/2+x,y,-z
1/2-x,y,z
x,-y,z
loop_
_atom_site_type_symbol
_atom_site_label
_atom_site_fract_x
_atom_site_fract_y
_atom_site_fract_z
Si Si1 0.641634 0.833101 0.806349
Si Si2 0.138421 0.339036 0.505247
Si Si3 0.357519 0.663178 0.793700
Si Si4 0.989797 0.666363 0.913970
Si Si5 0.138715 0.160331 0.649160
Si Si6 0.861232 0.838710 0.637204
O O1 0.750000 0.806324 0.812359
O O2 0.586827 0.749166 0.868416
O O3 0.611823 0.795835 0.721305
O O4 0.627715 0.000000 0.814168
O O5 0.250000 0.339015 0.505303
O O6 0.109357 0.500000 0.510088
O O7 0.109560 0.248265 0.576829
O O8 0.109037 0.263880 0.428663
O O9 0.250000 0.685995 0.807841
O O10 0.368745 0.500000 0.771182
O O11 0.416987 0.687466 0.867406
O O12 0.387225 0.762335 0.725716
O O13 0.969253 0.500000 0.913412
O O14 0.000000 0.710996 0.000000
O O15 0.250000 0.158836 0.647941
O O16 0.107555 0.000000 0.646761
O O17 0.750000 0.839131 0.637218
O O18 0.888709 0.000000 0.623143
#
# Coordination Sequence:
#
# PCOD9406692 Si02
#       6
#     8   8   8   8   8   8
#     4   9  19  36  57  81 110 145 182 220 266 318
#     4   9  15  22  37  66 102 137 174 214 256 304
#     4   9  18  34  54  75 104 141 178 218 265 317
#     4  10  22  38  57  83 110 138 175 219 271 328
#     4   9  16  26  43  69 100 135 176 218 260 308
#     4   8  14  26  44  67  98 136 176 215 255 302
#
# _framework density 19.243120999999999
#
# number of rings (size 3 to 8) (size 9 to 14) (size 15 to 20)
#    0.000    3.000    0.000    2.000    0.000    6.667 
#    0.000    3.333    0.000    3.000    0.000    7.000 
#    0.000    0.000    0.000    0.000    0.000    0.000 
#
# Total GULP energy -267979.751911 kJ/mol
# GULP energy per Si atom -5582.911498 kJ/mol
# Density = 1.919932 g / cm^3
# Si number density = 19.243121 Si / 1000 Ang^3
#
#
#
# Elastic Constant Matrix: (Units=GPa)
#
#
# Indices 1 2 3 4 5 6 
#
# 1 71.6653 44.0991 46.7388 0.0000 0.0000 0.0000
# 2 44.0991 120.5623 120.1666 0.0000 0.0000 0.0000
# 3 46.7388 120.1666 206.0081 0.0000 0.0000 0.0000
# 4 0.0000 0.0000 0.0000 39.5428 0.0000 0.0000
# 5 0.0000 0.0000 0.0000 0.0000 43.2320 0.0000
# 6 0.0000 0.0000 0.0000 0.0000 0.0000 10.4500
#
#
#
# Elastic Compliance Matrix: (Units=1/GPa)
#
#
# Indices 1 2 3 4 5 6 
#
# 1 0.018036 -0.006017 -0.000582 0.000000 0.000000 0.000000
# 2 -0.006017 0.021822 -0.011364 0.000000 0.000000 0.000000
# 3 -0.000582 -0.011364 0.011615 0.000000 0.000000 0.000000
# 4 0.000000 0.000000 0.000000 0.025289 0.000000 0.000000
# 5 0.000000 0.000000 0.000000 0.000000 0.023131 0.000000
# 6 0.000000 0.000000 0.000000 0.000000 0.000000 0.095694
#
#
# Mechanical properties :
#
#
# Convention : Reuss Voigt Hill
#
# Bulk Modulus (GPa) = 64.32157 91.13831 77.72994
# Shear Modulus (GPa) = 21.12428 31.12703 26.12565
#
# Velocity S-wave (km/s) = 3.31684 4.02626 3.68864
# Velocity P-wave (km/s) = 6.94023 8.31136 7.65655
#
# Compressibility (1/GPa) = 0.01554688
#
# Stress axis : x y z
#
# Youngs Moduli (GPa) = 55.44486 45.82583 86.09619
#
# Poissons Ratio (x) = 0.27572 0.05014
# Poissons Ratio (y) = 0.33360 0.97838
# Poissons Ratio (z) = 0.03229 0.52076
#
# Static dielectric constant tensor:
#      x y z
#    x 1.716590 0.000000 0.000000 
#    y 0.000000 1.643010 0.000000 
#    z 0.000000 0.000000 1.629830 
# 
# From -- ./inp_files/29464.got.cif
#   From: 2010.05.17/outbox.cif.g08.bks.cpg/sg51_15_cif.got.tgz:29464.got - 2010.06.03 11:52:47.
