data_PCOD9406421
_publ_section_title
;
Structure prediction by ZEFSAII (Michael W. Deem and Ramdas Pophale) SiO2 
 PCOD9406421
Probable space group: P M M A
;
_chemical_formula_sum "Si O2"
_cell_formula_units_Z 20
_cell_length_a 10.533365
_cell_length_b 14.619726
_cell_length_c 6.127134
_cell_angle_alpha 90.000000
_cell_angle_beta 90.000000
_cell_angle_gamma 90.000000
_cell_volume 943.547450
_symmetry_space_group_name_H-M "P M M A"
_symmetry_group_IT_number 51
_symmetry_cell_setting 'orthorhombic'
loop_
_space_group_symop_operation_xyz
x,y,z
1/2-x,-y,z
1/2+x,-y,-z
-x,y,-z
-x,-y,-z
1/2+x,y,-z
1/2-x,y,z
x,-y,z
loop_
_atom_site_type_symbol
_atom_site_label
_atom_site_fract_x
_atom_site_fract_y
_atom_site_fract_z
Si Si1 0.607757 0.799400 0.184892
Si Si2 0.500000 0.347102 0.500000
Si Si3 0.107915 0.000000 0.818643
Si Si4 0.105841 0.500000 0.188246
O O1 0.750000 0.791922 0.090530
O O2 0.586475 0.719277 0.355796
O O3 0.597951 0.900944 0.293254
O O4 0.500000 0.792721 0.000000
O O5 0.419760 0.412185 0.340519
O O6 0.250000 0.000000 0.918359
O O7 0.000000 0.000000 0.000000
O O8 0.250000 0.500000 0.103606
O O9 0.000000 0.500000 0.000000
#
# Coordination Sequence:
#
# PCOD9406421 Si02
#       4
#     8   4   4   4
#     4  10  21  38  61  90 124 161 200 242 289 344
#     4  11  24  39  64  92 118 151 198 249 298 354
#     4   8  16  33  56  84 121 161 197 235 283 339
#     4  11  26  46  65  87 117 153 195 247 306 364
#
# _framework density 21.196603
#
# number of rings (size 3 to 8) (size 9 to 14) (size 15 to 20)
#    0.000    2.000    0.000    2.400    0.000   12.000 
#    0.000    0.000    0.000    7.200    0.000    0.000 
#    0.000    0.000    0.000    0.000    0.000    0.000 
#
# Total GULP energy -111592.006046 kJ/mol
# GULP energy per Si atom -5579.600302 kJ/mol
# Density = 2.114836 g / cm^3
# Si number density = 21.196603 Si / 1000 Ang^3
#
#
#
# Elastic Constant Matrix: (Units=GPa)
#
#
# Indices 1 2 3 4 5 6 
#
# 1 194.9854 54.4450 64.4296 0.0000 0.0000 0.0000
# 2 54.4450 185.1127 55.0931 0.0000 0.0000 0.0000
# 3 64.4296 55.0931 71.7101 0.0000 0.0000 0.0000
# 4 0.0000 0.0000 0.0000 44.6607 0.0000 0.0000
# 5 0.0000 0.0000 0.0000 0.0000 26.9484 0.0000
# 6 0.0000 0.0000 0.0000 0.0000 0.0000 13.8714
#
#
#
# Elastic Compliance Matrix: (Units=1/GPa)
#
#
# Indices 1 2 3 4 5 6 
#
# 1 0.007303 -0.000253 -0.006367 0.000000 0.000000 0.000000
# 2 -0.000253 0.007012 -0.005160 0.000000 0.000000 0.000000
# 3 -0.006367 -0.005160 0.023630 0.000000 0.000000 0.000000
# 4 0.000000 0.000000 0.000000 0.022391 0.000000 0.000000
# 5 0.000000 0.000000 0.000000 0.000000 0.037108 0.000000
# 6 0.000000 0.000000 0.000000 0.000000 0.000000 0.072091
#
#
# Mechanical properties :
#
#
# Convention : Reuss Voigt Hill
#
# Bulk Modulus (GPa) = 69.51710 88.86038 79.18874
# Shear Modulus (GPa) = 25.26635 35.61879 30.44257
#
# Velocity S-wave (km/s) = 3.45628 4.10372 3.79383
# Velocity P-wave (km/s) = 6.98537 8.02913 7.52537
#
# Compressibility (1/GPa) = 0.01438495
#
# Stress axis : x y z
#
# Youngs Moduli (GPa) = 136.92591 142.60761 42.31845
#
# Poissons Ratio (x) = 0.03607 0.26946
# Poissons Ratio (y) = 0.03463 0.21837
# Poissons Ratio (z) = 0.87186 0.73587
#
# Static dielectric constant tensor:
#      x y z
#    x 1.757160 0.000000 0.000000 
#    y 0.000000 1.811900 0.000000 
#    z 0.000000 0.000000 1.742950 
# 
# From -- ./inp_files/444.got.cif
#   From: 2010.05.17/outbox.cif.g08.bks.cpg/sg51_1_cif.got.tgz:444.got - 2010.06.03 11:52:47.
