data_PCOD9406316
_publ_section_title
;
Structure prediction by ZEFSAII (Michael W. Deem and Ramdas Pophale) SiO2 
 PCOD9406316
Probable space group: P M M A
;
_chemical_formula_sum "Si O2"
_cell_formula_units_Z 56
_cell_length_a 15.533539
_cell_length_b 14.253346
_cell_length_c 11.867789
_cell_angle_alpha 90.000000
_cell_angle_beta 90.000000
_cell_angle_gamma 90.000000
_cell_volume 2627.586708
_symmetry_space_group_name_H-M "P M M A"
_symmetry_group_IT_number 51
_symmetry_cell_setting 'orthorhombic'
loop_
_space_group_symop_operation_xyz
x,y,z
1/2-x,-y,z
1/2+x,-y,-z
-x,y,-z
-x,-y,-z
1/2+x,y,-z
1/2-x,y,z
x,-y,z
loop_
_atom_site_type_symbol
_atom_site_label
_atom_site_fract_x
_atom_site_fract_y
_atom_site_fract_z
Si Si1 0.975146 0.780944 0.615860
Si Si2 0.101663 0.388515 0.878201
Si Si3 0.620357 0.108566 0.076419
Si Si4 0.597048 0.612567 0.876001
Si Si5 0.423390 0.108069 0.166329
Si Si6 0.848425 0.388149 0.627715
Si Si7 0.338995 0.755083 0.723415
O O1 0.925154 0.834571 0.717030
O O2 0.919498 0.687037 0.586227
O O3 0.000000 0.834013 0.500000
O O4 0.070810 0.762706 0.661886
O O5 0.101287 0.500000 0.872820
O O6 0.157101 0.346444 0.780077
O O7 0.002167 0.354038 0.865281
O O8 0.131033 0.357396 0.002557
O O9 0.520616 0.108240 0.117195
O O10 0.660816 0.174182 0.170500
O O11 0.648702 0.000000 0.081512
O O12 0.628363 0.140215 0.945663
O O13 0.590705 0.500000 0.884396
O O14 0.648535 0.629829 0.762982
O O15 0.399484 0.000000 0.189364
O O16 0.750000 0.373456 0.587939
O O17 0.869786 0.500000 0.610180
O O18 0.250000 0.769176 0.657746
#
# Coordination Sequence:
#
# PCOD9406316 Si02
#       7
#     8   8   8   8   8   8   8
#     4  11  24  40  60  83 116 160 202 253 299 339
#     4   9  17  30  50  79 116 152 182 224 287 357
#     4   8  16  33  57  85 117 150 183 228 285 347
#     4   8  15  29  51  77 108 146 182 224 283 349
#     4   8  16  34  61  89 115 147 189 233 286 351
#     4  10  21  38  60  83 108 148 204 256 301 352
#     4  11  23  35  55  86 118 154 194 234 293 365
#
# _framework density 21.312332000000001
#
# number of rings (size 3 to 8) (size 9 to 14) (size 15 to 20)
#    0.000    2.714    1.429    1.714    2.000    3.429 
#    0.000    1.429    0.000    1.286    0.000    2.000 
#    0.000    0.000    0.000    0.000    0.000    0.000 
#
# Total GULP energy -311823.934673 kJ/mol
# GULP energy per Si atom -5568.284548 kJ/mol
# Density = 2.126382 g / cm^3
# Si number density = 21.312332 Si / 1000 Ang^3
#
#
#
# Elastic Constant Matrix: (Units=GPa)
#
#
# Indices 1 2 3 4 5 6 
#
# 1 78.8738 18.7204 7.4998 0.0000 0.0000 0.0000
# 2 18.7204 85.4318 32.2506 0.0000 0.0000 0.0000
# 3 7.4998 32.2506 87.9002 0.0000 0.0000 0.0000
# 4 0.0000 0.0000 0.0000 14.2628 0.0000 0.0000
# 5 0.0000 0.0000 0.0000 0.0000 -4.4360 0.0000
# 6 0.0000 0.0000 0.0000 0.0000 0.0000 40.5932
#
#
#
# Elastic Compliance Matrix: (Units=1/GPa)
#
#
# Indices 1 2 3 4 5 6 
#
# 1 0.013375 -0.002902 -0.000076 0.000000 0.000000 0.000000
# 2 -0.002902 0.014217 -0.004969 0.000000 0.000000 0.000000
# 3 -0.000076 -0.004969 0.013206 0.000000 0.000000 0.000000
# 4 0.000000 0.000000 0.000000 0.070113 0.000000 0.000000
# 5 0.000000 0.000000 0.000000 0.000000 -0.225427 0.000000
# 6 0.000000 0.000000 0.000000 0.000000 0.000000 0.024635
#
#
# Mechanical properties :
#
#
# Convention : Reuss Voigt Hill
#
# Bulk Modulus (GPa) = 40.15483 41.01636 40.58559
# Shear Modulus (GPa) = -76.11720 22.99967 -26.55877
#
# Velocity S-wave (km/s) = -5.98269 3.28864 -3.53394
# Velocity P-wave (km/s) = 5.37043 5.80580 1.55978
#
# Compressibility (1/GPa) = 0.02490360
#
# Stress axis : x y z
#
# Youngs Moduli (GPa) = 74.76915 70.33959 75.72305
#
# Poissons Ratio (x) = 0.20412 0.00579
# Poissons Ratio (y) = 0.21697 0.37623
# Poissons Ratio (z) = 0.00572 0.34948
#
# Static dielectric constant tensor:
#      x y z
#    x 1.976070 0.000000 0.000000 
#    y 0.000000 1.802200 0.000000 
#    z 0.000000 0.000000 1.794510 
# 
# From -- ./inp_files/16641.got.cif
#   From: 2010.05.17/outbox.cif.g08.bks.cpg/sg51_9_cif.got.tgz:16641.got - 2010.06.03 11:52:47.
