data_PCOD9406673
_publ_section_title
;
Structure prediction by ZEFSAII (Michael W. Deem and Ramdas Pophale) SiO2 
 PCOD9406673
Probable space group: P M M A
;
_chemical_formula_sum "Si O2"
_cell_formula_units_Z 64
_cell_length_a 15.538559
_cell_length_b 8.913738
_cell_length_c 24.421003
_cell_angle_alpha 90.000000
_cell_angle_beta 90.000000
_cell_angle_gamma 90.000000
_cell_volume 3382.471164
_symmetry_space_group_name_H-M "P M M A"
_symmetry_group_IT_number 51
_symmetry_cell_setting 'orthorhombic'
loop_
_space_group_symop_operation_xyz
x,y,z
1/2-x,-y,z
1/2+x,-y,-z
-x,y,-z
-x,-y,-z
1/2+x,y,-z
1/2-x,y,z
x,-y,z
loop_
_atom_site_type_symbol
_atom_site_label
_atom_site_fract_x
_atom_site_fract_y
_atom_site_fract_z
Si Si1 0.406645 0.676117 0.619063
Si Si2 0.149034 0.817351 0.991849
Si Si3 0.010529 0.182385 0.082826
Si Si4 0.153047 0.324098 0.286553
Si Si5 0.587149 0.178267 0.607942
Si Si6 0.344822 0.678235 0.739321
Si Si7 0.149343 0.827652 0.509245
Si Si8 0.511541 0.820643 0.791644
O O1 0.428682 0.500000 0.616181
O O2 0.491856 0.774813 0.625049
O O3 0.351574 0.699318 0.673720
O O4 0.363799 0.728641 0.562790
O O5 0.250000 0.767249 0.989615
O O6 0.082024 0.771782 0.943343
O O7 0.152419 0.000000 0.991343
O O8 0.092776 0.772569 0.045585
O O9 0.020127 0.230482 0.145428
O O10 0.009859 0.000000 0.081553
O O11 0.250000 0.305186 0.265748
O O12 0.132524 0.500000 0.289906
O O13 0.146875 0.255781 0.347332
O O14 0.085260 0.245648 0.247017
O O15 0.601272 0.227264 0.545147
O O16 0.599917 0.000000 0.609303
O O17 0.250000 0.723524 0.758211
O O18 0.356053 0.500000 0.748994
O O19 0.420425 0.766841 0.768298
O O20 0.250000 0.831530 0.495346
O O21 0.121162 0.000000 0.521079
O O22 0.516505 0.000000 0.790131
#
# Coordination Sequence:
#
# PCOD9406673 Si02
#       8
#     8   8   8   8   8   8   8   8
#     4  11  22  37  58  82 109 144 188 233 282 343
#     4   8  13  25  46  71 108 154 187 220 272 329
#     4   8  16  28  44  75 113 147 187 228 273 331
#     4  11  24  41  60  82 111 151 196 239 286 344
#     4  11  22  38  60  84 110 143 184 232 291 349
#     4  10  22  40  59  79 110 153 196 238 286 341
#     4  10  22  38  55  79 111 143 179 228 286 348
#     4  11  22  36  57  86 119 152 190 240 289 336
#
# _framework density 18.921078000000001
#
# number of rings (size 3 to 8) (size 9 to 14) (size 15 to 20)
#    0.000    2.000    1.250    3.375    0.000    6.500 
#    0.000    2.500    0.000    0.000    0.000    7.000 
#    0.000   12.000    0.000    0.000    0.000    0.000 
#
# Total GULP energy -357098.485288 kJ/mol
# GULP energy per Si atom -5579.663833 kJ/mol
# Density = 1.887801 g / cm^3
# Si number density = 18.921078 Si / 1000 Ang^3
#
#
#
# Elastic Constant Matrix: (Units=GPa)
#
#
# Indices 1 2 3 4 5 6 
#
# 1 84.0225 24.0401 16.2284 0.0000 0.0000 0.0000
# 2 24.0401 31.7006 24.2772 0.0000 0.0000 0.0000
# 3 16.2284 24.2772 85.0398 0.0000 0.0000 0.0000
# 4 0.0000 0.0000 0.0000 -23.9702 0.0000 0.0000
# 5 0.0000 0.0000 0.0000 0.0000 -75.3527 0.0000
# 6 0.0000 0.0000 0.0000 0.0000 0.0000 2.6973
#
#
#
# Elastic Compliance Matrix: (Units=1/GPa)
#
#
# Indices 1 2 3 4 5 6 
#
# 1 0.015216 -0.011922 0.000500 0.000000 0.000000 0.000000
# 2 -0.011922 0.049712 -0.011917 0.000000 0.000000 0.000000
# 3 0.000500 -0.011917 0.015066 0.000000 0.000000 0.000000
# 4 0.000000 0.000000 0.000000 -0.041718 0.000000 0.000000
# 5 0.000000 0.000000 0.000000 0.000000 -0.013271 0.000000
# 6 0.000000 0.000000 0.000000 0.000000 0.000000 0.370736
#
#
# Mechanical properties :
#
#
# Convention : Reuss Voigt Hill
#
# Bulk Modulus (GPa) = 30.01524 36.65046 33.33285
# Shear Modulus (GPa) = 11.02479 -10.24396 0.39041
#
# Velocity S-wave (km/s) = 2.41648 -2.32933 0.45474
# Velocity P-wave (km/s) = 4.86659 3.48967 4.23447
#
# Compressibility (1/GPa) = 0.03331641
#
# Stress axis : x y z
#
# Youngs Moduli (GPa) = 65.72015 20.11583 66.37532
#
# Poissons Ratio (x) = 0.23982 -0.03317
# Poissons Ratio (y) = 0.78350 0.79098
# Poissons Ratio (z) = -0.03284 0.23972
#
# Static dielectric constant tensor:
#      x y z
#    x 1.670780 0.000000 0.000000 
#    y 0.000000 1.635940 0.000000 
#    z 0.000000 0.000000 1.660290 
# 
# From -- ./inp_files/35852.got.cif
#   From: 2010.05.17/outbox.cif.g08.bks.cpg/sg51_18_cif.got.tgz:35852.got - 2010.06.03 11:52:47.
