data_PCOD9406839
_publ_section_title
;
Structure prediction by ZEFSAII (Michael W. Deem and Ramdas Pophale) SiO2 
 PCOD9406839
Probable space group: P M M A
;
_chemical_formula_sum "Si O2"
_cell_formula_units_Z 56
_cell_length_a 14.563419
_cell_length_b 18.666017
_cell_length_c 9.163827
_cell_angle_alpha 90.000000
_cell_angle_beta 90.000000
_cell_angle_gamma 90.000000
_cell_volume 2491.104140
_symmetry_space_group_name_H-M "P M M A"
_symmetry_group_IT_number 51
_symmetry_cell_setting 'orthorhombic'
loop_
_space_group_symop_operation_xyz
x,y,z
1/2-x,-y,z
1/2+x,-y,-z
-x,y,-z
-x,-y,-z
1/2+x,y,-z
1/2-x,y,z
x,-y,z
loop_
_atom_site_type_symbol
_atom_site_label
_atom_site_fract_x
_atom_site_fract_y
_atom_site_fract_z
Si Si1 0.500000 0.607438 0.500000
Si Si2 0.392564 0.787631 0.471285
Si Si3 0.355754 0.639462 0.303075
Si Si4 0.356710 0.079581 0.251728
Si Si5 0.358921 0.346443 0.981480
Si Si6 0.142083 0.581537 0.706314
Si Si7 0.500000 0.886583 0.000000
Si Si8 0.145625 0.200466 0.811119
O O1 0.421583 0.583938 0.385907
O O2 0.574305 0.633633 0.380083
O O3 0.500000 0.777712 0.500000
O O4 0.359296 0.716867 0.384237
O O5 0.376723 0.856581 0.366872
O O6 0.354276 0.797966 0.635026
O O7 0.250000 0.615396 0.303158
O O8 0.397516 0.651766 0.142508
O O9 0.250000 0.088338 0.205416
O O10 0.425323 0.080660 0.113257
O O11 0.365418 0.000000 0.320295
O O12 0.250000 0.345406 0.007502
O O13 0.378185 0.412576 0.877033
O O14 0.376090 0.277208 0.883741
O O15 0.250000 0.599104 0.683797
O O16 0.125176 0.500000 0.657745
O O17 0.432772 0.847314 0.884251
O O18 0.250000 0.180738 0.856434
#
# Coordination Sequence:
#
# PCOD9406839 Si02
#       8
#     4   8   8   8   8   8   4   8
#     4  12  23  38  62  96 125 160 210 256 312 378
#     4  12  23  43  64  95 127 165 211 259 316 378
#     4  11  23  40  64  93 127 161 200 258 318 373
#     4  11  25  45  67  91 126 171 213 260 315 375
#     4   9  21  40  62  90 122 162 209 256 310 372
#     4  10  22  42  64  87 123 168 211 259 311 368
#     4  12  23  42  66  96 129 158 216 260 320 378
#     4  11  23  39  64  94 127 162 203 262 322 378
#
# _framework density 22.479990000000001
#
# number of rings (size 3 to 8) (size 9 to 14) (size 15 to 20)
#    0.000    1.143    2.143    4.286    0.000    3.143 
#    0.000    2.143    0.000    6.000    0.000    0.000 
#    0.000    0.000    0.000    0.000    0.000    0.000 
#
# Total GULP energy -311868.144035 kJ/mol
# GULP energy per Si atom -5569.074001 kJ/mol
# Density = 2.242882 g / cm^3
# Si number density = 22.479990 Si / 1000 Ang^3
#
#
#
# Elastic Constant Matrix: (Units=GPa)
#
#
# Indices 1 2 3 4 5 6 
#
# 1 153.6215 35.6853 44.0902 0.0000 0.0000 0.0000
# 2 35.6853 88.3312 49.9415 0.0000 0.0000 0.0000
# 3 44.0902 49.9415 172.4378 0.0000 0.0000 0.0000
# 4 0.0000 0.0000 0.0000 13.4098 0.0000 0.0000
# 5 0.0000 0.0000 0.0000 0.0000 697.3771 0.0000
# 6 0.0000 0.0000 0.0000 0.0000 0.0000 -45.0052
#
#
#
# Elastic Compliance Matrix: (Units=1/GPa)
#
#
# Indices 1 2 3 4 5 6 
#
# 1 0.007394 -0.002294 -0.001226 0.000000 0.000000 0.000000
# 2 -0.002294 0.014249 -0.003540 0.000000 0.000000 0.000000
# 3 -0.001226 -0.003540 0.007138 0.000000 0.000000 0.000000
# 4 0.000000 0.000000 0.000000 0.074572 0.000000 0.000000
# 5 0.000000 0.000000 0.000000 0.000000 0.001434 0.000000
# 6 0.000000 0.000000 0.000000 0.000000 0.000000 -0.022220
#
#
# Mechanical properties :
#
#
# Convention : Reuss Voigt Hill
#
# Bulk Modulus (GPa) = 68.20971 74.86939 71.53955
# Shear Modulus (GPa) = 49.22391 152.13458 100.67925
#
# Velocity S-wave (km/s) = 4.68447 8.23544 6.69951
# Velocity P-wave (km/s) = 7.72446 11.12687 9.57796
#
# Compressibility (1/GPa) = 0.01466067
#
# Stress axis : x y z
#
# Youngs Moduli (GPa) = 135.23898 70.17806 140.09326
#
# Poissons Ratio (x) = 0.16098 0.17179
# Poissons Ratio (y) = 0.31023 0.49599
# Poissons Ratio (z) = 0.16584 0.24846
#
# Static dielectric constant tensor:
#      x y z
#    x 1.845870 0.000000 0.000000 
#    y 0.000000 1.931880 0.000000 
#    z 0.000000 0.000000 1.860730 
# 
# From -- ./inp_files/8611.got.cif
#   From: 2010.05.17/outbox.cif.g08.bks.cpg/sg51_5_cif.got.tgz:8611.got - 2010.06.03 11:52:47.
