data_PCOD9406462
_publ_section_title
;
Structure prediction by ZEFSAII (Michael W. Deem and Ramdas Pophale) SiO2 
 PCOD9406462
Probable space group: P M M A
;
_chemical_formula_sum "Si O2"
_cell_formula_units_Z 48
_cell_length_a 9.059421
_cell_length_b 19.118607
_cell_length_c 14.817967
_cell_angle_alpha 90.000000
_cell_angle_beta 90.000000
_cell_angle_gamma 90.000000
_cell_volume 2566.523892
_symmetry_space_group_name_H-M "P M M A"
_symmetry_group_IT_number 51
_symmetry_cell_setting 'orthorhombic'
loop_
_space_group_symop_operation_xyz
x,y,z
1/2-x,-y,z
1/2+x,-y,-z
-x,y,-z
-x,-y,-z
1/2+x,y,-z
1/2-x,y,z
x,-y,z
loop_
_atom_site_type_symbol
_atom_site_label
_atom_site_fract_x
_atom_site_fract_y
_atom_site_fract_z
Si Si1 0.070584 0.764665 0.594917
Si Si2 0.914746 0.788234 0.920713
Si Si3 0.420666 0.682041 0.241781
Si Si4 0.075793 0.924392 0.859100
Si Si5 0.074639 0.922875 0.642470
Si Si6 0.577746 0.583622 0.097405
O O1 0.250000 0.763085 0.594840
O O2 0.021448 0.846651 0.609386
O O3 0.000000 0.742798 0.500000
O O4 0.008809 0.713317 0.672863
O O5 0.750000 0.799326 0.951852
O O6 0.915906 0.745620 0.829209
O O7 0.992272 0.861051 0.902464
O O8 0.000000 0.749485 0.000000
O O9 0.250000 0.663760 0.264640
O O10 0.498996 0.621928 0.181839
O O11 0.250000 0.919819 0.876917
O O12 0.058360 0.921040 0.750738
O O13 0.020266 0.000000 0.889264
O O14 0.250000 0.924385 0.622406
O O15 0.014174 0.000000 0.612468
O O16 0.750000 0.605416 0.092220
O O17 0.572471 0.500000 0.112246
O O18 0.500000 0.595551 0.000000
#
# Coordination Sequence:
#
# PCOD9406462 Si02
#       6
#     8   8   8   8   8   8
#     4  11  22  37  59  84 115 152 194 245 297 353
#     4  11  23  35  51  76 107 142 185 231 278 336
#     4  11  23  39  59  85 117 153 193 236 285 340
#     4   9  17  32  53  73  97 135 183 232 284 340
#     4   8  15  30  53  78 104 140 186 238 298 355
#     4  10  21  38  63  96 130 162 195 230 274 331
#
# _framework density 18.702338999999998
#
# number of rings (size 3 to 8) (size 9 to 14) (size 15 to 20)
#    0.000    2.000    1.667    3.500    0.000    5.333 
#    0.000    0.000    0.000    2.000    0.000    0.000 
#    0.000    0.000    0.000    0.000    0.000    0.000 
#
# Total GULP energy -267643.164565 kJ/mol
# GULP energy per Si atom -5575.899262 kJ/mol
# Density = 1.865977 g / cm^3
# Si number density = 18.702339 Si / 1000 Ang^3
#
#
#
# Elastic Constant Matrix: (Units=GPa)
#
#
# Indices 1 2 3 4 5 6 
#
# 1 104.0452 46.8823 53.0001 0.0000 0.0000 0.0000
# 2 46.8823 97.0659 42.0871 0.0000 0.0000 0.0000
# 3 53.0001 42.0871 107.8394 0.0000 0.0000 0.0000
# 4 0.0000 0.0000 0.0000 49.8485 0.0000 0.0000
# 5 0.0000 0.0000 0.0000 0.0000 26.5031 0.0000
# 6 0.0000 0.0000 0.0000 0.0000 0.0000 30.8971
#
#
#
# Elastic Compliance Matrix: (Units=1/GPa)
#
#
# Indices 1 2 3 4 5 6 
#
# 1 0.014391 -0.004675 -0.005248 0.000000 0.000000 0.000000
# 2 -0.004675 0.013920 -0.003135 0.000000 0.000000 0.000000
# 3 -0.005248 -0.003135 0.013076 0.000000 0.000000 0.000000
# 4 0.000000 0.000000 0.000000 0.020061 0.000000 0.000000
# 5 0.000000 0.000000 0.000000 0.000000 0.037731 0.000000
# 6 0.000000 0.000000 0.000000 0.000000 0.000000 0.032365
#
#
# Mechanical properties :
#
#
# Convention : Reuss Voigt Hill
#
# Bulk Modulus (GPa) = 65.48711 65.87663 65.68187
# Shear Modulus (GPa) = 30.72176 32.58182 31.65179
#
# Velocity S-wave (km/s) = 4.05738 4.17841 4.11834
# Velocity P-wave (km/s) = 7.55257 7.65369 7.60330
#
# Compressibility (1/GPa) = 0.01527018
#
# Stress axis : x y z
#
# Youngs Moduli (GPa) = 69.48623 71.84111 76.47701
#
# Poissons Ratio (x) = 0.33588 0.40137
# Poissons Ratio (y) = 0.32487 0.23973
# Poissons Ratio (z) = 0.36468 0.22520
#
# Static dielectric constant tensor:
#      x y z
#    x 1.659620 0.000000 0.000000 
#    y 0.000000 1.670310 0.000000 
#    z 0.000000 0.000000 1.514480 
# 
# From -- ./inp_files/21104.got.cif
#   From: 2010.05.17/outbox.cif.g08.bks.cpg/sg51_11_cif.got.tgz:21104.got - 2010.06.03 11:52:47.
