data_PCOD9406592
_publ_section_title
;
Structure prediction by ZEFSAII (Michael W. Deem and Ramdas Pophale) SiO2 
 PCOD9406592
Probable space group: P M M A
;
_chemical_formula_sum "Si O2"
_cell_formula_units_Z 60
_cell_length_a 25.565851
_cell_length_b 20.967370
_cell_length_c 5.291308
_cell_angle_alpha 90.000000
_cell_angle_beta 90.000000
_cell_angle_gamma 90.000000
_cell_volume 2836.398549
_symmetry_space_group_name_H-M "P M M A"
_symmetry_group_IT_number 51
_symmetry_cell_setting 'orthorhombic'
loop_
_space_group_symop_operation_xyz
x,y,z
1/2-x,-y,z
1/2+x,-y,-z
-x,y,-z
-x,-y,-z
1/2+x,y,-z
1/2-x,y,z
x,-y,z
loop_
_atom_site_type_symbol
_atom_site_label
_atom_site_fract_x
_atom_site_fract_y
_atom_site_fract_z
Si Si1 0.190160 0.886191 0.879332
Si Si2 0.000000 0.772212 0.000000
Si Si3 0.872275 0.429833 0.707270
Si Si4 0.310038 0.261045 0.971204
Si Si5 0.941246 0.821149 0.393169
Si Si6 0.589083 0.293168 0.689143
Si Si7 0.866529 0.072830 0.610241
Si Si8 0.190063 0.601607 0.782567
O O1 0.250000 0.899863 0.944855
O O2 0.184064 0.809428 0.856558
O O3 0.155288 0.909267 0.114271
O O4 0.176084 0.918095 0.613007
O O5 0.964457 0.725560 0.831762
O O6 0.045547 0.819705 0.900369
O O7 0.896790 0.500000 0.698725
O O8 0.908506 0.368705 0.655359
O O9 0.829912 0.424865 0.482410
O O10 0.844931 0.420401 0.980174
O O11 0.250000 0.263459 0.080909
O O12 0.357445 0.273148 0.165963
O O13 0.312608 0.320960 0.781278
O O14 0.914715 0.752989 0.447956
O O15 0.910104 0.877651 0.516983
O O16 0.000000 0.821102 0.500000
O O17 0.884725 0.000000 0.612680
O O18 0.250000 0.583470 0.828453
#
# Coordination Sequence:
#
# PCOD9406592 Si02
#       8
#     8   4   8   8   8   8   8   8
#     4  11  24  42  66  95 135 179 222 266 318 390
#     4  10  22  42  70  96 120 170 224 274 338 376
#     4  11  24  38  60  93 130 175 215 266 328 387
#     4   9  19  37  64  98 129 166 215 274 330 377
#     4  10  23  42  69  97 122 166 219 276 335 390
#     4  10  21  40  67  91 130 165 219 274 320 394
#     4  12  26  43  66  97 134 175 216 267 329 390
#     4  10  22  38  60  91 130 175 223 269 322 388
#
# _framework density 21.153587000000002
#
# number of rings (size 3 to 8) (size 9 to 14) (size 15 to 20)
#    0.000    1.600    1.333    2.400    7.467    4.000 
#    0.000    4.667    0.000    3.600    0.000    0.000 
#    0.000    0.000    0.000    0.000    0.000    0.000 
#
# Total GULP energy -334822.565132 kJ/mol
# GULP energy per Si atom -5580.376086 kJ/mol
# Density = 2.110544 g / cm^3
# Si number density = 21.153587 Si / 1000 Ang^3
#
#
#
# Elastic Constant Matrix: (Units=GPa)
#
#
# Indices 1 2 3 4 5 6 
#
# 1 81.2009 24.8383 7.9440 0.0000 0.0000 0.0000
# 2 24.8383 122.0288 17.6615 0.0000 0.0000 0.0000
# 3 7.9440 17.6615 56.8801 0.0000 0.0000 0.0000
# 4 0.0000 0.0000 0.0000 10.7472 0.0000 0.0000
# 5 0.0000 0.0000 0.0000 0.0000 27.4425 0.0000
# 6 0.0000 0.0000 0.0000 0.0000 0.0000 49.2643
#
#
#
# Elastic Compliance Matrix: (Units=1/GPa)
#
#
# Indices 1 2 3 4 5 6 
#
# 1 0.013193 -0.002533 -0.001056 0.000000 0.000000 0.000000
# 2 -0.002533 0.009067 -0.002461 0.000000 0.000000 0.000000
# 3 -0.001056 -0.002461 0.018493 0.000000 0.000000 0.000000
# 4 0.000000 0.000000 0.000000 0.093048 0.000000 0.000000
# 5 0.000000 0.000000 0.000000 0.000000 0.036440 0.000000
# 6 0.000000 0.000000 0.000000 0.000000 0.000000 0.020299
#
#
# Mechanical properties :
#
#
# Convention : Reuss Voigt Hill
#
# Bulk Modulus (GPa) = 34.90174 40.11080 37.50627
# Shear Modulus (GPa) = 23.56383 31.46852 27.51617
#
# Velocity S-wave (km/s) = 3.34119 3.86115 3.61055
# Velocity P-wave (km/s) = 5.60534 6.23545 5.92877
#
# Compressibility (1/GPa) = 0.02865186
#
# Stress axis : x y z
#
# Youngs Moduli (GPa) = 75.79702 110.29582 54.07548
#
# Poissons Ratio (x) = 0.27933 0.05712
# Poissons Ratio (y) = 0.19196 0.13311
# Poissons Ratio (z) = 0.08006 0.27149
#
# Static dielectric constant tensor:
#      x y z
#    x 1.769080 0.000000 0.000000 
#    y 0.000000 1.779910 0.000000 
#    z 0.000000 0.000000 1.988340 
# 
# From -- ./inp_files/3172.got.cif
#   From: 2010.05.17/outbox.cif.g08.bks.cpg/sg51_2_cif.got.tgz:3172.got - 2010.06.03 11:52:47.
