data_PCOD9406649
_publ_section_title
;
Structure prediction by ZEFSAII (Michael W. Deem and Ramdas Pophale) SiO2 
 PCOD9406649
Probable space group: P M M A
;
_chemical_formula_sum "Si O2"
_cell_formula_units_Z 64
_cell_length_a 27.592032
_cell_length_b 17.900450
_cell_length_c 5.841601
_cell_angle_alpha 90.000000
_cell_angle_beta 90.000000
_cell_angle_gamma 90.000000
_cell_volume 2885.223919
_symmetry_space_group_name_H-M "P M M A"
_symmetry_group_IT_number 51
_symmetry_cell_setting 'orthorhombic'
loop_
_space_group_symop_operation_xyz
x,y,z
1/2-x,-y,z
1/2+x,-y,-z
-x,y,-z
-x,-y,-z
1/2+x,y,-z
1/2-x,y,z
x,-y,z
loop_
_atom_site_type_symbol
_atom_site_label
_atom_site_fract_x
_atom_site_fract_y
_atom_site_fract_z
Si Si1 0.801516 0.082639 0.423938
Si Si2 0.304371 0.586309 0.971548
Si Si3 0.619914 0.685432 0.281416
Si Si4 0.475915 0.202646 0.250204
Si Si5 0.392927 0.917354 0.244358
Si Si6 0.836931 0.177835 0.047813
Si Si7 0.196296 0.715898 0.339112
Si Si8 0.490904 0.367760 0.747907
O O1 0.750000 0.086197 0.554594
O O2 0.849916 0.085207 0.572049
O O3 0.803423 0.152101 0.253425
O O4 0.801204 0.000000 0.312542
O O5 0.250000 0.592518 0.868521
O O6 0.312601 0.500000 0.028396
O O7 0.345869 0.618943 0.810178
O O8 0.304467 0.640021 0.190371
O O9 0.625798 0.757771 0.121309
O O10 0.648025 0.711785 0.508809
O O11 0.564656 0.660182 0.274686
O O12 0.500000 0.187384 0.500000
O O13 0.428789 0.151611 0.271079
O O14 0.474947 0.293203 0.245013
O O15 0.500000 0.182948 0.000000
O O16 0.415273 0.000000 0.245666
O O17 0.365534 0.897399 0.011031
O O18 0.809032 0.215280 0.837030
O O19 0.250000 0.719253 0.450212
O O20 0.500000 0.406281 0.500000
O O21 0.500000 0.403872 0.000000
#
# Coordination Sequence:
#
# PCOD9406649 Si02
#       8
#     8   8   8   8   8   8   8   8
#     4  10  23  41  59  83 119 167 219 270 333 406
#     4   9  20  40  66  98 139 179 213 253 313 391
#     4  11  23  37  65  96 131 169 215 270 328 393
#     4  10  23  41  65  91 124 164 215 280 345 407
#     4  11  25  41  62  88 121 164 218 280 343 408
#     4  11  22  36  62  85 124 168 212 268 329 397
#     4  10  22  37  60  98 134 167 213 266 325 395
#     4  10  23  39  65  94 129 171 225 282 338 397
#
# _framework density 22.181989000000002
#
# number of rings (size 3 to 8) (size 9 to 14) (size 15 to 20)
#    0.000    1.750    0.000    3.375   12.250    4.500 
#    0.000    2.500    0.000    0.750    0.000    0.000 
#    0.000    0.000    0.000    0.000    0.000    0.000 
#
# Total GULP energy -356773.841070 kJ/mol
# GULP energy per Si atom -5574.591267 kJ/mol
# Density = 2.213150 g / cm^3
# Si number density = 22.181989 Si / 1000 Ang^3
#
#
#
# Elastic Constant Matrix: (Units=GPa)
#
#
# Indices 1 2 3 4 5 6 
#
# 1 51.8810 13.7386 29.0868 0.0000 0.0000 0.0000
# 2 13.7386 110.9300 17.1862 0.0000 0.0000 0.0000
# 3 29.0868 17.1862 98.9186 0.0000 0.0000 0.0000
# 4 0.0000 0.0000 0.0000 7.6048 0.0000 0.0000
# 5 0.0000 0.0000 0.0000 0.0000 28.5959 0.0000
# 6 0.0000 0.0000 0.0000 0.0000 0.0000 21.8244
#
#
#
# Elastic Compliance Matrix: (Units=1/GPa)
#
#
# Indices 1 2 3 4 5 6 
#
# 1 0.023458 -0.001887 -0.006570 0.000000 0.000000 0.000000
# 2 -0.001887 0.009416 -0.001081 0.000000 0.000000 0.000000
# 3 -0.006570 -0.001081 0.012229 0.000000 0.000000 0.000000
# 4 0.000000 0.000000 0.000000 0.131495 0.000000 0.000000
# 5 0.000000 0.000000 0.000000 0.000000 0.034970 0.000000
# 6 0.000000 0.000000 0.000000 0.000000 0.000000 0.045820
#
#
# Mechanical properties :
#
#
# Convention : Reuss Voigt Hill
#
# Bulk Modulus (GPa) = 38.42237 42.41700 40.41969
# Shear Modulus (GPa) = 17.53520 25.05288 21.29404
#
# Velocity S-wave (km/s) = 2.81466 3.36434 3.10170
# Velocity P-wave (km/s) = 5.28414 5.85282 5.57573
#
# Compressibility (1/GPa) = 0.02602651
#
# Stress axis : x y z
#
# Youngs Moduli (GPa) = 42.62927 106.20317 81.77296
#
# Poissons Ratio (x) = 0.20045 0.53724
# Poissons Ratio (y) = 0.08046 0.08839
# Poissons Ratio (z) = 0.28007 0.11480
#
# Static dielectric constant tensor:
#      x y z
#    x 1.838390 0.000000 0.000000 
#    y 0.000000 1.788980 0.000000 
#    z 0.000000 0.000000 1.919130 
# 
# From -- ./inp_files/3663.got.cif
#   From: 2010.05.17/outbox.cif.g08.bks.cpg/sg51_2_cif.got.tgz:3663.got - 2010.06.03 11:52:47.
