data_PCOD9406198
_publ_section_title
;
Structure prediction by ZEFSAII (Michael W. Deem and Ramdas Pophale) SiO2 
 PCOD9406198
Probable space group: P M M A
;
_chemical_formula_sum "Si O2"
_cell_formula_units_Z 48
_cell_length_a 15.547670
_cell_length_b 18.034148
_cell_length_c 9.276460
_cell_angle_alpha 90.000000
_cell_angle_beta 90.000000
_cell_angle_gamma 90.000000
_cell_volume 2601.017174
_symmetry_space_group_name_H-M "P M M A"
_symmetry_group_IT_number 51
_symmetry_cell_setting 'orthorhombic'
loop_
_space_group_symop_operation_xyz
x,y,z
1/2-x,-y,z
1/2+x,-y,-z
-x,y,-z
-x,-y,-z
1/2+x,y,-z
1/2-x,y,z
x,-y,z
loop_
_atom_site_type_symbol
_atom_site_label
_atom_site_fract_x
_atom_site_fract_y
_atom_site_fract_z
Si Si1 0.750000 0.410627 0.081774
Si Si2 0.649678 0.824272 0.847873
Si Si3 0.845914 0.088860 0.147421
Si Si4 0.513041 0.087745 0.669490
Si Si5 0.417763 0.589554 0.405529
Si Si6 0.250000 0.409807 0.582872
Si Si7 0.588675 0.341840 0.911958
O O1 0.750000 0.500000 0.076167
O O2 0.750000 0.386728 0.249953
O O3 0.665675 0.380165 0.001227
O O4 0.750000 0.819682 0.806211
O O5 0.591065 0.863966 0.729497
O O6 0.614122 0.743287 0.885119
O O7 0.643612 0.872946 0.993203
O O8 0.750000 0.108155 0.203398
O O9 0.924962 0.109657 0.249359
O O10 0.848655 0.000000 0.129857
O O11 0.500000 0.096881 0.500000
O O12 0.528858 0.000000 0.698322
O O13 0.500000 0.611508 0.500000
O O14 0.416587 0.500000 0.396037
O O15 0.333568 0.613902 0.493711
O O16 0.419917 0.620812 0.244782
O O17 0.250000 0.500000 0.585174
O O18 0.500000 0.347864 0.000000
#
# Coordination Sequence:
#
# PCOD9406198 Si02
#       7
#     4   8   8   8   8   4   8
#     4  11  23  41  63  91 120 153 206 263 317 374
#     4  11  23  40  60  84 121 161 204 249 298 360
#     4   9  18  35  61  88 115 155 201 244 293 350
#     4  10  21  37  60  91 125 160 202 251 301 354
#     4  10  21  38  60  87 117 153 197 244 302 372
#     4   9  19  37  61  83 113 151 188 241 302 366
#     4  12  24  39  62  90 123 161 203 259 312 371
#
# _framework density 18.454318000000001
#
# number of rings (size 3 to 8) (size 9 to 14) (size 15 to 20)
#    0.000    1.667    0.833    4.000    0.000    7.000 
#    0.000    3.333    0.000    0.000    0.000    0.000 
#    0.000    0.000    0.000    0.000    0.000    0.000 
#
# Total GULP energy -268164.204081 kJ/mol
# GULP energy per Si atom -5586.754252 kJ/mol
# Density = 1.841232 g / cm^3
# Si number density = 18.454318 Si / 1000 Ang^3
#
#
#
# Elastic Constant Matrix: (Units=GPa)
#
#
# Indices 1 2 3 4 5 6 
#
# 1 201.5512 60.8834 109.6836 0.0000 0.0000 0.0000
# 2 60.8834 41.7285 44.4728 0.0000 0.0000 0.0000
# 3 109.6836 44.4728 147.5823 0.0000 0.0000 0.0000
# 4 0.0000 0.0000 0.0000 -13.1667 0.0000 0.0000
# 5 0.0000 0.0000 0.0000 0.0000 -17.1765 0.0000
# 6 0.0000 0.0000 0.0000 0.0000 0.0000 16.6928
#
#
#
# Elastic Compliance Matrix: (Units=1/GPa)
#
#
# Indices 1 2 3 4 5 6 
#
# 1 0.010789 -0.010600 -0.004824 0.000000 0.000000 0.000000
# 2 -0.010600 0.045716 -0.005898 0.000000 0.000000 0.000000
# 3 -0.004824 -0.005898 0.012139 0.000000 0.000000 0.000000
# 4 0.000000 0.000000 0.000000 -0.075949 0.000000 0.000000
# 5 0.000000 0.000000 0.000000 0.000000 -0.058219 0.000000
# 6 0.000000 0.000000 0.000000 0.000000 0.000000 0.059906
#
#
# Mechanical properties :
#
#
# Convention : Reuss Voigt Hill
#
# Bulk Modulus (GPa) = 38.46303 91.21574 64.83939
# Shear Modulus (GPa) = 109.42794 8.99140 59.20967
#
# Velocity S-wave (km/s) = 7.70879 2.20971 5.67046
# Velocity P-wave (km/s) = 10.00607 7.48636 8.83649
#
# Compressibility (1/GPa) = 0.02599899
#
# Stress axis : x y z
#
# Youngs Moduli (GPa) = 92.69013 21.87407 82.38229
#
# Poissons Ratio (x) = 0.23186 0.39741
# Poissons Ratio (y) = 0.98249 0.48593
# Poissons Ratio (z) = 0.44714 0.12902
#
# Static dielectric constant tensor:
#      x y z
#    x 1.501540 0.000000 0.000000 
#    y 0.000000 1.621580 0.000000 
#    z 0.000000 0.000000 1.592190 
# 
# From -- ./inp_files/8319.got.cif
#   From: 2010.05.17/outbox.cif.g08.bks.cpg/sg51_5_cif.got.tgz:8319.got - 2010.06.03 11:52:47.
