data_PCOD9406345
_publ_section_title
;
Structure prediction by ZEFSAII (Michael W. Deem and Ramdas Pophale) SiO2 
 PCOD9406345
Probable space group: P M M A
;
_chemical_formula_sum "Si O2"
_cell_formula_units_Z 48
_cell_length_a 8.723329
_cell_length_b 30.978461
_cell_length_c 9.345084
_cell_angle_alpha 90.000000
_cell_angle_beta 90.000000
_cell_angle_gamma 90.000000
_cell_volume 2525.371646
_symmetry_space_group_name_H-M "P M M A"
_symmetry_group_IT_number 51
_symmetry_cell_setting 'orthorhombic'
loop_
_space_group_symop_operation_xyz
x,y,z
1/2-x,-y,z
1/2+x,-y,-z
-x,y,-z
-x,-y,-z
1/2+x,y,-z
1/2-x,y,z
x,-y,z
loop_
_atom_site_type_symbol
_atom_site_label
_atom_site_fract_x
_atom_site_fract_y
_atom_site_fract_z
Si Si1 0.434118 0.373492 0.158281
Si Si2 0.933478 0.449814 0.342738
Si Si3 0.433093 0.126126 0.658659
Si Si4 0.565422 0.794718 0.840354
Si Si5 0.067200 0.949193 0.156948
Si Si6 0.934443 0.709990 0.659077
O O1 0.250000 0.374257 0.152504
O O2 0.495166 0.417320 0.229080
O O3 0.482842 0.333346 0.258128
O O4 0.500000 0.367976 0.000000
O O5 0.750000 0.445197 0.345534
O O6 0.970204 0.500000 0.311451
O O7 0.000000 0.439828 0.500000
O O8 0.500000 0.131163 0.500000
O O9 0.250000 0.128165 0.654792
O O10 0.498722 0.163925 0.758902
O O11 0.488330 0.081123 0.727021
O O12 0.750000 0.797536 0.845299
O O13 0.521600 0.751928 0.751293
O O14 0.500000 0.792396 0.000000
O O15 0.250000 0.941984 0.156649
O O16 0.038877 0.000000 0.183665
O O17 0.000000 0.938889 0.000000
O O18 0.750000 0.709524 0.649869
O O19 0.000000 0.711796 0.500000
#
# Coordination Sequence:
#
# PCOD9406345 Si02
#       6
#     8   8   8   8   8   8
#     4  11  23  39  59  86 118 154 196 241 292 347
#     4  10  21  38  60  86 116 152 194 240 291 347
#     4  12  25  41  61  87 120 157 198 244 294 348
#     4  11  23  41  63  89 120 155 196 240 290 345
#     4  10  21  39  63  90 120 156 198 243 293 349
#     4  10  23  40  61  88 118 153 193 239 290 346
#
# _framework density 19.007104000000002
#
# number of rings (size 3 to 8) (size 9 to 14) (size 15 to 20)
#    0.000    1.333    0.000    5.500    0.000    8.000 
#    0.000    0.000    0.000    0.000    0.000    0.000 
#    0.000    0.000    0.000    0.000    0.000    0.000 
#
# Total GULP energy -268524.203775 kJ/mol
# GULP energy per Si atom -5594.254245 kJ/mol
# Density = 1.896384 g / cm^3
# Si number density = 19.007104 Si / 1000 Ang^3
#
#
#
# Elastic Constant Matrix: (Units=GPa)
#
#
# Indices 1 2 3 4 5 6 
#
# 1 90.6399 57.7286 66.7496 0.0000 0.0000 0.0000
# 2 57.7286 100.3426 94.3385 0.0000 0.0000 0.0000
# 3 66.7496 94.3385 193.2349 0.0000 0.0000 0.0000
# 4 0.0000 0.0000 0.0000 35.7211 0.0000 0.0000
# 5 0.0000 0.0000 0.0000 0.0000 42.6619 0.0000
# 6 0.0000 0.0000 0.0000 0.0000 0.0000 69.8647
#
#
#
# Elastic Compliance Matrix: (Units=1/GPa)
#
#
# Indices 1 2 3 4 5 6 
#
# 1 0.017877 -0.008279 -0.002133 0.000000 0.000000 0.000000
# 2 -0.008279 0.022255 -0.008005 0.000000 0.000000 0.000000
# 3 -0.002133 -0.008005 0.009820 0.000000 0.000000 0.000000
# 4 0.000000 0.000000 0.000000 0.027995 0.000000 0.000000
# 5 0.000000 0.000000 0.000000 0.000000 0.023440 0.000000
# 6 0.000000 0.000000 0.000000 0.000000 0.000000 0.014313
#
#
# Mechanical properties :
#
#
# Convention : Reuss Voigt Hill
#
# Bulk Modulus (GPa) = 76.23826 91.31676 83.77751
# Shear Modulus (GPa) = 31.86591 40.67625 36.27108
#
# Velocity S-wave (km/s) = 4.09898 4.63109 4.37314
# Velocity P-wave (km/s) = 7.91200 8.76035 8.34696
#
# Compressibility (1/GPa) = 0.01311677
#
# Stress axis : x y z
#
# Youngs Moduli (GPa) = 55.93905 44.93342 101.83123
#
# Poissons Ratio (x) = 0.37201 0.21724
# Poissons Ratio (y) = 0.46312 0.81518
# Poissons Ratio (z) = 0.11933 0.35970
#
# Static dielectric constant tensor:
#      x y z
#    x 1.635750 0.000000 0.000000 
#    y 0.000000 1.651260 0.000000 
#    z 0.000000 0.000000 1.613230 
# 
# From -- ./inp_files/5944.got.cif
#   From: 2010.05.17/outbox.cif.g08.bks.cpg/sg51_3_cif.got.tgz:5944.got - 2010.06.03 11:52:47.
