data_PCOD9406844
_publ_section_title
;
Structure prediction by ZEFSAII (Michael W. Deem and Ramdas Pophale) SiO2 
 PCOD9406844
Probable space group: P M M A
;
_chemical_formula_sum "Si O2"
_cell_formula_units_Z 34
_cell_length_a 21.158749
_cell_length_b 14.643367
_cell_length_c 4.904289
_cell_angle_alpha 90.000000
_cell_angle_beta 90.000000
_cell_angle_gamma 90.000000
_cell_volume 1519.521985
_symmetry_space_group_name_H-M "P M M A"
_symmetry_group_IT_number 51
_symmetry_cell_setting 'orthorhombic'
loop_
_space_group_symop_operation_xyz
x,y,z
1/2-x,-y,z
1/2+x,-y,-z
-x,y,-z
-x,-y,-z
1/2+x,y,-z
1/2-x,y,z
x,-y,z
loop_
_atom_site_type_symbol
_atom_site_label
_atom_site_fract_x
_atom_site_fract_y
_atom_site_fract_z
Si Si1 0.427159 0.894726 0.589223
Si Si2 0.391249 0.782658 0.090993
Si Si3 0.932197 0.605118 0.643748
Si Si4 0.817772 0.344444 0.235425
Si Si5 0.750000 0.500000 0.963912
O O1 0.500000 0.889348 0.500000
O O2 0.387185 0.832317 0.380579
O O3 0.406998 0.000000 0.583048
O O4 0.424093 0.852833 0.888585
O O5 0.426900 0.686442 0.137717
O O6 0.330202 0.748542 0.925764
O O7 0.929124 0.500000 0.739155
O O8 0.874713 0.625736 0.431613
O O9 0.000000 0.615710 0.500000
O O10 0.750000 0.344314 0.391300
O O11 0.804256 0.420890 0.007142
#
# Coordination Sequence:
#
# PCOD9406844 Si02
#       5
#     8   8   8   8   2
#     4  11  25  45  72 105 140 180 230 297 366 428
#     4  12  24  42  71 102 140 178 236 289 353 416
#     4  11  24  40  66 104 152 194 235 288 360 423
#     4  10  22  42  66  97 141 191 244 289 343 416
#     4   8  20  44  64  98 138 198 256 284 334 432
#
# _framework density 22.375456
#
# number of rings (size 3 to 8) (size 9 to 14) (size 15 to 20)
#    0.706    0.471    3.529    2.118    4.941    2.824 
#    0.000    3.529    0.000    4.941    0.000    0.000 
#    0.000    0.000    0.000    0.000    0.000    0.000 
#
# Total GULP energy -189358.455642 kJ/mol
# GULP energy per Si atom -5569.366342 kJ/mol
# Density = 2.232453 g / cm^3
# Si number density = 22.375456 Si / 1000 Ang^3
#
#
#
# Elastic Constant Matrix: (Units=GPa)
#
#
# Indices 1 2 3 4 5 6 
#
# 1 112.9226 16.4642 12.8583 0.0000 0.0000 0.0000
# 2 16.4642 149.5489 34.3702 0.0000 0.0000 0.0000
# 3 12.8583 34.3702 88.1814 0.0000 0.0000 0.0000
# 4 0.0000 0.0000 0.0000 33.1882 0.0000 0.0000
# 5 0.0000 0.0000 0.0000 0.0000 27.8974 0.0000
# 6 0.0000 0.0000 0.0000 0.0000 0.0000 -221.8684
#
#
#
# Elastic Compliance Matrix: (Units=1/GPa)
#
#
# Indices 1 2 3 4 5 6 
#
# 1 0.009084 -0.000764 -0.001027 0.000000 0.000000 0.000000
# 2 -0.000764 0.007409 -0.002776 0.000000 0.000000 0.000000
# 3 -0.001027 -0.002776 0.012572 0.000000 0.000000 0.000000
# 4 0.000000 0.000000 0.000000 0.030131 0.000000 0.000000
# 5 0.000000 0.000000 0.000000 0.000000 0.035846 0.000000
# 6 0.000000 0.000000 0.000000 0.000000 0.000000 -0.004507
#
#
# Mechanical properties :
#
#
# Convention : Reuss Voigt Hill
#
# Bulk Modulus (GPa) = 50.17412 53.11536 51.64474
# Shear Modulus (GPa) = 47.03107 -13.02588 17.00259
#
# Velocity S-wave (km/s) = 4.58963 -2.41540 2.75958
# Velocity P-wave (km/s) = 7.11046 4.00136 5.76930
#
# Compressibility (1/GPa) = 0.01993059
#
# Stress axis : x y z
#
# Youngs Moduli (GPa) = 110.08435 134.97144 79.54115
#
# Poissons Ratio (x) = 0.10313 0.08167
# Poissons Ratio (y) = 0.08412 0.22083
# Poissons Ratio (z) = 0.11303 0.37473
#
# Static dielectric constant tensor:
#      x y z
#    x 1.903880 0.000000 0.000000 
#    y 0.000000 1.797440 0.000000 
#    z 0.000000 0.000000 1.882590 
# 
# From -- ./inp_files/2378.got.cif
#   From: 2010.05.17/outbox.cif.g08.bks.cpg/sg51_2_cif.got.tgz:2378.got - 2010.06.03 11:52:47.
