data_PCOD9406561
_publ_section_title
;
Structure prediction by ZEFSAII (Michael W. Deem and Ramdas Pophale) SiO2 
 PCOD9406561
Probable space group: P M M A
;
_chemical_formula_sum "Si O2"
_cell_formula_units_Z 26
_cell_length_a 7.767417
_cell_length_b 17.751635
_cell_length_c 8.178304
_cell_angle_alpha 90.000000
_cell_angle_beta 90.000000
_cell_angle_gamma 90.000000
_cell_volume 1127.660143
_symmetry_space_group_name_H-M "P M M A"
_symmetry_group_IT_number 51
_symmetry_cell_setting 'orthorhombic'
loop_
_space_group_symop_operation_xyz
x,y,z
1/2-x,-y,z
1/2+x,-y,-z
-x,y,-z
-x,-y,-z
1/2+x,y,-z
1/2-x,y,z
x,-y,z
loop_
_atom_site_type_symbol
_atom_site_label
_atom_site_fract_x
_atom_site_fract_y
_atom_site_fract_z
Si Si1 0.552662 0.104537 0.686132
Si Si2 0.544754 0.418194 0.691851
Si Si3 0.448612 0.255551 0.813944
Si Si4 0.250000 0.000000 0.809400
O O1 0.500000 0.085284 0.500000
O O2 0.750000 0.081103 0.720005
O O3 0.547481 0.194680 0.705978
O O4 0.405377 0.065146 0.795278
O O5 0.500000 0.413822 0.500000
O O6 0.750000 0.417999 0.708941
O O7 0.479185 0.500000 0.752308
O O8 0.478657 0.342966 0.775360
O O9 0.250000 0.239836 0.787408
O O10 0.500000 0.241481 0.000000
#
# Coordination Sequence:
#
# PCOD9406561 Si02
#       4
#     8   8   8   2
#     4  12  24  42  70  99 133 169 216 273 329 391
#     4  10  21  39  65  98 132 169 216 269 322 378
#     4  12  25  44  65  92 131 175 221 265 322 393
#     4  12  24  44  68 104 130 166 216 278 328 396
#
# _framework density 23.05659
#
# number of rings (size 3 to 8) (size 9 to 14) (size 15 to 20)
#    0.000    0.615    3.077    5.538    0.000    2.462 
#    0.000    0.769    0.000    0.000    0.000    0.000 
#    0.000    0.000    0.000    0.000    0.000    0.000 
#
# Total GULP energy -144939.679206 kJ/mol
# GULP energy per Si atom -5574.603046 kJ/mol
# Density = 2.300411 g / cm^3
# Si number density = 23.056590 Si / 1000 Ang^3
#
#
#
# Elastic Constant Matrix: (Units=GPa)
#
#
# Indices 1 2 3 4 5 6 
#
# 1 196.8892 44.1794 -2.7910 0.0000 0.0000 0.0000
# 2 44.1794 182.0557 19.4450 0.0000 0.0000 0.0000
# 3 -2.7910 19.4450 28.4538 0.0000 0.0000 0.0000
# 4 0.0000 0.0000 0.0000 -31.3179 0.0000 0.0000
# 5 0.0000 0.0000 0.0000 0.0000 23.3806 0.0000
# 6 0.0000 0.0000 0.0000 0.0000 0.0000 41.3805
#
#
#
# Elastic Compliance Matrix: (Units=1/GPa)
#
#
# Indices 1 2 3 4 5 6 
#
# 1 0.005434 -0.001484 0.001547 0.000000 0.000000 0.000000
# 2 -0.001484 0.006331 -0.004472 0.000000 0.000000 0.000000
# 3 0.001547 -0.004472 0.038352 0.000000 0.000000 0.000000
# 4 0.000000 0.000000 0.000000 -0.031931 0.000000 0.000000
# 5 0.000000 0.000000 0.000000 0.000000 0.042771 0.000000
# 6 0.000000 0.000000 0.000000 0.000000 0.000000 0.024166
#
#
# Mechanical properties :
#
#
# Convention : Reuss Voigt Hill
#
# Bulk Modulus (GPa) = 24.21326 58.78505 41.49915
# Shear Modulus (GPa) = 46.42249 29.79299 38.10774
#
# Velocity S-wave (km/s) = 4.49198 3.59857 4.06986
# Velocity P-wave (km/s) = 6.11787 6.54352 6.33427
#
# Compressibility (1/GPa) = 0.04129968
#
# Stress axis : x y z
#
# Youngs Moduli (GPa) = 184.03006 157.96438 26.07398
#
# Poissons Ratio (x) = 0.23440 -0.04034
# Poissons Ratio (y) = 0.27308 0.11660
# Poissons Ratio (z) = -0.28471 0.70638
#
# Static dielectric constant tensor:
#      x y z
#    x 1.829830 0.000000 0.000000 
#    y 0.000000 1.898930 0.000000 
#    z 0.000000 0.000000 1.853120 
# 
# From -- ./inp_files/4697.got.cif
#   From: 2010.05.17/outbox.cif.g08.bks.cpg/sg51_3_cif.got.tgz:4697.got - 2010.06.03 11:52:47.
