data_PCOD9406921
_publ_section_title
;
Structure prediction by ZEFSAII (Michael W. Deem and Ramdas Pophale) SiO2 
 PCOD9406921
Probable space group: P M M A
;
_chemical_formula_sum "Si O2"
_cell_formula_units_Z 32
_cell_length_a 8.898318
_cell_length_b 10.408492
_cell_length_c 20.106835
_cell_angle_alpha 90.000000
_cell_angle_beta 90.000000
_cell_angle_gamma 90.000000
_cell_volume 1862.256286
_symmetry_space_group_name_H-M "P M M A"
_symmetry_group_IT_number 51
_symmetry_cell_setting 'orthorhombic'
loop_
_space_group_symop_operation_xyz
x,y,z
1/2-x,-y,z
1/2+x,-y,-z
-x,y,-z
-x,-y,-z
1/2+x,y,-z
1/2-x,y,z
x,-y,z
loop_
_atom_site_type_symbol
_atom_site_label
_atom_site_fract_x
_atom_site_fract_y
_atom_site_fract_z
Si Si1 0.924830 0.655948 0.432366
Si Si2 0.569768 0.000000 0.926697
Si Si3 0.931753 0.346944 0.285019
Si Si4 0.430361 0.500000 0.926689
Si Si5 0.930611 0.740217 0.848901
O O1 0.750000 0.689218 0.434990
O O2 0.935214 0.500000 0.432685
O O3 0.982303 0.693977 0.359240
O O4 0.000000 0.703595 0.500000
O O5 0.528710 0.873021 0.885192
O O6 0.750000 0.000000 0.934012
O O7 0.500000 0.000000 0.000000
O O8 0.750000 0.334223 0.281220
O O9 0.963902 0.500000 0.276769
O O10 0.010929 0.269928 0.226439
O O11 0.250000 0.500000 0.928909
O O12 0.490549 0.375502 0.888188
O O13 0.500000 0.500000 0.000000
O O14 0.750000 0.725005 0.850762
#
# Coordination Sequence:
#
# PCOD9406921 Si02
#       5
#     8   4   8   4   8
#     4   8  14  24  39  63  98 137 172 208 251 301
#     4  10  24  42  58  78 105 134 173 220 263 314
#     4   9  17  30  48  73 106 140 174 215 260 307
#     4  12  24  38  56  80 107 134 169 214 260 314
#     4  11  22  37  56  80 106 137 175 216 263 314
#
# _framework density 17.183456
#
# number of rings (size 3 to 8) (size 9 to 14) (size 15 to 20)
#    0.000    2.250    1.250    4.125    0.000    5.000 
#    0.000    2.500    0.000    0.000    0.000    0.875 
#    0.000    0.000    0.000    0.000    0.000    0.000 
#
# Total GULP energy -178444.400264 kJ/mol
# GULP energy per Si atom -5576.387508 kJ/mol
# Density = 1.714435 g / cm^3
# Si number density = 17.183456 Si / 1000 Ang^3
#
#
#
# Elastic Constant Matrix: (Units=GPa)
#
#
# Indices 1 2 3 4 5 6 
#
# 1 60.7707 43.1378 68.3119 0.0000 0.0000 0.0000
# 2 43.1378 96.0464 72.0686 0.0000 0.0000 0.0000
# 3 68.3119 72.0686 213.6636 0.0000 0.0000 0.0000
# 4 0.0000 0.0000 0.0000 6.9505 0.0000 0.0000
# 5 0.0000 0.0000 0.0000 0.0000 37.5362 0.0000
# 6 0.0000 0.0000 0.0000 0.0000 0.0000 -1.5173
#
#
#
# Elastic Compliance Matrix: (Units=1/GPa)
#
#
# Indices 1 2 3 4 5 6 
#
# 1 0.030030 -0.008412 -0.006764 0.000000 0.000000 0.000000
# 2 -0.008412 0.016296 -0.002807 0.000000 0.000000 0.000000
# 3 -0.006764 -0.002807 0.007790 0.000000 0.000000 0.000000
# 4 0.000000 0.000000 0.000000 0.143875 0.000000 0.000000
# 5 0.000000 0.000000 0.000000 0.000000 0.026641 0.000000
# 6 0.000000 0.000000 0.000000 0.000000 0.000000 -0.659076
#
#
# Mechanical properties :
#
#
# Convention : Reuss Voigt Hill
#
# Bulk Modulus (GPa) = 55.09828 81.94636 68.52232
# Shear Modulus (GPa) = -12.74116 21.05804 4.15844
#
# Velocity S-wave (km/s) = -2.72596 3.50449 1.55733
# Velocity P-wave (km/s) = 4.71450 8.01049 6.57246
#
# Compressibility (1/GPa) = 0.01814939
#
# Stress axis : x y z
#
# Youngs Moduli (GPa) = 33.30052 61.36385 128.37770
#
# Poissons Ratio (x) = 0.51621 0.86828
# Poissons Ratio (y) = 0.28013 0.36038
# Poissons Ratio (z) = 0.22523 0.17226
#
# Static dielectric constant tensor:
#      x y z
#    x 1.576170 0.000000 0.000000 
#    y 0.000000 1.566090 0.000000 
#    z 0.000000 0.000000 1.611460 
# 
# From -- ./inp_files/31270.got.cif
#   From: 2010.05.17/outbox.cif.g08.bks.cpg/sg51_16_cif.got.tgz:31270.got - 2010.06.03 11:52:47.
