data_PCOD9406608
_publ_section_title
;
Structure prediction by ZEFSAII (Michael W. Deem and Ramdas Pophale) SiO2 
 PCOD9406608
Probable space group: P M M A
;
_chemical_formula_sum "Si O2"
_cell_formula_units_Z 56
_cell_length_a 14.509326
_cell_length_b 7.543365
_cell_length_c 24.947091
_cell_angle_alpha 90.000000
_cell_angle_beta 90.000000
_cell_angle_gamma 90.000000
_cell_volume 2730.437703
_symmetry_space_group_name_H-M "P M M A"
_symmetry_group_IT_number 51
_symmetry_cell_setting 'orthorhombic'
loop_
_space_group_symop_operation_xyz
x,y,z
1/2-x,-y,z
1/2+x,-y,-z
-x,y,-z
-x,-y,-z
1/2+x,y,-z
1/2-x,y,z
x,-y,z
loop_
_atom_site_type_symbol
_atom_site_label
_atom_site_fract_x
_atom_site_fract_y
_atom_site_fract_z
Si Si1 0.644568 0.285484 0.855545
Si Si2 0.638425 0.000000 0.650324
Si Si3 0.354846 0.711851 0.737188
Si Si4 0.138704 0.711140 0.619373
Si Si5 0.508577 0.791572 0.059578
Si Si6 0.019815 0.000000 0.562720
Si Si7 0.138124 0.701157 0.263311
Si Si8 0.645776 0.212216 0.147244
O O1 0.750000 0.227822 0.862627
O O2 0.643016 0.500000 0.854409
O O3 0.582628 0.223840 0.904529
O O4 0.612179 0.230016 0.795980
O O5 0.573877 0.000000 0.598211
O O6 0.616622 0.169408 0.687997
O O7 0.750000 0.000000 0.639432
O O8 0.250000 0.782977 0.740434
O O9 0.349706 0.500000 0.733610
O O10 0.391621 0.769218 0.679676
O O11 0.398048 0.753299 0.794402
O O12 0.250000 0.738589 0.615713
O O13 0.123110 0.500000 0.612971
O O14 0.081225 0.829582 0.578902
O O15 0.587497 0.714664 0.098013
O O16 0.530041 0.000000 0.052863
O O17 0.500000 0.715356 0.000000
O O18 0.000000 0.000000 0.500000
O O19 0.250000 0.691030 0.261145
O O20 0.102347 0.500000 0.270900
O O21 0.750000 0.282893 0.146970
O O22 0.650089 0.000000 0.142161
#
# Coordination Sequence:
#
# PCOD9406608 Si02
#       8
#     8   4   8   8   8   4   8   8
#     4   9  19  36  57  80 105 135 176 231 292 345
#     4  10  22  39  60  87 121 161 202 240 294 359
#     4   8  15  30  54  84 112 137 172 221 282 349
#     4   9  20  41  67  93 123 159 200 249 305 362
#     4  10  22  36  49  71 103 142 189 231 267 326
#     4  12  27  41  60  91 127 167 209 254 287 337
#     4   8  16  34  59  86 115 146 187 243 302 358
#     4   9  18  32  50  73 105 141 174 219 279 338
#
# _framework density 20.509530999999999
#
# number of rings (size 3 to 8) (size 9 to 14) (size 15 to 20)
#    0.000    2.857    0.000    1.929    2.000    4.286 
#    0.000    4.286    0.000    3.429    0.000    0.000 
#    0.000    0.000    0.000    0.000    0.000    0.000 
#
# Total GULP energy -312444.112895 kJ/mol
# GULP energy per Si atom -5579.359159 kJ/mol
# Density = 2.046285 g / cm^3
# Si number density = 20.509531 Si / 1000 Ang^3
#
#
#
# Elastic Constant Matrix: (Units=GPa)
#
#
# Indices 1 2 3 4 5 6 
#
# 1 101.8677 20.8144 75.5811 0.0000 0.0000 0.0000
# 2 20.8144 75.9069 49.8488 0.0000 0.0000 0.0000
# 3 75.5811 49.8488 222.1013 0.0000 0.0000 0.0000
# 4 0.0000 0.0000 0.0000 45.8293 0.0000 0.0000
# 5 0.0000 0.0000 0.0000 0.0000 31.6459 0.0000
# 6 0.0000 0.0000 0.0000 0.0000 0.0000 -3.3556
#
#
#
# Elastic Compliance Matrix: (Units=1/GPa)
#
#
# Indices 1 2 3 4 5 6 
#
# 1 0.013172 -0.000784 -0.004307 0.000000 0.000000 0.000000
# 2 -0.000784 0.015498 -0.003212 0.000000 0.000000 0.000000
# 3 -0.004307 -0.003212 0.006689 0.000000 0.000000 0.000000
# 4 0.000000 0.000000 0.000000 0.021820 0.000000 0.000000
# 5 0.000000 0.000000 0.000000 0.000000 0.031600 0.000000
# 6 0.000000 0.000000 0.000000 0.000000 0.000000 -0.298011
#
#
# Mechanical properties :
#
#
# Convention : Reuss Voigt Hill
#
# Bulk Modulus (GPa) = 53.31925 76.92939 65.12432
# Shear Modulus (GPa) = -26.82740 31.73270 2.45265
#
# Velocity S-wave (km/s) = -3.62062 3.93774 1.09474
# Velocity P-wave (km/s) = 2.92836 7.63314 5.78101
#
# Compressibility (1/GPa) = 0.01875495
#
# Stress axis : x y z
#
# Youngs Moduli (GPa) = 75.91836 64.52401 149.50347
#
# Poissons Ratio (x) = 0.05057 0.64384
# Poissons Ratio (y) = 0.05950 0.48016
# Poissons Ratio (z) = 0.32695 0.20723
#
# Static dielectric constant tensor:
#      x y z
#    x 1.758560 0.000000 0.000000 
#    y 0.000000 2.112440 0.000000 
#    z 0.000000 0.000000 1.711290 
# 
# From -- ./inp_files/33581.got.cif
#   From: 2010.05.17/outbox.cif.g08.bks.cpg/sg51_17_cif.got.tgz:33581.got - 2010.06.03 11:52:47.
