data_PCOD9406489
_publ_section_title
;
Structure prediction by ZEFSAII (Michael W. Deem and Ramdas Pophale) SiO2 
 PCOD9406489
Probable space group: P M M A
;
_chemical_formula_sum "Si O2"
_cell_formula_units_Z 56
_cell_length_a 8.547197
_cell_length_b 15.633366
_cell_length_c 20.637252
_cell_angle_alpha 90.000000
_cell_angle_beta 90.000000
_cell_angle_gamma 90.000000
_cell_volume 2757.579721
_symmetry_space_group_name_H-M "P M M A"
_symmetry_group_IT_number 51
_symmetry_cell_setting 'orthorhombic'
loop_
_space_group_symop_operation_xyz
x,y,z
1/2-x,-y,z
1/2+x,-y,-z
-x,y,-z
-x,-y,-z
1/2+x,y,-z
1/2-x,y,z
x,-y,z
loop_
_atom_site_type_symbol
_atom_site_label
_atom_site_fract_x
_atom_site_fract_y
_atom_site_fract_z
Si Si1 0.433627 0.000000 0.928074
Si Si2 0.924174 0.096673 0.719316
Si Si3 0.430857 0.095143 0.587228
Si Si4 0.433686 0.164977 0.142654
Si Si5 0.560047 0.712764 0.432000
Si Si6 0.939242 0.399442 0.305900
Si Si7 0.938941 0.349614 0.836969
Si Si8 0.563132 0.500000 0.073110
O O1 0.486110 0.914288 0.891385
O O2 0.250000 0.000000 0.931568
O O3 0.500000 0.000000 0.000000
O O4 0.750000 0.111403 0.690401
O O5 0.947566 0.156221 0.779752
O O6 0.053495 0.100846 0.664727
O O7 0.923049 0.000000 0.745508
O O8 0.250000 0.093009 0.566695
O O9 0.498530 0.187757 0.568330
O O10 0.500383 0.000000 0.571088
O O11 0.250000 0.159386 0.126371
O O12 0.493373 0.259942 0.131722
O O13 0.500000 0.674547 0.500000
O O14 0.750000 0.714884 0.431972
O O15 0.511886 0.659810 0.367531
O O16 0.750000 0.396134 0.303413
O O17 0.983734 0.500000 0.314588
O O18 0.002567 0.366674 0.236558
O O19 0.750000 0.348896 0.834620
O O20 0.000515 0.420918 0.885198
O O21 0.750000 0.500000 0.071923
O O22 0.500000 0.500000 0.000000
#
# Coordination Sequence:
#
# PCOD9406489 Si02
#       8
#     4   8   8   8   8   8   8   4
#     4  12  26  42  62  86 120 168 215 254 297 360
#     4   9  16  29  52  80 112 147 186 234 291 350
#     4   9  18  32  50  75 110 149 191 244 301 359
#     4  10  21  39  61  87 124 161 198 253 307 357
#     4  10  22  38  55  80 116 157 205 258 312 375
#     4  10  21  39  63  89 122 163 203 255 323 385
#     4  11  23  40  68 102 130 164 212 261 314 380
#     4  12  26  46  70  96 133 170 205 258 316 376
#
# _framework density 20.307663000000002
#
# number of rings (size 3 to 8) (size 9 to 14) (size 15 to 20)
#    0.000    1.857    1.429    2.571    0.000    4.000 
#    0.000    0.000    0.000    0.000    0.000    0.000 
#    0.000    0.000    0.000    0.000    0.000    0.000 
#
# Total GULP energy -312273.274256 kJ/mol
# GULP energy per Si atom -5576.308469 kJ/mol
# Density = 2.026144 g / cm^3
# Si number density = 20.307663 Si / 1000 Ang^3
#
#
#
# Elastic Constant Matrix: (Units=GPa)
#
#
# Indices 1 2 3 4 5 6 
#
# 1 36.9995 43.6666 36.4424 0.0000 0.0000 0.0000
# 2 43.6666 177.1210 79.2404 0.0000 0.0000 0.0000
# 3 36.4424 79.2404 123.1734 0.0000 0.0000 0.0000
# 4 0.0000 0.0000 0.0000 8.4546 0.0000 0.0000
# 5 0.0000 0.0000 0.0000 0.0000 30.9519 0.0000
# 6 0.0000 0.0000 0.0000 0.0000 0.0000 7.4951
#
#
#
# Elastic Compliance Matrix: (Units=1/GPa)
#
#
# Indices 1 2 3 4 5 6 
#
# 1 0.043524 -0.006977 -0.008388 0.000000 0.000000 0.000000
# 2 -0.006977 0.009046 -0.003755 0.000000 0.000000 0.000000
# 3 -0.008388 -0.003755 0.013016 0.000000 0.000000 0.000000
# 4 0.000000 0.000000 0.000000 0.118278 0.000000 0.000000
# 5 0.000000 0.000000 0.000000 0.000000 0.032308 0.000000
# 6 0.000000 0.000000 0.000000 0.000000 0.000000 0.133420
#
#
# Mechanical properties :
#
#
# Convention : Reuss Voigt Hill
#
# Bulk Modulus (GPa) = 36.57050 72.88809 54.72929
# Shear Modulus (GPa) = 12.59605 21.24330 16.91967
#
# Velocity S-wave (km/s) = 2.49321 3.23781 2.88959
# Velocity P-wave (km/s) = 5.13180 7.06737 6.17589
#
# Compressibility (1/GPa) = 0.02734444
#
# Stress axis : x y z
#
# Youngs Moduli (GPa) = 22.97569 110.54563 76.82712
#
# Poissons Ratio (x) = 0.77133 0.64446
# Poissons Ratio (y) = 0.16031 0.28850
# Poissons Ratio (z) = 0.19273 0.41512
#
# Static dielectric constant tensor:
#      x y z
#    x 1.706840 0.000000 0.000000 
#    y 0.000000 1.774650 0.000000 
#    z 0.000000 0.000000 1.693850 
# 
# From -- ./inp_files/32061.got.cif
#   From: 2010.05.17/outbox.cif.g08.bks.cpg/sg51_17_cif.got.tgz:32061.got - 2010.06.03 11:52:47.
