data_PCOD9406423
_publ_section_title
;
Structure prediction by ZEFSAII (Michael W. Deem and Ramdas Pophale) SiO2 
 PCOD9406423
Probable space group: P M M A
;
_chemical_formula_sum "Si O2"
_cell_formula_units_Z 34
_cell_length_a 7.800297
_cell_length_b 23.192488
_cell_length_c 8.700302
_cell_angle_alpha 90.000000
_cell_angle_beta 90.000000
_cell_angle_gamma 90.000000
_cell_volume 1573.956797
_symmetry_space_group_name_H-M "P M M A"
_symmetry_group_IT_number 51
_symmetry_cell_setting 'orthorhombic'
loop_
_space_group_symop_operation_xyz
x,y,z
1/2-x,-y,z
1/2+x,-y,-z
-x,y,-z
-x,-y,-z
1/2+x,y,-z
1/2-x,y,z
x,-y,z
loop_
_atom_site_type_symbol
_atom_site_label
_atom_site_fract_x
_atom_site_fract_y
_atom_site_fract_z
Si Si1 0.544294 0.299961 0.323615
Si Si2 0.953202 0.062737 0.678824
Si Si3 0.949726 0.416970 0.821938
Si Si4 0.047961 0.816402 0.823882
Si Si5 0.750000 0.500000 0.285951
O O1 0.500000 0.311892 0.500000
O O2 0.750000 0.301991 0.305277
O O3 0.465999 0.349631 0.217515
O O4 0.476984 0.236472 0.276983
O O5 0.750000 0.059292 0.689151
O O6 0.000000 0.070157 0.500000
O O7 0.002769 0.119502 0.770342
O O8 0.025142 0.000000 0.729447
O O9 0.750000 0.434081 0.797106
O O10 0.095367 0.450377 0.725367
O O11 0.000000 0.427911 0.000000
O O12 0.250000 0.812529 0.809162
O O13 0.000000 0.807562 0.000000
#
# Coordination Sequence:
#
# PCOD9406423 Si02
#       5
#     8   8   8   8   2
#     4  11  24  44  66  94 129 167 213 267 323 384
#     4  10  21  38  61  90 127 169 214 262 317 381
#     4  12  24  41  70  99 133 173 216 267 321 382
#     4  11  24  40  64  93 127 166 214 267 322 379
#     4  12  24  44  68 100 140 166 222 262 316 396
#
# _framework density 21.601611999999999
#
# number of rings (size 3 to 8) (size 9 to 14) (size 15 to 20)
#    0.000    0.941    2.353    4.235    0.000    9.412 
#    0.000    0.588    0.000    0.000    0.000    0.000 
#    0.000    0.000    0.000    0.000    0.000    0.000 
#
# Total GULP energy -189508.972630 kJ/mol
# GULP energy per Si atom -5573.793313 kJ/mol
# Density = 2.155245 g / cm^3
# Si number density = 21.601612 Si / 1000 Ang^3
#
#
#
# Elastic Constant Matrix: (Units=GPa)
#
#
# Indices 1 2 3 4 5 6 
#
# 1 144.7710 38.5337 0.6256 0.0000 0.0000 0.0000
# 2 38.5337 137.8672 15.8150 0.0000 0.0000 0.0000
# 3 0.6256 15.8150 27.2432 0.0000 0.0000 0.0000
# 4 0.0000 0.0000 0.0000 -140.9521 0.0000 0.0000
# 5 0.0000 0.0000 0.0000 0.0000 29.7089 0.0000
# 6 0.0000 0.0000 0.0000 0.0000 0.0000 57.8234
#
#
#
# Elastic Compliance Matrix: (Units=1/GPa)
#
#
# Indices 1 2 3 4 5 6 
#
# 1 0.007494 -0.002223 0.001118 0.000000 0.000000 0.000000
# 2 -0.002223 0.008430 -0.004843 0.000000 0.000000 0.000000
# 3 0.001118 -0.004843 0.039492 0.000000 0.000000 0.000000
# 4 0.000000 0.000000 0.000000 -0.007095 0.000000 0.000000
# 5 0.000000 0.000000 0.000000 0.000000 0.033660 0.000000
# 6 0.000000 0.000000 0.000000 0.000000 0.000000 0.017294
#
#
# Mechanical properties :
#
#
# Convention : Reuss Voigt Hill
#
# Bulk Modulus (GPa) = 22.97702 46.64778 34.81240
# Shear Modulus (GPa) = 39.78427 6.30986 23.04706
#
# Velocity S-wave (km/s) = 4.29619 1.71095 3.26991
# Velocity P-wave (km/s) = 5.93881 5.05417 5.51426
#
# Compressibility (1/GPa) = 0.04352174
#
# Stress axis : x y z
#
# Youngs Moduli (GPa) = 133.43462 118.62126 25.32158
#
# Poissons Ratio (x) = 0.26369 -0.02832
# Poissons Ratio (y) = 0.29662 0.12263
# Poissons Ratio (z) = -0.14923 0.57446
#
# Static dielectric constant tensor:
#      x y z
#    x 1.775680 0.000000 0.000000 
#    y 0.000000 1.880610 0.000000 
#    z 0.000000 0.000000 1.737160 
# 
# From -- ./inp_files/5007.got.cif
#   From: 2010.05.17/outbox.cif.g08.bks.cpg/sg51_3_cif.got.tgz:5007.got - 2010.06.03 11:52:47.
