data_PCOD9406367
_publ_section_title
;
Structure prediction by ZEFSAII (Michael W. Deem and Ramdas Pophale) SiO2 
 PCOD9406367
Probable space group: P M M A
;
_chemical_formula_sum "Si O2"
_cell_formula_units_Z 48
_cell_length_a 10.161100
_cell_length_b 7.767093
_cell_length_c 29.013374
_cell_angle_alpha 90.000000
_cell_angle_beta 90.000000
_cell_angle_gamma 90.000000
_cell_volume 2289.799557
_symmetry_space_group_name_H-M "P M M A"
_symmetry_group_IT_number 51
_symmetry_cell_setting 'orthorhombic'
loop_
_space_group_symop_operation_xyz
x,y,z
1/2-x,-y,z
1/2+x,-y,-z
-x,y,-z
-x,-y,-z
1/2+x,y,-z
1/2-x,y,z
x,-y,z
loop_
_atom_site_type_symbol
_atom_site_label
_atom_site_fract_x
_atom_site_fract_y
_atom_site_fract_z
Si Si1 0.100425 0.794576 0.279564
Si Si2 0.535023 0.290653 0.099759
Si Si3 0.250000 0.303113 0.076490
Si Si4 0.394084 0.292176 0.797315
Si Si5 0.899428 0.793550 0.356252
Si Si6 0.250000 0.803854 0.974614
Si Si7 0.899340 0.292051 0.461359
O O1 0.250000 0.726068 0.277848
O O2 0.015773 0.765703 0.233515
O O3 0.008585 0.725042 0.320964
O O4 0.110799 0.000000 0.286169
O O5 0.536667 0.500000 0.098157
O O6 0.386608 0.225872 0.093468
O O7 0.589407 0.238177 0.149550
O O8 0.625187 0.230411 0.057838
O O9 0.250000 0.500000 0.093703
O O10 0.250000 0.304575 0.021106
O O11 0.250000 0.232826 0.779966
O O12 0.393910 0.500000 0.796685
O O13 0.750000 0.726688 0.348208
O O14 0.935262 0.757042 0.409211
O O15 0.893723 0.000000 0.350464
O O16 0.250000 0.000000 0.990223
O O17 0.750000 0.230791 0.469676
O O18 0.897984 0.500000 0.463479
O O19 0.000000 0.228544 0.500000
#
# Coordination Sequence:
#
# PCOD9406367 Si02
#       7
#     8   8   4   8   8   4   8
#     4  10  22  38  56  82 115 148 181 223 279 337
#     4  10  21  40  62  84 111 146 188 229 272 327
#     4  10  22  38  62  86 110 150 188 226 277 326
#     4  10  21  38  61  85 109 140 184 233 273 321
#     4   9  18  34  54  75 104 145 188 226 266 322
#     4  12  24  38  58  86 118 150 184 226 273 326
#     4   9  18  32  50  74 105 140 178 224 276 327
#
# _framework density 20.962534000000002
#
# number of rings (size 3 to 8) (size 9 to 14) (size 15 to 20)
#    0.000    2.167    0.833    1.750    1.167    6.333 
#    0.000    1.667    0.000    0.000    0.000    0.000 
#    0.000    0.000    0.000    0.000    0.000    0.000 
#
# Total GULP energy -268069.278483 kJ/mol
# GULP energy per Si atom -5584.776635 kJ/mol
# Density = 2.091482 g / cm^3
# Si number density = 20.962534 Si / 1000 Ang^3
#
#
#
# Elastic Constant Matrix: (Units=GPa)
#
#
# Indices 1 2 3 4 5 6 
#
# 1 158.9315 5.7990 59.3579 0.0000 0.0000 0.0000
# 2 5.7990 33.5435 -6.5227 0.0000 0.0000 0.0000
# 3 59.3579 -6.5227 87.7733 0.0000 0.0000 0.0000
# 4 0.0000 0.0000 0.0000 20.5212 0.0000 0.0000
# 5 0.0000 0.0000 0.0000 0.0000 30.9505 0.0000
# 6 0.0000 0.0000 0.0000 0.0000 0.0000 -12.6428
#
#
#
# Elastic Compliance Matrix: (Units=1/GPa)
#
#
# Indices 1 2 3 4 5 6 
#
# 1 0.008648 -0.002671 -0.006047 0.000000 0.000000 0.000000
# 2 -0.002671 0.031074 0.004115 0.000000 0.000000 0.000000
# 3 -0.006047 0.004115 0.015788 0.000000 0.000000 0.000000
# 4 0.000000 0.000000 0.000000 0.048730 0.000000 0.000000
# 5 0.000000 0.000000 0.000000 0.000000 0.032310 0.000000
# 6 0.000000 0.000000 0.000000 0.000000 0.000000 -0.079097
#
#
# Mechanical properties :
#
#
# Convention : Reuss Voigt Hill
#
# Bulk Modulus (GPa) = 21.59568 44.16853 32.88211
# Shear Modulus (GPa) = 60.90710 22.54006 41.72358
#
# Velocity S-wave (km/s) = 5.39614 3.28267 4.46622
# Velocity P-wave (km/s) = 7.01062 5.95683 6.50510
#
# Compressibility (1/GPa) = 0.04630555
#
# Stress axis : x y z
#
# Youngs Moduli (GPa) = 115.63651 32.18125 63.33942
#
# Poissons Ratio (x) = 0.08595 0.38299
# Poissons Ratio (y) = 0.30885 -0.26067
# Poissons Ratio (z) = 0.69922 -0.13244
#
# Static dielectric constant tensor:
#      x y z
#    x 1.770790 0.000000 0.000000 
#    y 0.000000 1.774220 0.000000 
#    z 0.000000 0.000000 1.706330 
# 
# From -- ./inp_files/37145.got.cif
#   From: 2010.05.17/outbox.cif.g08.bks.cpg/sg51_19_cif.got.tgz:37145.got - 2010.06.03 11:52:47.
