data_PCOD9406563
_publ_section_title
;
Structure prediction by ZEFSAII (Michael W. Deem and Ramdas Pophale) SiO2 
 PCOD9406563
Probable space group: P M M A
;
_chemical_formula_sum "Si O2"
_cell_formula_units_Z 34
_cell_length_a 22.600493
_cell_length_b 7.672026
_cell_length_c 10.371229
_cell_angle_alpha 90.000000
_cell_angle_beta 90.000000
_cell_angle_gamma 90.000000
_cell_volume 1798.283678
_symmetry_space_group_name_H-M "P M M A"
_symmetry_group_IT_number 51
_symmetry_cell_setting 'orthorhombic'
loop_
_space_group_symop_operation_xyz
x,y,z
1/2-x,-y,z
1/2+x,-y,-z
-x,y,-z
-x,-y,-z
1/2+x,y,-z
1/2-x,y,z
x,-y,z
loop_
_atom_site_type_symbol
_atom_site_label
_atom_site_fract_x
_atom_site_fract_y
_atom_site_fract_z
Si Si1 0.043455 0.000000 0.122138
Si Si2 0.250000 0.807310 0.100345
Si Si3 0.750000 0.295370 0.406314
Si Si4 0.961442 0.000000 0.371919
Si Si5 0.877198 0.704416 0.279538
Si Si6 0.750000 0.000000 0.630021
Si Si7 0.621725 0.302416 0.977017
O O1 0.085104 0.168199 0.108725
O O2 0.005773 0.000000 0.251034
O O3 0.000000 0.000000 0.000000
O O4 0.250000 0.851283 0.252146
O O5 0.190487 0.712035 0.059234
O O6 0.250000 0.000000 0.035498
O O7 0.750000 0.500000 0.449272
O O8 0.690690 0.270537 0.321937
O O9 0.750000 0.154754 0.519897
O O10 0.919323 0.168467 0.359538
O O11 0.000000 0.000000 0.500000
O O12 0.891624 0.500000 0.298086
O O13 0.884724 0.745039 0.127855
O O14 0.600826 0.500000 0.959601
#
# Coordination Sequence:
#
# PCOD9406563 Si02
#       7
#     4   4   4   4   8   2   8
#     4  12  23  42  63  92 123 166 224 257 295 381
#     4  10  22  39  61  92 132 153 201 262 322 381
#     4  10  21  39  66  94 123 159 205 256 318 390
#     4  12  27  43  63  88 131 173 212 261 315 366
#     4  10  22  41  66  96 123 157 208 263 319 380
#     4  10  22  36  52  84 132 172 198 230 306 382
#     4  11  22  40  68  96 125 161 205 271 328 371
#
# _framework density 18.906915999999999
#
# number of rings (size 3 to 8) (size 9 to 14) (size 15 to 20)
#    0.353    0.941    3.529    1.765    0.000    8.471 
#    2.118    2.353    0.000    0.000    0.000    0.000 
#    0.000    0.000    0.000    0.000    0.000    0.000 
#
# Total GULP energy -189398.006770 kJ/mol
# GULP energy per Si atom -5570.529611 kJ/mol
# Density = 1.886388 g / cm^3
# Si number density = 18.906916 Si / 1000 Ang^3
#
#
#
# Elastic Constant Matrix: (Units=GPa)
#
#
# Indices 1 2 3 4 5 6 
#
# 1 120.6492 57.4902 41.4099 0.0000 0.0000 0.0000
# 2 57.4902 104.6039 48.1469 0.0000 0.0000 0.0000
# 3 41.4099 48.1469 88.6617 0.0000 0.0000 0.0000
# 4 0.0000 0.0000 0.0000 10.0367 0.0000 0.0000
# 5 0.0000 0.0000 0.0000 0.0000 12.1284 0.0000
# 6 0.0000 0.0000 0.0000 0.0000 0.0000 160.2014
#
#
#
# Elastic Compliance Matrix: (Units=1/GPa)
#
#
# Indices 1 2 3 4 5 6 
#
# 1 0.011670 -0.005206 -0.002623 0.000000 0.000000 0.000000
# 2 -0.005206 0.015068 -0.005751 0.000000 0.000000 0.000000
# 3 -0.002623 -0.005751 0.015627 0.000000 0.000000 0.000000
# 4 0.000000 0.000000 0.000000 0.099635 0.000000 0.000000
# 5 0.000000 0.000000 0.000000 0.000000 0.082451 0.000000
# 6 0.000000 0.000000 0.000000 0.000000 0.000000 0.006242
#
#
# Mechanical properties :
#
#
# Convention : Reuss Voigt Hill
#
# Bulk Modulus (GPa) = 65.77213 67.55655 66.66434
# Shear Modulus (GPa) = 19.01702 47.59781 33.30741
#
# Velocity S-wave (km/s) = 3.17491 5.02289 4.20176
# Velocity P-wave (km/s) = 6.95003 8.33355 7.67304
#
# Compressibility (1/GPa) = 0.01520401
#
# Stress axis : x y z
#
# Youngs Moduli (GPa) = 85.69248 66.36427 63.99149
#
# Poissons Ratio (x) = 0.34551 0.16786
# Poissons Ratio (y) = 0.44614 0.36802
# Poissons Ratio (z) = 0.22478 0.38167
#
# Static dielectric constant tensor:
#      x y z
#    x 1.650400 0.000000 0.000000 
#    y 0.000000 1.681840 0.000000 
#    z 0.000000 0.000000 1.616780 
# 
# From -- ./inp_files/10503.got.cif
#   From: 2010.05.17/outbox.cif.g08.bks.cpg/sg51_6_cif.got.tgz:10503.got - 2010.06.03 11:52:47.
