data_PCOD9406137
_publ_section_title
;
Structure prediction by ZEFSAII (Michael W. Deem and Ramdas Pophale) SiO2 
 PCOD9406137
Probable space group: P M M A
;
_chemical_formula_sum "Si O2"
_cell_formula_units_Z 48
_cell_length_a 8.646727
_cell_length_b 14.781612
_cell_length_c 21.099112
_cell_angle_alpha 90.000000
_cell_angle_beta 90.000000
_cell_angle_gamma 90.000000
_cell_volume 2696.731594
_symmetry_space_group_name_H-M "P M M A"
_symmetry_group_IT_number 51
_symmetry_cell_setting 'orthorhombic'
loop_
_space_group_symop_operation_xyz
x,y,z
1/2-x,-y,z
1/2+x,-y,-z
-x,y,-z
-x,-y,-z
1/2+x,y,-z
1/2-x,y,z
x,-y,z
loop_
_atom_site_type_symbol
_atom_site_label
_atom_site_fract_x
_atom_site_fract_y
_atom_site_fract_z
Si Si1 0.435074 0.395544 0.430886
Si Si2 0.434823 0.284653 0.686156
Si Si3 0.064605 0.291620 0.066779
Si Si4 0.562166 0.900164 0.884258
Si Si5 0.436222 0.897925 0.264484
Si Si6 0.936689 0.394735 0.188508
O O1 0.500000 0.370940 0.500000
O O2 0.250000 0.392549 0.432646
O O3 0.483205 0.500000 0.418031
O O4 0.496340 0.331278 0.375842
O O5 0.250000 0.289181 0.683051
O O6 0.488240 0.181838 0.695959
O O7 0.486263 0.340027 0.748886
O O8 0.250000 0.291969 0.065479
O O9 0.008802 0.187888 0.078134
O O10 0.007516 0.350033 0.126035
O O11 0.000000 0.325159 0.000000
O O12 0.750000 0.901261 0.886877
O O13 0.521077 0.888361 0.810014
O O14 0.507783 0.000000 0.905273
O O15 0.250000 0.890334 0.267894
O O16 0.478995 0.000000 0.284028
O O17 0.750000 0.389163 0.184393
O O18 0.979634 0.500000 0.193840
#
# Coordination Sequence:
#
# PCOD9406137 Si02
#       6
#     8   8   8   8   8   8
#     4  10  21  37  58  85 118 154 191 228 269 322
#     4  11  21  34  57  86 117 147 180 226 277 326
#     4  11  22  36  55  76 103 137 177 223 274 331
#     4   8  15  30  52  76 103 135 171 215 267 322
#     4   9  17  32  55  81 110 144 183 226 271 322
#     4  10  22  39  56  76 104 138 179 226 273 321
#
# _framework density 17.799323000000001
#
# number of rings (size 3 to 8) (size 9 to 14) (size 15 to 20)
#    0.000    2.167    1.667    3.000    0.000    3.667 
#    0.000    0.000    0.000    2.000    0.000    0.000 
#    0.000    0.000    0.000    0.000    0.000    0.000 
#
# Total GULP energy -267948.655771 kJ/mol
# GULP energy per Si atom -5582.263662 kJ/mol
# Density = 1.775881 g / cm^3
# Si number density = 17.799323 Si / 1000 Ang^3
#
#
#
# Elastic Constant Matrix: (Units=GPa)
#
#
# Indices 1 2 3 4 5 6 
#
# 1 30.3629 35.0445 36.5180 0.0000 0.0000 0.0000
# 2 35.0445 120.2812 76.9646 0.0000 0.0000 0.0000
# 3 36.5180 76.9646 130.3600 0.0000 0.0000 0.0000
# 4 0.0000 0.0000 0.0000 14.1709 0.0000 0.0000
# 5 0.0000 0.0000 0.0000 0.0000 22.2858 0.0000
# 6 0.0000 0.0000 0.0000 0.0000 0.0000 24.1664
#
#
#
# Elastic Compliance Matrix: (Units=1/GPa)
#
#
# Indices 1 2 3 4 5 6 
#
# 1 0.056486 -0.010177 -0.009815 0.000000 0.000000 0.000000
# 2 -0.010177 0.015195 -0.006120 0.000000 0.000000 0.000000
# 3 -0.009815 -0.006120 0.014034 0.000000 0.000000 0.000000
# 4 0.000000 0.000000 0.000000 0.070567 0.000000 0.000000
# 5 0.000000 0.000000 0.000000 0.000000 0.044872 0.000000
# 6 0.000000 0.000000 0.000000 0.000000 0.000000 0.041380
#
#
# Mechanical properties :
#
#
# Convention : Reuss Voigt Hill
#
# Bulk Modulus (GPa) = 29.85935 64.22870 47.04402
# Shear Modulus (GPa) = 16.34403 20.95641 18.65022
#
# Velocity S-wave (km/s) = 3.03353 3.43501 3.24049
# Velocity P-wave (km/s) = 5.39275 7.20386 6.36307
#
# Compressibility (1/GPa) = 0.03349035
#
# Stress axis : x y z
#
# Youngs Moduli (GPa) = 17.70351 65.81005 71.25564
#
# Poissons Ratio (x) = 0.66976 0.69937
# Poissons Ratio (y) = 0.18017 0.43611
# Poissons Ratio (z) = 0.17376 0.40278
#
# Static dielectric constant tensor:
#      x y z
#    x 1.596700 0.000000 0.000000 
#    y 0.000000 1.614440 0.000000 
#    z 0.000000 0.000000 1.574750 
# 
# From -- ./inp_files/27526.got.cif
#   From: 2010.05.17/outbox.cif.g08.bks.cpg/sg51_14_cif.got.tgz:27526.got - 2010.06.03 11:52:47.
