data_PCOD9406240
_publ_section_title
;
Structure prediction by ZEFSAII (Michael W. Deem and Ramdas Pophale) SiO2 
 PCOD9406240
Probable space group: P M M A
;
_chemical_formula_sum "Si O2"
_cell_formula_units_Z 48
_cell_length_a 8.690886
_cell_length_b 32.164054
_cell_length_c 9.427045
_cell_angle_alpha 90.000000
_cell_angle_beta 90.000000
_cell_angle_gamma 90.000000
_cell_volume 2635.180791
_symmetry_space_group_name_H-M "P M M A"
_symmetry_group_IT_number 51
_symmetry_cell_setting 'orthorhombic'
loop_
_space_group_symop_operation_xyz
x,y,z
1/2-x,-y,z
1/2+x,-y,-z
-x,y,-z
-x,-y,-z
1/2+x,y,-z
1/2-x,y,z
x,-y,z
loop_
_atom_site_type_symbol
_atom_site_label
_atom_site_fract_x
_atom_site_fract_y
_atom_site_fract_z
Si Si1 0.065734 0.750094 0.157636
Si Si2 0.433279 0.175454 0.658976
Si Si3 0.435107 0.909975 0.338809
Si Si4 0.934762 0.419681 0.341939
Si Si5 0.434219 0.654748 0.158330
Si Si6 0.935494 0.500000 0.158532
Si Si7 0.435215 0.000000 0.339804
O O1 0.250000 0.754705 0.157054
O O2 0.029566 0.702444 0.200303
O O3 0.991309 0.784646 0.256561
O O4 0.000000 0.755484 0.000000
O O5 0.500000 0.177979 0.500000
O O6 0.250000 0.174067 0.653327
O O7 0.495446 0.132087 0.724991
O O8 0.500000 0.910990 0.500000
O O9 0.250000 0.906551 0.342646
O O10 0.478921 0.955175 0.274776
O O11 0.750000 0.418970 0.347927
O O12 0.983024 0.459065 0.245849
O O13 0.000000 0.423500 0.500000
O O14 0.995021 0.378202 0.265960
O O15 0.250000 0.650250 0.153833
O O16 0.500000 0.647848 0.000000
O O17 0.750000 0.500000 0.150382
O O18 0.000000 0.500000 0.000000
O O19 0.500000 0.000000 0.500000
O O20 0.250000 0.000000 0.349122
#
# Coordination Sequence:
#
# PCOD9406240 Si02
#       7
#     8   8   8   8   8   4   4
#     4  10  21  38  58  80 106 138 176 219 265 317
#     4  11  21  33  50  74 104 138 175 217 265 316
#     4   9  15  25  40  62  93 128 166 209 258 311
#     4  11  23  39  59  85 117 150 186 227 274 321
#     4  10  21  38  60  84 110 141 179 221 267 319
#     4  10  23  40  60  86 114 150 191 230 271 320
#     4   8  14  22  36  58  87 124 163 204 253 308
#
# _framework density 18.215069
#
# number of rings (size 3 to 8) (size 9 to 14) (size 15 to 20)
#    0.000    2.000    0.000    5.250    0.000    6.000 
#    0.000    0.000    0.000    0.000    0.000    0.583 
#    0.000    0.000    0.000    0.000    0.000    0.000 
#
# Total GULP energy -267822.741586 kJ/mol
# GULP energy per Si atom -5579.640450 kJ/mol
# Density = 1.817361 g / cm^3
# Si number density = 18.215069 Si / 1000 Ang^3
#
#
#
# Elastic Constant Matrix: (Units=GPa)
#
#
# Indices 1 2 3 4 5 6 
#
# 1 88.4743 75.0738 40.4603 0.0000 0.0000 0.0000
# 2 75.0738 195.3808 95.7393 0.0000 0.0000 0.0000
# 3 40.4603 95.7393 86.0413 0.0000 0.0000 0.0000
# 4 0.0000 0.0000 0.0000 568.3832 0.0000 0.0000
# 5 0.0000 0.0000 0.0000 0.0000 29.4637 0.0000
# 6 0.0000 0.0000 0.0000 0.0000 0.0000 31.5239
#
#
#
# Elastic Compliance Matrix: (Units=1/GPa)
#
#
# Indices 1 2 3 4 5 6 
#
# 1 0.016868 -0.005706 -0.001583 0.000000 0.000000 0.000000
# 2 -0.005706 0.013185 -0.011988 0.000000 0.000000 0.000000
# 3 -0.001583 -0.011988 0.025706 0.000000 0.000000 0.000000
# 4 0.000000 0.000000 0.000000 0.001759 0.000000 0.000000
# 5 0.000000 0.000000 0.000000 0.000000 0.033940 0.000000
# 6 0.000000 0.000000 0.000000 0.000000 0.000000 0.031722
#
#
# Mechanical properties :
#
#
# Convention : Reuss Voigt Hill
#
# Bulk Modulus (GPa) = 58.12205 88.04922 73.08564
# Shear Modulus (GPa) = 29.85621 136.44903 83.15262
#
# Velocity S-wave (km/s) = 4.05296 8.66444 6.76384
# Velocity P-wave (km/s) = 7.34031 12.18772 10.06033
#
# Compressibility (1/GPa) = 0.01720517
#
# Stress axis : x y z
#
# Youngs Moduli (GPa) = 59.28285 75.84514 38.90143
#
# Poissons Ratio (x) = 0.43274 0.06160
# Poissons Ratio (y) = 0.33824 0.46634
# Poissons Ratio (z) = 0.09387 0.90922
#
# Static dielectric constant tensor:
#      x y z
#    x 1.608560 0.000000 0.000000 
#    y 0.000000 1.671520 0.000000 
#    z 0.000000 0.000000 1.582160 
# 
# From -- ./inp_files/6275.got.cif
#   From: 2010.05.17/outbox.cif.g08.bks.cpg/sg51_4_cif.got.tgz:6275.got - 2010.06.03 11:52:47.
