data_PCOD9406309
_publ_section_title
;
Structure prediction by ZEFSAII (Michael W. Deem and Ramdas Pophale) SiO2 
 PCOD9406309
Probable space group: P M M A
;
_chemical_formula_sum "Si O2"
_cell_formula_units_Z 40
_cell_length_a 13.856509
_cell_length_b 14.780126
_cell_length_c 9.888045
_cell_angle_alpha 90.000000
_cell_angle_beta 90.000000
_cell_angle_gamma 90.000000
_cell_volume 2025.080999
_symmetry_space_group_name_H-M "P M M A"
_symmetry_group_IT_number 51
_symmetry_cell_setting 'orthorhombic'
loop_
_space_group_symop_operation_xyz
x,y,z
1/2-x,-y,z
1/2+x,-y,-z
-x,y,-z
-x,-y,-z
1/2+x,y,-z
1/2-x,y,z
x,-y,z
loop_
_atom_site_type_symbol
_atom_site_label
_atom_site_fract_x
_atom_site_fract_y
_atom_site_fract_z
Si Si1 0.865593 0.223339 0.634939
Si Si2 0.134272 0.603000 0.832271
Si Si3 0.134195 0.403503 0.510657
Si Si4 0.133941 0.104225 0.625046
Si Si5 0.522009 0.213877 0.145142
O O1 0.750000 0.223387 0.652974
O O2 0.900155 0.317685 0.570087
O O3 0.888978 0.148541 0.520860
O O4 0.921495 0.216516 0.774255
O O5 0.250000 0.616557 0.854337
O O6 0.111064 0.500000 0.880319
O O7 0.117341 0.603211 0.670222
O O8 0.072154 0.688150 0.882146
O O9 0.250000 0.402725 0.497184
O O10 0.099392 0.500000 0.457150
O O11 0.250000 0.108533 0.636616
O O12 0.089950 0.160290 0.749433
O O13 0.103013 0.000000 0.629846
O O14 0.500000 0.170720 0.000000
#
# Coordination Sequence:
#
# PCOD9406309 Si02
#       5
#     8   8   8   8   8
#     4  10  21  38  59  87 119 153 198 248 294 344
#     4   9  18  35  59  85 117 159 204 247 291 343
#     4   8  14  28  54  84 110 141 189 246 292 329
#     4  10  22  43  69  90 111 146 195 249 301 353
#     4  12  25  37  57  89 127 161 196 235 291 358
#
# _framework density 19.752296000000001
#
# number of rings (size 3 to 8) (size 9 to 14) (size 15 to 20)
#    0.000    2.200    2.000    2.400    0.000    4.800 
#    0.000    2.000    0.000    4.800    0.000    0.000 
#    0.000    0.000    0.000    0.000    0.000    0.000 
#
# Total GULP energy -223199.862165 kJ/mol
# GULP energy per Si atom -5579.996554 kJ/mol
# Density = 1.970734 g / cm^3
# Si number density = 19.752296 Si / 1000 Ang^3
#
#
#
# Elastic Constant Matrix: (Units=GPa)
#
#
# Indices 1 2 3 4 5 6 
#
# 1 95.8396 28.5143 26.2086 0.0000 0.0000 0.0000
# 2 28.5143 98.9418 21.1081 0.0000 0.0000 0.0000
# 3 26.2086 21.1081 73.4215 0.0000 0.0000 0.0000
# 4 0.0000 0.0000 0.0000 -15.3796 0.0000 0.0000
# 5 0.0000 0.0000 0.0000 0.0000 8.2060 0.0000
# 6 0.0000 0.0000 0.0000 0.0000 0.0000 10.3204
#
#
#
# Elastic Compliance Matrix: (Units=1/GPa)
#
#
# Indices 1 2 3 4 5 6 
#
# 1 0.012233 -0.002763 -0.003572 0.000000 0.000000 0.000000
# 2 -0.002763 0.011392 -0.002289 0.000000 0.000000 0.000000
# 3 -0.003572 -0.002289 0.015553 0.000000 0.000000 0.000000
# 4 0.000000 0.000000 0.000000 -0.065021 0.000000 0.000000
# 5 0.000000 0.000000 0.000000 0.000000 0.121862 0.000000
# 6 0.000000 0.000000 0.000000 0.000000 0.000000 0.096896
#
#
# Mechanical properties :
#
#
# Convention : Reuss Voigt Hill
#
# Bulk Modulus (GPa) = 45.60109 46.65168 46.12639
# Shear Modulus (GPa) = 22.99140 13.45415 18.22278
#
# Velocity S-wave (km/s) = 3.41543 2.61270 3.04067
# Velocity P-wave (km/s) = 6.22014 5.72462 5.97751
#
# Compressibility (1/GPa) = 0.02192930
#
# Stress axis : x y z
#
# Youngs Moduli (GPa) = 81.74504 87.78407 64.29588
#
# Poissons Ratio (x) = 0.24258 0.22968
# Poissons Ratio (y) = 0.22589 0.14715
# Poissons Ratio (z) = 0.29202 0.20090
#
# Static dielectric constant tensor:
#      x y z
#    x 1.725410 0.000000 0.000000 
#    y 0.000000 1.727660 0.000000 
#    z 0.000000 0.000000 1.643400 
# 
# From -- ./inp_files/7905.got.cif
#   From: 2010.05.17/outbox.cif.g08.bks.cpg/sg51_4_cif.got.tgz:7905.got - 2010.06.03 11:52:47.
