data_PCOD9406254
_publ_section_title
;
Structure prediction by ZEFSAII (Michael W. Deem and Ramdas Pophale) SiO2 
 PCOD9406254
Probable space group: P M M A
;
_chemical_formula_sum "Si O2"
_cell_formula_units_Z 38
_cell_length_a 7.919493
_cell_length_b 17.785695
_cell_length_c 13.761872
_cell_angle_alpha 90.000000
_cell_angle_beta 90.000000
_cell_angle_gamma 90.000000
_cell_volume 1938.410412
_symmetry_space_group_name_H-M "P M M A"
_symmetry_group_IT_number 51
_symmetry_cell_setting 'orthorhombic'
loop_
_space_group_symop_operation_xyz
x,y,z
1/2-x,-y,z
1/2+x,-y,-z
-x,y,-z
-x,-y,-z
1/2+x,y,-z
1/2-x,y,z
x,-y,z
loop_
_atom_site_type_symbol
_atom_site_label
_atom_site_fract_x
_atom_site_fract_y
_atom_site_fract_z
Si Si1 0.947628 0.884280 0.310322
Si Si2 0.944883 0.270815 0.605460
Si Si3 0.949739 0.500000 0.887910
Si Si4 0.950357 0.342554 0.203899
Si Si5 0.750000 0.000000 0.642497
Si Si6 0.048587 0.188931 0.891006
O O1 0.750000 0.910910 0.314964
O O2 0.996355 0.867130 0.197175
O O3 0.953158 0.803553 0.363240
O O4 0.096224 0.935605 0.353266
O O5 0.750000 0.249243 0.602717
O O6 0.000000 0.297602 0.500000
O O7 0.972070 0.331124 0.690056
O O8 0.750000 0.500000 0.879386
O O9 0.015302 0.423476 0.840207
O O10 0.000000 0.500000 0.000000
O O11 0.750000 0.332771 0.213172
O O12 0.015672 0.272683 0.137525
O O13 0.250000 0.192292 0.889352
O O14 0.000000 0.167284 0.000000
#
# Coordination Sequence:
#
# PCOD9406254 Si02
#       6
#     8   8   4   8   2   8
#     4  10  22  40  60  87 120 155 198 253 301 368
#     4  11  21  39  66  93 119 157 204 249 299 357
#     4  12  24  38  57  88 131 170 206 252 306 358
#     4  10  21  38  58  89 121 162 202 253 303 356
#     4  12  22  40  64  86 116 164 192 238 332 356
#     4   9  19  33  57  83 113 151 203 250 294 349
#
# _framework density 19.603691000000001
#
# number of rings (size 3 to 8) (size 9 to 14) (size 15 to 20)
#    0.000    1.684    1.053    5.684    1.474    3.368 
#    0.000    1.579    0.000    0.000    0.000    0.000 
#    0.000    0.000    0.000    0.000    0.000    0.000 
#
# Total GULP energy -211572.099304 kJ/mol
# GULP energy per Si atom -5567.686824 kJ/mol
# Density = 1.955907 g / cm^3
# Si number density = 19.603691 Si / 1000 Ang^3
#
#
#
# Elastic Constant Matrix: (Units=GPa)
#
#
# Indices 1 2 3 4 5 6 
#
# 1 99.4111 11.5623 3.1872 0.0000 0.0000 0.0000
# 2 11.5623 63.9396 5.0258 0.0000 0.0000 0.0000
# 3 3.1872 5.0258 80.2620 0.0000 0.0000 0.0000
# 4 0.0000 0.0000 0.0000 56.5012 0.0000 0.0000
# 5 0.0000 0.0000 0.0000 0.0000 22.9892 0.0000
# 6 0.0000 0.0000 0.0000 0.0000 0.0000 28.7403
#
#
#
# Elastic Compliance Matrix: (Units=1/GPa)
#
#
# Indices 1 2 3 4 5 6 
#
# 1 0.010282 -0.001836 -0.000293 0.000000 0.000000 0.000000
# 2 -0.001836 0.016045 -0.000932 0.000000 0.000000 0.000000
# 3 -0.000293 -0.000932 0.012529 0.000000 0.000000 0.000000
# 4 0.000000 0.000000 0.000000 0.017699 0.000000 0.000000
# 5 0.000000 0.000000 0.000000 0.000000 0.043499 0.000000
# 6 0.000000 0.000000 0.000000 0.000000 0.000000 0.034794
#
#
# Mechanical properties :
#
#
# Convention : Reuss Voigt Hill
#
# Bulk Modulus (GPa) = 30.54960 31.46261 31.00611
# Shear Modulus (GPa) = 32.92021 36.56861 34.74441
#
# Velocity S-wave (km/s) = 4.10236 4.32371 4.21448
# Velocity P-wave (km/s) = 6.16900 6.40391 6.28755
#
# Compressibility (1/GPa) = 0.03273365
#
# Stress axis : x y z
#
# Youngs Moduli (GPa) = 97.25526 62.32445 79.81366
#
# Poissons Ratio (x) = 0.11445 0.02341
# Poissons Ratio (y) = 0.17859 0.07437
# Poissons Ratio (z) = 0.02853 0.05807
#
# Static dielectric constant tensor:
#      x y z
#    x 1.695950 0.000000 0.000000 
#    y 0.000000 1.644260 0.000000 
#    z 0.000000 0.000000 1.714930 
# 
# From -- ./inp_files/14039.got.cif
#   From: 2010.05.17/outbox.cif.g08.bks.cpg/sg51_8_cif.got.tgz:14039.got - 2010.06.03 11:52:47.
