data_PCOD9406418
_publ_section_title
;
Structure prediction by ZEFSAII (Michael W. Deem and Ramdas Pophale) SiO2 
 PCOD9406418
Probable space group: P M M A
;
_chemical_formula_sum "Si O2"
_cell_formula_units_Z 48
_cell_length_a 16.582595
_cell_length_b 16.890546
_cell_length_c 8.111392
_cell_angle_alpha 90.000000
_cell_angle_beta 90.000000
_cell_angle_gamma 90.000000
_cell_volume 2271.912352
_symmetry_space_group_name_H-M "P M M A"
_symmetry_group_IT_number 51
_symmetry_cell_setting 'orthorhombic'
loop_
_space_group_symop_operation_xyz
x,y,z
1/2-x,-y,z
1/2+x,-y,-z
-x,y,-z
-x,-y,-z
1/2+x,y,-z
1/2-x,y,z
x,-y,z
loop_
_atom_site_type_symbol
_atom_site_label
_atom_site_fract_x
_atom_site_fract_y
_atom_site_fract_z
Si Si1 0.336697 0.409066 0.801735
Si Si2 0.907051 0.813383 0.984448
Si Si3 0.347595 0.092592 0.696981
Si Si4 0.662648 0.655501 0.852865
Si Si5 0.006412 0.409546 0.305637
Si Si6 0.655118 0.904729 0.673657
O O1 0.250000 0.374020 0.747836
O O2 0.338655 0.500000 0.740951
O O3 0.421906 0.372095 0.752665
O O4 0.336320 0.407461 0.999163
O O5 0.851393 0.738208 0.945805
O O6 0.894697 0.869057 0.824261
O O7 0.881434 0.857467 0.151612
O O8 0.000000 0.788974 0.000000
O O9 0.250000 0.095211 0.702356
O O10 0.371012 0.119711 0.511573
O O11 0.371208 0.000000 0.715251
O O12 0.750000 0.654607 0.768113
O O13 0.585738 0.637871 0.742612
O O14 0.012824 0.500000 0.237965
O O15 0.000000 0.414837 0.500000
O O16 0.750000 0.883262 0.694956
O O17 0.650825 0.000000 0.677923
#
# Coordination Sequence:
#
# PCOD9406418 Si02
#       6
#     8   8   8   8   8   8
#     4   9  18  35  60  86 114 153 197 239 287 349
#     4  12  24  37  56  86 124 161 201 256 317 376
#     4   9  19  38  63  87 114 155 206 257 312 377
#     4  11  23  40  60  84 117 159 205 249 300 362
#     4  10  21  38  61  90 123 156 195 247 300 358
#     4   9  19  38  62  86 115 154 204 257 309 373
#
# _framework density 21.127576000000001
#
# number of rings (size 3 to 8) (size 9 to 14) (size 15 to 20)
#    0.000    2.000    0.000    5.000    0.000    6.333 
#    6.000    3.333    0.000    0.000    0.000    0.000 
#    0.000    0.000    0.000    0.000    0.000    0.000 
#
# Total GULP energy -267869.078391 kJ/mol
# GULP energy per Si atom -5580.605800 kJ/mol
# Density = 2.107949 g / cm^3
# Si number density = 21.127576 Si / 1000 Ang^3
#
#
#
# Elastic Constant Matrix: (Units=GPa)
#
#
# Indices 1 2 3 4 5 6 
#
# 1 164.4096 21.3813 48.0303 0.0000 0.0000 0.0000
# 2 21.3813 39.8627 22.6679 0.0000 0.0000 0.0000
# 3 48.0303 22.6679 95.8752 0.0000 0.0000 0.0000
# 4 0.0000 0.0000 0.0000 -0.8410 0.0000 0.0000
# 5 0.0000 0.0000 0.0000 0.0000 3694.2687 0.0000
# 6 0.0000 0.0000 0.0000 0.0000 0.0000 -57.1267
#
#
#
# Elastic Compliance Matrix: (Units=1/GPa)
#
#
# Indices 1 2 3 4 5 6 
#
# 1 0.007276 -0.002114 -0.003145 0.000000 0.000000 0.000000
# 2 -0.002114 0.029597 -0.005939 0.000000 0.000000 0.000000
# 3 -0.003145 -0.005939 0.013410 0.000000 0.000000 0.000000
# 4 0.000000 0.000000 0.000000 -1.189034 0.000000 0.000000
# 5 0.000000 0.000000 0.000000 0.000000 0.000271 0.000000
# 6 0.000000 0.000000 0.000000 0.000000 0.000000 -0.017505
#
#
# Mechanical properties :
#
#
# Convention : Reuss Voigt Hill
#
# Bulk Modulus (GPa) = 35.85876 53.81183 44.83529
# Shear Modulus (GPa) = -4.44724 741.13140 368.34208
#
# Velocity S-wave (km/s) = -1.45242 18.74967 13.21818
# Velocity P-wave (km/s) = 3.76784 22.23193 15.94452
#
# Compressibility (1/GPa) = 0.02788719
#
# Stress axis : x y z
#
# Youngs Moduli (GPa) = 137.43498 33.78721 74.57153
#
# Poissons Ratio (x) = 0.07143 0.23455
# Poissons Ratio (y) = 0.29057 0.44284
# Poissons Ratio (z) = 0.43227 0.20065
#
# Static dielectric constant tensor:
#      x y z
#    x 1.797940 0.000000 0.000000 
#    y 0.000000 1.797750 0.000000 
#    z 0.000000 0.000000 1.736890 
# 
# From -- ./inp_files/9564.got.cif
#   From: 2010.05.17/outbox.cif.g08.bks.cpg/sg51_5_cif.got.tgz:9564.got - 2010.06.03 11:52:47.
