data_PCOD9406347
_publ_section_title
;
Structure prediction by ZEFSAII (Michael W. Deem and Ramdas Pophale) SiO2 
 PCOD9406347
Probable space group: P M M A
;
_chemical_formula_sum "Si O2"
_cell_formula_units_Z 64
_cell_length_a 8.871241
_cell_length_b 14.929516
_cell_length_c 25.530662
_cell_angle_alpha 90.000000
_cell_angle_beta 90.000000
_cell_angle_gamma 90.000000
_cell_volume 3381.366006
_symmetry_space_group_name_H-M "P M M A"
_symmetry_group_IT_number 51
_symmetry_cell_setting 'orthorhombic'
loop_
_space_group_symop_operation_xyz
x,y,z
1/2-x,-y,z
1/2+x,-y,-z
-x,y,-z
-x,-y,-z
1/2+x,y,-z
1/2-x,y,z
x,-y,z
loop_
_atom_site_type_symbol
_atom_site_label
_atom_site_fract_x
_atom_site_fract_y
_atom_site_fract_z
Si Si1 0.924838 0.399962 0.424821
Si Si2 0.927800 0.232919 0.751020
Si Si3 0.929773 0.211273 0.553704
Si Si4 0.077726 0.398592 0.701385
Si Si5 0.430854 0.102352 0.945160
Si Si6 0.930422 0.254757 0.135416
Si Si7 0.429316 0.393688 0.056270
Si Si8 0.433769 0.103650 0.342144
O O1 0.750000 0.389407 0.441740
O O2 0.977096 0.500000 0.440290
O O3 0.925254 0.398430 0.361567
O O4 0.020668 0.315058 0.442116
O O5 0.750000 0.221010 0.759369
O O6 0.981548 0.156029 0.710470
O O7 0.962172 0.326705 0.722577
O O8 0.010087 0.239209 0.806364
O O9 0.750000 0.205679 0.551157
O O10 0.981625 0.158106 0.605814
O O11 0.000000 0.174442 0.500000
O O12 0.250000 0.375649 0.717409
O O13 0.046063 0.500000 0.719088
O O14 0.250000 0.103135 0.949674
O O15 0.473703 0.168229 0.898927
O O16 0.480037 0.000000 0.935813
O O17 0.500000 0.132741 0.000000
O O18 0.750000 0.263890 0.135887
O O19 0.000394 0.338536 0.104176
O O20 0.250000 0.379089 0.054363
O O21 0.457580 0.500000 0.062820
O O22 0.500000 0.366962 0.000000
O O23 0.250000 0.104861 0.342246
O O24 0.481765 0.000000 0.343208
#
# Coordination Sequence:
#
# PCOD9406347 Si02
#       8
#     8   8   8   8   8   8   8   8
#     4   9  18  34  57  84 115 150 185 224 272 329
#     4  11  22  37  58  84 112 147 190 235 284 338
#     4  11  22  37  59  87 117 151 189 236 287 339
#     4   9  18  34  57  82 110 145 181 221 272 328
#     4   9  19  36  57  81 110 143 180 224 276 332
#     4  11  23  37  56  83 116 153 191 237 286 336
#     4  10  21  38  60  86 118 157 200 245 291 341
#     4   9  20  40  62  83 111 147 188 236 291 349
#
# _framework density 18.927261000000001
#
# number of rings (size 3 to 8) (size 9 to 14) (size 15 to 20)
#    0.000    2.125    1.250    2.625    0.000    4.750 
#    0.000    1.250    0.000    5.250    0.000    0.000 
#    0.000    0.000    0.000    0.000    0.000    0.000 
#
# Total GULP energy -357259.261331 kJ/mol
# GULP energy per Si atom -5582.175958 kJ/mol
# Density = 1.888418 g / cm^3
# Si number density = 18.927261 Si / 1000 Ang^3
#
#
#
# Elastic Constant Matrix: (Units=GPa)
#
#
# Indices 1 2 3 4 5 6 
#
# 1 40.6009 39.8453 44.7989 0.0000 0.0000 0.0000
# 2 39.8453 107.7279 74.5188 0.0000 0.0000 0.0000
# 3 44.7989 74.5188 151.2222 0.0000 0.0000 0.0000
# 4 0.0000 0.0000 0.0000 1.6682 0.0000 0.0000
# 5 0.0000 0.0000 0.0000 0.0000 32.1429 0.0000
# 6 0.0000 0.0000 0.0000 0.0000 0.0000 74.2238
#
#
#
# Elastic Compliance Matrix: (Units=1/GPa)
#
#
# Indices 1 2 3 4 5 6 
#
# 1 0.043701 -0.010936 -0.007557 0.000000 0.000000 0.000000
# 2 -0.010936 0.016820 -0.005049 0.000000 0.000000 0.000000
# 3 -0.007557 -0.005049 0.011339 0.000000 0.000000 0.000000
# 4 0.000000 0.000000 0.000000 0.599454 0.000000 0.000000
# 5 0.000000 0.000000 0.000000 0.000000 0.031111 0.000000
# 6 0.000000 0.000000 0.000000 0.000000 0.000000 0.013473
#
#
# Mechanical properties :
#
#
# Convention : Reuss Voigt Hill
#
# Bulk Modulus (GPa) = 40.36086 68.65302 54.50694
# Shear Modulus (GPa) = 6.48305 30.96617 18.72461
#
# Velocity S-wave (km/s) = 1.85275 4.04921 3.14872
# Velocity P-wave (km/s) = 5.09386 7.62970 6.48690
#
# Compressibility (1/GPa) = 0.02477648
#
# Stress axis : x y z
#
# Youngs Moduli (GPa) = 22.88262 59.45312 88.18785
#
# Poissons Ratio (x) = 0.65020 0.66645
# Poissons Ratio (y) = 0.25025 0.44523
# Poissons Ratio (z) = 0.17293 0.30016
#
# Static dielectric constant tensor:
#      x y z
#    x 1.647110 0.000000 0.000000 
#    y 0.000000 1.656940 0.000000 
#    z 0.000000 0.000000 1.657550 
# 
# From -- ./inp_files/34996.got.cif
#   From: 2010.05.17/outbox.cif.g08.bks.cpg/sg51_18_cif.got.tgz:34996.got - 2010.06.03 11:52:47.
