data_PCOD9406299
_publ_section_title
;
Structure prediction by ZEFSAII (Michael W. Deem and Ramdas Pophale) SiO2 
 PCOD9406299
Probable space group: P M M A
;
_chemical_formula_sum "Si O2"
_cell_formula_units_Z 48
_cell_length_a 19.320465
_cell_length_b 7.800738
_cell_length_c 13.886644
_cell_angle_alpha 90.000000
_cell_angle_beta 90.000000
_cell_angle_gamma 90.000000
_cell_volume 2092.910074
_symmetry_space_group_name_H-M "P M M A"
_symmetry_group_IT_number 51
_symmetry_cell_setting 'orthorhombic'
loop_
_space_group_symop_operation_xyz
x,y,z
1/2-x,-y,z
1/2+x,-y,-z
-x,y,-z
-x,-y,-z
1/2+x,y,-z
1/2-x,y,z
x,-y,z
loop_
_atom_site_type_symbol
_atom_site_label
_atom_site_fract_x
_atom_site_fract_y
_atom_site_fract_z
Si Si1 0.332686 0.295807 0.779589
Si Si2 0.170378 0.707663 0.996047
Si Si3 0.534863 0.202681 0.694632
Si Si4 0.172206 0.300798 0.403407
Si Si5 0.592693 0.196146 0.411114
Si Si6 0.536237 0.798281 0.905446
O O1 0.250000 0.272300 0.771711
O O2 0.346169 0.500000 0.771416
O O3 0.352076 0.239006 0.887721
O O4 0.370289 0.202876 0.692698
O O5 0.250000 0.759470 0.010460
O O6 0.168400 0.500000 0.998163
O O7 0.117600 0.779635 0.073337
O O8 0.614272 0.222502 0.665625
O O9 0.483069 0.271577 0.612806
O O10 0.520018 0.276537 0.800612
O O11 0.519876 0.000000 0.698464
O O12 0.250000 0.227826 0.399456
O O13 0.176261 0.500000 0.378129
O O14 0.140654 0.286039 0.510704
O O15 0.585791 0.000000 0.445936
O O16 0.518401 0.000000 0.902413
O O17 0.500000 0.720474 0.000000
#
# Coordination Sequence:
#
# PCOD9406299 Si02
#       6
#     8   8   8   8   8   8
#     4   9  18  33  53  80 116 155 193 236 287 340
#     4   9  19  35  54  79 113 151 192 239 287 337
#     4  10  23  41  60  85 117 151 189 234 282 335
#     4  11  25  43  62  86 116 150 189 233 282 338
#     4  11  22  37  60  88 116 148 188 235 286 340
#     4  10  21  38  59  84 116 152 190 235 285 336
#
# _framework density 22.934574999999999
#
# number of rings (size 3 to 8) (size 9 to 14) (size 15 to 20)
#    0.000    2.000    0.000    4.000    0.000   11.000 
#    0.000    5.000    0.000    0.000    0.000    0.000 
#    0.000    0.000    0.000    0.000    0.000    0.000 
#
# Total GULP energy -268293.999052 kJ/mol
# GULP energy per Si atom -5589.458314 kJ/mol
# Density = 2.288237 g / cm^3
# Si number density = 22.934575 Si / 1000 Ang^3
#
#
#
# Elastic Constant Matrix: (Units=GPa)
#
#
# Indices 1 2 3 4 5 6 
#
# 1 99.6064 2.0740 28.2299 0.0000 0.0000 0.0000
# 2 2.0740 34.8721 -0.6787 0.0000 0.0000 0.0000
# 3 28.2299 -0.6787 87.0614 0.0000 0.0000 0.0000
# 4 0.0000 0.0000 0.0000 16.3289 0.0000 0.0000
# 5 0.0000 0.0000 0.0000 0.0000 35.5783 0.0000
# 6 0.0000 0.0000 0.0000 0.0000 0.0000 28.3278
#
#
#
# Elastic Compliance Matrix: (Units=1/GPa)
#
#
# Indices 1 2 3 4 5 6 
#
# 1 0.011074 -0.000729 -0.003596 0.000000 0.000000 0.000000
# 2 -0.000729 0.028729 0.000460 0.000000 0.000000 0.000000
# 3 -0.003596 0.000460 0.012656 0.000000 0.000000 0.000000
# 4 0.000000 0.000000 0.000000 0.061241 0.000000 0.000000
# 5 0.000000 0.000000 0.000000 0.000000 0.028107 0.000000
# 6 0.000000 0.000000 0.000000 0.000000 0.000000 0.035301
#
#
# Mechanical properties :
#
#
# Convention : Reuss Voigt Hill
#
# Bulk Modulus (GPa) = 22.35699 31.19890 26.77795
# Shear Modulus (GPa) = 25.03168 28.84131 26.93650
#
# Velocity S-wave (km/s) = 3.30728 3.55004 3.43081
# Velocity P-wave (km/s) = 4.93492 5.51694 5.23403
#
# Compressibility (1/GPa) = 0.04472873
#
# Stress axis : x y z
#
# Youngs Moduli (GPa) = 90.30180 34.80858 79.01459
#
# Poissons Ratio (x) = 0.02536 0.28417
# Poissons Ratio (y) = 0.06579 -0.03636
# Poissons Ratio (z) = 0.32477 -0.01602
#
# Static dielectric constant tensor:
#      x y z
#    x 1.883190 0.000000 0.000000 
#    y 0.000000 1.834210 0.000000 
#    z 0.000000 0.000000 1.859400 
# 
# From -- ./inp_files/24802.got.cif
#   From: 2010.05.17/outbox.cif.g08.bks.cpg/sg51_13_cif.got.tgz:24802.got - 2010.06.03 11:52:47.
