data_PCOD9406922
_publ_section_title
;
Structure prediction by ZEFSAII (Michael W. Deem and Ramdas Pophale) SiO2 
 PCOD9406922
Probable space group: P M M A
;
_chemical_formula_sum "Si O2"
_cell_formula_units_Z 44
_cell_length_a 8.896012
_cell_length_b 13.796536
_cell_length_c 19.294808
_cell_angle_alpha 90.000000
_cell_angle_beta 90.000000
_cell_angle_gamma 90.000000
_cell_volume 2368.131856
_symmetry_space_group_name_H-M "P M M A"
_symmetry_group_IT_number 51
_symmetry_cell_setting 'orthorhombic'
loop_
_space_group_symop_operation_xyz
x,y,z
1/2-x,-y,z
1/2+x,-y,-z
-x,y,-z
-x,-y,-z
1/2+x,y,-z
1/2-x,y,z
x,-y,z
loop_
_atom_site_type_symbol
_atom_site_label
_atom_site_fract_x
_atom_site_fract_y
_atom_site_fract_z
Si Si1 0.071606 0.889602 0.844285
Si Si2 0.928505 0.286521 0.924312
Si Si3 0.576198 0.386377 0.200420
Si Si4 0.070073 0.890977 0.678677
Si Si5 0.931783 0.500000 0.576157
Si Si6 0.570279 0.691990 0.662098
O O1 0.250000 0.870784 0.854127
O O2 0.041444 0.883815 0.761733
O O3 0.975819 0.814191 0.887766
O O4 0.041707 0.000000 0.865819
O O5 0.750000 0.296066 0.927822
O O6 0.000351 0.365475 0.872965
O O7 0.000000 0.292133 0.000000
O O8 0.750000 0.353977 0.199585
O O9 0.572201 0.500000 0.215674
O O10 0.488256 0.331943 0.260927
O O11 0.250000 0.885434 0.669735
O O12 0.995028 0.797677 0.643324
O O13 0.021519 0.000000 0.657000
O O14 0.750000 0.500000 0.573421
O O15 0.977405 0.400718 0.615713
O O16 0.000000 0.500000 0.500000
O O17 0.750000 0.696387 0.661498
#
# Coordination Sequence:
#
# PCOD9406922 Si02
#       6
#     8   8   8   8   4   8
#     4   9  18  34  55  79 110 145 187 240 291 345
#     4  12  25  39  56  77 107 147 191 244 299 355
#     4  11  23  39  60  84 110 146 192 237 289 355
#     4   9  18  33  56  87 121 157 199 245 291 347
#     4  10  24  42  62  94 133 164 197 238 286 342
#     4  11  21  36  60  92 126 157 194 244 293 345
#
# _framework density 18.580048000000001
#
# number of rings (size 3 to 8) (size 9 to 14) (size 15 to 20)
#    0.000    1.636    2.727    3.818    0.000    4.000 
#    0.000    1.818    0.000    0.545    0.000    0.000 
#    0.000    0.000    0.000    0.000    0.000    0.000 
#
# Total GULP energy -245671.468539 kJ/mol
# GULP energy per Si atom -5583.442467 kJ/mol
# Density = 1.853776 g / cm^3
# Si number density = 18.580048 Si / 1000 Ang^3
#
#
#
# Elastic Constant Matrix: (Units=GPa)
#
#
# Indices 1 2 3 4 5 6 
#
# 1 61.6585 41.7802 26.6259 0.0000 0.0000 0.0000
# 2 41.7802 150.3534 44.3942 0.0000 0.0000 0.0000
# 3 26.6259 44.3942 50.5063 0.0000 0.0000 0.0000
# 4 0.0000 0.0000 0.0000 16.3813 0.0000 0.0000
# 5 0.0000 0.0000 0.0000 0.0000 23.1748 0.0000
# 6 0.0000 0.0000 0.0000 0.0000 0.0000 33.3379
#
#
#
# Elastic Compliance Matrix: (Units=1/GPa)
#
#
# Indices 1 2 3 4 5 6 
#
# 1 0.022427 -0.003702 -0.008569 0.000000 0.000000 0.000000
# 2 -0.003702 0.009593 -0.006481 0.000000 0.000000 0.000000
# 3 -0.008569 -0.006481 0.030013 0.000000 0.000000 0.000000
# 4 0.000000 0.000000 0.000000 0.061045 0.000000 0.000000
# 5 0.000000 0.000000 0.000000 0.000000 0.043150 0.000000
# 6 0.000000 0.000000 0.000000 0.000000 0.000000 0.029996
#
#
# Mechanical properties :
#
#
# Convention : Reuss Voigt Hill
#
# Bulk Modulus (GPa) = 40.76609 54.23541 47.50075
# Shear Modulus (GPa) = 20.66919 24.56000 22.61460
#
# Velocity S-wave (km/s) = 3.33894 3.63967 3.49254
# Velocity P-wave (km/s) = 6.07068 6.84956 6.47185
#
# Compressibility (1/GPa) = 0.02453019
#
# Stress axis : x y z
#
# Youngs Moduli (GPa) = 44.58868 104.24050 33.31834
#
# Poissons Ratio (x) = 0.38588 0.28551
# Poissons Ratio (y) = 0.16506 0.21593
# Poissons Ratio (z) = 0.38209 0.67555
#
# Static dielectric constant tensor:
#      x y z
#    x 1.573130 0.000000 0.000000 
#    y 0.000000 1.684070 0.000000 
#    z 0.000000 0.000000 1.602010 
# 
# From -- ./inp_files/27319.got.cif
#   From: 2010.05.17/outbox.cif.g08.bks.cpg/sg51_14_cif.got.tgz:27319.got - 2010.06.03 11:52:47.
