data_PCOD9406553
_publ_section_title
;
Structure prediction by ZEFSAII (Michael W. Deem and Ramdas Pophale) SiO2 
 PCOD9406553
Probable space group: P M M A
;
_chemical_formula_sum "Si O2"
_cell_formula_units_Z 56
_cell_length_a 16.563240
_cell_length_b 31.202495
_cell_length_c 4.959776
_cell_angle_alpha 90.000000
_cell_angle_beta 90.000000
_cell_angle_gamma 90.000000
_cell_volume 2563.283723
_symmetry_space_group_name_H-M "P M M A"
_symmetry_group_IT_number 51
_symmetry_cell_setting 'orthorhombic'
loop_
_space_group_symop_operation_xyz
x,y,z
1/2-x,-y,z
1/2+x,-y,-z
-x,y,-z
-x,-y,-z
1/2+x,y,-z
1/2-x,y,z
x,-y,z
loop_
_atom_site_type_symbol
_atom_site_label
_atom_site_fract_x
_atom_site_fract_y
_atom_site_fract_z
Si Si1 0.656728 0.599095 0.397056
Si Si2 0.592364 0.450309 0.901911
Si Si3 0.345250 0.233252 0.896150
Si Si4 0.342633 0.048875 0.635292
Si Si5 0.443271 0.317964 0.754357
Si Si6 0.654903 0.822686 0.595509
Si Si7 0.587058 0.092936 0.862886
O O1 0.750000 0.603352 0.474599
O O2 0.607084 0.578169 0.640088
O O3 0.618841 0.644637 0.319816
O O4 0.646917 0.568064 0.141168
O O5 0.610445 0.500000 0.842982
O O6 0.500000 0.447423 0.000000
O O7 0.250000 0.241214 0.842400
O O8 0.396554 0.275168 0.839608
O O9 0.370068 0.194335 0.697229
O O10 0.353536 0.217164 0.200705
O O11 0.250000 0.052568 0.540280
O O12 0.399347 0.060160 0.383494
O O13 0.356642 0.000000 0.726054
O O14 0.355118 0.080266 0.888304
O O15 0.500000 0.309093 0.500000
O O16 0.500000 0.332521 0.000000
O O17 0.750000 0.834747 0.586815
O O18 0.606824 0.861897 0.722549
O O19 0.500000 0.091958 0.000000
#
# Coordination Sequence:
#
# PCOD9406553 Si02
#       7
#     8   8   8   8   8   8   8
#     4  12  25  42  66  95 130 170 217 270 319 381
#     4  11  24  43  67  95 130 171 214 265 328 391
#     4  10  22  41  64  91 121 158 205 255 308 366
#     4  11  24  43  66  90 122 168 217 261 314 386
#     4  12  25  42  65  92 126 166 208 257 316 378
#     4  10  21  39  64  90 123 164 203 248 305 376
#     4  12  25  40  63  96 130 164 207 265 323 376
#
# _framework density 21.846978
#
# number of rings (size 3 to 8) (size 9 to 14) (size 15 to 20)
#    0.000    0.857    0.000    7.714    0.000    8.571 
#    0.000    4.286    0.000    0.000    0.000    0.000 
#    0.000    0.000    0.000    0.000    0.000    0.000 
#
# Total GULP energy -313701.575780 kJ/mol
# GULP energy per Si atom -5601.813853 kJ/mol
# Density = 2.179725 g / cm^3
# Si number density = 21.846978 Si / 1000 Ang^3
#
#
#
# Elastic Constant Matrix: (Units=GPa)
#
#
# Indices 1 2 3 4 5 6 
#
# 1 55.9923 22.8349 -10.7317 0.0000 0.0000 0.0000
# 2 22.8349 79.6630 -11.4443 0.0000 0.0000 0.0000
# 3 -10.7317 -11.4443 72.4832 0.0000 0.0000 0.0000
# 4 0.0000 0.0000 0.0000 19.3075 0.0000 0.0000
# 5 0.0000 0.0000 0.0000 0.0000 258.8175 0.0000
# 6 0.0000 0.0000 0.0000 0.0000 0.0000 2.2435
#
#
#
# Elastic Compliance Matrix: (Units=1/GPa)
#
#
# Indices 1 2 3 4 5 6 
#
# 1 0.020549 -0.005580 0.002161 0.000000 0.000000 0.000000
# 2 -0.005580 0.014359 0.001441 0.000000 0.000000 0.000000
# 3 0.002161 0.001441 0.014344 0.000000 0.000000 0.000000
# 4 0.000000 0.000000 0.000000 0.051793 0.000000 0.000000
# 5 0.000000 0.000000 0.000000 0.000000 0.003864 0.000000
# 6 0.000000 0.000000 0.000000 0.000000 0.000000 0.445737
#
#
# Mechanical properties :
#
#
# Convention : Reuss Voigt Hill
#
# Bulk Modulus (GPa) = 22.07603 23.27294 22.67449
# Shear Modulus (GPa) = 8.77654 69.90566 39.34110
#
# Velocity S-wave (km/s) = 2.00649 5.66280 4.24814
# Velocity P-wave (km/s) = 3.93634 7.30974 5.87056
#
# Compressibility (1/GPa) = 0.04529799
#
# Stress axis : x y z
#
# Youngs Moduli (GPa) = 48.66303 69.64109 69.71631
#
# Poissons Ratio (x) = 0.38859 -0.15069
# Poissons Ratio (y) = 0.27153 -0.10046
# Poissons Ratio (z) = -0.10518 -0.10036
#
# Static dielectric constant tensor:
#      x y z
#    x 1.795110 0.000000 0.000000 
#    y 0.000000 1.771500 0.000000 
#    z 0.000000 0.000000 1.799650 
# 
# From -- ./inp_files/1479.got.cif
#   From: 2010.05.17/outbox.cif.g08.bks.cpg/sg51_1_cif.got.tgz:1479.got - 2010.06.03 11:52:47.
