data_PCOD9406542
_publ_section_title
;
Structure prediction by ZEFSAII (Michael W. Deem and Ramdas Pophale) SiO2 
 PCOD9406542
Probable space group: P M M A
;
_chemical_formula_sum "Si O2"
_cell_formula_units_Z 40
_cell_length_a 16.178404
_cell_length_b 8.447375
_cell_length_c 14.981566
_cell_angle_alpha 90.000000
_cell_angle_beta 90.000000
_cell_angle_gamma 90.000000
_cell_volume 2047.456399
_symmetry_space_group_name_H-M "P M M A"
_symmetry_group_IT_number 51
_symmetry_cell_setting 'orthorhombic'
loop_
_space_group_symop_operation_xyz
x,y,z
1/2-x,-y,z
1/2+x,-y,-z
-x,y,-z
-x,-y,-z
1/2+x,y,-z
1/2-x,y,z
x,-y,z
loop_
_atom_site_type_symbol
_atom_site_label
_atom_site_fract_x
_atom_site_fract_y
_atom_site_fract_z
Si Si1 0.585405 0.688979 0.401995
Si Si2 0.250000 0.807791 0.081917
Si Si3 0.250000 0.310961 0.285598
Si Si4 0.344378 0.690871 0.788185
Si Si5 0.910671 0.190253 0.030686
Si Si6 0.600797 0.812296 0.592871
O O1 0.593925 0.500000 0.412898
O O2 0.628563 0.739171 0.310590
O O3 0.621800 0.770734 0.490113
O O4 0.488591 0.731835 0.393551
O O5 0.250000 0.749627 0.183760
O O6 0.250000 0.000000 0.082583
O O7 0.332533 0.753981 0.028785
O O8 0.250000 0.500000 0.286002
O O9 0.169621 0.249754 0.339201
O O10 0.250000 0.737980 0.804281
O O11 0.350045 0.500000 0.792117
O O12 0.397548 0.763117 0.867064
O O13 0.911028 0.000000 0.023424
O O14 0.000000 0.250693 0.000000
O O15 0.592009 0.000000 0.602606
#
# Coordination Sequence:
#
# PCOD9406542 Si02
#       6
#     8   4   4   8   8   8
#     4  10  21  39  63  91 125 164 204 247 304 363
#     4  10  22  42  61  88 125 158 201 254 304 364
#     4  12  26  42  63  88 121 162 205 252 308 366
#     4  10  22  39  61  91 123 157 199 248 299 359
#     4  10  22  40  63  90 120 158 200 249 307 364
#     4  11  23  41  62  90 123 160 206 255 303 359
#
# _framework density 19.536435000000001
#
# number of rings (size 3 to 8) (size 9 to 14) (size 15 to 20)
#    0.000    1.600    1.000    4.500    4.200    2.800 
#    0.000    0.000    0.000    0.000    0.000    0.000 
#    0.000    0.000    0.000    0.000    0.000    0.000 
#
# Total GULP energy -223534.722874 kJ/mol
# GULP energy per Si atom -5588.368072 kJ/mol
# Density = 1.949197 g / cm^3
# Si number density = 19.536435 Si / 1000 Ang^3
#
#
#
# Elastic Constant Matrix: (Units=GPa)
#
#
# Indices 1 2 3 4 5 6 
#
# 1 70.6547 0.4622 29.0349 0.0000 0.0000 0.0000
# 2 0.4622 15.5442 -3.2762 0.0000 0.0000 0.0000
# 3 29.0349 -3.2762 93.0898 0.0000 0.0000 0.0000
# 4 0.0000 0.0000 0.0000 36.7493 0.0000 0.0000
# 5 0.0000 0.0000 0.0000 0.0000 38.3690 0.0000
# 6 0.0000 0.0000 0.0000 0.0000 0.0000 5.4625
#
#
#
# Elastic Compliance Matrix: (Units=1/GPa)
#
#
# Indices 1 2 3 4 5 6 
#
# 1 0.016272 -0.001565 -0.005130 0.000000 0.000000 0.000000
# 2 -0.001565 0.064964 0.002775 0.000000 0.000000 0.000000
# 3 -0.005130 0.002775 0.012440 0.000000 0.000000 0.000000
# 4 0.000000 0.000000 0.000000 0.027211 0.000000 0.000000
# 5 0.000000 0.000000 0.000000 0.000000 0.026063 0.000000
# 6 0.000000 0.000000 0.000000 0.000000 0.000000 0.183065
#
#
# Mechanical properties :
#
#
# Convention : Reuss Voigt Hill
#
# Bulk Modulus (GPa) = 11.65036 25.74783 18.69909
# Shear Modulus (GPa) = 13.64373 26.32068 19.98220
#
# Velocity S-wave (km/s) = 2.64554 3.67449 3.20162
# Velocity P-wave (km/s) = 3.91257 5.58663 4.82279
#
# Compressibility (1/GPa) = 0.08583426
#
# Stress axis : x y z
#
# Youngs Moduli (GPa) = 61.45584 15.39312 80.38511
#
# Poissons Ratio (x) = 0.02409 0.41240
# Poissons Ratio (y) = 0.09619 -0.22303
# Poissons Ratio (z) = 0.31529 -0.04271
#
# Static dielectric constant tensor:
#      x y z
#    x 1.683920 0.000000 0.000000 
#    y 0.000000 1.661560 0.000000 
#    z 0.000000 0.000000 1.659470 
# 
# From -- ./inp_files/23797.got.cif
#   From: 2010.05.17/outbox.cif.g08.bks.cpg/sg51_12_cif.got.tgz:23797.got - 2010.06.03 11:52:47.
