data_PCOD9406648
_publ_section_title
;
Structure prediction by ZEFSAII (Michael W. Deem and Ramdas Pophale) SiO2 
 PCOD9406648
Probable space group: P M M A
;
_chemical_formula_sum "Si O2"
_cell_formula_units_Z 20
_cell_length_a 8.218555
_cell_length_b 11.758856
_cell_length_c 9.194710
_cell_angle_alpha 90.000000
_cell_angle_beta 90.000000
_cell_angle_gamma 90.000000
_cell_volume 888.584174
_symmetry_space_group_name_H-M "P M M A"
_symmetry_group_IT_number 51
_symmetry_cell_setting 'orthorhombic'
loop_
_space_group_symop_operation_xyz
x,y,z
1/2-x,-y,z
1/2+x,-y,-z
-x,y,-z
-x,-y,-z
1/2+x,y,-z
1/2-x,y,z
x,-y,z
loop_
_atom_site_type_symbol
_atom_site_label
_atom_site_fract_x
_atom_site_fract_y
_atom_site_fract_z
Si Si1 0.945391 0.000000 0.331180
Si Si2 0.750000 0.366632 0.308845
Si Si3 0.750000 0.634371 0.960429
Si Si4 0.430723 0.755015 0.281353
O O1 0.000000 0.000000 0.500000
O O2 0.018310 0.885596 0.263170
O O3 0.750000 0.000000 0.321488
O O4 0.750000 0.500000 0.344260
O O5 0.582585 0.307072 0.355584
O O6 0.750000 0.351638 0.132497
O O7 0.750000 0.500000 0.930375
O O8 0.602838 0.691777 0.871217
O O9 0.250000 0.750549 0.352518
#
# Coordination Sequence:
#
# PCOD9406648 Si02
#       4
#     4   4   4   8
#     4  12  24  46  69  85 112 155 202 259 318 363
#     4  11  20  37  61  92 130 171 202 232 287 353
#     4   9  20  37  61  90 130 169 198 234 287 353
#     4  10  22  37  60  93 120 156 208 249 290 354
#
# _framework density 22.507715000000001
#
# number of rings (size 3 to 8) (size 9 to 14) (size 15 to 20)
#    1.200    0.400    2.000    4.200    0.000    3.200 
#    0.000    6.000    0.000    7.200    0.000    0.000 
#    0.000    0.000    0.000    0.000    0.000    0.000 
#
# Total GULP energy -111649.549189 kJ/mol
# GULP energy per Si atom -5582.477459 kJ/mol
# Density = 2.245649 g / cm^3
# Si number density = 22.507715 Si / 1000 Ang^3
#
#
#
# Elastic Constant Matrix: (Units=GPa)
#
#
# Indices 1 2 3 4 5 6 
#
# 1 257.6878 98.8368 29.0212 0.0000 0.0000 0.0000
# 2 98.8368 191.1255 52.9135 0.0000 0.0000 0.0000
# 3 29.0212 52.9135 78.6034 0.0000 0.0000 0.0000
# 4 0.0000 0.0000 0.0000 -113.8122 0.0000 0.0000
# 5 0.0000 0.0000 0.0000 0.0000 34.2856 0.0000
# 6 0.0000 0.0000 0.0000 0.0000 0.0000 -8.0976
#
#
#
# Elastic Compliance Matrix: (Units=1/GPa)
#
#
# Indices 1 2 3 4 5 6 
#
# 1 0.004842 -0.002469 -0.000126 0.000000 0.000000 0.000000
# 2 -0.002469 0.007690 -0.004265 0.000000 0.000000 0.000000
# 3 -0.000126 -0.004265 0.015639 0.000000 0.000000 0.000000
# 4 0.000000 0.000000 0.000000 -0.008786 0.000000 0.000000
# 5 0.000000 0.000000 0.000000 0.000000 0.029167 0.000000
# 6 0.000000 0.000000 0.000000 0.000000 0.000000 -0.123493
#
#
# Mechanical properties :
#
#
# Convention : Reuss Voigt Hill
#
# Bulk Modulus (GPa) = 69.19467 98.77328 83.98398
# Shear Modulus (GPa) = -88.64370 5.58485 -41.52943
#
# Velocity S-wave (km/s) = -6.28245 1.57692 -4.30015
# Velocity P-wave (km/s) = 4.67078 6.87714 3.56923
#
# Compressibility (1/GPa) = 0.01445198
#
# Stress axis : x y z
#
# Youngs Moduli (GPa) = 206.53325 130.04300 63.94087
#
# Poissons Ratio (x) = 0.32109 0.00803
# Poissons Ratio (y) = 0.50995 0.27270
# Poissons Ratio (z) = 0.02592 0.55462
#
# Static dielectric constant tensor:
#      x y z
#    x 1.882570 0.000000 0.000000 
#    y 0.000000 1.768410 0.000000 
#    z 0.000000 0.000000 1.838560 
# 
# From -- ./inp_files/4380.got.cif
#   From: 2010.05.17/outbox.cif.g08.bks.cpg/sg51_3_cif.got.tgz:4380.got - 2010.06.03 11:52:47.
