data_PCOD9406370
_publ_section_title
;
Structure prediction by ZEFSAII (Michael W. Deem and Ramdas Pophale) SiO2 
 PCOD9406370
Probable space group: P M M A
;
_chemical_formula_sum "Si O2"
_cell_formula_units_Z 48
_cell_length_a 9.476921
_cell_length_b 7.542231
_cell_length_c 31.627413
_cell_angle_alpha 90.000000
_cell_angle_beta 90.000000
_cell_angle_gamma 90.000000
_cell_volume 2260.636627
_symmetry_space_group_name_H-M "P M M A"
_symmetry_group_IT_number 51
_symmetry_cell_setting 'orthorhombic'
loop_
_space_group_symop_operation_xyz
x,y,z
1/2-x,-y,z
1/2+x,-y,-z
-x,y,-z
-x,-y,-z
1/2+x,y,-z
1/2-x,y,z
x,-y,z
loop_
_atom_site_type_symbol
_atom_site_label
_atom_site_fract_x
_atom_site_fract_y
_atom_site_fract_z
Si Si1 0.408818 0.291805 0.881165
Si Si2 0.092157 0.791543 0.038276
Si Si3 0.087619 0.783852 0.295765
Si Si4 0.587229 0.216682 0.541280
Si Si5 0.087889 0.216877 0.623569
Si Si6 0.411032 0.213896 0.200434
O O1 0.250000 0.217040 0.882338
O O2 0.399293 0.500000 0.889253
O O3 0.508910 0.219712 0.917843
O O4 0.481322 0.267353 0.835757
O O5 0.250000 0.715938 0.041282
O O6 0.107745 0.000000 0.029018
O O7 0.000000 0.713607 0.000000
O O8 0.250000 0.732164 0.304399
O O9 0.051329 0.727043 0.248023
O O10 0.983883 0.724681 0.332682
O O11 0.085302 0.000000 0.295844
O O12 0.500000 0.272463 0.500000
O O13 0.750000 0.274122 0.540293
O O14 0.506277 0.272376 0.583687
O O15 0.588551 0.000000 0.541212
O O16 0.250000 0.273388 0.619739
O O17 0.087854 0.000000 0.623619
O O18 0.250000 0.273326 0.191237
O O19 0.408181 0.000000 0.200981
#
# Coordination Sequence:
#
# PCOD9406370 Si02
#       6
#     8   8   8   8   8   8
#     4  11  24  38  52  75 107 140 172 205 244 291
#     4  10  21  38  61  86 109 135 169 207 247 291
#     4   8  14  25  40  58  80 105 136 179 230 279
#     4   9  15  21  28  38  56  86 125 169 217 268
#     4   9  15  21  30  46  68  94 128 171 218 269
#     4   9  18  33  53  75  97 124 162 206 250 296
#
# _framework density 21.232958
#
# number of rings (size 3 to 8) (size 9 to 14) (size 15 to 20)
#    0.000    2.667    0.000    3.500    0.000    9.667 
#    0.000    1.667    0.000    0.000    0.000    0.000 
#    0.000    0.000    0.000    0.000    0.000    0.833 
#
# Total GULP energy -268056.938439 kJ/mol
# GULP energy per Si atom -5584.519551 kJ/mol
# Density = 2.118463 g / cm^3
# Si number density = 21.232958 Si / 1000 Ang^3
#
#
#
# Elastic Constant Matrix: (Units=GPa)
#
#
# Indices 1 2 3 4 5 6 
#
# 1 220.1813 4.3615 134.7875 0.0000 0.0000 0.0000
# 2 4.3615 50.0185 -4.9594 0.0000 0.0000 0.0000
# 3 134.7875 -4.9594 166.2359 0.0000 0.0000 0.0000
# 4 0.0000 0.0000 0.0000 59.0427 0.0000 0.0000
# 5 0.0000 0.0000 0.0000 0.0000 42.5523 0.0000
# 6 0.0000 0.0000 0.0000 0.0000 0.0000 55.7068
#
#
#
# Elastic Compliance Matrix: (Units=1/GPa)
#
#
# Indices 1 2 3 4 5 6 
#
# 1 0.009134 -0.001535 -0.007452 0.000000 0.000000 0.000000
# 2 -0.001535 0.020310 0.001851 0.000000 0.000000 0.000000
# 3 -0.007452 0.001851 0.012113 0.000000 0.000000 0.000000
# 4 0.000000 0.000000 0.000000 0.016937 0.000000 0.000000
# 5 0.000000 0.000000 0.000000 0.000000 0.023500 0.000000
# 6 0.000000 0.000000 0.000000 0.000000 0.000000 0.017951
#
#
# Mechanical properties :
#
#
# Convention : Reuss Voigt Hill
#
# Bulk Modulus (GPa) = 36.65137 78.31278 57.48208
# Shear Modulus (GPa) = 40.54752 51.61009 46.07881
#
# Velocity S-wave (km/s) = 4.37470 4.93552 4.66355
# Velocity P-wave (km/s) = 6.54342 8.33318 7.49193
#
# Compressibility (1/GPa) = 0.02728411
#
# Stress axis : x y z
#
# Youngs Moduli (GPa) = 109.48367 49.23686 82.55779
#
# Poissons Ratio (x) = 0.07559 0.61519
# Poissons Ratio (y) = 0.16809 -0.15280
# Poissons Ratio (z) = 0.81584 -0.09113
#
# Static dielectric constant tensor:
#      x y z
#    x 1.742730 0.000000 0.000000 
#    y 0.000000 1.798440 0.000000 
#    z 0.000000 0.000000 1.721850 
# 
# From -- ./inp_files/37022.got.cif
#   From: 2010.05.17/outbox.cif.g08.bks.cpg/sg51_19_cif.got.tgz:37022.got - 2010.06.03 11:52:47.
