data_PCOD9406034
_publ_section_title
;
Structure prediction by ZEFSAII (Michael W. Deem and Ramdas Pophale) SiO2 
 PCOD9406034
Probable space group: P M M A
;
_chemical_formula_sum "Si O2"
_cell_formula_units_Z 64
_cell_length_a 8.556893
_cell_length_b 20.868987
_cell_length_c 19.155707
_cell_angle_alpha 90.000000
_cell_angle_beta 90.000000
_cell_angle_gamma 90.000000
_cell_volume 3420.705260
_symmetry_space_group_name_H-M "P M M A"
_symmetry_group_IT_number 51
_symmetry_cell_setting 'orthorhombic'
loop_
_space_group_symop_operation_xyz
x,y,z
1/2-x,-y,z
1/2+x,-y,-z
-x,y,-z
-x,-y,-z
1/2+x,y,-z
1/2-x,y,z
x,-y,z
loop_
_atom_site_type_symbol
_atom_site_label
_atom_site_fract_x
_atom_site_fract_y
_atom_site_fract_z
Si Si1 0.561467 0.573692 0.831868
Si Si2 0.937229 0.073680 0.577250
Si Si3 0.562965 0.311694 0.421625
Si Si4 0.563100 0.310648 0.078147
Si Si5 0.561225 0.073031 0.077109
Si Si6 0.061390 0.573733 0.328704
Si Si7 0.940736 0.809463 0.171735
Si Si8 0.439022 0.188799 0.668127
O O1 0.750000 0.577036 0.835101
O O2 0.516430 0.500000 0.846581
O O3 0.490512 0.624072 0.884994
O O4 0.515152 0.588341 0.751585
O O5 0.750000 0.076698 0.576219
O O6 0.000000 0.089837 0.500000
O O7 0.002606 0.123947 0.632382
O O8 0.984423 0.000000 0.592323
O O9 0.500000 0.309539 0.500000
O O10 0.750000 0.310563 0.423708
O O11 0.508487 0.375342 0.381598
O O12 0.508583 0.249720 0.377564
O O13 0.750000 0.308822 0.075793
O O14 0.508012 0.251214 0.125928
O O15 0.500000 0.305431 0.000000
O O16 0.750000 0.073856 0.075142
O O17 0.509321 0.125248 0.133426
O O18 0.511236 0.000000 0.092969
O O19 0.500000 0.089656 0.000000
O O20 0.250000 0.576657 0.331869
O O21 0.015771 0.500000 0.343641
O O22 0.750000 0.809068 0.172315
O O23 0.992508 0.805591 0.251798
O O24 0.250000 0.188368 0.668012
#
# Coordination Sequence:
#
# PCOD9406034 Si02
#       8
#     8   8   8   8   8   8   8   8
#     4   9  19  37  59  82 109 140 175 217 266 321
#     4  10  21  37  57  82 111 143 180 221 267 320
#     4  11  23  37  55  80 110 144 182 224 270 322
#     4  11  22  36  55  79 109 143 181 225 269 317
#     4   9  17  31  52  76 103 137 174 211 254 305
#     4   9  19  37  60  84 110 141 178 221 270 325
#     4   9  19  35  54  78 107 138 176 220 264 315
#     4  10  21  37  57  81 108 140 180 224 270 321
#
# _framework density 18.709592000000001
#
# number of rings (size 3 to 8) (size 9 to 14) (size 15 to 20)
#    0.000    2.250    0.000    3.375    0.000    5.750 
#    0.000    5.000    0.000    1.500    0.000    0.000 
#    0.000    0.000    0.000    0.000    0.000    0.000 
#
# Total GULP energy -357394.656501 kJ/mol
# GULP energy per Si atom -5584.291508 kJ/mol
# Density = 1.866701 g / cm^3
# Si number density = 18.709592 Si / 1000 Ang^3
#
#
#
# Elastic Constant Matrix: (Units=GPa)
#
#
# Indices 1 2 3 4 5 6 
#
# 1 19.0256 28.2716 34.9444 0.0000 0.0000 0.0000
# 2 28.2716 134.6062 129.4413 0.0000 0.0000 0.0000
# 3 34.9444 129.4413 196.5231 0.0000 0.0000 0.0000
# 4 0.0000 0.0000 0.0000 41.8002 0.0000 0.0000
# 5 0.0000 0.0000 0.0000 0.0000 15.1504 0.0000
# 6 0.0000 0.0000 0.0000 0.0000 0.0000 25.7427
#
#
#
# Elastic Compliance Matrix: (Units=1/GPa)
#
#
# Indices 1 2 3 4 5 6 
#
# 1 0.081617 -0.008691 -0.008788 0.000000 0.000000 0.000000
# 2 -0.008691 0.021189 -0.012411 0.000000 0.000000 0.000000
# 3 -0.008788 -0.012411 0.014826 0.000000 0.000000 0.000000
# 4 0.000000 0.000000 0.000000 0.023923 0.000000 0.000000
# 5 0.000000 0.000000 0.000000 0.000000 0.066005 0.000000
# 6 0.000000 0.000000 0.000000 0.000000 0.000000 0.038846
#
#
# Mechanical properties :
#
#
# Convention : Reuss Voigt Hill
#
# Bulk Modulus (GPa) = 17.28571 81.71884 49.50228
# Shear Modulus (GPa) = 15.36235 27.03850 21.20043
#
# Velocity S-wave (km/s) = 2.86858 3.80566 3.36985
# Velocity P-wave (km/s) = 4.49786 7.94249 6.45421
#
# Compressibility (1/GPa) = 0.05785124
#
# Stress axis : x y z
#
# Youngs Moduli (GPa) = 12.25235 47.19322 67.45022
#
# Poissons Ratio (x) = 0.41018 0.59275
# Poissons Ratio (y) = 0.10649 0.83713
# Poissons Ratio (z) = 0.10767 0.58572
#
# Static dielectric constant tensor:
#      x y z
#    x 1.640260 0.000000 0.000000 
#    y 0.000000 1.637970 0.000000 
#    z 0.000000 0.000000 1.614660 
# 
# From -- ./inp_files/32313.got.cif
#   From: 2010.05.17/outbox.cif.g08.bks.cpg/sg51_17_cif.got.tgz:32313.got - 2010.06.03 11:52:47.
