data_PCOD9406723
_publ_section_title
;
Structure prediction by ZEFSAII (Michael W. Deem and Ramdas Pophale) SiO2 
 PCOD9406723
Probable space group: P M M A
;
_chemical_formula_sum "Si O2"
_cell_formula_units_Z 64
_cell_length_a 15.530005
_cell_length_b 8.362057
_cell_length_c 24.332589
_cell_angle_alpha 90.000000
_cell_angle_beta 90.000000
_cell_angle_gamma 90.000000
_cell_volume 3159.897823
_symmetry_space_group_name_H-M "P M M A"
_symmetry_group_IT_number 51
_symmetry_cell_setting 'orthorhombic'
loop_
_space_group_symop_operation_xyz
x,y,z
1/2-x,-y,z
1/2+x,-y,-z
-x,y,-z
-x,-y,-z
1/2+x,y,-z
1/2-x,y,z
x,-y,z
loop_
_atom_site_type_symbol
_atom_site_label
_atom_site_fract_x
_atom_site_fract_y
_atom_site_fract_z
Si Si1 0.062905 0.183285 0.605214
Si Si2 0.151016 0.688306 0.500626
Si Si3 0.617957 0.314715 0.622721
Si Si4 0.485498 0.687903 0.795122
Si Si5 0.489683 0.808656 0.918048
Si Si6 0.149145 0.804776 0.008253
Si Si7 0.344769 0.188123 0.259666
Si Si8 0.846664 0.691828 0.293452
O O1 0.092440 0.219385 0.543526
O O2 0.137250 0.222904 0.648576
O O3 0.984800 0.297678 0.621994
O O4 0.035200 0.000000 0.610661
O O5 0.250000 0.700295 0.518598
O O6 0.126386 0.500000 0.501023
O O7 0.145504 0.743801 0.437576
O O8 0.643902 0.500000 0.628103
O O9 0.651007 0.219897 0.675091
O O10 0.470124 0.500000 0.800974
O O11 0.479858 0.763726 0.854944
O O12 0.578916 0.718286 0.769265
O O13 0.415915 0.749799 0.751036
O O14 0.582501 0.754386 0.943031
O O15 0.490893 0.000000 0.923304
O O16 0.407128 0.755023 0.954511
O O17 0.250000 0.751226 0.010455
O O18 0.152817 0.000000 0.008795
O O19 0.250000 0.235918 0.239847
O O20 0.356744 0.000000 0.249376
O O21 0.750000 0.720300 0.273839
O O22 0.857179 0.500000 0.301514
#
# Coordination Sequence:
#
# PCOD9406723 Si02
#       8
#     8   8   8   8   8   8   8   8
#     4  12  24  37  57  85 115 147 189 242 300 357
#     4  10  22  39  58  81 110 146 189 236 290 359
#     4  11  22  39  62  85 111 149 194 238 292 359
#     4  11  23  39  60  86 120 161 201 244 294 352
#     4   9  18  33  56  85 117 153 197 247 289 337
#     4   8  15  31  56  85 117 156 198 239 290 345
#     4  11  24  41  62  88 118 153 194 246 303 355
#     4  10  22  41  62  82 110 154 202 246 298 359
#
# _framework density 20.253819
#
# number of rings (size 3 to 8) (size 9 to 14) (size 15 to 20)
#    0.000    1.750    1.250    4.125    0.000    7.500 
#    0.000    2.500    0.000    0.750    0.000    0.000 
#    0.000    0.000    0.000    0.000    0.000    0.000 
#
# Total GULP energy -357383.346986 kJ/mol
# GULP energy per Si atom -5584.114797 kJ/mol
# Density = 2.020772 g / cm^3
# Si number density = 20.253819 Si / 1000 Ang^3
#
#
#
# Elastic Constant Matrix: (Units=GPa)
#
#
# Indices 1 2 3 4 5 6 
#
# 1 101.9124 7.9462 15.8871 0.0000 0.0000 0.0000
# 2 7.9462 13.6069 5.6200 0.0000 0.0000 0.0000
# 3 15.8871 5.6200 82.9246 0.0000 0.0000 0.0000
# 4 0.0000 0.0000 0.0000 36.6030 0.0000 0.0000
# 5 0.0000 0.0000 0.0000 0.0000 34.1185 0.0000
# 6 0.0000 0.0000 0.0000 0.0000 0.0000 12.9409
#
#
#
# Elastic Compliance Matrix: (Units=1/GPa)
#
#
# Indices 1 2 3 4 5 6 
#
# 1 0.010493 -0.005450 -0.001641 0.000000 0.000000 0.000000
# 2 -0.005450 0.078439 -0.004272 0.000000 0.000000 0.000000
# 3 -0.001641 -0.004272 0.012663 0.000000 0.000000 0.000000
# 4 0.000000 0.000000 0.000000 0.027320 0.000000 0.000000
# 5 0.000000 0.000000 0.000000 0.000000 0.029310 0.000000
# 6 0.000000 0.000000 0.000000 0.000000 0.000000 0.077274
#
#
# Mechanical properties :
#
#
# Convention : Reuss Voigt Hill
#
# Bulk Modulus (GPa) = 12.67915 28.59449 20.63682
# Shear Modulus (GPa) = 17.57377 27.99853 22.78615
#
# Velocity S-wave (km/s) = 2.94883 3.72207 3.35779
# Velocity P-wave (km/s) = 4.22704 5.71144 5.02436
#
# Compressibility (1/GPa) = 0.07886961
#
# Stress axis : x y z
#
# Youngs Moduli (GPa) = 95.30065 12.74873 78.96998
#
# Poissons Ratio (x) = 0.06948 0.12959
# Poissons Ratio (y) = 0.51939 0.33735
# Poissons Ratio (z) = 0.15638 0.05446
#
# Static dielectric constant tensor:
#      x y z
#    x 1.744790 0.000000 0.000000 
#    y 0.000000 1.694060 0.000000 
#    z 0.000000 0.000000 1.698560 
# 
# From -- ./inp_files/35638.got.cif
#   From: 2010.05.17/outbox.cif.g08.bks.cpg/sg51_18_cif.got.tgz:35638.got - 2010.06.03 11:52:47.
