data_PCOD9406864
_publ_section_title
;
Structure prediction by ZEFSAII (Michael W. Deem and Ramdas Pophale) SiO2 
 PCOD9406864
Probable space group: P M M A
;
_chemical_formula_sum "Si O2"
_cell_formula_units_Z 58
_cell_length_a 23.860220
_cell_length_b 8.005769
_cell_length_c 14.683175
_cell_angle_alpha 90.000000
_cell_angle_beta 90.000000
_cell_angle_gamma 90.000000
_cell_volume 2804.771420
_symmetry_space_group_name_H-M "P M M A"
_symmetry_group_IT_number 51
_symmetry_cell_setting 'orthorhombic'
loop_
_space_group_symop_operation_xyz
x,y,z
1/2-x,-y,z
1/2+x,-y,-z
-x,y,-z
-x,-y,-z
1/2+x,y,-z
1/2-x,y,z
x,-y,z
loop_
_atom_site_type_symbol
_atom_site_label
_atom_site_fract_x
_atom_site_fract_y
_atom_site_fract_z
Si Si1 0.887760 0.201077 0.380033
Si Si2 0.423899 0.701455 0.906011
Si Si3 0.185602 0.200554 0.789576
Si Si4 0.750000 0.000000 0.522769
Si Si5 0.506107 0.302612 0.606476
Si Si6 0.611416 0.186703 0.711094
Si Si7 0.669633 0.684084 0.547397
Si Si8 0.550028 0.701281 0.887258
O O1 0.837765 0.248391 0.310756
O O2 0.947554 0.262417 0.344314
O O3 0.880587 0.295379 0.475570
O O4 0.889040 0.000000 0.389160
O O5 0.423910 0.500000 0.901213
O O6 0.366038 0.756049 0.857601
O O7 0.485554 0.759057 0.869959
O O8 0.428313 0.751175 0.012611
O O9 0.250000 0.262786 0.806265
O O10 0.189235 0.000000 0.789627
O O11 0.703243 0.850589 0.524080
O O12 0.500000 0.260152 0.500000
O O13 0.518930 0.500000 0.615679
O O14 0.554623 0.197518 0.652643
O O15 0.652906 0.300785 0.652915
O O16 0.592921 0.240712 0.810707
O O17 0.634436 0.000000 0.711976
O O18 0.692717 0.500000 0.531780
O O19 0.547941 0.500000 0.886049
#
# Coordination Sequence:
#
# PCOD9406864 Si02
#       8
#     8   8   8   2   8   8   8   8
#     4  11  22  38  60  89 125 167 214 263 311 374
#     4   9  19  38  62  92 123 156 204 260 316 383
#     4  10  23  39  59  84 124 167 207 257 316 373
#     4  12  26  48  64  88 120 160 218 274 314 374
#     4  11  22  35  55  85 125 167 205 249 312 381
#     4  12  23  38  60  93 126 163 207 259 314 380
#     4  12  25  43  67  90 122 166 212 265 322 371
#     4   9  19  37  64  92 124 159 196 256 327 389
#
# _framework density 20.679048000000002
#
# number of rings (size 3 to 8) (size 9 to 14) (size 15 to 20)
#    0.000    1.379    2.759    3.931    0.966    5.241 
#    0.000    1.379    1.517    0.000    0.000    0.000 
#    0.000    0.000    0.000    0.000    0.000    0.000 
#
# Total GULP energy -323024.696314 kJ/mol
# GULP energy per Si atom -5569.391316 kJ/mol
# Density = 2.063198 g / cm^3
# Si number density = 20.679048 Si / 1000 Ang^3
#
#
#
# Elastic Constant Matrix: (Units=GPa)
#
#
# Indices 1 2 3 4 5 6 
#
# 1 73.6878 8.6156 7.3903 0.0000 0.0000 0.0000
# 2 8.6156 82.8943 9.2091 0.0000 0.0000 0.0000
# 3 7.3903 9.2091 84.5135 0.0000 0.0000 0.0000
# 4 0.0000 0.0000 0.0000 23.3959 0.0000 0.0000
# 5 0.0000 0.0000 0.0000 0.0000 771.3161 0.0000
# 6 0.0000 0.0000 0.0000 0.0000 0.0000 52.1523
#
#
#
# Elastic Compliance Matrix: (Units=1/GPa)
#
#
# Indices 1 2 3 4 5 6 
#
# 1 0.013832 -0.001319 -0.001066 0.000000 0.000000 0.000000
# 2 -0.001319 0.012337 -0.001229 0.000000 0.000000 0.000000
# 3 -0.001066 -0.001229 0.012060 0.000000 0.000000 0.000000
# 4 0.000000 0.000000 0.000000 0.042743 0.000000 0.000000
# 5 0.000000 0.000000 0.000000 0.000000 0.001296 0.000000
# 6 0.000000 0.000000 0.000000 0.000000 0.000000 0.019175
#
#
# Mechanical properties :
#
#
# Convention : Reuss Voigt Hill
#
# Bulk Modulus (GPa) = 32.25733 32.39173 32.32453
# Shear Modulus (GPa) = 42.01546 183.76490 112.89018
#
# Velocity S-wave (km/s) = 4.51243 9.43706 7.39663
# Velocity P-wave (km/s) = 6.54081 11.59492 9.41341
#
# Compressibility (1/GPa) = 0.03100070
#
# Stress axis : x y z
#
# Youngs Moduli (GPa) = 72.29661 81.05571 82.92188
#
# Poissons Ratio (x) = 0.10693 0.08838
# Poissons Ratio (y) = 0.09537 0.10191
# Poissons Ratio (z) = 0.07705 0.09962
#
# Static dielectric constant tensor:
#      x y z
#    x 1.782690 0.000000 0.000000 
#    y 0.000000 1.722780 0.000000 
#    z 0.000000 0.000000 1.773220 
# 
# From -- ./inp_files/26162.got.cif
#   From: 2010.05.17/outbox.cif.g08.bks.cpg/sg51_14_cif.got.tgz:26162.got - 2010.06.03 11:52:47.
