data_PCOD9406956
_publ_section_title
;
Structure prediction by ZEFSAII (Michael W. Deem and Ramdas Pophale) SiO2 
 PCOD9406956
Probable space group: P M M A
;
_chemical_formula_sum "Si O2"
_cell_formula_units_Z 64
_cell_length_a 14.440173
_cell_length_b 7.779350
_cell_length_c 33.121425
_cell_angle_alpha 90.000000
_cell_angle_beta 90.000000
_cell_angle_gamma 90.000000
_cell_volume 3720.700571
_symmetry_space_group_name_H-M "P M M A"
_symmetry_group_IT_number 51
_symmetry_cell_setting 'orthorhombic'
loop_
_space_group_symop_operation_xyz
x,y,z
1/2-x,-y,z
1/2+x,-y,-z
-x,y,-z
-x,-y,-z
1/2+x,y,-z
1/2-x,y,z
x,-y,z
loop_
_atom_site_type_symbol
_atom_site_label
_atom_site_fract_x
_atom_site_fract_y
_atom_site_fract_z
Si Si1 0.025319 0.302463 0.392694
Si Si2 0.855602 0.293252 0.858068
Si Si3 0.142742 0.288331 0.317893
Si Si4 0.638544 0.798441 0.530396
Si Si5 0.537812 0.206520 0.938352
Si Si6 0.137466 0.698705 0.229489
Si Si7 0.646599 0.204036 0.441813
Si Si8 0.854878 0.789784 0.018396
O O1 0.008883 0.500000 0.382931
O O2 0.077875 0.226090 0.354089
O O3 0.091712 0.289680 0.431652
O O4 0.927538 0.230286 0.407126
O O5 0.750000 0.231591 0.866164
O O6 0.850277 0.500000 0.854172
O O7 0.922391 0.254719 0.895084
O O8 0.887979 0.225260 0.814121
O O9 0.250000 0.238581 0.324726
O O10 0.142666 0.500000 0.317384
O O11 0.112092 0.227842 0.273247
O O12 0.750000 0.788033 0.532922
O O13 0.613577 0.729384 0.485779
O O14 0.611258 0.000000 0.533063
O O15 0.434143 0.265587 0.949947
O O16 0.536156 0.000000 0.940403
O O17 0.606771 0.263801 0.974336
O O18 0.250000 0.696857 0.229323
O O19 0.105810 0.500000 0.229807
O O20 0.750000 0.271127 0.433272
O O21 0.654669 0.000000 0.448077
O O22 0.750000 0.730875 0.025492
O O23 0.853228 0.000000 0.018716
#
# Coordination Sequence:
#
# PCOD9406956 Si02
#       8
#     8   8   8   8   8   8   8   8
#     4  11  20  27  42  69  92 107 129 168 214 248
#     4   9  16  25  39  60  83 106 133 165 200 236
#     4   8  14  25  40  60  87 113 133 154 187 240
#     4   9  18  32  47  61  81 113 147 170 191 233
#     4   9  16  25  40  60  78 102 137 171 201 234
#     4   7  11  22  39  56  77 108 138 157 182 233
#     4   9  19  35  49  58  75 110 150 177 198 234
#     4   8  14  25  39  55  78 108 139 166 194 236
#
# _framework density 17.201060999999999
#
# number of rings (size 3 to 8) (size 9 to 14) (size 15 to 20)
#    0.000    3.250    0.000    4.500    0.000    3.750 
#    0.000    2.500    0.000    2.625    0.000    4.375 
#    0.000    5.000    0.000    0.000    0.000    0.000 
#
# Total GULP energy -356383.365926 kJ/mol
# GULP energy per Si atom -5568.490093 kJ/mol
# Density = 1.716191 g / cm^3
# Si number density = 17.201061 Si / 1000 Ang^3
#
#
#
# Elastic Constant Matrix: (Units=GPa)
#
#
# Indices 1 2 3 4 5 6 
#
# 1 100.1331 4.2957 83.4067 0.0000 0.0000 0.0000
# 2 4.2957 18.3652 3.3504 0.0000 0.0000 0.0000
# 3 83.4067 3.3504 167.3766 0.0000 0.0000 0.0000
# 4 0.0000 0.0000 0.0000 23.5464 0.0000 0.0000
# 5 0.0000 0.0000 0.0000 0.0000 26.7658 0.0000
# 6 0.0000 0.0000 0.0000 0.0000 0.0000 15.9353
#
#
#
# Elastic Compliance Matrix: (Units=1/GPa)
#
#
# Indices 1 2 3 4 5 6 
#
# 1 0.017184 -0.002466 -0.008514 0.000000 0.000000 0.000000
# 2 -0.002466 0.055004 0.000128 0.000000 0.000000 0.000000
# 3 -0.008514 0.000128 0.010215 0.000000 0.000000 0.000000
# 4 0.000000 0.000000 0.000000 0.042469 0.000000 0.000000
# 5 0.000000 0.000000 0.000000 0.000000 0.037361 0.000000
# 6 0.000000 0.000000 0.000000 0.000000 0.000000 0.062754
#
#
# Mechanical properties :
#
#
# Convention : Reuss Voigt Hill
#
# Bulk Modulus (GPa) = 16.47481 51.99784 34.23632
# Shear Modulus (GPa) = 18.73192 26.23766 22.48479
#
# Velocity S-wave (km/s) = 3.30358 3.90981 3.61941
# Velocity P-wave (km/s) = 4.91427 7.11879 6.11667
#
# Compressibility (1/GPa) = 0.06069874
#
# Stress axis : x y z
#
# Youngs Moduli (GPa) = 58.19321 18.18043 97.89944
#
# Poissons Ratio (x) = 0.04484 0.83350
# Poissons Ratio (y) = 0.14352 -0.01252
# Poissons Ratio (z) = 0.49544 -0.00233
#
# Static dielectric constant tensor:
#      x y z
#    x 1.579960 0.000000 0.000000 
#    y 0.000000 1.642270 0.000000 
#    z 0.000000 0.000000 1.617220 
# 
# From -- ./inp_files/37831.got.cif
#   From: 2010.05.17/outbox.cif.g08.bks.cpg/sg51_19_cif.got.tgz:37831.got - 2010.06.03 11:52:47.
