data_PCOD9406890
_publ_section_title
;
Structure prediction by ZEFSAII (Michael W. Deem and Ramdas Pophale) SiO2 
 PCOD9406890
Probable space group: P M M A
;
_chemical_formula_sum "Si O2"
_cell_formula_units_Z 56
_cell_length_a 19.177129
_cell_length_b 16.849948
_cell_length_c 9.003143
_cell_angle_alpha 90.000000
_cell_angle_beta 90.000000
_cell_angle_gamma 90.000000
_cell_volume 2909.218247
_symmetry_space_group_name_H-M "P M M A"
_symmetry_group_IT_number 51
_symmetry_cell_setting 'orthorhombic'
loop_
_space_group_symop_operation_xyz
x,y,z
1/2-x,-y,z
1/2+x,-y,-z
-x,y,-z
-x,-y,-z
1/2+x,y,-z
1/2-x,y,z
x,-y,z
loop_
_atom_site_type_symbol
_atom_site_label
_atom_site_fract_x
_atom_site_fract_y
_atom_site_fract_z
Si Si1 0.938324 0.849093 0.217804
Si Si2 0.832814 0.408938 0.590648
Si Si3 0.166846 0.000000 0.282272
Si Si4 0.167742 0.677790 0.102785
Si Si5 0.076062 0.000000 0.576216
Si Si6 0.899979 0.847365 0.875020
Si Si7 0.064499 0.690886 0.607782
Si Si8 0.934633 0.591429 0.110302
O O1 0.915525 0.770054 0.303616
O O2 0.022041 0.844681 0.192646
O O3 0.919647 0.923475 0.319208
O O4 0.906938 0.856585 0.053035
O O5 0.750000 0.404567 0.561575
O O6 0.855742 0.500000 0.568102
O O7 0.843648 0.382852 0.761057
O O8 0.874222 0.348647 0.486809
O O9 0.132498 0.000000 0.445470
O O10 0.139515 0.078381 0.196918
O O11 0.250000 0.000000 0.289213
O O12 0.250000 0.683938 0.074031
O O13 0.137662 0.763327 0.149713
O O14 0.126256 0.644106 0.961854
O O15 0.000000 0.000000 0.500000
O O16 0.043268 0.627159 0.732581
O O17 0.000000 0.708750 0.500000
O O18 0.912926 0.500000 0.123735
O O19 0.000000 0.596697 0.000000
#
# Coordination Sequence:
#
# PCOD9406890 Si02
#       8
#     8   8   4   8   4   8   8   8
#     4  11  23  41  71  99 130 170 221 274 316 385
#     4  10  23  42  62  88 127 173 219 268 329 397
#     4  12  27  45  69 103 141 174 212 266 327 391
#     4  11  23  41  66  95 128 172 219 268 330 398
#     4  12  23  43  68 105 132 171 219 262 315 389
#     4  11  22  44  69  98 132 170 219 268 325 384
#     4  12  24  39  64  95 129 169 215 273 330 380
#     4  11  23  40  62  92 127 166 217 274 325 383
#
# _framework density 19.249157
#
# number of rings (size 3 to 8) (size 9 to 14) (size 15 to 20)
#    0.000    0.857    2.857    4.714    2.000    4.857 
#    0.000    2.143    0.000    0.000    0.000    0.000 
#    0.000    0.000    0.000    0.000    0.000    0.000 
#
# Total GULP energy -313274.972807 kJ/mol
# GULP energy per Si atom -5594.195943 kJ/mol
# Density = 1.920535 g / cm^3
# Si number density = 19.249157 Si / 1000 Ang^3
#
#
#
# Elastic Constant Matrix: (Units=GPa)
#
#
# Indices 1 2 3 4 5 6 
#
# 1 66.7810 39.5129 35.3271 0.0000 0.0000 0.0000
# 2 39.5129 139.3585 51.0492 0.0000 0.0000 0.0000
# 3 35.3271 51.0492 106.0209 0.0000 0.0000 0.0000
# 4 0.0000 0.0000 0.0000 -45.0523 0.0000 0.0000
# 5 0.0000 0.0000 0.0000 0.0000 28.9080 0.0000
# 6 0.0000 0.0000 0.0000 0.0000 0.0000 9.4153
#
#
#
# Elastic Compliance Matrix: (Units=1/GPa)
#
#
# Indices 1 2 3 4 5 6 
#
# 1 0.019764 -0.003875 -0.004720 0.000000 0.000000 0.000000
# 2 -0.003875 0.009472 -0.003270 0.000000 0.000000 0.000000
# 3 -0.004720 -0.003270 0.012579 0.000000 0.000000 0.000000
# 4 0.000000 0.000000 0.000000 -0.022196 0.000000 0.000000
# 5 0.000000 0.000000 0.000000 0.000000 0.034592 0.000000
# 6 0.000000 0.000000 0.000000 0.000000 0.000000 0.106210
#
#
# Mechanical properties :
#
#
# Convention : Reuss Voigt Hill
#
# Bulk Modulus (GPa) = 55.28990 62.65986 58.97488
# Shear Modulus (GPa) = 26.29111 11.07228 18.68170
#
# Velocity S-wave (km/s) = 3.69973 2.40095 3.11870
# Velocity P-wave (km/s) = 6.85830 6.34892 6.60852
#
# Compressibility (1/GPa) = 0.01808648
#
# Stress axis : x y z
#
# Youngs Moduli (GPa) = 50.59786 105.57291 79.49671
#
# Poissons Ratio (x) = 0.40907 0.37520
# Poissons Ratio (y) = 0.19606 0.25993
# Poissons Ratio (z) = 0.23881 0.34520
#
# Static dielectric constant tensor:
#      x y z
#    x 1.638650 0.000000 0.000000 
#    y 0.000000 1.658920 0.000000 
#    z 0.000000 0.000000 1.657300 
# 
# From -- ./inp_files/11074.got.cif
#   From: 2010.05.17/outbox.cif.g08.bks.cpg/sg51_6_cif.got.tgz:11074.got - 2010.06.03 11:52:47.
