data_PCOD9406519
_publ_section_title
;
Structure prediction by ZEFSAII (Michael W. Deem and Ramdas Pophale) SiO2 
 PCOD9406519
Probable space group: P M M A
;
_chemical_formula_sum "Si O2"
_cell_formula_units_Z 48
_cell_length_a 9.633417
_cell_length_b 29.807184
_cell_length_c 9.132821
_cell_angle_alpha 90.000000
_cell_angle_beta 90.000000
_cell_angle_gamma 90.000000
_cell_volume 2622.444188
_symmetry_space_group_name_H-M "P M M A"
_symmetry_group_IT_number 51
_symmetry_cell_setting 'orthorhombic'
loop_
_space_group_symop_operation_xyz
x,y,z
1/2-x,-y,z
1/2+x,-y,-z
-x,y,-z
-x,-y,-z
1/2+x,y,-z
1/2-x,y,z
x,-y,z
loop_
_atom_site_type_symbol
_atom_site_label
_atom_site_fract_x
_atom_site_fract_y
_atom_site_fract_z
Si Si1 0.582225 0.765095 0.344631
Si Si2 0.584956 0.049492 0.149183
Si Si3 0.080368 0.307270 0.153726
Si Si4 0.508395 0.601996 0.674976
Si Si5 0.412642 0.131655 0.646369
Si Si6 0.250000 0.552526 0.168979
Si Si7 0.750000 0.444870 0.171917
O O1 0.500000 0.760679 0.500000
O O2 0.750000 0.754358 0.356566
O O3 0.497309 0.734437 0.231525
O O4 0.572282 0.817316 0.297616
O O5 0.750000 0.052861 0.120006
O O6 0.544261 0.092004 0.245808
O O7 0.561067 0.000000 0.218110
O O8 0.500000 0.050733 0.000000
O O9 0.250000 0.302475 0.139002
O O10 0.046674 0.349789 0.257015
O O11 0.000000 0.314454 0.000000
O O12 0.500000 0.604662 0.500000
O O13 0.623986 0.569074 0.735609
O O14 0.375626 0.579183 0.746956
O O15 0.500000 0.128349 0.500000
O O16 0.250000 0.125325 0.613503
O O17 0.250000 0.500000 0.155183
O O18 0.250000 0.568753 0.000299
O O19 0.750000 0.500000 0.183064
#
# Coordination Sequence:
#
# PCOD9406519 Si02
#       7
#     8   8   8   8   8   4   4
#     4  10  21  39  63  89 122 160 201 252 307 368
#     4   9  18  33  52  76 110 151 196 247 300 358
#     4  12  26  44  66  92 123 161 207 257 314 377
#     4  12  26  42  66  96 128 164 208 256 308 368
#     4   9  19  35  55  83 116 153 196 244 301 360
#     4  11  23  45  67  93 129 167 209 251 306 367
#     4  11  25  43  69  97 129 171 207 253 308 367
#
# _framework density 18.303536000000001
#
# number of rings (size 3 to 8) (size 9 to 14) (size 15 to 20)
#    0.000    1.500    0.833    4.000    2.333    5.667 
#    0.000    1.667    0.000    0.000    0.000    0.000 
#    0.000    0.000    0.000    0.000    0.000    0.000 
#
# Total GULP energy -267617.490633 kJ/mol
# GULP energy per Si atom -5575.364388 kJ/mol
# Density = 1.826188 g / cm^3
# Si number density = 18.303536 Si / 1000 Ang^3
#
#
#
# Elastic Constant Matrix: (Units=GPa)
#
#
# Indices 1 2 3 4 5 6 
#
# 1 143.5271 57.4979 62.8489 0.0000 0.0000 0.0000
# 2 57.4979 97.7225 67.4770 0.0000 0.0000 0.0000
# 3 62.8489 67.4770 142.5022 0.0000 0.0000 0.0000
# 4 0.0000 0.0000 0.0000 39.8077 0.0000 0.0000
# 5 0.0000 0.0000 0.0000 0.0000 36.3602 0.0000
# 6 0.0000 0.0000 0.0000 0.0000 0.0000 33.5610
#
#
#
# Elastic Compliance Matrix: (Units=1/GPa)
#
#
# Indices 1 2 3 4 5 6 
#
# 1 0.009605 -0.004051 -0.002318 0.000000 0.000000 0.000000
# 2 -0.004051 0.016913 -0.006222 0.000000 0.000000 0.000000
# 3 -0.002318 -0.006222 0.010986 0.000000 0.000000 0.000000
# 4 0.000000 0.000000 0.000000 0.025121 0.000000 0.000000
# 5 0.000000 0.000000 0.000000 0.000000 0.027503 0.000000
# 6 0.000000 0.000000 0.000000 0.000000 0.000000 0.029797
#
#
# Mechanical properties :
#
#
# Convention : Reuss Voigt Hill
#
# Bulk Modulus (GPa) = 81.15433 84.37773 82.76603
# Shear Modulus (GPa) = 33.50924 35.00765 34.25844
#
# Velocity S-wave (km/s) = 4.28337 4.37809 4.33099
# Velocity P-wave (km/s) = 8.30044 8.47090 8.38610
#
# Compressibility (1/GPa) = 0.01232220
#
# Stress axis : x y z
#
# Youngs Moduli (GPa) = 104.11024 59.12740 91.02546
#
# Poissons Ratio (x) = 0.23952 0.21101
# Poissons Ratio (y) = 0.42174 0.56634
# Poissons Ratio (z) = 0.24134 0.36788
#
# Static dielectric constant tensor:
#      x y z
#    x 1.561470 0.000000 0.000000 
#    y 0.000000 1.688680 0.000000 
#    z 0.000000 0.000000 1.601120 
# 
# From -- ./inp_files/6249.got.cif
#   From: 2010.05.17/outbox.cif.g08.bks.cpg/sg51_4_cif.got.tgz:6249.got - 2010.06.03 11:52:47.
