data_PCOD9406933
_publ_section_title
;
Structure prediction by ZEFSAII (Michael W. Deem and Ramdas Pophale) SiO2 
 PCOD9406933
Probable space group: P M M A
;
_chemical_formula_sum "Si O2"
_cell_formula_units_Z 32
_cell_length_a 14.056466
_cell_length_b 13.953912
_cell_length_c 8.470994
_cell_angle_alpha 90.000000
_cell_angle_beta 90.000000
_cell_angle_gamma 90.000000
_cell_volume 1661.523547
_symmetry_space_group_name_H-M "P M M A"
_symmetry_group_IT_number 51
_symmetry_cell_setting 'orthorhombic'
loop_
_space_group_symop_operation_xyz
x,y,z
1/2-x,-y,z
1/2+x,-y,-z
-x,y,-z
-x,-y,-z
1/2+x,y,-z
1/2-x,y,z
x,-y,z
loop_
_atom_site_type_symbol
_atom_site_label
_atom_site_fract_x
_atom_site_fract_y
_atom_site_fract_z
Si Si1 0.250000 0.113523 0.965449
Si Si2 0.750000 0.000000 0.571519
Si Si3 0.750000 0.500000 0.603698
Si Si4 0.962668 0.000000 0.679097
Si Si5 0.562864 0.815283 0.856823
Si Si6 0.603394 0.676166 0.566116
Si Si7 0.750000 0.197085 0.379420
O O1 0.250000 0.174394 0.804548
O O2 0.250000 0.000000 0.931174
O O3 0.157669 0.142085 0.065300
O O4 0.652101 0.000000 0.667568
O O5 0.750000 0.904463 0.467939
O O6 0.667532 0.584357 0.598902
O O7 0.991314 0.095716 0.772124
O O8 0.000000 0.000000 0.500000
O O9 0.589701 0.738992 0.724051
O O10 0.500000 0.775490 0.000000
O O11 0.500000 0.651079 0.500000
O O12 0.658954 0.743000 0.439584
#
# Coordination Sequence:
#
# PCOD9406933 Si02
#       7
#     4   2   2   4   8   8   4
#     4  12  24  37  57  89 137 183 225 257 302 366
#     4  12  22  36  60  88 132 178 224 260 298 348
#     4  10  24  44  78  98 114 156 216 290 344 390
#     4  12  25  38  61  91 133 184 230 259 303 372
#     4  12  25  40  61  94 138 178 211 261 319 382
#     4  11  23  45  69  97 126 162 218 276 336 396
#     4  11  23  37  64  94 131 180 225 262 313 374
#
# _framework density 19.259433000000001
#
# number of rings (size 3 to 8) (size 9 to 14) (size 15 to 20)
#    0.000    0.500    4.375    5.250    3.500    0.000 
#    0.000    0.625    0.000   19.500    0.000    0.000 
#    0.000    0.000    0.000    0.000    0.000    0.000 
#
# Total GULP energy -178587.747154 kJ/mol
# GULP energy per Si atom -5580.867099 kJ/mol
# Density = 1.921560 g / cm^3
# Si number density = 19.259433 Si / 1000 Ang^3
#
#
#
# Elastic Constant Matrix: (Units=GPa)
#
#
# Indices 1 2 3 4 5 6 
#
# 1 126.2039 47.1744 48.8198 0.0000 0.0000 0.0000
# 2 47.1744 164.8635 65.3954 0.0000 0.0000 0.0000
# 3 48.8198 65.3954 145.4020 0.0000 0.0000 0.0000
# 4 0.0000 0.0000 0.0000 0.6705 0.0000 0.0000
# 5 0.0000 0.0000 0.0000 0.0000 26.7926 0.0000
# 6 0.0000 0.0000 0.0000 0.0000 0.0000 21.3230
#
#
#
# Elastic Compliance Matrix: (Units=1/GPa)
#
#
# Indices 1 2 3 4 5 6 
#
# 1 0.009513 -0.001771 -0.002398 0.000000 0.000000 0.000000
# 2 -0.001771 0.007712 -0.002874 0.000000 0.000000 0.000000
# 3 -0.002398 -0.002874 0.008975 0.000000 0.000000 0.000000
# 4 0.000000 0.000000 0.000000 1.491412 0.000000 0.000000
# 5 0.000000 0.000000 0.000000 0.000000 0.037324 0.000000
# 6 0.000000 0.000000 0.000000 0.000000 0.000000 0.046898
#
#
# Mechanical properties :
#
#
# Convention : Reuss Voigt Hill
#
# Bulk Modulus (GPa) = 82.54028 84.36096 83.45062
# Shear Modulus (GPa) = 3.08650 28.09587 15.59119
#
# Velocity S-wave (km/s) = 1.26731 3.82358 2.84832
# Velocity P-wave (km/s) = 6.71502 7.96182 7.36485
#
# Compressibility (1/GPa) = 0.01211530
#
# Stress axis : x y z
#
# Youngs Moduli (GPa) = 105.11743 129.66060 111.41934
#
# Poissons Ratio (x) = 0.22964 0.26713
# Poissons Ratio (y) = 0.18617 0.32023
# Poissons Ratio (z) = 0.25202 0.37265
#
# Static dielectric constant tensor:
#      x y z
#    x 1.705090 0.000000 0.000000 
#    y 0.000000 1.624010 0.000000 
#    z 0.000000 0.000000 1.674240 
# 
# From -- ./inp_files/7676.got.cif
#   From: 2010.05.17/outbox.cif.g08.bks.cpg/sg51_4_cif.got.tgz:7676.got - 2010.06.03 11:52:47.
