data_PCOD9406174
_publ_section_title
;
Structure prediction by ZEFSAII (Michael W. Deem and Ramdas Pophale) SiO2 
 PCOD9406174
Probable space group: P M M A
;
_chemical_formula_sum "Si O2"
_cell_formula_units_Z 56
_cell_length_a 8.600842
_cell_length_b 21.783152
_cell_length_c 15.855344
_cell_angle_alpha 90.000000
_cell_angle_beta 90.000000
_cell_angle_gamma 90.000000
_cell_volume 2970.553377
_symmetry_space_group_name_H-M "P M M A"
_symmetry_group_IT_number 51
_symmetry_cell_setting 'orthorhombic'
loop_
_space_group_symop_operation_xyz
x,y,z
1/2-x,-y,z
1/2+x,-y,-z
-x,y,-z
-x,-y,-z
1/2+x,y,-z
1/2-x,y,z
x,-y,z
loop_
_atom_site_type_symbol
_atom_site_label
_atom_site_fract_x
_atom_site_fract_y
_atom_site_fract_z
Si Si1 0.936429 0.632315 0.409449
Si Si2 0.937976 0.291083 0.747496
Si Si3 0.063161 0.500000 0.851519
Si Si4 0.938710 0.500000 0.345695
Si Si5 0.061912 0.850975 0.252533
Si Si6 0.563802 0.928887 0.407822
Si Si7 0.937502 0.928990 0.908922
Si Si8 0.436312 0.630039 0.089626
O O1 0.750000 0.632428 0.410848
O O2 0.991789 0.562612 0.389676
O O3 0.000000 0.652021 0.500000
O O4 0.994397 0.674927 0.333827
O O5 0.750000 0.293414 0.743116
O O6 0.985948 0.220058 0.749788
O O7 0.985759 0.327287 0.832086
O O8 0.250000 0.500000 0.856425
O O9 0.016206 0.500000 0.752711
O O10 0.998824 0.438446 0.893507
O O11 0.750000 0.500000 0.347617
O O12 0.250000 0.852913 0.254510
O O13 0.010133 0.886872 0.168418
O O14 0.999866 0.885654 0.334645
O O15 0.500000 0.911585 0.500000
O O16 0.750000 0.926419 0.409283
O O17 0.516183 0.000000 0.391968
O O18 0.750000 0.927751 0.911413
O O19 0.986121 0.000000 0.895359
O O20 0.000000 0.909122 0.000000
O O21 0.250000 0.628584 0.087038
O O22 0.500000 0.652258 0.000000
#
# Coordination Sequence:
#
# PCOD9406174 Si02
#       8
#     8   8   4   4   8   8   8   8
#     4  11  22  39  61  86 114 147 186 231 284 340
#     4  10  23  41  58  81 113 151 194 237 278 331
#     4  11  20  37  62  87 114 144 186 237 290 343
#     4   9  19  35  59  87 113 141 179 230 284 337
#     4  10  21  38  59  82 113 152 193 234 280 332
#     4  10  21  37  59  88 118 148 186 233 283 336
#     4   9  18  33  55  83 113 145 181 225 276 327
#     4  11  23  39  59  85 115 150 191 236 289 343
#
# _framework density 18.851706
#
# number of rings (size 3 to 8) (size 9 to 14) (size 15 to 20)
#    0.000    1.857    1.429    2.357    0.000    4.286 
#    0.000    2.500    0.000    0.000    0.000    0.000 
#    0.000    0.000    0.000    0.000    0.000    0.000 
#
# Total GULP energy -312898.706655 kJ/mol
# GULP energy per Si atom -5587.476905 kJ/mol
# Density = 1.880880 g / cm^3
# Si number density = 18.851706 Si / 1000 Ang^3
#
#
#
# Elastic Constant Matrix: (Units=GPa)
#
#
# Indices 1 2 3 4 5 6 
#
# 1 27.0018 35.3556 41.2936 0.0000 0.0000 0.0000
# 2 35.3556 144.1234 113.9841 0.0000 0.0000 0.0000
# 3 41.2936 113.9841 205.2855 0.0000 0.0000 0.0000
# 4 0.0000 0.0000 0.0000 -9.5050 0.0000 0.0000
# 5 0.0000 0.0000 0.0000 0.0000 34.2633 0.0000
# 6 0.0000 0.0000 0.0000 0.0000 0.0000 19.3479
#
#
#
# Elastic Compliance Matrix: (Units=1/GPa)
#
#
# Indices 1 2 3 4 5 6 
#
# 1 0.059577 -0.009159 -0.006898 0.000000 0.000000 0.000000
# 2 -0.009159 0.013779 -0.005808 0.000000 0.000000 0.000000
# 3 -0.006898 -0.005808 0.009484 0.000000 0.000000 0.000000
# 4 0.000000 0.000000 0.000000 -0.105208 0.000000 0.000000
# 5 0.000000 0.000000 0.000000 0.000000 0.029186 0.000000
# 6 0.000000 0.000000 0.000000 0.000000 0.000000 0.051685
#
#
# Mechanical properties :
#
#
# Convention : Reuss Voigt Hill
#
# Bulk Modulus (GPa) = 25.57015 84.18636 54.87826
# Shear Modulus (GPa) = 43.37565 21.20641 32.29103
#
# Velocity S-wave (km/s) = 4.80196 3.35760 4.14321
# Velocity P-wave (km/s) = 6.65871 7.73210 7.21539
#
# Compressibility (1/GPa) = 0.03910810
#
# Stress axis : x y z
#
# Youngs Moduli (GPa) = 16.78492 72.57325 105.44096
#
# Poissons Ratio (x) = 0.66473 0.72737
# Poissons Ratio (y) = 0.15374 0.61244
# Poissons Ratio (z) = 0.11579 0.42154
#
# Static dielectric constant tensor:
#      x y z
#    x 1.638390 0.000000 0.000000 
#    y 0.000000 1.638290 0.000000 
#    z 0.000000 0.000000 1.628380 
# 
# From -- ./inp_files/21903.got.cif
#   From: 2010.05.17/outbox.cif.g08.bks.cpg/sg51_11_cif.got.tgz:21903.got - 2010.06.03 11:52:47.
