data_PCOD9406800
_publ_section_title
;
Structure prediction by ZEFSAII (Michael W. Deem and Ramdas Pophale) SiO2 
 PCOD9406800
Probable space group: P M M A
;
_chemical_formula_sum "Si O2"
_cell_formula_units_Z 48
_cell_length_a 16.900797
_cell_length_b 7.756158
_cell_length_c 16.835199
_cell_angle_alpha 90.000000
_cell_angle_beta 90.000000
_cell_angle_gamma 90.000000
_cell_volume 2206.846301
_symmetry_space_group_name_H-M "P M M A"
_symmetry_group_IT_number 51
_symmetry_cell_setting 'orthorhombic'
loop_
_space_group_symop_operation_xyz
x,y,z
1/2-x,-y,z
1/2+x,-y,-z
-x,y,-z
-x,-y,-z
1/2+x,y,-z
1/2-x,y,z
x,-y,z
loop_
_atom_site_type_symbol
_atom_site_label
_atom_site_fract_x
_atom_site_fract_y
_atom_site_fract_z
Si Si1 0.918737 0.300009 0.963175
Si Si2 0.340635 0.207855 0.367104
Si Si3 0.658702 0.706178 0.458600
Si Si4 0.750000 0.293882 0.023675
Si Si5 0.750000 0.206829 0.208785
Si Si6 0.409473 0.701247 0.703090
Si Si7 0.065010 0.198288 0.215104
O O1 0.917438 0.500000 0.990138
O O2 0.925296 0.291820 0.868255
O O3 0.833566 0.224824 0.989224
O O4 0.000000 0.223060 0.000000
O O5 0.250000 0.268484 0.365358
O O6 0.373264 0.258080 0.453411
O O7 0.385353 0.271316 0.289233
O O8 0.341479 0.000000 0.364172
O O9 0.750000 0.772916 0.453533
O O10 0.663317 0.500000 0.448545
O O11 0.605573 0.770750 0.385910
O O12 0.750000 0.500000 0.007365
O O13 0.750000 0.260710 0.117281
O O14 0.826578 0.280758 0.252319
O O15 0.750000 0.000000 0.215082
O O16 0.432422 0.500000 0.699055
O O17 0.475557 0.795791 0.753847
O O18 0.089243 0.000000 0.201621
#
# Coordination Sequence:
#
# PCOD9406800 Si02
#       7
#     8   8   8   4   4   8   8
#     4  10  22  41  63  88 120 159 203 253 311 370
#     4   9  20  38  58  82 118 162 201 245 303 359
#     4   9  18  35  58  85 114 153 204 249 292 348
#     4  10  22  40  64  91 120 161 206 247 306 377
#     4  12  24  38  62  95 124 153 198 245 300 367
#     4  11  22  39  61  86 123 162 200 248 304 356
#     4  11  24  39  59  89 122 157 204 252 302 363
#
# _framework density 21.750496999999999
#
# number of rings (size 3 to 8) (size 9 to 14) (size 15 to 20)
#    0.000    1.833    0.833    2.750    1.167    5.667 
#    0.000    3.333    0.000    0.000    0.000    0.000 
#    0.000    0.000    0.000    0.000    0.000    0.000 
#
# Total GULP energy -268135.384459 kJ/mol
# GULP energy per Si atom -5586.153843 kJ/mol
# Density = 2.170099 g / cm^3
# Si number density = 21.750497 Si / 1000 Ang^3
#
#
#
# Elastic Constant Matrix: (Units=GPa)
#
#
# Indices 1 2 3 4 5 6 
#
# 1 105.4698 1.8772 69.1177 0.0000 0.0000 0.0000
# 2 1.8772 36.1994 -16.9810 0.0000 0.0000 0.0000
# 3 69.1177 -16.9810 155.9368 0.0000 0.0000 0.0000
# 4 0.0000 0.0000 0.0000 35.2912 0.0000 0.0000
# 5 0.0000 0.0000 0.0000 0.0000 30.7491 0.0000
# 6 0.0000 0.0000 0.0000 0.0000 0.0000 5.3845
#
#
#
# Elastic Compliance Matrix: (Units=1/GPa)
#
#
# Indices 1 2 3 4 5 6 
#
# 1 0.013839 -0.003789 -0.006547 0.000000 0.000000 0.000000
# 2 -0.003789 0.030149 0.004962 0.000000 0.000000 0.000000
# 3 -0.006547 0.004962 0.009855 0.000000 0.000000 0.000000
# 4 0.000000 0.000000 0.000000 0.028336 0.000000 0.000000
# 5 0.000000 0.000000 0.000000 0.000000 0.032521 0.000000
# 6 0.000000 0.000000 0.000000 0.000000 0.000000 0.185718
#
#
# Mechanical properties :
#
#
# Convention : Reuss Voigt Hill
#
# Bulk Modulus (GPa) = 23.20322 45.07042 34.13682
# Shear Modulus (GPa) = 15.35958 30.52442 22.94200
#
# Velocity S-wave (km/s) = 2.66027 3.75025 3.25126
# Velocity P-wave (km/s) = 4.48633 6.28642 5.46105
#
# Compressibility (1/GPa) = 0.04309746
#
# Stress axis : x y z
#
# Youngs Moduli (GPa) = 72.25938 33.16846 101.47147
#
# Poissons Ratio (x) = 0.12566 0.66429
# Poissons Ratio (y) = 0.27377 -0.50355
# Poissons Ratio (z) = 0.47305 -0.16460
#
# Static dielectric constant tensor:
#      x y z
#    x 1.815770 0.000000 0.000000 
#    y 0.000000 1.808630 0.000000 
#    z 0.000000 0.000000 1.754220 
# 
# From -- ./inp_files/24931.got.cif
#   From: 2010.05.17/outbox.cif.g08.bks.cpg/sg51_13_cif.got.tgz:24931.got - 2010.06.03 11:52:47.
