data_PCOD9406813
_publ_section_title
;
Structure prediction by ZEFSAII (Michael W. Deem and Ramdas Pophale) SiO2 
 PCOD9406813
Probable space group: P M M A
;
_chemical_formula_sum "Si O2"
_cell_formula_units_Z 56
_cell_length_a 21.161690
_cell_length_b 8.051432
_cell_length_c 15.245661
_cell_angle_alpha 90.000000
_cell_angle_beta 90.000000
_cell_angle_gamma 90.000000
_cell_volume 2597.584811
_symmetry_space_group_name_H-M "P M M A"
_symmetry_group_IT_number 51
_symmetry_cell_setting 'orthorhombic'
loop_
_space_group_symop_operation_xyz
x,y,z
1/2-x,-y,z
1/2+x,-y,-z
-x,y,-z
-x,-y,-z
1/2+x,y,-z
1/2-x,y,z
x,-y,z
loop_
_atom_site_type_symbol
_atom_site_label
_atom_site_fract_x
_atom_site_fract_y
_atom_site_fract_z
Si Si1 0.614000 0.307952 0.829243
Si Si2 0.177201 0.801593 0.859816
Si Si3 0.104672 0.301550 0.685805
Si Si4 0.131158 0.804807 0.489414
Si Si5 0.961390 0.700297 0.655910
Si Si6 0.250000 0.188437 0.198931
Si Si7 0.430799 0.190756 0.991784
Si Si8 0.750000 0.685765 0.616347
O O1 0.595723 0.500000 0.844022
O O2 0.585602 0.256916 0.735512
O O3 0.688389 0.286590 0.827899
O O4 0.591440 0.196026 0.908548
O O5 0.250000 0.737671 0.867341
O O6 0.147411 0.770666 0.763668
O O7 0.124489 0.736388 0.929535
O O8 0.181204 0.000000 0.874024
O O9 0.104842 0.500000 0.696704
O O10 0.128135 0.255671 0.589021
O O11 0.031331 0.244084 0.684513
O O12 0.067213 0.770380 0.434149
O O13 0.187615 0.710909 0.440575
O O14 0.144070 0.000000 0.487817
O O15 0.962802 0.500000 0.646356
O O16 0.250000 0.500000 0.345888
O O17 0.250000 0.186803 0.304244
O O18 0.440068 0.000000 0.960869
O O19 0.500000 0.272713 0.000000
O O20 0.750000 0.000000 0.835494
#
# Coordination Sequence:
#
# PCOD9406813 Si02
#       8
#     8   8   8   8   8   4   8   4
#     4  11  23  39  64  95 128 167 209 258 315 378
#     4  10  23  43  64  89 125 168 214 272 330 382
#     4  11  24  42  65  91 123 168 216 265 320 376
#     4  12  25  40  63  94 127 168 213 261 317 380
#     4  10  22  41  63  91 130 169 207 261 320 375
#     4  12  24  40  62  93 128 167 210 256 312 380
#     4  10  22  41  66  96 129 168 213 265 324 386
#     4  12  24  42  64  89 126 167 210 262 314 376
#
# _framework density 21.558487
#
# number of rings (size 3 to 8) (size 9 to 14) (size 15 to 20)
#    0.000    1.143    1.429    4.714    2.000    4.571 
#    0.000    0.000    0.000    0.000    0.000    0.000 
#    0.000    0.000    0.000    0.000    0.000    0.000 
#
# Total GULP energy -312918.907644 kJ/mol
# GULP energy per Si atom -5587.837636 kJ/mol
# Density = 2.150942 g / cm^3
# Si number density = 21.558487 Si / 1000 Ang^3
#
#
#
# Elastic Constant Matrix: (Units=GPa)
#
#
# Indices 1 2 3 4 5 6 
#
# 1 126.3387 13.6541 24.6765 0.0000 0.0000 0.0000
# 2 13.6541 34.1594 -4.2002 0.0000 0.0000 0.0000
# 3 24.6765 -4.2002 74.8557 0.0000 0.0000 0.0000
# 4 0.0000 0.0000 0.0000 -145.4739 0.0000 0.0000
# 5 0.0000 0.0000 0.0000 0.0000 6.3121 0.0000
# 6 0.0000 0.0000 0.0000 0.0000 0.0000 24.9840
#
#
#
# Elastic Compliance Matrix: (Units=1/GPa)
#
#
# Indices 1 2 3 4 5 6 
#
# 1 0.008966 -0.003975 -0.003179 0.000000 0.000000 0.000000
# 2 -0.003975 0.031240 0.003063 0.000000 0.000000 0.000000
# 3 -0.003179 0.003063 0.014579 0.000000 0.000000 0.000000
# 4 0.000000 0.000000 0.000000 -0.006874 0.000000 0.000000
# 5 0.000000 0.000000 0.000000 0.000000 0.158426 0.000000
# 6 0.000000 0.000000 0.000000 0.000000 0.000000 0.040026
#
#
# Mechanical properties :
#
#
# Convention : Reuss Voigt Hill
#
# Bulk Modulus (GPa) = 21.45733 33.73497 27.59615
# Shear Modulus (GPa) = 18.51325 -9.42067 4.54629
#
# Velocity S-wave (km/s) = 2.93361 -2.09268 1.45375
# Velocity P-wave (km/s) = 4.63136 3.13736 3.95553
#
# Compressibility (1/GPa) = 0.04660413
#
# Stress axis : x y z
#
# Youngs Moduli (GPa) = 111.53725 32.01044 68.59312
#
# Poissons Ratio (x) = 0.12723 0.21803
# Poissons Ratio (y) = 0.44331 -0.21011
# Poissons Ratio (z) = 0.35453 -0.09805
#
# Static dielectric constant tensor:
#      x y z
#    x 1.766270 0.000000 0.000000 
#    y 0.000000 1.783830 0.000000 
#    z 0.000000 0.000000 1.786270 
# 
# From -- ./inp_files/25858.got.cif
#   From: 2010.05.17/outbox.cif.g08.bks.cpg/sg51_13_cif.got.tgz:25858.got - 2010.06.03 11:52:47.
