data_PCOD9406101
_publ_section_title
;
Structure prediction by ZEFSAII (Michael W. Deem and Ramdas Pophale) SiO2 
 PCOD9406101
Probable space group: P M M A
;
_chemical_formula_sum "Si O2"
_cell_formula_units_Z 48
_cell_length_a 9.715044
_cell_length_b 31.765921
_cell_length_c 7.658025
_cell_angle_alpha 90.000000
_cell_angle_beta 90.000000
_cell_angle_gamma 90.000000
_cell_volume 2363.322573
_symmetry_space_group_name_H-M "P M M A"
_symmetry_group_IT_number 51
_symmetry_cell_setting 'orthorhombic'
loop_
_space_group_symop_operation_xyz
x,y,z
1/2-x,-y,z
1/2+x,-y,-z
-x,y,-z
-x,-y,-z
1/2+x,y,-z
1/2-x,y,z
x,-y,z
loop_
_atom_site_type_symbol
_atom_site_label
_atom_site_fract_x
_atom_site_fract_y
_atom_site_fract_z
Si Si1 0.250000 0.113043 0.313044
Si Si2 0.585948 0.375334 0.672740
Si Si3 0.250000 0.163094 0.975570
Si Si4 0.915276 0.546356 0.178167
Si Si5 0.520542 0.047181 0.790651
Si Si6 0.250000 0.909543 0.693056
Si Si7 0.088456 0.718511 0.320141
Si Si8 0.500000 0.222272 0.000000
O O1 0.250000 0.152030 0.181908
O O2 0.377707 0.083778 0.263538
O O3 0.250000 0.119208 0.520270
O O4 0.500000 0.366261 0.500000
O O5 0.750000 0.385261 0.652636
O O6 0.499371 0.414961 0.741543
O O7 0.576701 0.329226 0.759684
O O8 0.380667 0.191374 0.936027
O O9 0.250000 0.120470 0.862820
O O10 0.750000 0.554990 0.156772
O O11 0.924199 0.500000 0.267886
O O12 0.000000 0.541717 0.000000
O O13 0.379280 0.059693 0.699684
O O14 0.566590 0.000000 0.744749
O O15 0.500000 0.048229 0.000000
O O16 0.250000 0.723813 0.365404
O O17 0.046857 0.749788 0.164842
O O18 0.000000 0.723797 0.500000
#
# Coordination Sequence:
#
# PCOD9406101 Si02
#       8
#     4   8   4   8   8   4   8   4
#     4  12  25  43  67  96 134 176 220 267 322 387
#     4  10  21  39  62  92 127 164 208 264 325 392
#     4  12  26  46  67  96 132 168 223 274 330 404
#     4  10  21  37  57  87 126 171 219 265 316 382
#     4  11  22  41  68  98 137 177 218 273 325 376
#     4  12  25  43  69  96 130 178 222 269 322 383
#     4  10  24  45  70 103 134 168 219 278 344 410
#     4  12  26  46  72  94 130 170 218 276 342 414
#
# _framework density 20.310389000000001
#
# number of rings (size 3 to 8) (size 9 to 14) (size 15 to 20)
#    0.000    1.167    2.500    3.000    2.333    6.667 
#    0.000    0.000    0.000    0.000    0.000    0.000 
#    0.000    0.000    0.000    0.000    0.000    0.000 
#
# Total GULP energy -267581.450577 kJ/mol
# GULP energy per Si atom -5574.613554 kJ/mol
# Density = 2.026416 g / cm^3
# Si number density = 20.310389 Si / 1000 Ang^3
#
#
#
# Elastic Constant Matrix: (Units=GPa)
#
#
# Indices 1 2 3 4 5 6 
#
# 1 136.1184 29.8914 -2.9080 0.0000 0.0000 0.0000
# 2 29.8914 83.1521 8.9284 0.0000 0.0000 0.0000
# 3 -2.9080 8.9284 59.1205 0.0000 0.0000 0.0000
# 4 0.0000 0.0000 0.0000 22.6731 0.0000 0.0000
# 5 0.0000 0.0000 0.0000 0.0000 30.9259 0.0000
# 6 0.0000 0.0000 0.0000 0.0000 0.0000 50.7852
#
#
#
# Elastic Compliance Matrix: (Units=1/GPa)
#
#
# Indices 1 2 3 4 5 6 
#
# 1 0.008017 -0.002973 0.000843 0.000000 0.000000 0.000000
# 2 -0.002973 0.013327 -0.002159 0.000000 0.000000 0.000000
# 3 0.000843 -0.002159 0.017282 0.000000 0.000000 0.000000
# 4 0.000000 0.000000 0.000000 0.044105 0.000000 0.000000
# 5 0.000000 0.000000 0.000000 0.000000 0.032335 0.000000
# 6 0.000000 0.000000 0.000000 0.000000 0.000000 0.019691
#
#
# Mechanical properties :
#
#
# Convention : Reuss Voigt Hill
#
# Bulk Modulus (GPa) = 33.27813 38.91271 36.09542
# Shear Modulus (GPa) = 32.60514 37.04211 34.82362
#
# Velocity S-wave (km/s) = 4.01102 4.27523 4.14523
# Velocity P-wave (km/s) = 6.15397 6.60081 6.38131
#
# Compressibility (1/GPa) = 0.03004976
#
# Stress axis : x y z
#
# Youngs Moduli (GPa) = 124.72961 75.03821 57.86328
#
# Poissons Ratio (x) = 0.22306 -0.04879
# Poissons Ratio (y) = 0.37077 0.12491
# Poissons Ratio (z) = -0.10518 0.16199
#
# Static dielectric constant tensor:
#      x y z
#    x 1.636440 0.000000 0.000000 
#    y 0.000000 1.808670 0.000000 
#    z 0.000000 0.000000 1.694860 
# 
# From -- ./inp_files/6327.got.cif
#   From: 2010.05.17/outbox.cif.g08.bks.cpg/sg51_4_cif.got.tgz:6327.got - 2010.06.03 11:52:47.
