data_PCOD9406646
_publ_section_title
;
Structure prediction by ZEFSAII (Michael W. Deem and Ramdas Pophale) SiO2 
 PCOD9406646
Probable space group: P M M A
;
_chemical_formula_sum "Si O2"
_cell_formula_units_Z 48
_cell_length_a 10.246021
_cell_length_b 31.359941
_cell_length_c 7.841606
_cell_angle_alpha 90.000000
_cell_angle_beta 90.000000
_cell_angle_gamma 90.000000
_cell_volume 2519.622605
_symmetry_space_group_name_H-M "P M M A"
_symmetry_group_IT_number 51
_symmetry_cell_setting 'orthorhombic'
loop_
_space_group_symop_operation_xyz
x,y,z
1/2-x,-y,z
1/2+x,-y,-z
-x,y,-z
-x,-y,-z
1/2+x,y,-z
1/2-x,y,z
x,-y,z
loop_
_atom_site_type_symbol
_atom_site_label
_atom_site_fract_x
_atom_site_fract_y
_atom_site_fract_z
Si Si1 0.250000 0.654339 0.019299
Si Si2 0.490900 0.774902 0.207529
Si Si3 0.403648 0.551450 0.654048
Si Si4 0.596782 0.135329 0.841814
Si Si5 0.250000 0.717598 0.326356
Si Si6 0.500000 0.594009 0.000000
Si Si7 0.397272 0.953779 0.349709
Si Si8 0.750000 0.724333 0.286665
O O1 0.250000 0.678732 0.197411
O O2 0.376013 0.624693 0.015510
O O3 0.250000 0.688828 0.863593
O O4 0.456590 0.823422 0.259432
O O5 0.375677 0.745669 0.278128
O O6 0.625098 0.754908 0.270363
O O7 0.500000 0.773634 0.000000
O O8 0.500000 0.565694 0.500000
O O9 0.250000 0.565641 0.640365
O O10 0.400805 0.500000 0.650842
O O11 0.468251 0.566487 0.831562
O O12 0.750000 0.143554 0.884509
O O13 0.588766 0.089296 0.755529
O O14 0.500000 0.133025 0.000000
O O15 0.250000 0.704901 0.524038
O O16 0.500000 0.952917 0.500000
O O17 0.250000 0.953167 0.419704
O O18 0.412299 0.000000 0.257991
#
# Coordination Sequence:
#
# PCOD9406646 Si02
#       8
#     4   8   8   8   4   4   8   4
#     4  12  26  44  65  96 134 176 221 284 328 384
#     4  11  21  42  65  88 125 160 202 272 328 381
#     4  10  23  44  72 107 142 180 229 282 332 387
#     4  10  22  37  59  89 116 152 193 246 309 367
#     4  12  24  44  68  91 121 168 218 267 331 388
#     4  12  25  44  70  96 140 186 226 270 337 396
#     4   9  19  37  57  81 119 158 193 239 294 360
#     4  12  26  42  68  93 121 170 218 267 331 390
#
# _framework density 19.050471999999999
#
# number of rings (size 3 to 8) (size 9 to 14) (size 15 to 20)
#    0.000    1.333    3.333    1.750    4.667    3.667 
#    0.000    0.000    0.000    0.000    0.000    0.000 
#    0.000    0.000    0.000    0.000    0.000    0.000 
#
# Total GULP energy -267772.435577 kJ/mol
# GULP energy per Si atom -5578.592408 kJ/mol
# Density = 1.900711 g / cm^3
# Si number density = 19.050472 Si / 1000 Ang^3
#
#
#
# Elastic Constant Matrix: (Units=GPa)
#
#
# Indices 1 2 3 4 5 6 
#
# 1 162.9241 50.8133 51.1879 0.0000 0.0000 0.0000
# 2 50.8133 59.5400 34.4841 0.0000 0.0000 0.0000
# 3 51.1879 34.4841 119.0200 0.0000 0.0000 0.0000
# 4 0.0000 0.0000 0.0000 16.7461 0.0000 0.0000
# 5 0.0000 0.0000 0.0000 0.0000 29.7677 0.0000
# 6 0.0000 0.0000 0.0000 0.0000 0.0000 29.8156
#
#
#
# Elastic Compliance Matrix: (Units=1/GPa)
#
#
# Indices 1 2 3 4 5 6 
#
# 1 0.008712 -0.006327 -0.001914 0.000000 0.000000 0.000000
# 2 -0.006327 0.024777 -0.004458 0.000000 0.000000 0.000000
# 3 -0.001914 -0.004458 0.010517 0.000000 0.000000 0.000000
# 4 0.000000 0.000000 0.000000 0.059715 0.000000 0.000000
# 5 0.000000 0.000000 0.000000 0.000000 0.033593 0.000000
# 6 0.000000 0.000000 0.000000 0.000000 0.000000 0.033539
#
#
# Mechanical properties :
#
#
# Convention : Reuss Voigt Hill
#
# Bulk Modulus (GPa) = 53.73766 68.27273 61.00520
# Shear Modulus (GPa) = 24.69697 28.93246 26.81472
#
# Velocity S-wave (km/s) = 3.60446 3.90131 3.75582
# Velocity P-wave (km/s) = 6.75219 7.49728 7.13447
#
# Compressibility (1/GPa) = 0.01860892
#
# Stress axis : x y z
#
# Youngs Moduli (GPa) = 114.77882 40.36037 95.08794
#
# Poissons Ratio (x) = 0.25536 0.18199
# Poissons Ratio (y) = 0.72620 0.42386
# Poissons Ratio (z) = 0.21967 0.17991
#
# Static dielectric constant tensor:
#      x y z
#    x 1.670530 0.000000 0.000000 
#    y 0.000000 1.694620 0.000000 
#    z 0.000000 0.000000 1.667450 
# 
# From -- ./inp_files/6307.got.cif
#   From: 2010.05.17/outbox.cif.g08.bks.cpg/sg51_4_cif.got.tgz:6307.got - 2010.06.03 11:52:47.
