data_PCOD9406778
_publ_section_title
;
Structure prediction by ZEFSAII (Michael W. Deem and Ramdas Pophale) SiO2 
 PCOD9406778
Probable space group: P M M A
;
_chemical_formula_sum "Si O2"
_cell_formula_units_Z 56
_cell_length_a 15.402635
_cell_length_b 8.470750
_cell_length_c 21.922331
_cell_angle_alpha 90.000000
_cell_angle_beta 90.000000
_cell_angle_gamma 90.000000
_cell_volume 2860.247530
_symmetry_space_group_name_H-M "P M M A"
_symmetry_group_IT_number 51
_symmetry_cell_setting 'orthorhombic'
loop_
_space_group_symop_operation_xyz
x,y,z
1/2-x,-y,z
1/2+x,-y,-z
-x,y,-z
-x,-y,-z
1/2+x,y,-z
1/2-x,y,z
x,-y,z
loop_
_atom_site_type_symbol
_atom_site_label
_atom_site_fract_x
_atom_site_fract_y
_atom_site_fract_z
Si Si1 0.940830 0.814511 0.780230
Si Si2 0.250000 0.315300 0.385932
Si Si3 0.849892 0.309376 0.438066
Si Si4 0.000760 0.310424 0.093000
Si Si5 0.537032 0.681666 0.336995
Si Si6 0.423209 0.816970 0.439821
Si Si7 0.250000 0.679472 0.239473
Si Si8 0.648847 0.692569 0.001308
O O1 0.990403 0.741001 0.837666
O O2 0.841124 0.755745 0.779482
O O3 0.990349 0.771374 0.717527
O O4 0.939769 0.000000 0.786889
O O5 0.250000 0.500000 0.407650
O O6 0.169318 0.218008 0.409816
O O7 0.250000 0.321321 0.312985
O O8 0.750000 0.271610 0.451142
O O9 0.860435 0.500000 0.443472
O O10 0.872933 0.264851 0.368049
O O11 0.908217 0.224849 0.489372
O O12 0.000713 0.500000 0.089798
O O13 0.911933 0.258893 0.058886
O O14 0.087607 0.258399 0.055834
O O15 0.542856 0.500000 0.318146
O O16 0.479669 0.700156 0.398136
O O17 0.448506 0.000000 0.431878
O O18 0.250000 0.500000 0.216537
O O19 0.750000 0.746049 0.000770
O O20 0.652050 0.500000 0.001012
#
# Coordination Sequence:
#
# PCOD9406778 Si02
#       8
#     8   4   8   8   8   8   4   8
#     4  12  25  39  57  84 120 154 188 233 287 343
#     4  11  21  35  57  81 110 148 187 228 277 338
#     4  10  22  40  61  81 105 140 186 239 289 343
#     4   9  18  34  58  88 121 156 197 241 283 335
#     4  11  23  40  60  81 107 147 193 234 283 340
#     4  12  23  35  56  85 114 144 179 228 291 349
#     4  11  23  39  61  83 110 152 193 232 281 342
#     4   8  15  31  58  91 121 154 200 246 282 322
#
# _framework density 19.578724000000001
#
# number of rings (size 3 to 8) (size 9 to 14) (size 15 to 20)
#    0.000    1.571    2.143    4.714    1.000    3.429 
#    0.000    2.143    0.000    5.571    0.000    0.000 
#    0.000    0.000    0.000    0.000    0.000    0.000 
#
# Total GULP energy -312321.919104 kJ/mol
# GULP energy per Si atom -5577.177127 kJ/mol
# Density = 1.953416 g / cm^3
# Si number density = 19.578724 Si / 1000 Ang^3
#
#
#
# Elastic Constant Matrix: (Units=GPa)
#
#
# Indices 1 2 3 4 5 6 
#
# 1 98.4959 12.2962 39.4010 0.0000 0.0000 0.0000
# 2 12.2962 31.1382 9.9723 0.0000 0.0000 0.0000
# 3 39.4010 9.9723 89.3231 0.0000 0.0000 0.0000
# 4 0.0000 0.0000 0.0000 -93.1409 0.0000 0.0000
# 5 0.0000 0.0000 0.0000 0.0000 10.6216 0.0000
# 6 0.0000 0.0000 0.0000 0.0000 0.0000 -4.2117
#
#
#
# Elastic Compliance Matrix: (Units=1/GPa)
#
#
# Indices 1 2 3 4 5 6 
#
# 1 0.012652 -0.003328 -0.005209 0.000000 0.000000 0.000000
# 2 -0.003328 0.034181 -0.002348 0.000000 0.000000 0.000000
# 3 -0.005209 -0.002348 0.013755 0.000000 0.000000 0.000000
# 4 0.000000 0.000000 0.000000 -0.010736 0.000000 0.000000
# 5 0.000000 0.000000 0.000000 0.000000 0.094148 0.000000
# 6 0.000000 0.000000 0.000000 0.000000 0.000000 -0.237435
#
#
# Mechanical properties :
#
#
# Convention : Reuss Voigt Hill
#
# Bulk Modulus (GPa) = 25.76142 38.03290 31.89716
# Shear Modulus (GPa) = -85.14268 -6.86036 -46.00152
#
# Velocity S-wave (km/s) = -6.60165 -1.87393 -4.85249
# Velocity P-wave (km/s) = 6.70243 3.84521 3.88181
#
# Compressibility (1/GPa) = 0.03881774
#
# Stress axis : x y z
#
# Youngs Moduli (GPa) = 79.03862 29.25599 72.69893
#
# Poissons Ratio (x) = 0.09736 0.37872
# Poissons Ratio (y) = 0.26303 0.17071
# Poissons Ratio (z) = 0.41174 0.06870
#
# Static dielectric constant tensor:
#      x y z
#    x 1.905120 0.000000 0.000000 
#    y 0.000000 1.672780 0.000000 
#    z 0.000000 0.000000 1.683120 
# 
# From -- ./inp_files/33574.got.cif
#   From: 2010.05.17/outbox.cif.g08.bks.cpg/sg51_17_cif.got.tgz:33574.got - 2010.06.03 11:52:47.
