data_PCOD9406359
_publ_section_title
;
Structure prediction by ZEFSAII (Michael W. Deem and Ramdas Pophale) SiO2 
 PCOD9406359
Probable space group: P M M A
;
_chemical_formula_sum "Si O2"
_cell_formula_units_Z 58
_cell_length_a 8.977050
_cell_length_b 23.010429
_cell_length_c 14.739283
_cell_angle_alpha 90.000000
_cell_angle_beta 90.000000
_cell_angle_gamma 90.000000
_cell_volume 3044.631367
_symmetry_space_group_name_H-M "P M M A"
_symmetry_group_IT_number 51
_symmetry_cell_setting 'orthorhombic'
loop_
_space_group_symop_operation_xyz
x,y,z
1/2-x,-y,z
1/2+x,-y,-z
-x,y,-z
-x,-y,-z
1/2+x,y,-z
1/2-x,y,z
x,-y,z
loop_
_atom_site_type_symbol
_atom_site_label
_atom_site_fract_x
_atom_site_fract_y
_atom_site_fract_z
Si Si1 0.930213 0.203033 0.902109
Si Si2 0.982530 0.562907 0.783706
Si Si3 0.082864 0.334997 0.089428
Si Si4 0.569823 0.741741 0.596224
Si Si5 0.071719 0.614139 0.593590
Si Si6 0.575156 0.069322 0.597107
Si Si7 0.071314 0.838218 0.724420
Si Si8 0.250000 0.500000 0.860929
O O1 0.750000 0.197209 0.900215
O O2 0.972422 0.271002 0.882767
O O3 0.007103 0.164573 0.825524
O O4 0.000000 0.189981 0.000000
O O5 0.903356 0.500000 0.782505
O O6 0.913635 0.619628 0.828379
O O7 0.037464 0.575839 0.681939
O O8 0.121544 0.549521 0.848783
O O9 0.250000 0.324978 0.057809
O O10 0.000000 0.356984 0.000000
O O11 0.500000 0.761300 0.500000
O O12 0.750000 0.741674 0.594417
O O13 0.486364 0.895110 0.672375
O O14 0.505286 0.784269 0.671809
O O15 0.250000 0.620801 0.583127
O O16 0.993243 0.676546 0.609158
O O17 0.000000 0.590780 0.500000
O O18 0.500000 0.081884 0.500000
O O19 0.750000 0.086245 0.596117
O O20 0.566679 0.000000 0.611731
O O21 0.250000 0.833658 0.721958
#
# Coordination Sequence:
#
# PCOD9406359 Si02
#       8
#     8   8   8   8   8   8   8   2
#     4  10  21  40  60  87 118 147 187 234 284 340
#     4  10  21  39  56  74 106 138 180 220 275 328
#     4  10  23  38  61  86 110 140 176 221 278 338
#     4  11  22  36  53  79 112 145 183 230 280 338
#     4  11  21  36  56  78 104 140 179 224 277 334
#     4  10  21  38  60  88 124 164 203 244 285 329
#     4  12  23  36  58  86 117 157 195 234 284 334
#     4   8  20  40  54  76  98 142 176 224 268 332
#
# _framework density 19.049925000000002
#
# number of rings (size 3 to 8) (size 9 to 14) (size 15 to 20)
#    0.414    1.103    0.690    5.793    0.966    4.414 
#    0.000    0.000    0.000    0.414    0.000    0.000 
#    0.000    0.000    0.000    0.000    0.000    0.000 
#
# Total GULP energy -323004.313698 kJ/mol
# GULP energy per Si atom -5569.039891 kJ/mol
# Density = 1.900657 g / cm^3
# Si number density = 19.049925 Si / 1000 Ang^3
#
#
#
# Elastic Constant Matrix: (Units=GPa)
#
#
# Indices 1 2 3 4 5 6 
#
# 1 163.3280 36.9559 54.2862 0.0000 0.0000 0.0000
# 2 36.9559 55.3160 54.1748 0.0000 0.0000 0.0000
# 3 54.2862 54.1748 115.9201 0.0000 0.0000 0.0000
# 4 0.0000 0.0000 0.0000 180.6938 0.0000 0.0000
# 5 0.0000 0.0000 0.0000 0.0000 19.4314 0.0000
# 6 0.0000 0.0000 0.0000 0.0000 0.0000 -134.1304
#
#
#
# Elastic Compliance Matrix: (Units=1/GPa)
#
#
# Indices 1 2 3 4 5 6 
#
# 1 0.007495 -0.002894 -0.002157 0.000000 0.000000 0.000000
# 2 -0.002894 0.034454 -0.014746 0.000000 0.000000 0.000000
# 3 -0.002157 -0.014746 0.016528 0.000000 0.000000 0.000000
# 4 0.000000 0.000000 0.000000 0.005534 0.000000 0.000000
# 5 0.000000 0.000000 0.000000 0.000000 0.051463 0.000000
# 6 0.000000 0.000000 0.000000 0.000000 0.000000 -0.007455
#
#
# Mechanical properties :
#
#
# Convention : Reuss Voigt Hill
#
# Bulk Modulus (GPa) = 52.96301 69.48865 61.22583
# Shear Modulus (GPa) = 32.48692 25.80877 29.14784
#
# Velocity S-wave (km/s) = 4.13408 3.68475 3.91586
# Velocity P-wave (km/s) = 7.11688 7.39320 7.25636
#
# Compressibility (1/GPa) = 0.01888110
#
# Stress axis : x y z
#
# Youngs Moduli (GPa) = 133.43093 29.02432 60.50180
#
# Poissons Ratio (x) = 0.08401 0.13050
# Poissons Ratio (y) = 0.38621 0.89218
# Poissons Ratio (z) = 0.28781 0.42800
#
# Static dielectric constant tensor:
#      x y z
#    x 1.678570 0.000000 0.000000 
#    y 0.000000 1.681870 0.000000 
#    z 0.000000 0.000000 1.674640 
# 
# From -- ./inp_files/22134.got.cif
#   From: 2010.05.17/outbox.cif.g08.bks.cpg/sg51_12_cif.got.tgz:22134.got - 2010.06.03 11:52:47.
