data_PCOD9406344
_publ_section_title
;
Structure prediction by ZEFSAII (Michael W. Deem and Ramdas Pophale) SiO2 
 PCOD9406344
Probable space group: P M M A
;
_chemical_formula_sum "Si O2"
_cell_formula_units_Z 64
_cell_length_a 15.914840
_cell_length_b 9.210657
_cell_length_c 22.825075
_cell_angle_alpha 90.000000
_cell_angle_beta 90.000000
_cell_angle_gamma 90.000000
_cell_volume 3345.839467
_symmetry_space_group_name_H-M "P M M A"
_symmetry_group_IT_number 51
_symmetry_cell_setting 'orthorhombic'
loop_
_space_group_symop_operation_xyz
x,y,z
1/2-x,-y,z
1/2+x,-y,-z
-x,y,-z
-x,-y,-z
1/2+x,y,-z
1/2-x,y,z
x,-y,z
loop_
_atom_site_type_symbol
_atom_site_label
_atom_site_fract_x
_atom_site_fract_y
_atom_site_fract_z
Si Si1 0.649244 0.835764 0.760882
Si Si2 0.114083 0.335668 0.120422
Si Si3 0.993784 0.173560 0.569246
Si Si4 0.652090 0.174563 0.350338
Si Si5 0.652977 0.164153 0.996252
Si Si6 0.415461 0.335311 0.894403
Si Si7 0.649163 0.666968 0.230120
Si Si8 0.150500 0.326145 0.358338
O O1 0.750000 0.846023 0.758659
O O2 0.628671 0.753909 0.820653
O O3 0.624865 0.742990 0.704159
O O4 0.614626 0.000000 0.759181
O O5 0.147327 0.500000 0.125439
O O6 0.148551 0.252948 0.063890
O O7 0.014815 0.344564 0.110825
O O8 0.913927 0.257518 0.595521
O O9 0.000000 0.199653 0.500000
O O10 0.081098 0.214961 0.602054
O O11 0.981891 0.000000 0.578438
O O12 0.750000 0.218384 0.363393
O O13 0.626711 0.242921 0.287799
O O14 0.652313 0.000000 0.345837
O O15 0.750000 0.157835 0.014290
O O16 0.621914 0.000000 0.986672
O O17 0.605764 0.242682 0.048863
O O18 0.380677 0.500000 0.901210
O O19 0.382223 0.275270 0.832411
O O20 0.750000 0.664276 0.227850
O O21 0.618421 0.500000 0.235616
O O22 0.250000 0.291768 0.369184
O O23 0.143148 0.500000 0.356584
#
# Coordination Sequence:
#
# PCOD9406344 Si02
#       8
#     8   8   8   8   8   8   8   8
#     4  10  21  38  60  86 116 151 193 240 291 348
#     4  11  23  37  56  84 115 148 187 233 287 347
#     4  10  22  39  61  91 124 161 205 249 299 358
#     4   9  19  36  57  84 119 156 196 244 296 352
#     4  11  24  40  57  78 106 144 191 239 287 341
#     4  10  22  38  56  81 111 143 183 232 287 345
#     4   9  18  34  56  81 109 144 185 230 284 344
#     4  10  22  40  62  89 123 162 205 254 305 357
#
# _framework density 19.128233999999999
#
# number of rings (size 3 to 8) (size 9 to 14) (size 15 to 20)
#    0.000    2.000    0.000    2.625    1.750    8.750 
#    0.000    2.500    0.000    1.500    0.000    0.000 
#    0.000    0.000    0.000    0.000    0.000    0.000 
#
# Total GULP energy -357267.652916 kJ/mol
# GULP energy per Si atom -5582.307077 kJ/mol
# Density = 1.908470 g / cm^3
# Si number density = 19.128234 Si / 1000 Ang^3
#
#
#
# Elastic Constant Matrix: (Units=GPa)
#
#
# Indices 1 2 3 4 5 6 
#
# 1 66.2077 42.7811 57.4952 0.0000 0.0000 0.0000
# 2 42.7811 96.5434 73.4760 0.0000 0.0000 0.0000
# 3 57.4952 73.4760 142.9005 0.0000 0.0000 0.0000
# 4 0.0000 0.0000 0.0000 39.5271 0.0000 0.0000
# 5 0.0000 0.0000 0.0000 0.0000 40.6175 0.0000
# 6 0.0000 0.0000 0.0000 0.0000 0.0000 27.7703
#
#
#
# Elastic Compliance Matrix: (Units=1/GPa)
#
#
# Indices 1 2 3 4 5 6 
#
# 1 0.024937 -0.005609 -0.007149 0.000000 0.000000 0.000000
# 2 -0.005609 0.018279 -0.007142 0.000000 0.000000 0.000000
# 3 -0.007149 -0.007142 0.013546 0.000000 0.000000 0.000000
# 4 0.000000 0.000000 0.000000 0.025299 0.000000 0.000000
# 5 0.000000 0.000000 0.000000 0.000000 0.024620 0.000000
# 6 0.000000 0.000000 0.000000 0.000000 0.000000 0.036010
#
#
# Mechanical properties :
#
#
# Convention : Reuss Voigt Hill
#
# Bulk Modulus (GPa) = 58.95526 72.57290 65.76408
# Shear Modulus (GPa) = 26.57525 30.37628 28.47577
#
# Velocity S-wave (km/s) = 3.73140 3.98934 3.86252
# Velocity P-wave (km/s) = 7.03224 7.69690 7.37207
#
# Compressibility (1/GPa) = 0.01696201
#
# Stress axis : x y z
#
# Youngs Moduli (GPa) = 40.10140 54.70741 73.82069
#
# Poissons Ratio (x) = 0.30687 0.52774
# Poissons Ratio (y) = 0.22494 0.52721
# Poissons Ratio (z) = 0.28668 0.39071
#
# Static dielectric constant tensor:
#      x y z
#    x 1.661760 0.000000 0.000000 
#    y 0.000000 1.683930 0.000000 
#    z 0.000000 0.000000 1.629180 
# 
# From -- ./inp_files/35781.got.cif
#   From: 2010.05.17/outbox.cif.g08.bks.cpg/sg51_18_cif.got.tgz:35781.got - 2010.06.03 11:52:47.
