data_PCOD9406117
_publ_section_title
;
Structure prediction by ZEFSAII (Michael W. Deem and Ramdas Pophale) SiO2 
 PCOD9406117
Probable space group: P M M A
;
_chemical_formula_sum "Si O2"
_cell_formula_units_Z 56
_cell_length_a 8.502995
_cell_length_b 20.173984
_cell_length_c 16.243818
_cell_angle_alpha 90.000000
_cell_angle_beta 90.000000
_cell_angle_gamma 90.000000
_cell_volume 2786.452927
_symmetry_space_group_name_H-M "P M M A"
_symmetry_group_IT_number 51
_symmetry_cell_setting 'orthorhombic'
loop_
_space_group_symop_operation_xyz
x,y,z
1/2-x,-y,z
1/2+x,-y,-z
-x,y,-z
-x,-y,-z
1/2+x,y,-z
1/2-x,y,z
x,-y,z
loop_
_atom_site_type_symbol
_atom_site_label
_atom_site_fract_x
_atom_site_fract_y
_atom_site_fract_z
Si Si1 0.432885 0.074577 0.254680
Si Si2 0.574816 0.921386 0.081284
Si Si3 0.059968 0.572629 0.655113
Si Si4 0.438476 0.716521 0.090441
Si Si5 0.060572 0.707994 0.585946
Si Si6 0.060280 0.425746 0.158101
Si Si7 0.935618 0.786186 0.254234
O O1 0.250000 0.080000 0.276634
O O2 0.455381 0.081285 0.156388
O O3 0.529292 0.138373 0.281758
O O4 0.488655 0.000000 0.276901
O O5 0.750000 0.894956 0.101049
O O6 0.595038 0.000000 0.066608
O O7 0.500000 0.891177 0.000000
O O8 0.250000 0.574620 0.660500
O O9 0.010669 0.500000 0.626084
O O10 0.008594 0.631974 0.597005
O O11 0.995781 0.581676 0.747613
O O12 0.250000 0.717756 0.089114
O O13 0.492576 0.640355 0.110071
O O14 0.492452 0.762920 0.166884
O O15 0.500000 0.735152 0.000000
O O16 0.250000 0.711438 0.585235
O O17 0.003742 0.742743 0.669520
O O18 0.000000 0.735973 0.500000
O O19 0.250000 0.425769 0.156370
O O20 0.007711 0.500000 0.129843
O O21 0.750000 0.776103 0.246685
#
# Coordination Sequence:
#
# PCOD9406117 Si02
#       7
#     8   8   8   8   8   8   8
#     4  10  21  37  58  84 111 142 182 227 282 348
#     4   9  16  27  45  71 104 140 177 219 266 319
#     4   9  17  32  55  83 117 155 194 238 289 341
#     4  11  23  38  58  84 117 158 203 249 296 347
#     4  10  22  38  59  88 119 154 195 238 288 346
#     4   9  18  33  54  81 113 152 199 248 296 343
#     4  11  23  41  62  86 118 152 192 241 291 346
#
# _framework density 20.097235000000001
#
# number of rings (size 3 to 8) (size 9 to 14) (size 15 to 20)
#    0.000    2.143    1.429    1.714    0.000    6.000 
#    0.000    2.857    0.000    0.429    0.000    0.000 
#    0.000    0.000    0.000    0.000    0.000    0.000 
#
# Total GULP energy -312242.642073 kJ/mol
# GULP energy per Si atom -5575.761466 kJ/mol
# Density = 2.005149 g / cm^3
# Si number density = 20.097235 Si / 1000 Ang^3
#
#
#
# Elastic Constant Matrix: (Units=GPa)
#
#
# Indices 1 2 3 4 5 6 
#
# 1 28.1900 12.9533 12.9847 0.0000 0.0000 0.0000
# 2 12.9533 117.3940 44.8044 0.0000 0.0000 0.0000
# 3 12.9847 44.8044 92.3853 0.0000 0.0000 0.0000
# 4 0.0000 0.0000 0.0000 1.3200 0.0000 0.0000
# 5 0.0000 0.0000 0.0000 0.0000 23.8723 0.0000
# 6 0.0000 0.0000 0.0000 0.0000 0.0000 21.1198
#
#
#
# Elastic Compliance Matrix: (Units=1/GPa)
#
#
# Indices 1 2 3 4 5 6 
#
# 1 0.038607 -0.002686 -0.004123 0.000000 0.000000 0.000000
# 2 -0.002686 0.010640 -0.004783 0.000000 0.000000 0.000000
# 3 -0.004123 -0.004783 0.013723 0.000000 0.000000 0.000000
# 4 0.000000 0.000000 0.000000 0.757569 0.000000 0.000000
# 5 0.000000 0.000000 0.000000 0.000000 0.041890 0.000000
# 6 0.000000 0.000000 0.000000 0.000000 0.000000 0.047349
#
#
# Mechanical properties :
#
#
# Convention : Reuss Voigt Hill
#
# Bulk Modulus (GPa) = 25.13452 42.16156 33.64804
# Shear Modulus (GPa) = 5.28416 20.41090 12.84753
#
# Velocity S-wave (km/s) = 1.62327 3.19032 2.53112
# Velocity P-wave (km/s) = 4.00586 5.88177 5.03200
#
# Compressibility (1/GPa) = 0.03978591
#
# Stress axis : x y z
#
# Youngs Moduli (GPa) = 25.90193 93.98470 72.86926
#
# Poissons Ratio (x) = 0.25246 0.30047
# Poissons Ratio (y) = 0.06958 0.34850
# Poissons Ratio (z) = 0.10681 0.44949
#
# Static dielectric constant tensor:
#      x y z
#    x 1.709390 0.000000 0.000000 
#    y 0.000000 1.797400 0.000000 
#    z 0.000000 0.000000 1.686200 
# 
# From -- ./inp_files/21769.got.cif
#   From: 2010.05.17/outbox.cif.g08.bks.cpg/sg51_11_cif.got.tgz:21769.got - 2010.06.03 11:52:47.
