data_PCOD9406266
_publ_section_title
;
Structure prediction by ZEFSAII (Michael W. Deem and Ramdas Pophale) SiO2 
 PCOD9406266
Probable space group: P M M A
;
_chemical_formula_sum "Si O2"
_cell_formula_units_Z 56
_cell_length_a 13.334151
_cell_length_b 8.824724
_cell_length_c 21.201666
_cell_angle_alpha 90.000000
_cell_angle_beta 90.000000
_cell_angle_gamma 90.000000
_cell_volume 2494.804328
_symmetry_space_group_name_H-M "P M M A"
_symmetry_group_IT_number 51
_symmetry_cell_setting 'orthorhombic'
loop_
_space_group_symop_operation_xyz
x,y,z
1/2-x,-y,z
1/2+x,-y,-z
-x,y,-z
-x,-y,-z
1/2+x,y,-z
1/2-x,y,z
x,-y,z
loop_
_atom_site_type_symbol
_atom_site_label
_atom_site_fract_x
_atom_site_fract_y
_atom_site_fract_z
Si Si1 0.137093 0.180852 0.543957
Si Si2 0.372144 0.326595 0.909443
Si Si3 0.372451 0.171808 0.038088
Si Si4 0.055597 0.176903 0.288719
Si Si5 0.633918 0.317752 0.234959
Si Si6 0.929634 0.679278 0.584172
Si Si7 0.369976 0.669244 0.165006
O O1 0.250000 0.215838 0.566376
O O2 0.127418 0.230049 0.470680
O O3 0.046418 0.271259 0.576388
O O4 0.120311 0.000000 0.549884
O O5 0.250000 0.327467 0.909510
O O6 0.403347 0.500000 0.920826
O O7 0.396606 0.281875 0.837683
O O8 0.402715 0.224487 0.968330
O O9 0.250000 0.175466 0.038125
O O10 0.404924 0.277321 0.096054
O O11 0.402813 0.000000 0.050775
O O12 0.102332 0.270827 0.346185
O O13 0.103957 0.219725 0.221863
O O14 0.940616 0.229715 0.280097
O O15 0.062736 0.000000 0.301962
O O16 0.750000 0.276746 0.243767
O O17 0.625797 0.500000 0.242840
O O18 0.919015 0.500000 0.574753
O O19 0.250000 0.662615 0.161305
O O20 0.407668 0.500000 0.179731
#
# Coordination Sequence:
#
# PCOD9406266 Si02
#       7
#     8   8   8   8   8   8   8
#     4  10  21  40  67  97 128 158 190 233 283 331
#     4   8  14  27  49  75 103 139 183 232 288 346
#     4   9  16  27  47  76 108 141 180 231 291 350
#     4  12  25  40  59  84 119 157 193 238 289 342
#     4   9  19  37  59  82 111 149 194 242 291 347
#     4  11  23  40  63  90 123 160 198 238 277 329
#     4  10  21  38  59  81 108 146 193 242 292 350
#
# _framework density 22.446650999999999
#
# number of rings (size 3 to 8) (size 9 to 14) (size 15 to 20)
#    0.000    2.143    0.000    5.571    0.000    5.714 
#    0.000    2.143    0.000    4.286    0.000    0.000 
#    0.000    0.000    0.000    0.000    0.000    0.000 
#
# Total GULP energy -313290.704568 kJ/mol
# GULP energy per Si atom -5594.476867 kJ/mol
# Density = 2.239556 g / cm^3
# Si number density = 22.446651 Si / 1000 Ang^3
#
#
#
# Elastic Constant Matrix: (Units=GPa)
#
#
# Indices 1 2 3 4 5 6 
#
# 1 58.6585 -3.7794 -12.6795 0.0000 0.0000 0.0000
# 2 -3.7794 62.1541 3.7425 0.0000 0.0000 0.0000
# 3 -12.6795 3.7425 71.7217 0.0000 0.0000 0.0000
# 4 0.0000 0.0000 0.0000 15.3154 0.0000 0.0000
# 5 0.0000 0.0000 0.0000 0.0000 9.5303 0.0000
# 6 0.0000 0.0000 0.0000 0.0000 0.0000 27.9250
#
#
#
# Elastic Compliance Matrix: (Units=1/GPa)
#
#
# Indices 1 2 3 4 5 6 
#
# 1 0.017775 0.000894 0.003096 0.000000 0.000000 0.000000
# 2 0.000894 0.016185 -0.000686 0.000000 0.000000 0.000000
# 3 0.003096 -0.000686 0.014526 0.000000 0.000000 0.000000
# 4 0.000000 0.000000 0.000000 0.065294 0.000000 0.000000
# 5 0.000000 0.000000 0.000000 0.000000 0.104928 0.000000
# 6 0.000000 0.000000 0.000000 0.000000 0.000000 0.035810
#
#
# Mechanical properties :
#
#
# Convention : Reuss Voigt Hill
#
# Bulk Modulus (GPa) = 18.15127 18.56683 18.35905
# Shear Modulus (GPa) = 18.77761 24.23752 21.50757
#
# Velocity S-wave (km/s) = 2.89544 3.28957 3.09878
# Velocity P-wave (km/s) = 4.39114 4.76633 4.58257
#
# Compressibility (1/GPa) = 0.05509257
#
# Stress axis : x y z
#
# Youngs Moduli (GPa) = 56.26009 61.78656 68.84270
#
# Poissons Ratio (x) = -0.05526 -0.21311
# Poissons Ratio (y) = -0.05032 0.04725
# Poissons Ratio (z) = -0.17416 0.04241
#
# Static dielectric constant tensor:
#      x y z
#    x 1.904990 0.000000 0.000000 
#    y 0.000000 1.753480 0.000000 
#    z 0.000000 0.000000 1.809530 
# 
# From -- ./inp_files/33381.got.cif
#   From: 2010.05.17/outbox.cif.g08.bks.cpg/sg51_17_cif.got.tgz:33381.got - 2010.06.03 11:52:47.
