data_PCOD9406616
_publ_section_title
;
Structure prediction by ZEFSAII (Michael W. Deem and Ramdas Pophale) SiO2 
 PCOD9406616
Probable space group: P M M A
;
_chemical_formula_sum "Si O2"
_cell_formula_units_Z 64
_cell_length_a 9.530168
_cell_length_b 13.937553
_cell_length_c 24.214833
_cell_angle_alpha 90.000000
_cell_angle_beta 90.000000
_cell_angle_gamma 90.000000
_cell_volume 3216.388989
_symmetry_space_group_name_H-M "P M M A"
_symmetry_group_IT_number 51
_symmetry_cell_setting 'orthorhombic'
loop_
_space_group_symop_operation_xyz
x,y,z
1/2-x,-y,z
1/2+x,-y,-z
-x,y,-z
-x,-y,-z
1/2+x,y,-z
1/2-x,y,z
x,-y,z
loop_
_atom_site_type_symbol
_atom_site_label
_atom_site_fract_x
_atom_site_fract_y
_atom_site_fract_z
Si Si1 0.415138 0.200618 0.054407
Si Si2 0.589057 0.615702 0.671715
Si Si3 0.082284 0.109659 0.386900
Si Si4 0.086018 0.610229 0.115266
Si Si5 0.417427 0.701632 0.446450
Si Si6 0.589225 0.116741 0.279237
Si Si7 0.410178 0.383094 0.776556
Si Si8 0.087858 0.115728 0.845284
O O1 0.250000 0.178850 0.049467
O O2 0.431537 0.314433 0.066208
O O3 0.483438 0.152050 0.108072
O O4 0.500000 0.172343 0.000000
O O5 0.750000 0.648625 0.680642
O O6 0.589809 0.500000 0.673032
O O7 0.545708 0.648050 0.610580
O O8 0.489922 0.649278 0.721380
O O9 0.250000 0.110790 0.379512
O O10 0.048666 0.186828 0.433744
O O11 0.010917 0.142162 0.329741
O O12 0.039012 0.000000 0.399174
O O13 0.250000 0.613664 0.132212
O O14 0.052967 0.500000 0.100558
O O15 0.992127 0.640297 0.167372
O O16 0.500000 0.667651 0.500000
O O17 0.250000 0.691575 0.454568
O O18 0.750000 0.145901 0.290272
O O19 0.550147 0.147656 0.217155
O O20 0.588099 0.000000 0.277655
O O21 0.250000 0.350247 0.778043
O O22 0.409121 0.500000 0.774696
O O23 0.250000 0.145149 0.856243
O O24 0.085877 0.000000 0.845650
#
# Coordination Sequence:
#
# PCOD9406616 Si02
#       8
#     8   8   8   8   8   8   8   8
#     4  11  24  39  56  79 106 140 184 227 265 311
#     4   9  18  34  54  74 101 136 167 202 254 310
#     4   9  18  33  52  74 102 133 163 202 252 302
#     4   9  19  37  58  79 107 143 178 214 263 321
#     4  10  22  37  51  71  98 130 173 215 250 297
#     4   8  15  30  53  80 106 132 165 204 250 305
#     4   9  17  30  52  83 111 134 167 211 258 309
#     4   9  19  37  59  82 111 144 175 214 265 317
#
# _framework density 19.898091999999998
#
# number of rings (size 3 to 8) (size 9 to 14) (size 15 to 20)
#    0.000    2.750    0.000    1.500    0.000    6.250 
#    0.000    5.000    0.000    0.000    0.000    0.000 
#    0.000    0.000    0.000    0.000    0.000    0.000 
#
# Total GULP energy -357292.493333 kJ/mol
# GULP energy per Si atom -5582.695208 kJ/mol
# Density = 1.985280 g / cm^3
# Si number density = 19.898092 Si / 1000 Ang^3
#
#
#
# Elastic Constant Matrix: (Units=GPa)
#
#
# Indices 1 2 3 4 5 6 
#
# 1 63.6469 6.5900 52.9094 0.0000 0.0000 0.0000
# 2 6.5900 32.2387 -5.0667 0.0000 0.0000 0.0000
# 3 52.9094 -5.0667 91.1514 0.0000 0.0000 0.0000
# 4 0.0000 0.0000 0.0000 21.4918 0.0000 0.0000
# 5 0.0000 0.0000 0.0000 0.0000 35.3216 0.0000
# 6 0.0000 0.0000 0.0000 0.0000 0.0000 18.4702
#
#
#
# Elastic Compliance Matrix: (Units=1/GPa)
#
#
# Indices 1 2 3 4 5 6 
#
# 1 0.033231 -0.009911 -0.019840 0.000000 0.000000 0.000000
# 2 -0.009911 0.034248 0.007656 0.000000 0.000000 0.000000
# 3 -0.019840 0.007656 0.022912 0.000000 0.000000 0.000000
# 4 0.000000 0.000000 0.000000 0.046529 0.000000 0.000000
# 5 0.000000 0.000000 0.000000 0.000000 0.028311 0.000000
# 6 0.000000 0.000000 0.000000 0.000000 0.000000 0.054141
#
#
# Mechanical properties :
#
#
# Convention : Reuss Voigt Hill
#
# Bulk Modulus (GPa) = 21.64381 32.87804 27.26092
# Shear Modulus (GPa) = 17.92360 23.89699 20.91029
#
# Velocity S-wave (km/s) = 3.00454 3.46926 3.24523
# Velocity P-wave (km/s) = 4.78929 5.71023 5.26992
#
# Compressibility (1/GPa) = 0.04620259
#
# Stress axis : x y z
#
# Youngs Moduli (GPa) = 30.09283 29.19899 43.64439
#
# Poissons Ratio (x) = 0.28938 0.86589
# Poissons Ratio (y) = 0.29824 -0.33416
# Poissons Ratio (z) = 0.59703 -0.22356
#
# Static dielectric constant tensor:
#      x y z
#    x 1.670280 0.000000 0.000000 
#    y 0.000000 1.771920 0.000000 
#    z 0.000000 0.000000 1.650690 
# 
# From -- ./inp_files/34977.got.cif
#   From: 2010.05.17/outbox.cif.g08.bks.cpg/sg51_18_cif.got.tgz:34977.got - 2010.06.03 11:52:47.
