data_PCOD9406697
_publ_section_title
;
Structure prediction by ZEFSAII (Michael W. Deem and Ramdas Pophale) SiO2 
 PCOD9406697
Probable space group: P M M A
;
_chemical_formula_sum "Si O2"
_cell_formula_units_Z 56
_cell_length_a 8.079111
_cell_length_b 22.334833
_cell_length_c 14.470552
_cell_angle_alpha 90.000000
_cell_angle_beta 90.000000
_cell_angle_gamma 90.000000
_cell_volume 2611.147365
_symmetry_space_group_name_H-M "P M M A"
_symmetry_group_IT_number 51
_symmetry_cell_setting 'orthorhombic'
loop_
_space_group_symop_operation_xyz
x,y,z
1/2-x,-y,z
1/2+x,-y,-z
-x,y,-z
-x,-y,-z
1/2+x,y,-z
1/2-x,y,z
x,-y,z
loop_
_atom_site_type_symbol
_atom_site_label
_atom_site_fract_x
_atom_site_fract_y
_atom_site_fract_z
Si Si1 0.449667 0.619062 0.105828
Si Si2 0.947503 0.315162 0.392909
Si Si3 0.947503 0.184838 0.392909
Si Si4 0.449667 0.880938 0.105828
Si Si5 0.449345 0.435600 0.289943
Si Si6 0.550655 0.935600 0.710057
Si Si7 0.949023 0.750000 0.892451
O O1 0.250000 0.620278 0.105861
O O2 0.504919 0.572883 0.183534
O O3 0.509920 0.685125 0.139574
O O4 0.500000 0.608338 0.000000
O O5 0.750000 0.314006 0.387630
O O6 0.010510 0.250000 0.356145
O O7 0.000000 0.317959 0.500000
O O8 0.004973 0.375552 0.343824
O O9 0.750000 0.185994 0.387630
O O10 0.000000 0.182041 0.500000
O O11 0.004973 0.124448 0.343825
O O12 0.250000 0.879722 0.105861
O O13 0.504919 0.927117 0.183535
O O14 0.509921 0.814876 0.139573
O O15 0.500000 0.891663 0.000000
O O16 0.250000 0.437460 0.290178
O O17 0.510051 0.500000 0.326476
O O18 0.750000 0.937459 0.709822
O O19 0.489950 0.000000 0.673523
O O20 0.750000 0.750000 0.883443
O O21 0.000000 0.750000 0.000000
#
# Coordination Sequence:
#
# PCOD9406697 Si02
#       7
#     8   8   8   8   8   8   8
#     4   9  18  32  51  76 110 151 195 239 285 336
#     4  10  22  41  65  92 117 146 187 236 291 350
#     4  10  22  41  65  92 117 146 187 236 291 350
#     4   9  18  32  51  76 110 151 195 239 285 336
#     4  10  22  38  57  85 120 158 198 238 286 344
#     4  10  22  38  57  85 120 158 198 238 286 344
#     4   8  14  26  44  68  95 132 179 228 279 324
#
# _framework density 21.446511000000001
#
# number of rings (size 3 to 8) (size 9 to 14) (size 15 to 20)
#    0.000    2.571    0.000    0.857    2.000    4.571 
#    0.000    0.000    0.000    0.000    0.000    0.000 
#    0.000    0.000    0.000    0.000    0.000    0.000 
#
# Total GULP energy -312166.197922 kJ/mol
# GULP energy per Si atom -5574.396391 kJ/mol
# Density = 2.139770 g / cm^3
# Si number density = 21.446511 Si / 1000 Ang^3
#
#
#
# Elastic Constant Matrix: (Units=GPa)
#
#
# Indices 1 2 3 4 5 6 
#
# 1 23.5653 30.8808 3.4247 0.0000 0.0000 0.0000
# 2 30.8808 219.2468 79.8764 0.0000 0.0000 0.0000
# 3 3.4247 79.8764 73.1760 0.0000 0.0000 0.0000
# 4 0.0000 0.0000 0.0000 22.1354 0.0000 0.0000
# 5 0.0000 0.0000 0.0000 0.0000 24.4195 0.0000
# 6 0.0000 0.0000 0.0000 0.0000 0.0000 -61.3426
#
#
#
# Elastic Compliance Matrix: (Units=1/GPa)
#
#
# Indices 1 2 3 4 5 6 
#
# 1 0.056097 -0.011530 0.009960 0.000000 0.000000 0.000000
# 2 -0.011530 0.009942 -0.010313 0.000000 0.000000 0.000000
# 3 0.009960 -0.010313 0.024457 0.000000 0.000000 0.000000
# 4 0.000000 0.000000 0.000000 0.045176 0.000000 0.000000
# 5 0.000000 0.000000 0.000000 0.000000 0.040951 0.000000
# 6 0.000000 0.000000 0.000000 0.000000 0.000000 -0.016302
#
#
# Mechanical properties :
#
#
# Convention : Reuss Voigt Hill
#
# Bulk Modulus (GPa) = 14.98552 60.48354 37.73453
# Shear Modulus (GPa) = 24.23287 10.49621 17.36454
#
# Velocity S-wave (km/s) = 3.36508 2.21467 2.84855
# Velocity P-wave (km/s) = 4.70116 5.89940 5.33403
#
# Compressibility (1/GPa) = 0.06673109
#
# Stress axis : x y z
#
# Youngs Moduli (GPa) = 17.82618 100.57947 40.88805
#
# Poissons Ratio (x) = 1.15969 -0.40726
# Poissons Ratio (y) = 0.20554 0.42168
# Poissons Ratio (z) = -0.17756 1.03729
#
# Static dielectric constant tensor:
#      x y z
#    x 1.761090 0.000000 0.000000 
#    y 0.000000 1.852570 0.000000 
#    z 0.000000 0.000000 1.758130 
# 
# From -- ./inp_files/21733.got.cif
#   From: 2010.05.17/outbox.cif.g08.bks.cpg/sg51_11_cif.got.tgz:21733.got - 2010.06.03 11:52:47.
