data_PCOD9406285
_publ_section_title
;
Structure prediction by ZEFSAII (Michael W. Deem and Ramdas Pophale) SiO2 
 PCOD9406285
Probable space group: P M M A
;
_chemical_formula_sum "Si O2"
_cell_formula_units_Z 44
_cell_length_a 8.819527
_cell_length_b 16.864750
_cell_length_c 16.346325
_cell_angle_alpha 90.000000
_cell_angle_beta 90.000000
_cell_angle_gamma 90.000000
_cell_volume 2431.337963
_symmetry_space_group_name_H-M "P M M A"
_symmetry_group_IT_number 51
_symmetry_cell_setting 'orthorhombic'
loop_
_space_group_symop_operation_xyz
x,y,z
1/2-x,-y,z
1/2+x,-y,-z
-x,y,-z
-x,-y,-z
1/2+x,y,-z
1/2-x,y,z
x,-y,z
loop_
_atom_site_type_symbol
_atom_site_label
_atom_site_fract_x
_atom_site_fract_y
_atom_site_fract_z
Si Si1 0.570236 0.631713 0.700540
Si Si2 0.067458 0.802405 0.732207
Si Si3 0.930856 0.587238 0.131020
Si Si4 0.930337 0.500000 0.411492
Si Si5 0.431019 0.765805 0.915900
Si Si6 0.070985 0.095100 0.412409
O O1 0.750000 0.636414 0.689917
O O2 0.496017 0.718108 0.702309
O O3 0.527646 0.591667 0.786714
O O4 0.493289 0.577194 0.633590
O O5 0.250000 0.802988 0.730358
O O6 0.021191 0.805238 0.829036
O O7 0.004307 0.866031 0.667775
O O8 0.750000 0.591250 0.150202
O O9 0.956501 0.500000 0.092441
O O10 0.967481 0.671058 0.088447
O O11 0.750000 0.500000 0.410965
O O12 0.000000 0.500000 0.500000
O O13 0.250000 0.772517 0.920321
O O14 0.500000 0.798117 0.000000
O O15 0.250000 0.113249 0.412839
O O16 0.000000 0.121148 0.500000
O O17 0.051814 0.000000 0.407936
#
# Coordination Sequence:
#
# PCOD9406285 Si02
#       6
#     8   8   8   4   8   8
#     4  11  21  34  52  76 102 135 183 230 275 329
#     4  10  21  38  59  83 113 152 191 229 279 334
#     4   9  17  31  50  69  97 138 180 227 282 334
#     4  12  24  38  52  70  99 136 179 230 282 332
#     4   9  19  33  50  76 108 146 190 236 285 334
#     4  10  21  38  62  93 124 150 179 221 274 333
#
# _framework density 18.097031000000001
#
# number of rings (size 3 to 8) (size 9 to 14) (size 15 to 20)
#    0.000    2.000    0.909    4.636    0.000    5.818 
#    0.000    3.636    0.000    0.545    0.000    0.000 
#    0.000    0.000    0.000    0.000    0.000    0.000 
#
# Total GULP energy -245304.443445 kJ/mol
# GULP energy per Si atom -5575.100987 kJ/mol
# Density = 1.805584 g / cm^3
# Si number density = 18.097031 Si / 1000 Ang^3
#
#
#
# Elastic Constant Matrix: (Units=GPa)
#
#
# Indices 1 2 3 4 5 6 
#
# 1 83.6450 39.2997 81.1683 0.0000 0.0000 0.0000
# 2 39.2997 42.2469 45.3667 0.0000 0.0000 0.0000
# 3 81.1683 45.3667 167.6543 0.0000 0.0000 0.0000
# 4 0.0000 0.0000 0.0000 152.6580 0.0000 0.0000
# 5 0.0000 0.0000 0.0000 0.0000 31.8480 0.0000
# 6 0.0000 0.0000 0.0000 0.0000 0.0000 27.6093
#
#
#
# Elastic Compliance Matrix: (Units=1/GPa)
#
#
# Indices 1 2 3 4 5 6 
#
# 1 0.029137 -0.016853 -0.009546 0.000000 0.000000 0.000000
# 2 -0.016853 0.043114 -0.003507 0.000000 0.000000 0.000000
# 3 -0.009546 -0.003507 0.011535 0.000000 0.000000 0.000000
# 4 0.000000 0.000000 0.000000 0.006551 0.000000 0.000000
# 5 0.000000 0.000000 0.000000 0.000000 0.031399 0.000000
# 6 0.000000 0.000000 0.000000 0.000000 0.000000 0.036220
#
#
# Mechanical properties :
#
#
# Convention : Reuss Voigt Hill
#
# Bulk Modulus (GPa) = 41.71286 69.46840 55.59063
# Shear Modulus (GPa) = 22.14742 50.93716 36.54229
#
# Velocity S-wave (km/s) = 3.50210 5.31110 4.49847
# Velocity P-wave (km/s) = 6.28113 8.72241 7.60042
#
# Compressibility (1/GPa) = 0.02397342
#
# Stress axis : x y z
#
# Youngs Moduli (GPa) = 34.32069 23.19421 86.69101
#
# Poissons Ratio (x) = 0.39090 0.82754
# Poissons Ratio (y) = 0.57842 0.30404
# Poissons Ratio (z) = 0.32762 0.08134
#
# Static dielectric constant tensor:
#      x y z
#    x 1.600070 0.000000 0.000000 
#    y 0.000000 1.605880 0.000000 
#    z 0.000000 0.000000 1.621190 
# 
# From -- ./inp_files/20878.got.cif
#   From: 2010.05.17/outbox.cif.g08.bks.cpg/sg51_11_cif.got.tgz:20878.got - 2010.06.03 11:52:47.
