data_PCOD9406477
_publ_section_title
;
Structure prediction by ZEFSAII (Michael W. Deem and Ramdas Pophale) SiO2 
 PCOD9406477
Probable space group: P M M A
;
_chemical_formula_sum "Si O2"
_cell_formula_units_Z 64
_cell_length_a 31.469761
_cell_length_b 8.587553
_cell_length_c 12.419596
_cell_angle_alpha 90.000000
_cell_angle_beta 90.000000
_cell_angle_gamma 90.000000
_cell_volume 3356.373967
_symmetry_space_group_name_H-M "P M M A"
_symmetry_group_IT_number 51
_symmetry_cell_setting 'orthorhombic'
loop_
_space_group_symop_operation_xyz
x,y,z
1/2-x,-y,z
1/2+x,-y,-z
-x,y,-z
-x,-y,-z
1/2+x,y,-z
1/2-x,y,z
x,-y,z
loop_
_atom_site_type_symbol
_atom_site_label
_atom_site_fract_x
_atom_site_fract_y
_atom_site_fract_z
Si Si1 0.549674 0.685932 0.494542
Si Si2 0.869458 0.680896 0.099108
Si Si3 0.484708 0.189321 0.117600
Si Si4 0.300415 0.820625 0.760230
Si Si5 0.372510 0.186926 0.371282
Si Si6 0.061592 0.185923 0.737528
Si Si7 0.200699 0.313892 0.524610
Si Si8 0.612797 0.187899 0.868695
O O1 0.500000 0.738615 0.500000
O O2 0.550203 0.500000 0.507210
O O3 0.581918 0.758913 0.581336
O O4 0.567447 0.732108 0.376778
O O5 0.880586 0.500000 0.101360
O O6 0.824953 0.713448 0.156592
O O7 0.903591 0.772264 0.172615
O O8 0.868666 0.740842 0.977194
O O9 0.516812 0.238335 0.210724
O O10 0.436585 0.236162 0.135731
O O11 0.486099 0.000000 0.116202
O O12 0.500000 0.242869 0.000000
O O13 0.250000 0.811923 0.775612
O O14 0.309308 0.765710 0.638867
O O15 0.314090 0.000000 0.773889
O O16 0.334098 0.257777 0.439874
O O17 0.367748 0.232121 0.246041
O O18 0.371244 0.000000 0.378567
O O19 0.061305 0.000000 0.720912
O O20 0.250000 0.274561 0.496545
O O21 0.198213 0.500000 0.536980
O O22 0.614419 0.000000 0.878180
#
# Coordination Sequence:
#
# PCOD9406477 Si02
#       8
#     8   8   8   8   8   8   8   8
#     4  11  24  40  57  82 121 160 196 243 298 355
#     4  12  24  37  56  85 119 151 186 229 285 347
#     4   9  16  31  56  81 106 143 191 242 287 327
#     4  10  21  39  64  90 115 145 185 234 286 341
#     4  11  23  39  62  88 117 156 202 250 296 351
#     4  11  21  36  60  84 112 149 195 244 285 335
#     4  10  21  39  64  92 122 154 190 238 298 361
#     4  10  21  39  59  82 113 152 200 245 287 338
#
# _framework density 19.068197000000001
#
# number of rings (size 3 to 8) (size 9 to 14) (size 15 to 20)
#    0.000    1.500    1.250    4.500    0.000    4.500 
#    0.000    2.500    0.000    0.750    0.000    0.000 
#    0.000    0.000    0.000    0.000    0.000    0.000 
#
# Total GULP energy -357652.955259 kJ/mol
# GULP energy per Si atom -5588.327426 kJ/mol
# Density = 1.902480 g / cm^3
# Si number density = 19.068197 Si / 1000 Ang^3
#
#
#
# Elastic Constant Matrix: (Units=GPa)
#
#
# Indices 1 2 3 4 5 6 
#
# 1 61.3433 9.5673 36.1426 0.0000 0.0000 0.0000
# 2 9.5673 28.6371 3.0679 0.0000 0.0000 0.0000
# 3 36.1426 3.0679 97.6446 0.0000 0.0000 0.0000
# 4 0.0000 0.0000 0.0000 102.5035 0.0000 0.0000
# 5 0.0000 0.0000 0.0000 0.0000 34.1858 0.0000
# 6 0.0000 0.0000 0.0000 0.0000 0.0000 23.2025
#
#
#
# Elastic Compliance Matrix: (Units=1/GPa)
#
#
# Indices 1 2 3 4 5 6 
#
# 1 0.021990 -0.006497 -0.007935 0.000000 0.000000 0.000000
# 2 -0.006497 0.036957 0.001243 0.000000 0.000000 0.000000
# 3 -0.007935 0.001243 0.013139 0.000000 0.000000 0.000000
# 4 0.000000 0.000000 0.000000 0.009756 0.000000 0.000000
# 5 0.000000 0.000000 0.000000 0.000000 0.029252 0.000000
# 6 0.000000 0.000000 0.000000 0.000000 0.000000 0.043099
#
#
# Mechanical properties :
#
#
# Convention : Reuss Voigt Hill
#
# Bulk Modulus (GPa) = 21.87724 31.68674 26.78199
# Shear Modulus (GPa) = 25.53536 41.23483 33.38510
#
# Velocity S-wave (km/s) = 3.66342 4.65531 4.18883
# Velocity P-wave (km/s) = 5.42147 6.74904 6.12135
#
# Compressibility (1/GPa) = 0.04570961
#
# Stress axis : x y z
#
# Youngs Moduli (GPa) = 45.47442 27.05855 76.10685
#
# Poissons Ratio (x) = 0.17579 0.60395
# Poissons Ratio (y) = 0.29543 -0.09464
# Poissons Ratio (z) = 0.36086 -0.03365
#
# Static dielectric constant tensor:
#      x y z
#    x 1.666240 0.000000 0.000000 
#    y 0.000000 1.646540 0.000000 
#    z 0.000000 0.000000 1.652190 
# 
# From -- ./inp_files/19580.got.cif
#   From: 2010.05.17/outbox.cif.g08.bks.cpg/sg51_10_cif.got.tgz:19580.got - 2010.06.03 11:52:47.
