data_PCOD9406755
_publ_section_title
;
Structure prediction by ZEFSAII (Michael W. Deem and Ramdas Pophale) SiO2 
 PCOD9406755
Probable space group: P M M A
;
_chemical_formula_sum "Si O2"
_cell_formula_units_Z 40
_cell_length_a 9.704586
_cell_length_b 17.415504
_cell_length_c 12.875194
_cell_angle_alpha 90.000000
_cell_angle_beta 90.000000
_cell_angle_gamma 90.000000
_cell_volume 2176.039838
_symmetry_space_group_name_H-M "P M M A"
_symmetry_group_IT_number 51
_symmetry_cell_setting 'orthorhombic'
loop_
_space_group_symop_operation_xyz
x,y,z
1/2-x,-y,z
1/2+x,-y,-z
-x,y,-z
-x,-y,-z
1/2+x,y,-z
1/2-x,y,z
x,-y,z
loop_
_atom_site_type_symbol
_atom_site_label
_atom_site_fract_x
_atom_site_fract_y
_atom_site_fract_z
Si Si1 0.588083 0.912470 0.708926
Si Si2 0.916054 0.847350 0.103843
Si Si3 0.487759 0.684242 0.191598
Si Si4 0.250000 0.589090 0.824943
Si Si5 0.250000 0.591481 0.075160
Si Si6 0.406764 0.759792 0.406662
O O1 0.750000 0.900354 0.741360
O O2 0.483768 0.896508 0.803343
O O3 0.558284 0.847896 0.623319
O O4 0.575530 0.000000 0.673165
O O5 0.750000 0.855647 0.094933
O O6 0.954484 0.758957 0.131411
O O7 0.000000 0.867566 0.000000
O O8 0.615491 0.630321 0.216726
O O9 0.380911 0.635810 0.122735
O O10 0.422714 0.714363 0.298616
O O11 0.250000 0.500000 0.800825
O O12 0.250000 0.597779 0.950625
O O13 0.250000 0.500000 0.100420
O O14 0.500000 0.731323 0.500000
O O15 0.250000 0.756868 0.441155
#
# Coordination Sequence:
#
# PCOD9406755 Si02
#       6
#     8   8   8   4   4   8
#     4   9  20  39  59  84 118 150 187 239 296 351
#     4  11  22  34  55  83 115 160 203 239 284 342
#     4  11  22  38  58  87 122 156 196 245 288 344
#     4  11  22  36  59  93 124 155 191 235 289 349
#     4  11  22  38  61  89 124 161 193 231 291 353
#     4  10  22  39  63  87 112 150 198 244 294 344
#
# _framework density 18.382017000000001
#
# number of rings (size 3 to 8) (size 9 to 14) (size 15 to 20)
#    0.000    1.600    2.000    3.000    4.200    3.600 
#    0.000    0.000    0.000    3.600    0.000    0.000 
#    0.000    0.000    0.000    0.000    0.000    0.000 
#
# Total GULP energy -223331.585734 kJ/mol
# GULP energy per Si atom -5583.289643 kJ/mol
# Density = 1.834018 g / cm^3
# Si number density = 18.382017 Si / 1000 Ang^3
#
#
#
# Elastic Constant Matrix: (Units=GPa)
#
#
# Indices 1 2 3 4 5 6 
#
# 1 78.8019 1.8870 13.8527 0.0000 0.0000 0.0000
# 2 1.8870 78.3918 -3.4951 0.0000 0.0000 0.0000
# 3 13.8527 -3.4951 49.5319 0.0000 0.0000 0.0000
# 4 0.0000 0.0000 0.0000 4.5758 0.0000 0.0000
# 5 0.0000 0.0000 0.0000 0.0000 35.5156 0.0000
# 6 0.0000 0.0000 0.0000 0.0000 0.0000 34.2119
#
#
#
# Elastic Compliance Matrix: (Units=1/GPa)
#
#
# Indices 1 2 3 4 5 6 
#
# 1 0.013365 -0.000490 -0.003772 0.000000 0.000000 0.000000
# 2 -0.000490 0.012815 0.001041 0.000000 0.000000 0.000000
# 3 -0.003772 0.001041 0.021318 0.000000 0.000000 0.000000
# 4 0.000000 0.000000 0.000000 0.218539 0.000000 0.000000
# 5 0.000000 0.000000 0.000000 0.000000 0.028157 0.000000
# 6 0.000000 0.000000 0.000000 0.000000 0.000000 0.029230
#
#
# Mechanical properties :
#
#
# Convention : Reuss Voigt Hill
#
# Bulk Modulus (GPa) = 24.35753 25.69053 25.02403
# Shear Modulus (GPa) = 14.55395 27.82606 21.19001
#
# Velocity S-wave (km/s) = 2.81686 3.89493 3.39891
# Velocity P-wave (km/s) = 4.88458 5.85095 5.38947
#
# Compressibility (1/GPa) = 0.04105507
#
# Stress axis : x y z
#
# Youngs Moduli (GPa) = 74.82269 78.03563 46.90976
#
# Poissons Ratio (x) = 0.03823 0.17696
# Poissons Ratio (y) = 0.03666 -0.04885
# Poissons Ratio (z) = 0.28226 -0.08126
#
# Static dielectric constant tensor:
#      x y z
#    x 1.610770 0.000000 0.000000 
#    y 0.000000 1.633080 0.000000 
#    z 0.000000 0.000000 1.598010 
# 
# From -- ./inp_files/14062.got.cif
#   From: 2010.05.17/outbox.cif.g08.bks.cpg/sg51_8_cif.got.tgz:14062.got - 2010.06.03 11:52:47.
