data_PCOD9406829
_publ_section_title
;
Structure prediction by ZEFSAII (Michael W. Deem and Ramdas Pophale) SiO2 
 PCOD9406829
Probable space group: P M M A
;
_chemical_formula_sum "Si O2"
_cell_formula_units_Z 56
_cell_length_a 9.015524
_cell_length_b 14.021761
_cell_length_c 21.617395
_cell_angle_alpha 90.000000
_cell_angle_beta 90.000000
_cell_angle_gamma 90.000000
_cell_volume 2732.731056
_symmetry_space_group_name_H-M "P M M A"
_symmetry_group_IT_number 51
_symmetry_cell_setting 'orthorhombic'
loop_
_space_group_symop_operation_xyz
x,y,z
1/2-x,-y,z
1/2+x,-y,-z
-x,y,-z
-x,-y,-z
1/2+x,y,-z
1/2-x,y,z
x,-y,z
loop_
_atom_site_type_symbol
_atom_site_label
_atom_site_fract_x
_atom_site_fract_y
_atom_site_fract_z
Si Si1 0.572890 0.800797 0.937371
Si Si2 0.577104 0.114998 0.691946
Si Si3 0.418930 0.615648 0.753307
Si Si4 0.929195 0.388429 0.385734
Si Si5 0.427313 0.791756 0.438040
Si Si6 0.579987 0.885055 0.182561
Si Si7 0.072050 0.392077 0.119675
O O1 0.750000 0.807142 0.941400
O O2 0.516283 0.852178 0.875613
O O3 0.527418 0.689780 0.927871
O O4 0.500000 0.838765 0.000000
O O5 0.750000 0.141353 0.701463
O O6 0.529205 0.154367 0.625276
O O7 0.483336 0.148566 0.751182
O O8 0.568890 0.000000 0.689904
O O9 0.250000 0.649404 0.760881
O O10 0.413446 0.500000 0.752428
O O11 0.473562 0.639687 0.684713
O O12 0.515364 0.639712 0.812729
O O13 0.750000 0.378518 0.390018
O O14 0.964033 0.500000 0.396043
O O15 0.012359 0.315621 0.429677
O O16 0.500000 0.833135 0.500000
O O17 0.250000 0.793388 0.443247
O O18 0.750000 0.854542 0.174160
O O19 0.576828 0.000000 0.184297
O O20 0.250000 0.394946 0.121124
O O21 0.017669 0.500000 0.106875
#
# Coordination Sequence:
#
# PCOD9406829 Si02
#       7
#     8   8   8   8   8   8   8
#     4  11  24  40  59  86 121 160 201 243 293 348
#     4   9  20  41  66  91 120 153 190 236 292 353
#     4   8  15  29  50  77 106 140 185 235 288 339
#     4   9  19  36  56  80 114 155 198 244 293 345
#     4  11  24  39  58  86 119 157 200 242 293 349
#     4  10  22  41  66  94 120 150 191 239 294 354
#     4   9  19  35  54  79 114 154 196 241 287 339
#
# _framework density 20.492321
#
# number of rings (size 3 to 8) (size 9 to 14) (size 15 to 20)
#    0.000    2.429    0.000    2.143    2.000    5.143 
#    0.000    1.429    0.000    0.000    0.000    0.000 
#    0.000    0.000    0.000    0.000    0.000    0.000 
#
# Total GULP energy -312701.309595 kJ/mol
# GULP energy per Si atom -5583.951957 kJ/mol
# Density = 2.044568 g / cm^3
# Si number density = 20.492321 Si / 1000 Ang^3
#
#
#
# Elastic Constant Matrix: (Units=GPa)
#
#
# Indices 1 2 3 4 5 6 
#
# 1 45.0015 17.7584 52.0898 0.0000 0.0000 0.0000
# 2 17.7584 34.8766 25.6234 0.0000 0.0000 0.0000
# 3 52.0898 25.6234 150.9251 0.0000 0.0000 0.0000
# 4 0.0000 0.0000 0.0000 19.9329 0.0000 0.0000
# 5 0.0000 0.0000 0.0000 0.0000 36.3084 0.0000
# 6 0.0000 0.0000 0.0000 0.0000 0.0000 17.7952
#
#
#
# Elastic Compliance Matrix: (Units=1/GPa)
#
#
# Indices 1 2 3 4 5 6 
#
# 1 0.040950 -0.011959 -0.012103 0.000000 0.000000 0.000000
# 2 -0.011959 0.036251 -0.002027 0.000000 0.000000 0.000000
# 3 -0.012103 -0.002027 0.011147 0.000000 0.000000 0.000000
# 4 0.000000 0.000000 0.000000 0.050168 0.000000 0.000000
# 5 0.000000 0.000000 0.000000 0.000000 0.027542 0.000000
# 6 0.000000 0.000000 0.000000 0.000000 0.000000 0.056195
#
#
# Mechanical properties :
#
#
# Convention : Reuss Voigt Hill
#
# Bulk Modulus (GPa) = 27.64707 46.86070 37.25389
# Shear Modulus (GPa) = 17.45275 23.82942 20.64108
#
# Velocity S-wave (km/s) = 2.92151 3.41375 3.17718
# Velocity P-wave (km/s) = 4.99009 6.20124 5.62834
#
# Compressibility (1/GPa) = 0.03617019
#
# Stress axis : x y z
#
# Youngs Moduli (GPa) = 24.42002 27.58546 89.70899
#
# Poissons Ratio (x) = 0.32989 1.08575
# Poissons Ratio (y) = 0.29204 0.18185
# Poissons Ratio (z) = 0.29556 0.05592
#
# Static dielectric constant tensor:
#      x y z
#    x 1.687060 0.000000 0.000000 
#    y 0.000000 1.770740 0.000000 
#    z 0.000000 0.000000 1.721080 
# 
# From -- ./inp_files/31976.got.cif
#   From: 2010.05.17/outbox.cif.g08.bks.cpg/sg51_16_cif.got.tgz:31976.got - 2010.06.03 11:52:47.
