data_PCOD9406711
_publ_section_title
;
Structure prediction by ZEFSAII (Michael W. Deem and Ramdas Pophale) SiO2 
 PCOD9406711
Probable space group: P M M A
;
_chemical_formula_sum "Si O2"
_cell_formula_units_Z 56
_cell_length_a 17.024525
_cell_length_b 19.003385
_cell_length_c 8.747401
_cell_angle_alpha 90.000000
_cell_angle_beta 90.000000
_cell_angle_gamma 90.000000
_cell_volume 2829.990689
_symmetry_space_group_name_H-M "P M M A"
_symmetry_group_IT_number 51
_symmetry_cell_setting 'orthorhombic'
loop_
_space_group_symop_operation_xyz
x,y,z
1/2-x,-y,z
1/2+x,-y,-z
-x,y,-z
-x,-y,-z
1/2+x,y,-z
1/2-x,y,z
x,-y,z
loop_
_atom_site_type_symbol
_atom_site_label
_atom_site_fract_x
_atom_site_fract_y
_atom_site_fract_z
Si Si1 0.339220 0.222369 0.831675
Si Si2 0.572026 0.682007 0.592974
Si Si3 0.842815 0.580459 0.353577
Si Si4 0.082945 0.921159 0.315685
Si Si5 0.894090 0.918999 0.331428
Si Si6 0.043233 0.652516 0.837715
Si Si7 0.661171 0.791448 0.807108
O O1 0.250000 0.242031 0.778720
O O2 0.356899 0.144170 0.766730
O O3 0.411660 0.274412 0.794257
O O4 0.338274 0.228740 0.015494
O O5 0.500000 0.717761 0.500000
O O6 0.623625 0.634581 0.480166
O O7 0.524488 0.635520 0.715361
O O8 0.620304 0.736779 0.693343
O O9 0.750000 0.589913 0.336368
O O10 0.858094 0.500000 0.399894
O O11 0.887920 0.596859 0.194776
O O12 0.116087 0.906913 0.486423
O O13 0.115689 0.864091 0.202881
O O14 0.988616 0.917602 0.314452
O O15 0.106130 0.000000 0.273754
O O16 0.868392 0.000000 0.295963
O O17 0.000000 0.656671 0.000000
O O18 0.750000 0.801125 0.755326
#
# Coordination Sequence:
#
# PCOD9406711 Si02
#       7
#     8   8   8   8   8   8   8
#     4  11  24  39  58  86 125 164 203 256 313 370
#     4  10  22  38  64  91 119 158 203 251 296 358
#     4  10  23  44  68  96 130 164 199 245 303 362
#     4   9  20  37  57  83 114 153 202 258 312 365
#     4   9  20  38  60  84 114 155 206 259 312 371
#     4  11  22  40  65  93 125 164 208 252 298 359
#     4  11  23  37  56  85 120 158 202 252 308 367
#
# _framework density 19.788050999999999
#
# number of rings (size 3 to 8) (size 9 to 14) (size 15 to 20)
#    0.000    1.857    1.429    2.571    6.000    4.571 
#    0.000    4.286    0.000    1.714    0.000    0.000 
#    0.000    0.000    0.000    0.000    0.000    0.000 
#
# Total GULP energy -312223.082661 kJ/mol
# GULP energy per Si atom -5575.412190 kJ/mol
# Density = 1.974301 g / cm^3
# Si number density = 19.788051 Si / 1000 Ang^3
#
#
#
# Elastic Constant Matrix: (Units=GPa)
#
#
# Indices 1 2 3 4 5 6 
#
# 1 69.7456 23.8286 27.8196 0.0000 0.0000 0.0000
# 2 23.8286 75.1743 24.1862 0.0000 0.0000 0.0000
# 3 27.8196 24.1862 54.9381 0.0000 0.0000 0.0000
# 4 0.0000 0.0000 0.0000 39.3282 0.0000 0.0000
# 5 0.0000 0.0000 0.0000 0.0000 31.9673 0.0000
# 6 0.0000 0.0000 0.0000 0.0000 0.0000 27.0129
#
#
#
# Elastic Compliance Matrix: (Units=1/GPa)
#
#
# Indices 1 2 3 4 5 6 
#
# 1 0.018664 -0.003350 -0.007976 0.000000 0.000000 0.000000
# 2 -0.003350 0.016099 -0.005391 0.000000 0.000000 0.000000
# 3 -0.007976 -0.005391 0.024615 0.000000 0.000000 0.000000
# 4 0.000000 0.000000 0.000000 0.025427 0.000000 0.000000
# 5 0.000000 0.000000 0.000000 0.000000 0.031282 0.000000
# 6 0.000000 0.000000 0.000000 0.000000 0.000000 0.037019
#
#
# Mechanical properties :
#
#
# Convention : Reuss Voigt Hill
#
# Bulk Modulus (GPa) = 38.54612 39.05853 38.80233
# Shear Modulus (GPa) = 25.61639 27.92992 26.77316
#
# Velocity S-wave (km/s) = 3.60187 3.76101 3.68230
# Velocity P-wave (km/s) = 6.06793 6.21623 6.14253
#
# Compressibility (1/GPa) = 0.02594295
#
# Stress axis : x y z
#
# Youngs Moduli (GPa) = 53.57964 62.11669 40.62609
#
# Poissons Ratio (x) = 0.20808 0.32405
# Poissons Ratio (y) = 0.17948 0.21902
# Poissons Ratio (z) = 0.42737 0.33488
#
# Static dielectric constant tensor:
#      x y z
#    x 1.707210 0.000000 0.000000 
#    y 0.000000 1.703410 0.000000 
#    z 0.000000 0.000000 1.720310 
# 
# From -- ./inp_files/8513.got.cif
#   From: 2010.05.17/outbox.cif.g08.bks.cpg/sg51_5_cif.got.tgz:8513.got - 2010.06.03 11:52:47.
