data_PCOD9406856
_publ_section_title
;
Structure prediction by ZEFSAII (Michael W. Deem and Ramdas Pophale) SiO2 
 PCOD9406856
Probable space group: P M M A
;
_chemical_formula_sum "Si O2"
_cell_formula_units_Z 32
_cell_length_a 9.619037
_cell_length_b 13.989771
_cell_length_c 10.397167
_cell_angle_alpha 90.000000
_cell_angle_beta 90.000000
_cell_angle_gamma 90.000000
_cell_volume 1399.127267
_symmetry_space_group_name_H-M "P M M A"
_symmetry_group_IT_number 51
_symmetry_cell_setting 'orthorhombic'
loop_
_space_group_symop_operation_xyz
x,y,z
1/2-x,-y,z
1/2+x,-y,-z
-x,y,-z
-x,-y,-z
1/2+x,y,-z
1/2-x,y,z
x,-y,z
loop_
_atom_site_type_symbol
_atom_site_label
_atom_site_fract_x
_atom_site_fract_y
_atom_site_fract_z
Si Si1 0.101755 0.605445 0.335814
Si Si2 0.400549 0.388270 0.895371
Si Si3 0.417051 0.886217 0.866153
Si Si4 0.910726 0.820057 0.618332
O O1 0.250000 0.606106 0.260502
O O2 0.100007 0.500000 0.399860
O O3 0.102810 0.705473 0.408043
O O4 0.973704 0.610764 0.240915
O O5 0.250000 0.344329 0.892087
O O6 0.385634 0.500000 0.930789
O O7 0.500000 0.342701 0.000000
O O8 0.250000 0.864982 0.871840
O O9 0.501245 0.835749 0.749260
O O10 0.426831 0.000000 0.841124
O O11 0.500000 0.869300 0.000000
O O12 0.750000 0.855266 0.628604
O O13 0.000000 0.861665 0.500000
#
# Coordination Sequence:
#
# PCOD9406856 Si02
#       4
#     8   8   8   8
#     4   9  19  36  55  77 111 158 211 263 313 366
#     4   9  16  26  43  68  98 136 185 242 302 360
#     4  10  22  43  72 103 133 166 206 256 317 386
#     4  11  24  41  63  93 130 172 217 267 322 380
#
# _framework density 22.871399
#
# number of rings (size 3 to 8) (size 9 to 14) (size 15 to 20)
#    0.000    2.250    0.000    2.250    0.000    8.500 
#    0.000    0.000    0.000    0.000    0.000    0.000 
#    0.000    0.000    0.000    0.000    0.000    0.000 
#
# Total GULP energy -178292.839084 kJ/mol
# GULP energy per Si atom -5571.651221 kJ/mol
# Density = 2.281934 g / cm^3
# Si number density = 22.871399 Si / 1000 Ang^3
#
#
#
# Elastic Constant Matrix: (Units=GPa)
#
#
# Indices 1 2 3 4 5 6 
#
# 1 250.6462 14.2518 85.1003 0.0000 0.0000 0.0000
# 2 14.2518 120.0329 0.5462 0.0000 0.0000 0.0000
# 3 85.1003 0.5462 100.4039 0.0000 0.0000 0.0000
# 4 0.0000 0.0000 0.0000 10.3999 0.0000 0.0000
# 5 0.0000 0.0000 0.0000 0.0000 35.0393 0.0000
# 6 0.0000 0.0000 0.0000 0.0000 0.0000 14.4924
#
#
#
# Elastic Compliance Matrix: (Units=1/GPa)
#
#
# Indices 1 2 3 4 5 6 
#
# 1 0.005652 -0.000649 -0.004787 0.000000 0.000000 0.000000
# 2 -0.000649 0.008406 0.000505 0.000000 0.000000 0.000000
# 3 -0.004787 0.000505 0.014014 0.000000 0.000000 0.000000
# 4 0.000000 0.000000 0.000000 0.096155 0.000000 0.000000
# 5 0.000000 0.000000 0.000000 0.000000 0.028539 0.000000
# 6 0.000000 0.000000 0.000000 0.000000 0.000000 0.069002
#
#
# Mechanical properties :
#
#
# Convention : Reuss Voigt Hill
#
# Bulk Modulus (GPa) = 54.91829 74.54217 64.73023
# Shear Modulus (GPa) = 21.03487 36.73196 28.88341
#
# Velocity S-wave (km/s) = 3.03595 4.01187 3.55753
# Velocity P-wave (km/s) = 6.02936 7.35682 6.72592
#
# Compressibility (1/GPa) = 0.01820887
#
# Stress axis : x y z
#
# Youngs Moduli (GPa) = 176.93276 118.96488 71.35572
#
# Poissons Ratio (x) = 0.07724 0.34157
# Poissons Ratio (y) = 0.11488 -0.03601
# Poissons Ratio (z) = 0.84696 -0.06003
#
# Static dielectric constant tensor:
#      x y z
#    x 1.886240 0.000000 0.000000 
#    y 0.000000 1.903990 0.000000 
#    z 0.000000 0.000000 1.795980 
# 
# From -- ./inp_files/13690.got.cif
#   From: 2010.05.17/outbox.cif.g08.bks.cpg/sg51_7_cif.got.tgz:13690.got - 2010.06.03 11:52:47.
