data_PCOD9406090
_publ_section_title
;
Structure prediction by ZEFSAII (Michael W. Deem and Ramdas Pophale) SiO2 
 PCOD9406090
Probable space group: P M M A
;
_chemical_formula_sum "Si O2"
_cell_formula_units_Z 44
_cell_length_a 9.589362
_cell_length_b 27.774540
_cell_length_c 9.142234
_cell_angle_alpha 90.000000
_cell_angle_beta 90.000000
_cell_angle_gamma 90.000000
_cell_volume 2434.943686
_symmetry_space_group_name_H-M "P M M A"
_symmetry_group_IT_number 51
_symmetry_cell_setting 'orthorhombic'
loop_
_space_group_symop_operation_xyz
x,y,z
1/2-x,-y,z
1/2+x,-y,-z
-x,y,-z
-x,-y,-z
1/2+x,y,-z
1/2-x,y,z
x,-y,z
loop_
_atom_site_type_symbol
_atom_site_label
_atom_site_fract_x
_atom_site_fract_y
_atom_site_fract_z
Si Si1 0.916248 0.000000 0.347921
Si Si2 0.750000 0.443413 0.831031
Si Si3 0.580614 0.801972 0.152974
Si Si4 0.920693 0.292684 0.843765
Si Si5 0.250000 0.440999 0.827275
Si Si6 0.585118 0.104769 0.350184
Si Si7 0.492719 0.389614 0.325407
O O1 0.948122 0.947740 0.278824
O O2 0.000000 0.000000 0.500000
O O3 0.750000 0.000000 0.375154
O O4 0.750000 0.500000 0.838669
O O5 0.624028 0.424131 0.737995
O O6 0.750000 0.427254 0.000419
O O7 0.750000 0.793885 0.137186
O O8 0.498002 0.755467 0.215185
O O9 0.559227 0.849511 0.248755
O O10 0.500000 0.809587 0.000000
O O11 0.750000 0.288226 0.858689
O O12 0.957730 0.337173 0.739836
O O13 0.000000 0.300984 0.000000
O O14 0.250000 0.500000 0.815229
O O15 0.375465 0.414802 0.746860
O O16 0.500000 0.108733 0.500000
O O17 0.750000 0.104904 0.384108
O O18 0.500000 0.388053 0.500000
#
# Coordination Sequence:
#
# PCOD9406090 Si02
#       7
#     4   4   8   8   4   8   8
#     4   8  14  28  49  74 108 146 190 238 287 348
#     4  11  23  45  67  91 121 159 207 240 281 354
#     4  10  21  37  57  84 114 151 194 238 287 345
#     4  11  23  41  64  87 112 153 198 239 290 356
#     4  11  25  43  69  93 121 165 203 238 283 352
#     4   9  18  32  53  81 111 149 193 241 295 347
#     4  12  26  41  62  95 127 155 193 247 304 345
#
# _framework density 18.070233000000002
#
# number of rings (size 3 to 8) (size 9 to 14) (size 15 to 20)
#    0.000    1.636    0.909    4.909    2.545    5.818 
#    0.000    2.273    0.000    0.000    0.000    0.000 
#    0.000    0.000    0.000    0.000    0.000    0.000 
#
# Total GULP energy -245038.389234 kJ/mol
# GULP energy per Si atom -5569.054301 kJ/mol
# Density = 1.802910 g / cm^3
# Si number density = 18.070233 Si / 1000 Ang^3
#
#
#
# Elastic Constant Matrix: (Units=GPa)
#
#
# Indices 1 2 3 4 5 6 
#
# 1 148.2702 63.6090 52.1171 0.0000 0.0000 0.0000
# 2 63.6090 130.6915 71.5110 0.0000 0.0000 0.0000
# 3 52.1171 71.5110 102.1783 0.0000 0.0000 0.0000
# 4 0.0000 0.0000 0.0000 29.5875 0.0000 0.0000
# 5 0.0000 0.0000 0.0000 0.0000 31.4293 0.0000
# 6 0.0000 0.0000 0.0000 0.0000 0.0000 30.2106
#
#
#
# Elastic Compliance Matrix: (Units=1/GPa)
#
#
# Indices 1 2 3 4 5 6 
#
# 1 0.008884 -0.002989 -0.002439 0.000000 0.000000 0.000000
# 2 -0.002989 0.013406 -0.007858 0.000000 0.000000 0.000000
# 3 -0.002439 -0.007858 0.016530 0.000000 0.000000 0.000000
# 4 0.000000 0.000000 0.000000 0.033798 0.000000 0.000000
# 5 0.000000 0.000000 0.000000 0.000000 0.031817 0.000000
# 6 0.000000 0.000000 0.000000 0.000000 0.000000 0.033101
#
#
# Mechanical properties :
#
#
# Convention : Reuss Voigt Hill
#
# Bulk Modulus (GPa) = 81.64659 83.95713 82.80186
# Shear Modulus (GPa) = 29.72778 31.17234 30.45006
#
# Velocity S-wave (km/s) = 4.06041 4.15790 4.10944
# Velocity P-wave (km/s) = 8.20144 8.34345 8.27275
#
# Compressibility (1/GPa) = 0.01224791
#
# Stress axis : x y z
#
# Youngs Moduli (GPa) = 112.55754 74.59313 60.49454
#
# Poissons Ratio (x) = 0.22298 0.14757
# Poissons Ratio (y) = 0.33647 0.47535
# Poissons Ratio (z) = 0.27458 0.58613
#
# Static dielectric constant tensor:
#      x y z
#    x 1.581960 0.000000 0.000000 
#    y 0.000000 1.746410 0.000000 
#    z 0.000000 0.000000 1.586850 
# 
# From -- ./inp_files/5921.got.cif
#   From: 2010.05.17/outbox.cif.g08.bks.cpg/sg51_3_cif.got.tgz:5921.got - 2010.06.03 11:52:47.
