data_PCOD9406745
_publ_section_title
;
Structure prediction by ZEFSAII (Michael W. Deem and Ramdas Pophale) SiO2 
 PCOD9406745
Probable space group: P M M A
;
_chemical_formula_sum "Si O2"
_cell_formula_units_Z 58
_cell_length_a 16.770867
_cell_length_b 18.292231
_cell_length_c 9.135171
_cell_angle_alpha 90.000000
_cell_angle_beta 90.000000
_cell_angle_gamma 90.000000
_cell_volume 2802.456455
_symmetry_space_group_name_H-M "P M M A"
_symmetry_group_IT_number 51
_symmetry_cell_setting 'orthorhombic'
loop_
_space_group_symop_operation_xyz
x,y,z
1/2-x,-y,z
1/2+x,-y,-z
-x,y,-z
-x,-y,-z
1/2+x,y,-z
1/2-x,y,z
x,-y,z
loop_
_atom_site_type_symbol
_atom_site_label
_atom_site_fract_x
_atom_site_fract_y
_atom_site_fract_z
Si Si1 0.843754 0.920420 0.778019
Si Si2 0.842868 0.790885 0.279322
Si Si3 0.652985 0.219316 0.614074
Si Si4 0.655196 0.637802 0.798459
Si Si5 0.084226 0.914990 0.916718
Si Si6 0.372895 0.633749 0.857153
Si Si7 0.250000 0.500000 0.796061
Si Si8 0.489876 0.417180 0.339032
O O1 0.750000 0.923653 0.744521
O O2 0.878844 0.855398 0.683323
O O3 0.880151 0.000000 0.748104
O O4 0.853200 0.906285 0.950195
O O5 0.750000 0.815722 0.283562
O O6 0.870445 0.774405 0.445251
O O7 0.894995 0.853962 0.202587
O O8 0.845060 0.713948 0.194014
O O9 0.750000 0.217986 0.614202
O O10 0.633112 0.285240 0.722817
O O11 0.750000 0.626032 0.787359
O O12 0.602108 0.582419 0.706328
O O13 0.631331 0.632890 0.967519
O O14 0.087357 0.000000 0.865251
O O15 0.000000 0.904031 0.000000
O O16 0.318662 0.565931 0.803079
O O17 0.459449 0.622670 0.785452
O O18 0.500000 0.383536 0.500000
O O19 0.519998 0.500000 0.347569
#
# Coordination Sequence:
#
# PCOD9406745 Si02
#       8
#     8   8   8   8   8   8   2   8
#     4   9  17  33  58  84 113 154 198 245 301 359
#     4  11  22  39  64  95 124 163 212 261 323 390
#     4   9  20  37  59  89 127 160 204 260 319 389
#     4  11  23  41  66  92 125 169 216 270 328 400
#     4  10  22  39  60  90 129 169 213 262 318 382
#     4  12  24  43  69  96 131 170 221 280 339 405
#     4  12  24  44  68 102 130 172 222 286 342 420
#     4  11  26  45  63  93 129 164 209 268 334 402
#
# _framework density 20.696128000000002
#
# number of rings (size 3 to 8) (size 9 to 14) (size 15 to 20)
#    0.000    1.517    2.069    2.483    0.966    5.517 
#    1.241    3.448    0.000    3.310    0.000    0.000 
#    0.000    0.000    0.000    0.000    0.000    0.000 
#
# Total GULP energy -323154.298208 kJ/mol
# GULP energy per Si atom -5571.625831 kJ/mol
# Density = 2.064902 g / cm^3
# Si number density = 20.696128 Si / 1000 Ang^3
#
#
#
# Elastic Constant Matrix: (Units=GPa)
#
#
# Indices 1 2 3 4 5 6 
#
# 1 72.8553 32.1986 45.8540 0.0000 0.0000 0.0000
# 2 32.1986 106.1757 31.2049 0.0000 0.0000 0.0000
# 3 45.8540 31.2049 81.5562 0.0000 0.0000 0.0000
# 4 0.0000 0.0000 0.0000 25.3625 0.0000 0.0000
# 5 0.0000 0.0000 0.0000 0.0000 23.4251 0.0000
# 6 0.0000 0.0000 0.0000 0.0000 0.0000 27.4529
#
#
#
# Elastic Compliance Matrix: (Units=1/GPa)
#
#
# Indices 1 2 3 4 5 6 
#
# 1 0.022324 -0.003471 -0.011223 0.000000 0.000000 0.000000
# 2 -0.003471 0.011151 -0.002315 0.000000 0.000000 0.000000
# 3 -0.011223 -0.002315 0.019457 0.000000 0.000000 0.000000
# 4 0.000000 0.000000 0.000000 0.039428 0.000000 0.000000
# 5 0.000000 0.000000 0.000000 0.000000 0.042689 0.000000
# 6 0.000000 0.000000 0.000000 0.000000 0.000000 0.036426
#
#
# Mechanical properties :
#
#
# Convention : Reuss Voigt Hill
#
# Bulk Modulus (GPa) = 52.87212 53.23359 53.05286
# Shear Modulus (GPa) = 23.60729 25.33676 24.47202
#
# Velocity S-wave (km/s) = 3.38103 3.50269 3.44240
# Velocity P-wave (km/s) = 6.39094 6.49121 6.44127
#
# Compressibility (1/GPa) = 0.01891356
#
# Stress axis : x y z
#
# Youngs Moduli (GPa) = 44.79561 89.67443 51.39471
#
# Poissons Ratio (x) = 0.31129 0.57680
# Poissons Ratio (y) = 0.15550 0.11898
# Poissons Ratio (z) = 0.50274 0.20760
#
# Static dielectric constant tensor:
#      x y z
#    x 1.779350 0.000000 0.000000 
#    y 0.000000 1.778890 0.000000 
#    z 0.000000 0.000000 1.718230 
# 
# From -- ./inp_files/9949.got.cif
#   From: 2010.05.17/outbox.cif.g08.bks.cpg/sg51_5_cif.got.tgz:9949.got - 2010.06.03 11:52:47.
