data_PCOD9406716
_publ_section_title
;
Structure prediction by ZEFSAII (Michael W. Deem and Ramdas Pophale) SiO2 
 PCOD9406716
Probable space group: P M M A
;
_chemical_formula_sum "Si O2"
_cell_formula_units_Z 64
_cell_length_a 8.222586
_cell_length_b 14.991450
_cell_length_c 26.208053
_cell_angle_alpha 90.000000
_cell_angle_beta 90.000000
_cell_angle_gamma 90.000000
_cell_volume 3230.627038
_symmetry_space_group_name_H-M "P M M A"
_symmetry_group_IT_number 51
_symmetry_cell_setting 'orthorhombic'
loop_
_space_group_symop_operation_xyz
x,y,z
1/2-x,-y,z
1/2+x,-y,-z
-x,y,-z
-x,-y,-z
1/2+x,y,-z
1/2-x,y,z
x,-y,z
loop_
_atom_site_type_symbol
_atom_site_label
_atom_site_fract_x
_atom_site_fract_y
_atom_site_fract_z
Si Si1 0.553632 0.595096 0.559207
Si Si2 0.056780 0.786436 0.944525
Si Si3 0.449020 0.103272 0.846417
Si Si4 0.446565 0.209633 0.441635
Si Si5 0.553892 0.400852 0.785386
Si Si6 0.054099 0.900514 0.347182
Si Si7 0.446163 0.599187 0.095678
Si Si8 0.943664 0.214599 0.252547
O O1 0.500000 0.594323 0.500000
O O2 0.750000 0.594850 0.561538
O O3 0.496627 0.500000 0.581837
O O4 0.498301 0.692002 0.577980
O O5 0.250000 0.791006 0.943146
O O6 0.994220 0.846798 0.897716
O O7 0.007394 0.683751 0.935242
O O8 0.000000 0.816673 0.000000
O O9 0.250000 0.104010 0.846536
O O10 0.503536 0.159479 0.797139
O O11 0.499799 0.000000 0.844145
O O12 0.500000 0.197012 0.500000
O O13 0.250000 0.209632 0.441704
O O14 0.504175 0.135760 0.401887
O O15 0.750000 0.399821 0.784475
O O16 0.500654 0.500000 0.768712
O O17 0.503989 0.389770 0.844856
O O18 0.492367 0.317423 0.753599
O O19 0.250000 0.904162 0.349320
O O20 0.008471 0.832155 0.303031
O O21 0.992254 0.000000 0.336147
O O22 0.250000 0.599799 0.094301
O O23 0.500454 0.500000 0.078756
O O24 0.750000 0.208702 0.252805
#
# Coordination Sequence:
#
# PCOD9406716 Si02
#       8
#     8   8   8   8   8   8   8   8
#     4   8  13  23  42  68  96 127 165 208 254 307
#     4  11  22  36  54  78 109 145 184 230 280 331
#     4   9  19  36  56  78 105 138 178 226 281 334
#     4   9  18  33  53  77 107 143 184 228 276 333
#     4   9  18  34  58  86 116 149 182 220 271 332
#     4  10  22  39  56  78 111 149 188 234 287 340
#     4   9  18  34  56  81 110 144 181 222 268 324
#     4  11  21  36  60  87 113 143 182 231 281 331
#
# _framework density 19.810396999999998
#
# number of rings (size 3 to 8) (size 9 to 14) (size 15 to 20)
#    0.000    2.500    1.250    1.875    0.000    2.500 
#    0.000    1.875    0.000    5.625    0.000    1.750 
#    0.000    0.000    0.000    0.000    0.000    0.000 
#
# Total GULP energy -356940.567030 kJ/mol
# GULP energy per Si atom -5577.196360 kJ/mol
# Density = 1.976531 g / cm^3
# Si number density = 19.810397 Si / 1000 Ang^3
#
#
#
# Elastic Constant Matrix: (Units=GPa)
#
#
# Indices 1 2 3 4 5 6 
#
# 1 10.6837 12.8555 10.3170 0.0000 0.0000 0.0000
# 2 12.8555 131.2243 65.2358 0.0000 0.0000 0.0000
# 3 10.3170 65.2358 103.1380 0.0000 0.0000 0.0000
# 4 0.0000 0.0000 0.0000 50.4053 0.0000 0.0000
# 5 0.0000 0.0000 0.0000 0.0000 17.5679 0.0000
# 6 0.0000 0.0000 0.0000 0.0000 0.0000 17.0319
#
#
#
# Elastic Compliance Matrix: (Units=1/GPa)
#
#
# Indices 1 2 3 4 5 6 
#
# 1 0.108621 -0.007643 -0.006031 0.000000 0.000000 0.000000
# 2 -0.007643 0.011654 -0.006606 0.000000 0.000000 0.000000
# 3 -0.006031 -0.006606 0.014478 0.000000 0.000000 0.000000
# 4 0.000000 0.000000 0.000000 0.019839 0.000000 0.000000
# 5 0.000000 0.000000 0.000000 0.000000 0.056922 0.000000
# 6 0.000000 0.000000 0.000000 0.000000 0.000000 0.058714
#
#
# Mechanical properties :
#
#
# Convention : Reuss Voigt Hill
#
# Bulk Modulus (GPa) = 10.61669 46.87361 28.74515
# Shear Modulus (GPa) = 14.61195 27.44352 21.02774
#
# Velocity S-wave (km/s) = 2.71881 3.72601 3.26152
# Velocity P-wave (km/s) = 3.90214 6.49795 5.35957
#
# Compressibility (1/GPa) = 0.09419128
#
# Stress axis : x y z
#
# Youngs Moduli (GPa) = 9.20630 85.81058 69.07161
#
# Poissons Ratio (x) = 0.65584 0.41659
# Poissons Ratio (y) = 0.07036 0.45632
# Poissons Ratio (z) = 0.05553 0.56691
#
# Static dielectric constant tensor:
#      x y z
#    x 1.714820 0.000000 0.000000 
#    y 0.000000 1.726770 0.000000 
#    z 0.000000 0.000000 1.607720 
# 
# From -- ./inp_files/34864.got.cif
#   From: 2010.05.17/outbox.cif.g08.bks.cpg/sg51_18_cif.got.tgz:34864.got - 2010.06.03 11:52:47.
