data_PCOD9406746
_publ_section_title
;
Structure prediction by ZEFSAII (Michael W. Deem and Ramdas Pophale) SiO2 
 PCOD9406746
Probable space group: P M M A
;
_chemical_formula_sum "Si O2"
_cell_formula_units_Z 56
_cell_length_a 29.491169
_cell_length_b 14.012780
_cell_length_c 5.925039
_cell_angle_alpha 90.000000
_cell_angle_beta 90.000000
_cell_angle_gamma 90.000000
_cell_volume 2448.541701
_symmetry_space_group_name_H-M "P M M A"
_symmetry_group_IT_number 51
_symmetry_cell_setting 'orthorhombic'
loop_
_space_group_symop_operation_xyz
x,y,z
1/2-x,-y,z
1/2+x,-y,-z
-x,y,-z
-x,-y,-z
1/2+x,y,-z
1/2-x,y,z
x,-y,z
loop_
_atom_site_type_symbol
_atom_site_label
_atom_site_fract_x
_atom_site_fract_y
_atom_site_fract_z
Si Si1 0.888500 0.110015 0.942690
Si Si2 0.021091 0.824435 0.259977
Si Si3 0.196908 0.388629 0.002032
Si Si4 0.697567 0.112793 0.634400
Si Si5 0.626338 0.606369 0.645687
Si Si6 0.141633 0.243893 0.696579
Si Si7 0.965919 0.395660 0.795872
O O1 0.891460 0.181675 0.150753
O O2 0.892563 0.000000 0.010703
O O3 0.927948 0.134642 0.766528
O O4 0.838237 0.125228 0.838343
O O5 0.022675 0.709754 0.289589
O O6 0.000000 0.861554 0.500000
O O7 0.000000 0.842918 0.000000
O O8 0.250000 0.372298 0.002552
O O9 0.188460 0.500000 0.944418
O O10 0.171777 0.316940 0.838963
O O11 0.175033 0.373874 0.248032
O O12 0.750000 0.138774 0.683694
O O13 0.675692 0.173759 0.434455
O O14 0.696871 0.000000 0.577567
O O15 0.626792 0.500000 0.547740
O O16 0.614519 0.687994 0.472056
O O17 0.588236 0.609263 0.840906
O O18 0.968988 0.500000 0.674033
O O19 0.000000 0.404677 0.000000
#
# Coordination Sequence:
#
# PCOD9406746 Si02
#       7
#     8   8   8   8   8   8   8
#     4  11  27  48  70  98 135 180 234 298 362 430
#     4  11  26  46  75 108 144 190 242 297 362 434
#     4  10  22  39  60  93 139 185 227 272 329 406
#     4  10  23  43  67  97 134 175 225 288 357 424
#     4  10  22  40  64  95 132 176 225 275 336 409
#     4  12  22  38  68  99 132 175 226 283 344 418
#     4   9  19  40  68 100 138 178 223 280 347 421
#
# _framework density 22.870756
#
# number of rings (size 3 to 8) (size 9 to 14) (size 15 to 20)
#    0.000    1.571    0.000    3.857    4.000    4.286 
#    0.000    3.571    0.000    0.000    0.000    0.000 
#    0.000    0.000    0.000    0.000    0.000    0.000 
#
# Total GULP energy -312500.865718 kJ/mol
# GULP energy per Si atom -5580.372602 kJ/mol
# Density = 2.281870 g / cm^3
# Si number density = 22.870756 Si / 1000 Ang^3
#
#
#
# Elastic Constant Matrix: (Units=GPa)
#
#
# Indices 1 2 3 4 5 6 
#
# 1 96.1285 21.3356 46.5020 0.0000 0.0000 0.0000
# 2 21.3356 94.7933 50.8218 0.0000 0.0000 0.0000
# 3 46.5020 50.8218 80.8015 0.0000 0.0000 0.0000
# 4 0.0000 0.0000 0.0000 -35.4028 0.0000 0.0000
# 5 0.0000 0.0000 0.0000 0.0000 29.0361 0.0000
# 6 0.0000 0.0000 0.0000 0.0000 0.0000 19.1783
#
#
#
# Elastic Compliance Matrix: (Units=1/GPa)
#
#
# Indices 1 2 3 4 5 6 
#
# 1 0.014626 0.001842 -0.009576 0.000000 0.000000 0.000000
# 2 0.001842 0.016149 -0.011217 0.000000 0.000000 0.000000
# 3 -0.009576 -0.011217 0.024942 0.000000 0.000000 0.000000
# 4 0.000000 0.000000 0.000000 -0.028246 0.000000 0.000000
# 5 0.000000 0.000000 0.000000 0.000000 0.034440 0.000000
# 6 0.000000 0.000000 0.000000 0.000000 0.000000 0.052142
#
#
# Mechanical properties :
#
#
# Convention : Reuss Voigt Hill
#
# Bulk Modulus (GPa) = 56.13286 56.56023 56.34654
# Shear Modulus (GPa) = 31.66683 12.76658 22.21670
#
# Velocity S-wave (km/s) = 3.72506 2.36520 3.12011
# Velocity P-wave (km/s) = 6.56492 5.67829 6.13764
#
# Compressibility (1/GPa) = 0.01781488
#
# Stress axis : x y z
#
# Youngs Moduli (GPa) = 68.36959 61.92523 40.09229
#
# Poissons Ratio (x) = -0.11407 0.38393
# Poissons Ratio (y) = -0.12594 0.44972
# Poissons Ratio (z) = 0.65472 0.69462
#
# Static dielectric constant tensor:
#      x y z
#    x 1.827090 0.000000 0.000000 
#    y 0.000000 1.852140 0.000000 
#    z 0.000000 0.000000 1.907580 
# 
# From -- ./inp_files/4014.got.cif
#   From: 2010.05.17/outbox.cif.g08.bks.cpg/sg51_3_cif.got.tgz:4014.got - 2010.06.03 11:52:47.
