data_PCOD9406002
_publ_section_title
;
Structure prediction by ZEFSAII (Michael W. Deem and Ramdas Pophale) SiO2 
 PCOD9406002
Probable space group: P M M A
;
_chemical_formula_sum "Si O2"
_cell_formula_units_Z 48
_cell_length_a 19.165544
_cell_length_b 8.701608
_cell_length_c 15.097841
_cell_angle_alpha 90.000000
_cell_angle_beta 90.000000
_cell_angle_gamma 90.000000
_cell_volume 2517.882811
_symmetry_space_group_name_H-M "P M M A"
_symmetry_group_IT_number 51
_symmetry_cell_setting 'orthorhombic'
loop_
_space_group_symop_operation_xyz
x,y,z
1/2-x,-y,z
1/2+x,-y,-z
-x,y,-z
-x,-y,-z
1/2+x,y,-z
1/2-x,y,z
x,-y,z
loop_
_atom_site_type_symbol
_atom_site_label
_atom_site_fract_x
_atom_site_fract_y
_atom_site_fract_z
Si Si1 0.096705 0.181656 0.050686
Si Si2 0.671586 0.316946 0.790127
Si Si3 0.330531 0.814947 0.527159
Si Si4 0.428069 0.817015 0.685526
Si Si5 0.048505 0.682343 0.877276
Si Si6 0.427539 0.316065 0.373409
O O1 0.156149 0.229941 0.119115
O O2 0.024882 0.237741 0.097312
O O3 0.094233 0.000000 0.037422
O O4 0.099706 0.265451 0.956103
O O5 0.750000 0.286186 0.757977
O O6 0.664931 0.500000 0.805834
O O7 0.615651 0.274959 0.715371
O O8 0.250000 0.766891 0.517598
O O9 0.361901 0.780438 0.623996
O O10 0.380846 0.737843 0.455338
O O11 0.333919 0.000000 0.515501
O O12 0.428211 0.735447 0.780528
O O13 0.497454 0.763309 0.633401
O O14 0.431251 0.000000 0.698982
O O15 0.038302 0.500000 0.879147
O O16 0.436617 0.500000 0.375816
#
# Coordination Sequence:
#
# PCOD9406002 Si02
#       6
#     8   8   8   8   8   8
#     4  11  21  35  57  85 116 152 194 239 288 346
#     4  10  21  37  56  82 120 161 197 240 295 352
#     4  10  23  42  61  83 117 158 197 242 297 352
#     4  11  22  38  61  89 117 152 199 249 295 349
#     4  11  21  36  59  85 115 151 191 240 294 345
#     4  11  22  37  60  89 119 154 196 244 296 353
#
# _framework density 19.063635000000001
#
# number of rings (size 3 to 8) (size 9 to 14) (size 15 to 20)
#    0.000    1.333    1.667    6.000    0.000    5.333 
#    0.000    0.833    0.000    3.000    0.000    0.000 
#    0.000    0.000    0.000    0.000    0.000    0.000 
#
# Total GULP energy -268307.873043 kJ/mol
# GULP energy per Si atom -5589.747355 kJ/mol
# Density = 1.902025 g / cm^3
# Si number density = 19.063635 Si / 1000 Ang^3
#
#
#
# Elastic Constant Matrix: (Units=GPa)
#
#
# Indices 1 2 3 4 5 6 
#
# 1 36.7143 9.6195 11.9171 0.0000 0.0000 0.0000
# 2 9.6195 35.8040 13.7629 0.0000 0.0000 0.0000
# 3 11.9171 13.7629 93.3046 0.0000 0.0000 0.0000
# 4 0.0000 0.0000 0.0000 20.1145 0.0000 0.0000
# 5 0.0000 0.0000 0.0000 0.0000 18.9547 0.0000
# 6 0.0000 0.0000 0.0000 0.0000 0.0000 13.3720
#
#
#
# Elastic Compliance Matrix: (Units=1/GPa)
#
#
# Indices 1 2 3 4 5 6 
#
# 1 0.029974 -0.006977 -0.002799 0.000000 0.000000 0.000000
# 2 -0.006977 0.031233 -0.003716 0.000000 0.000000 0.000000
# 3 -0.002799 -0.003716 0.011623 0.000000 0.000000 0.000000
# 4 0.000000 0.000000 0.000000 0.049715 0.000000 0.000000
# 5 0.000000 0.000000 0.000000 0.000000 0.052757 0.000000
# 6 0.000000 0.000000 0.000000 0.000000 0.000000 0.074783
#
#
# Mechanical properties :
#
#
# Convention : Reuss Voigt Hill
#
# Bulk Modulus (GPa) = 21.81235 26.26909 24.04072
# Shear Modulus (GPa) = 17.10266 19.18979 18.14623
#
# Velocity S-wave (km/s) = 2.99847 3.17617 3.08860
# Velocity P-wave (km/s) = 4.84298 5.22114 5.03561
#
# Compressibility (1/GPa) = 0.04584558
#
# Stress axis : x y z
#
# Youngs Moduli (GPa) = 33.36229 32.01769 86.03472
#
# Poissons Ratio (x) = 0.22339 0.24083
# Poissons Ratio (y) = 0.23277 0.31969
# Poissons Ratio (z) = 0.09339 0.11897
#
# Static dielectric constant tensor:
#      x y z
#    x 1.654590 0.000000 0.000000 
#    y 0.000000 1.643040 0.000000 
#    z 0.000000 0.000000 1.665360 
# 
# From -- ./inp_files/24819.got.cif
#   From: 2010.05.17/outbox.cif.g08.bks.cpg/sg51_13_cif.got.tgz:24819.got - 2010.06.03 11:52:47.
