data_PCOD9406602
_publ_section_title
;
Structure prediction by ZEFSAII (Michael W. Deem and Ramdas Pophale) SiO2 
 PCOD9406602
Probable space group: P M M A
;
_chemical_formula_sum "Si O2"
_cell_formula_units_Z 28
_cell_length_a 10.896273
_cell_length_b 19.377693
_cell_length_c 6.160631
_cell_angle_alpha 90.000000
_cell_angle_beta 90.000000
_cell_angle_gamma 90.000000
_cell_volume 1300.784172
_symmetry_space_group_name_H-M "P M M A"
_symmetry_group_IT_number 51
_symmetry_cell_setting 'orthorhombic'
loop_
_space_group_symop_operation_xyz
x,y,z
1/2-x,-y,z
1/2+x,-y,-z
-x,y,-z
-x,-y,-z
1/2+x,y,-z
1/2-x,y,z
x,-y,z
loop_
_atom_site_type_symbol
_atom_site_label
_atom_site_fract_x
_atom_site_fract_y
_atom_site_fract_z
Si Si1 0.885440 0.500000 0.660010
Si Si2 0.114628 0.348853 0.148711
Si Si3 0.557551 0.000000 0.252722
Si Si4 0.500000 0.255948 0.500000
Si Si5 0.615425 0.153913 0.161225
O O1 0.750000 0.500000 0.549708
O O2 0.891276 0.430152 0.798375
O O3 0.000000 0.500000 0.500000
O O4 0.250000 0.334232 0.057610
O O5 0.090018 0.305184 0.364303
O O6 0.000000 0.330637 0.000000
O O7 0.500000 0.000000 0.500000
O O8 0.618505 0.924748 0.246605
O O9 0.500000 0.000000 0.000000
O O10 0.582900 0.206742 0.351148
O O11 0.750000 0.168590 0.063172
O O12 0.500000 0.159228 0.000000
#
# Coordination Sequence:
#
# PCOD9406602 Si02
#       5
#     4   8   4   4   8
#     4  10  21  42  68  95 125 167 219 273 333 396
#     4  11  25  43  67  97 131 173 221 276 337 404
#     4  10  21  46  72 105 139 186 238 298 359 423
#     4  12  24  42  68  96 138 178 228 274 340 412
#     4  11  25  45  70 102 137 182 232 289 349 416
#
# _framework density 21.525478
#
# number of rings (size 3 to 8) (size 9 to 14) (size 15 to 20)
#    0.000    1.143    2.857    2.571    0.000    8.000 
#    0.000    1.429    0.000    0.000    0.000    0.000 
#    0.000    0.000    0.000    0.000    0.000    0.000 
#
# Total GULP energy -156141.703366 kJ/mol
# GULP energy per Si atom -5576.489406 kJ/mol
# Density = 2.147648 g / cm^3
# Si number density = 21.525478 Si / 1000 Ang^3
#
#
#
# Elastic Constant Matrix: (Units=GPa)
#
#
# Indices 1 2 3 4 5 6 
#
# 1 207.8397 28.3176 68.7438 0.0000 0.0000 0.0000
# 2 28.3176 166.5314 37.2209 0.0000 0.0000 0.0000
# 3 68.7438 37.2209 89.4177 0.0000 0.0000 0.0000
# 4 0.0000 0.0000 0.0000 32.2222 0.0000 0.0000
# 5 0.0000 0.0000 0.0000 0.0000 29.8893 0.0000
# 6 0.0000 0.0000 0.0000 0.0000 0.0000 -83.5032
#
#
#
# Elastic Compliance Matrix: (Units=1/GPa)
#
#
# Indices 1 2 3 4 5 6 
#
# 1 0.006452 0.000013 -0.004966 0.000000 0.000000 0.000000
# 2 0.000013 0.006621 -0.002766 0.000000 0.000000 0.000000
# 3 -0.004966 -0.002766 0.016152 0.000000 0.000000 0.000000
# 4 0.000000 0.000000 0.000000 0.031035 0.000000 0.000000
# 5 0.000000 0.000000 0.000000 0.000000 0.033457 0.000000
# 6 0.000000 0.000000 0.000000 0.000000 0.000000 -0.011976
#
#
# Mechanical properties :
#
#
# Convention : Reuss Voigt Hill
#
# Bulk Modulus (GPa) = 72.52740 81.37260 76.95000
# Shear Modulus (GPa) = 49.12840 17.68877 33.40858
#
# Velocity S-wave (km/s) = 4.78256 2.86975 3.94388
# Velocity P-wave (km/s) = 8.01649 6.99039 7.52096
#
# Compressibility (1/GPa) = 0.01378789
#
# Stress axis : x y z
#
# Youngs Moduli (GPa) = 154.98933 151.03725 61.91081
#
# Poissons Ratio (x) = -0.00192 0.30742
# Poissons Ratio (y) = -0.00197 0.17123
# Poissons Ratio (z) = 0.76961 0.41774
#
# Static dielectric constant tensor:
#      x y z
#    x 1.824900 0.000000 0.000000 
#    y 0.000000 1.772550 0.000000 
#    z 0.000000 0.000000 1.826400 
# 
# From -- ./inp_files/642.got.cif
#   From: 2010.05.17/outbox.cif.g08.bks.cpg/sg51_1_cif.got.tgz:642.got - 2010.06.03 11:52:47.
