data_PCOD9406445
_publ_section_title
;
Structure prediction by ZEFSAII (Michael W. Deem and Ramdas Pophale) SiO2 
 PCOD9406445
Probable space group: P M M A
;
_chemical_formula_sum "Si O2"
_cell_formula_units_Z 48
_cell_length_a 14.217362
_cell_length_b 18.617864
_cell_length_c 9.183766
_cell_angle_alpha 90.000000
_cell_angle_beta 90.000000
_cell_angle_gamma 90.000000
_cell_volume 2430.914502
_symmetry_space_group_name_H-M "P M M A"
_symmetry_group_IT_number 51
_symmetry_cell_setting 'orthorhombic'
loop_
_space_group_symop_operation_xyz
x,y,z
1/2-x,-y,z
1/2+x,-y,-z
-x,y,-z
-x,-y,-z
1/2+x,y,-z
1/2-x,y,z
x,-y,z
loop_
_atom_site_type_symbol
_atom_site_label
_atom_site_fract_x
_atom_site_fract_y
_atom_site_fract_z
Si Si1 0.143295 0.161003 0.353216
Si Si2 0.857511 0.667100 0.637001
Si Si3 0.970989 0.174069 0.164214
Si Si4 0.012891 0.583312 0.827251
Si Si5 0.138198 0.080167 0.649481
Si Si6 0.639474 0.690868 0.300444
O O1 0.250000 0.135424 0.324976
O O2 0.143856 0.247247 0.336955
O O3 0.115538 0.133446 0.514304
O O4 0.062508 0.140716 0.242213
O O5 0.750000 0.640445 0.658125
O O6 0.931555 0.625707 0.737863
O O7 0.881299 0.666335 0.465530
O O8 0.894228 0.113496 0.198117
O O9 0.926589 0.244484 0.242928
O O10 0.000000 0.190830 0.000000
O O11 0.011974 0.500000 0.783913
O O12 0.111232 0.622191 0.793541
O O13 0.000000 0.588310 0.000000
O O14 0.250000 0.076580 0.649733
O O15 0.100351 0.000000 0.624532
O O16 0.750000 0.711211 0.292981
#
# Coordination Sequence:
#
# PCOD9406445 Si02
#       6
#     8   8   8   8   8   8
#     4  10  21  38  62  92 124 164 212 260 310 368
#     4  10  21  39  65  92 121 161 213 261 303 360
#     4  12  24  38  61  95 133 167 209 260 317 379
#     4  11  25  43  62  92 130 165 202 252 320 385
#     4  10  22  42  67  94 126 168 216 264 314 372
#     4  11  23  40  63  91 123 164 215 263 311 365
#
# _framework density 19.745654999999999
#
# number of rings (size 3 to 8) (size 9 to 14) (size 15 to 20)
#    0.000    1.333    3.333    2.000    0.000    5.667 
#    0.000    3.333    0.000    2.000    0.000    0.000 
#    0.000    0.000    0.000    0.000    0.000    0.000 
#
# Total GULP energy -267695.382764 kJ/mol
# GULP energy per Si atom -5576.987141 kJ/mol
# Density = 1.970071 g / cm^3
# Si number density = 19.745655 Si / 1000 Ang^3
#
#
#
# Elastic Constant Matrix: (Units=GPa)
#
#
# Indices 1 2 3 4 5 6 
#
# 1 89.8447 31.7390 41.9630 0.0000 0.0000 0.0000
# 2 31.7390 92.0249 34.1953 0.0000 0.0000 0.0000
# 3 41.9630 34.1953 84.2345 0.0000 0.0000 0.0000
# 4 0.0000 0.0000 0.0000 15.9506 0.0000 0.0000
# 5 0.0000 0.0000 0.0000 0.0000 13.2254 0.0000
# 6 0.0000 0.0000 0.0000 0.0000 0.0000 24.5320
#
#
#
# Elastic Compliance Matrix: (Units=1/GPa)
#
#
# Indices 1 2 3 4 5 6 
#
# 1 0.015112 -0.002844 -0.006374 0.000000 0.000000 0.000000
# 2 -0.002844 0.013332 -0.003996 0.000000 0.000000 0.000000
# 3 -0.006374 -0.003996 0.016669 0.000000 0.000000 0.000000
# 4 0.000000 0.000000 0.000000 0.062694 0.000000 0.000000
# 5 0.000000 0.000000 0.000000 0.000000 0.075612 0.000000
# 6 0.000000 0.000000 0.000000 0.000000 0.000000 0.040763
#
#
# Mechanical properties :
#
#
# Convention : Reuss Voigt Hill
#
# Bulk Modulus (GPa) = 53.51403 53.54430 53.52916
# Shear Modulus (GPa) = 19.46760 21.28870 20.37815
#
# Velocity S-wave (km/s) = 3.14334 3.28708 3.21601
# Velocity P-wave (km/s) = 6.35095 6.44844 6.39988
#
# Compressibility (1/GPa) = 0.01868669
#
# Stress axis : x y z
#
# Youngs Moduli (GPa) = 66.17321 75.00705 59.99179
#
# Poissons Ratio (x) = 0.21329 0.38238
# Poissons Ratio (y) = 0.18817 0.23971
# Poissons Ratio (z) = 0.42178 0.29970
#
# Static dielectric constant tensor:
#      x y z
#    x 1.765280 0.000000 0.000000 
#    y 0.000000 1.720210 0.000000 
#    z 0.000000 0.000000 1.710260 
# 
# From -- ./inp_files/8222.got.cif
#   From: 2010.05.17/outbox.cif.g08.bks.cpg/sg51_5_cif.got.tgz:8222.got - 2010.06.03 11:52:47.
