data_PCOD9406322
_publ_section_title
;
Structure prediction by ZEFSAII (Michael W. Deem and Ramdas Pophale) SiO2 
 PCOD9406322
Probable space group: P M M A
;
_chemical_formula_sum "Si O2"
_cell_formula_units_Z 48
_cell_length_a 15.339224
_cell_length_b 16.119232
_cell_length_c 9.034457
_cell_angle_alpha 90.000000
_cell_angle_beta 90.000000
_cell_angle_gamma 90.000000
_cell_volume 2233.828311
_symmetry_space_group_name_H-M "P M M A"
_symmetry_group_IT_number 51
_symmetry_cell_setting 'orthorhombic'
loop_
_space_group_symop_operation_xyz
x,y,z
1/2-x,-y,z
1/2+x,-y,-z
-x,y,-z
-x,-y,-z
1/2+x,y,-z
1/2-x,y,z
x,-y,z
loop_
_atom_site_type_symbol
_atom_site_label
_atom_site_fract_x
_atom_site_fract_y
_atom_site_fract_z
Si Si1 0.148986 0.746537 0.903167
Si Si2 0.849971 0.092685 0.603882
Si Si3 0.600242 0.409167 0.553210
Si Si4 0.355374 0.406739 0.107212
Si Si5 0.406536 0.243376 0.580479
Si Si6 0.405319 0.906206 0.074444
O O1 0.250000 0.733029 0.859132
O O2 0.091775 0.755882 0.756508
O O3 0.119122 0.667481 0.999009
O O4 0.144349 0.830106 0.999582
O O5 0.750000 0.094482 0.657458
O O6 0.860506 0.161520 0.480075
O O7 0.908030 0.108156 0.748941
O O8 0.868781 0.000000 0.547070
O O9 0.500000 0.413256 0.500000
O O10 0.639852 0.500000 0.521390
O O11 0.605274 0.396387 0.729354
O O12 0.638590 0.328652 0.473658
O O13 0.250000 0.402586 0.123516
O O14 0.377244 0.500000 0.053438
O O15 0.500000 0.241978 0.500000
O O16 0.368651 0.000000 0.054231
O O17 0.500000 0.905943 0.000000
#
# Coordination Sequence:
#
# PCOD9406322 Si02
#       6
#     8   8   8   8   8   8
#     4  11  23  37  58  88 119 154 197 245 295 349
#     4  10  21  38  60  84 112 150 194 239 290 349
#     4   9  19  37  59  84 114 149 191 235 284 343
#     4   9  19  37  61  88 118 154 194 237 289 346
#     4  11  23  38  57  83 118 156 195 242 294 348
#     4  10  21  38  60  85 114 150 192 238 291 352
#
# _framework density 21.487774999999999
#
# number of rings (size 3 to 8) (size 9 to 14) (size 15 to 20)
#    0.000    2.000    0.000    3.000    0.000    6.667 
#    0.000    0.000    0.000    9.500    0.000    0.000 
#    0.000    0.000    0.000    0.000    0.000    0.000 
#
# Total GULP energy -268111.349872 kJ/mol
# GULP energy per Si atom -5585.653122 kJ/mol
# Density = 2.143887 g / cm^3
# Si number density = 21.487775 Si / 1000 Ang^3
#
#
#
# Elastic Constant Matrix: (Units=GPa)
#
#
# Indices 1 2 3 4 5 6 
#
# 1 46.0462 16.3047 12.5590 0.0000 0.0000 0.0000
# 2 16.3047 191.3820 98.7278 0.0000 0.0000 0.0000
# 3 12.5590 98.7278 113.0823 0.0000 0.0000 0.0000
# 4 0.0000 0.0000 0.0000 28.4671 0.0000 0.0000
# 5 0.0000 0.0000 0.0000 0.0000 24.0224 0.0000
# 6 0.0000 0.0000 0.0000 0.0000 0.0000 -4.0960
#
#
#
# Elastic Compliance Matrix: (Units=1/GPa)
#
#
# Indices 1 2 3 4 5 6 
#
# 1 0.022533 -0.001144 -0.001504 0.000000 0.000000 0.000000
# 2 -0.001144 0.009565 -0.008224 0.000000 0.000000 0.000000
# 3 -0.001504 -0.008224 0.016190 0.000000 0.000000 0.000000
# 4 0.000000 0.000000 0.000000 0.035128 0.000000 0.000000
# 5 0.000000 0.000000 0.000000 0.000000 0.041628 0.000000
# 6 0.000000 0.000000 0.000000 0.000000 0.000000 -0.244140
#
#
# Mechanical properties :
#
#
# Convention : Reuss Voigt Hill
#
# Bulk Modulus (GPa) = 37.67248 67.29927 52.48588
# Shear Modulus (GPa) = -56.49390 24.53995 -15.97697
#
# Velocity S-wave (km/s) = -5.13306 3.38308 -2.72975
# Velocity P-wave (km/s) = 4.19057 6.82994 3.81361
#
# Compressibility (1/GPa) = 0.02654457
#
# Stress axis : x y z
#
# Youngs Moduli (GPa) = 44.38032 104.54788 61.76647
#
# Poissons Ratio (x) = 0.11959 0.09288
# Poissons Ratio (y) = 0.05077 0.50795
# Poissons Ratio (z) = 0.06674 0.85978
#
# Static dielectric constant tensor:
#      x y z
#    x 1.793930 0.000000 0.000000 
#    y 0.000000 1.819410 0.000000 
#    z 0.000000 0.000000 1.718350 
# 
# From -- ./inp_files/9645.got.cif
#   From: 2010.05.17/outbox.cif.g08.bks.cpg/sg51_5_cif.got.tgz:9645.got - 2010.06.03 11:52:47.
