data_PCOD9406543
_publ_section_title
;
Structure prediction by ZEFSAII (Michael W. Deem and Ramdas Pophale) SiO2 
 PCOD9406543
Probable space group: P M M A
;
_chemical_formula_sum "Si O2"
_cell_formula_units_Z 48
_cell_length_a 19.286430
_cell_length_b 8.757150
_cell_length_c 15.349806
_cell_angle_alpha 90.000000
_cell_angle_beta 90.000000
_cell_angle_gamma 90.000000
_cell_volume 2592.492598
_symmetry_space_group_name_H-M "P M M A"
_symmetry_group_IT_number 51
_symmetry_cell_setting 'orthorhombic'
loop_
_space_group_symop_operation_xyz
x,y,z
1/2-x,-y,z
1/2+x,-y,-z
-x,y,-z
-x,-y,-z
1/2+x,y,-z
1/2-x,y,z
x,-y,z
loop_
_atom_site_type_symbol
_atom_site_label
_atom_site_fract_x
_atom_site_fract_y
_atom_site_fract_z
Si Si1 0.914386 0.817758 0.773792
Si Si2 0.076080 0.182458 0.540875
Si Si3 0.167981 0.317861 0.389558
Si Si4 0.331900 0.317646 0.064436
Si Si5 0.935290 0.317560 0.266905
Si Si6 0.168118 0.181951 0.874591
O O1 0.868590 0.762920 0.691974
O O2 0.877380 0.760410 0.861329
O O3 0.990039 0.744500 0.763356
O O4 0.920285 0.000000 0.773086
O O5 0.132253 0.256243 0.476928
O O6 0.078908 0.251871 0.636991
O O7 0.000000 0.212576 0.500000
O O8 0.085400 0.000000 0.544672
O O9 0.250000 0.287923 0.389309
O O10 0.157233 0.500000 0.382464
O O11 0.250000 0.287441 0.080744
O O12 0.342015 0.500000 0.065943
O O13 0.348741 0.252065 0.969130
O O14 0.936207 0.500000 0.269576
O O15 0.877878 0.258404 0.199555
O O16 0.250000 0.209155 0.859044
O O17 0.156516 0.000000 0.875970
#
# Coordination Sequence:
#
# PCOD9406543 Si02
#       6
#     8   8   8   8   8   8
#     4  12  24  39  61  91 126 164 207 253 307 368
#     4  11  23  41  65  91 121 161 205 251 306 367
#     4  11  24  41  63  93 126 162 206 254 305 365
#     4  10  21  39  63  91 125 164 206 253 307 366
#     4  12  25  41  65  92 123 163 206 254 309 367
#     4  10  22  42  66  92 124 161 204 255 308 365
#
# _framework density 18.514999
#
# number of rings (size 3 to 8) (size 9 to 14) (size 15 to 20)
#    0.000    1.000    1.667    5.500    0.000    7.333 
#    0.000    3.333    0.000    0.000    0.000    0.000 
#    0.000    0.000    0.000    0.000    0.000    0.000 
#
# Total GULP energy -268591.377319 kJ/mol
# GULP energy per Si atom -5595.653694 kJ/mol
# Density = 1.847286 g / cm^3
# Si number density = 18.514999 Si / 1000 Ang^3
#
#
#
# Elastic Constant Matrix: (Units=GPa)
#
#
# Indices 1 2 3 4 5 6 
#
# 1 79.5162 53.0801 73.0962 0.0000 0.0000 0.0000
# 2 53.0801 92.8477 58.7244 0.0000 0.0000 0.0000
# 3 73.0962 58.7244 163.7107 0.0000 0.0000 0.0000
# 4 0.0000 0.0000 0.0000 41.9841 0.0000 0.0000
# 5 0.0000 0.0000 0.0000 0.0000 37.0497 0.0000
# 6 0.0000 0.0000 0.0000 0.0000 0.0000 31.0759
#
#
#
# Elastic Compliance Matrix: (Units=1/GPa)
#
#
# Indices 1 2 3 4 5 6 
#
# 1 0.027153 -0.010160 -0.008479 0.000000 0.000000 0.000000
# 2 -0.010160 0.017733 -0.001824 0.000000 0.000000 0.000000
# 3 -0.008479 -0.001824 0.010549 0.000000 0.000000 0.000000
# 4 0.000000 0.000000 0.000000 0.023819 0.000000 0.000000
# 5 0.000000 0.000000 0.000000 0.000000 0.026991 0.000000
# 6 0.000000 0.000000 0.000000 0.000000 0.000000 0.032179
#
#
# Mechanical properties :
#
#
# Convention : Reuss Voigt Hill
#
# Bulk Modulus (GPa) = 68.93280 78.43067 73.68173
# Shear Modulus (GPa) = 27.14651 32.10020 29.62336
#
# Velocity S-wave (km/s) = 3.83324 4.16834 4.00430
# Velocity P-wave (km/s) = 7.54342 8.10057 7.82696
#
# Compressibility (1/GPa) = 0.01450688
#
# Stress axis : x y z
#
# Youngs Moduli (GPa) = 36.82854 56.39306 94.79884
#
# Poissons Ratio (x) = 0.57296 0.80381
# Poissons Ratio (y) = 0.37418 0.17295
# Poissons Ratio (z) = 0.31227 0.10288
#
# Static dielectric constant tensor:
#      x y z
#    x 1.613460 0.000000 0.000000 
#    y 0.000000 1.615330 0.000000 
#    z 0.000000 0.000000 1.598990 
# 
# From -- ./inp_files/24816.got.cif
#   From: 2010.05.17/outbox.cif.g08.bks.cpg/sg51_13_cif.got.tgz:24816.got - 2010.06.03 11:52:47.
