data_PCOD9406982
_publ_section_title
;
Structure prediction by ZEFSAII (Michael W. Deem and Ramdas Pophale) SiO2 
 PCOD9406982
Probable space group: P M M A
;
_chemical_formula_sum "Si O2"
_cell_formula_units_Z 48
_cell_length_a 14.255659
_cell_length_b 7.642605
_cell_length_c 21.812339
_cell_angle_alpha 90.000000
_cell_angle_beta 90.000000
_cell_angle_gamma 90.000000
_cell_volume 2376.462421
_symmetry_space_group_name_H-M "P M M A"
_symmetry_group_IT_number 51
_symmetry_cell_setting 'orthorhombic'
loop_
_space_group_symop_operation_xyz
x,y,z
1/2-x,-y,z
1/2+x,-y,-z
-x,y,-z
-x,-y,-z
1/2+x,y,-z
1/2-x,y,z
x,-y,z
loop_
_atom_site_type_symbol
_atom_site_label
_atom_site_fract_x
_atom_site_fract_y
_atom_site_fract_z
Si Si1 0.953747 0.286789 0.406891
Si Si2 0.029702 0.300504 0.836413
Si Si3 0.858315 0.714917 0.280614
Si Si4 0.145568 0.206789 0.090326
Si Si5 0.855773 0.286476 0.533350
Si Si6 0.636958 0.204175 0.043473
O O1 0.953973 0.500000 0.406452
O O2 0.910012 0.229509 0.342854
O O3 0.889967 0.235276 0.465115
O O4 0.060582 0.231060 0.421120
O O5 0.012047 0.500000 0.819670
O O6 0.085654 0.221785 0.779295
O O7 0.093009 0.292343 0.897430
O O8 0.929548 0.228097 0.856709
O O9 0.750000 0.770499 0.279415
O O10 0.857011 0.500000 0.279955
O O11 0.250000 0.275864 0.103699
O O12 0.154602 0.000000 0.079504
O O13 0.111223 0.276235 0.023968
O O14 0.750000 0.226680 0.546275
O O15 0.854500 0.500000 0.534317
O O16 0.750000 0.212132 0.046071
O O17 0.607548 0.000000 0.047700
#
# Coordination Sequence:
#
# PCOD9406982 Si02
#       6
#     8   8   8   8   8   8
#     4   8  13  21  33  49  71 105 147 183 218 262
#     4  11  21  30  44  69  97 122 150 186 228 274
#     4   9  17  28  39  53  81 120 152 176 213 271
#     4   9  19  36  54  68  85 115 154 192 231 276
#     4   8  12  18  31  51  71  94 136 192 231 252
#     4   9  18  33  52  71  90 116 152 191 230 273
#
# _framework density 20.198089
#
# number of rings (size 3 to 8) (size 9 to 14) (size 15 to 20)
#    0.000    3.000    0.000    4.000    0.000    6.000 
#    0.000    2.500    0.000    3.000    0.000    0.000 
#    0.000    0.000    0.000   12.000    0.000   66.667 
#
# Total GULP energy -267695.948806 kJ/mol
# GULP energy per Si atom -5576.998933 kJ/mol
# Density = 2.015212 g / cm^3
# Si number density = 20.198089 Si / 1000 Ang^3
#
#
#
# Elastic Constant Matrix: (Units=GPa)
#
#
# Indices 1 2 3 4 5 6 
#
# 1 165.4357 1.9552 105.2323 0.0000 0.0000 0.0000
# 2 1.9552 31.7134 2.4188 0.0000 0.0000 0.0000
# 3 105.2323 2.4188 155.4552 0.0000 0.0000 0.0000
# 4 0.0000 0.0000 0.0000 34.4202 0.0000 0.0000
# 5 0.0000 0.0000 0.0000 0.0000 27.2034 0.0000
# 6 0.0000 0.0000 0.0000 0.0000 0.0000 12.4081
#
#
#
# Elastic Compliance Matrix: (Units=1/GPa)
#
#
# Indices 1 2 3 4 5 6 
#
# 1 0.010616 -0.000107 -0.007185 0.000000 0.000000 0.000000
# 2 -0.000107 0.031571 -0.000419 0.000000 0.000000 0.000000
# 3 -0.007185 -0.000419 0.011303 0.000000 0.000000 0.000000
# 4 0.000000 0.000000 0.000000 0.029053 0.000000 0.000000
# 5 0.000000 0.000000 0.000000 0.000000 0.036760 0.000000
# 6 0.000000 0.000000 0.000000 0.000000 0.000000 0.080592
#
#
# Mechanical properties :
#
#
# Convention : Reuss Voigt Hill
#
# Bulk Modulus (GPa) = 26.26798 63.53520 44.90159
# Shear Modulus (GPa) = 21.92935 31.00622 26.46778
#
# Velocity S-wave (km/s) = 3.29859 3.92229 3.62389
# Velocity P-wave (km/s) = 5.24795 7.21366 6.30785
#
# Compressibility (1/GPa) = 0.03806916
#
# Stress axis : x y z
#
# Youngs Moduli (GPa) = 94.19761 31.67467 88.47427
#
# Poissons Ratio (x) = 0.00337 0.63565
# Poissons Ratio (y) = 0.01003 0.03708
# Poissons Ratio (z) = 0.67677 0.01328
#
# Static dielectric constant tensor:
#      x y z
#    x 1.721370 0.000000 0.000000 
#    y 0.000000 1.757390 0.000000 
#    z 0.000000 0.000000 1.701360 
# 
# From -- ./inp_files/33215.got.cif
#   From: 2010.05.17/outbox.cif.g08.bks.cpg/sg51_17_cif.got.tgz:33215.got - 2010.06.03 11:52:47.
