data_PCOD9406941
_publ_section_title
;
Structure prediction by ZEFSAII (Michael W. Deem and Ramdas Pophale) SiO2 
 PCOD9406941
Probable space group: P M M A
;
_chemical_formula_sum "Si O2"
_cell_formula_units_Z 48
_cell_length_a 20.355703
_cell_length_b 12.645679
_cell_length_c 11.701896
_cell_angle_alpha 90.000000
_cell_angle_beta 90.000000
_cell_angle_gamma 90.000000
_cell_volume 3012.204778
_symmetry_space_group_name_H-M "P M M A"
_symmetry_group_IT_number 51
_symmetry_cell_setting 'orthorhombic'
loop_
_space_group_symop_operation_xyz
x,y,z
1/2-x,-y,z
1/2+x,-y,-z
-x,y,-z
-x,-y,-z
1/2+x,y,-z
1/2-x,y,z
x,-y,z
loop_
_atom_site_type_symbol
_atom_site_label
_atom_site_fract_x
_atom_site_fract_y
_atom_site_fract_z
Si Si1 0.945003 0.000000 0.332973
Si Si2 0.098310 0.375153 0.419404
Si Si3 0.672204 0.806519 0.705500
Si Si4 0.409159 0.128448 0.083136
Si Si5 0.055999 0.189113 0.835929
Si Si6 0.596970 0.000000 0.590846
Si Si7 0.948904 0.624720 0.331547
O O1 0.927430 0.897861 0.259173
O O2 0.911304 0.000000 0.455454
O O3 0.023629 0.000000 0.356059
O O4 0.112933 0.500000 0.411932
O O5 0.147955 0.303180 0.349220
O O6 0.092211 0.347002 0.554060
O O7 0.025228 0.359019 0.367237
O O8 0.750000 0.817475 0.699849
O O9 0.645883 0.824469 0.833999
O O10 0.635506 0.897782 0.634050
O O11 0.479608 0.167700 0.131422
O O12 0.408604 0.000000 0.085312
O O13 0.405258 0.168043 0.952936
O O14 0.065228 0.302086 0.776598
O O15 0.939791 0.500000 0.309553
#
# Coordination Sequence:
#
# PCOD9406941 Si02
#       7
#     4   8   8   8   8   4   8
#     4  11  18  30  56  78 105 130 163 223 268 318
#     4   9  18  34  53  79 108 137 172 208 265 325
#     4  12  22  35  52  73 107 142 178 215 251 313
#     4  11  20  33  49  74 106 144 178 207 259 309
#     4  11  17  31  52  77 106 131 171 218 258 317
#     4  11  21  31  49  83 107 130 166 212 277 317
#     4   9  17  31  55  81 110 134 159 219 280 315
#
# _framework density 15.935172
#
# number of rings (size 3 to 8) (size 9 to 14) (size 15 to 20)
#    0.000    1.500    5.833    2.750    0.000    3.000 
#    0.000    2.500    0.000    5.000    0.000    0.000 
#    0.000    0.000    0.000    0.000    0.000    0.000 
#
# Total GULP energy -267827.775660 kJ/mol
# GULP energy per Si atom -5579.745326 kJ/mol
# Density = 1.589890 g / cm^3
# Si number density = 15.935172 Si / 1000 Ang^3
#
#
#
# Elastic Constant Matrix: (Units=GPa)
#
#
# Indices 1 2 3 4 5 6 
#
# 1 69.0281 30.7675 48.3343 0.0000 0.0000 0.0000
# 2 30.7675 76.2797 67.1835 0.0000 0.0000 0.0000
# 3 48.3343 67.1835 152.8324 0.0000 0.0000 0.0000
# 4 0.0000 0.0000 0.0000 30.6321 0.0000 0.0000
# 5 0.0000 0.0000 0.0000 0.0000 14.3888 0.0000
# 6 0.0000 0.0000 0.0000 0.0000 0.0000 7.6193
#
#
#
# Elastic Compliance Matrix: (Units=1/GPa)
#
#
# Indices 1 2 3 4 5 6 
#
# 1 0.019304 -0.003931 -0.004377 0.000000 0.000000 0.000000
# 2 -0.003931 0.022193 -0.008512 0.000000 0.000000 0.000000
# 3 -0.004377 -0.008512 0.011669 0.000000 0.000000 0.000000
# 4 0.000000 0.000000 0.000000 0.032646 0.000000 0.000000
# 5 0.000000 0.000000 0.000000 0.000000 0.069499 0.000000
# 6 0.000000 0.000000 0.000000 0.000000 0.000000 0.131245
#
#
# Mechanical properties :
#
#
# Convention : Reuss Voigt Hill
#
# Bulk Modulus (GPa) = 51.21703 65.63453 58.42578
# Shear Modulus (GPa) = 15.30435 20.65169 17.97802
#
# Velocity S-wave (km/s) = 3.10242 3.60388 3.36251
# Velocity P-wave (km/s) = 6.71148 7.65475 7.19858
#
# Compressibility (1/GPa) = 0.01952476
#
# Stress axis : x y z
#
# Youngs Moduli (GPa) = 51.80313 45.06002 85.69543
#
# Poissons Ratio (x) = 0.17715 0.37507
# Poissons Ratio (y) = 0.20366 0.72947
# Poissons Ratio (z) = 0.22673 0.38357
#
# Static dielectric constant tensor:
#      x y z
#    x 1.504400 0.000000 0.000000 
#    y 0.000000 1.540090 0.000000 
#    z 0.000000 0.000000 1.539640 
# 
# From -- ./inp_files/18167.got.cif
#   From: 2010.05.17/outbox.cif.g08.bks.cpg/sg51_10_cif.got.tgz:18167.got - 2010.06.03 11:52:47.
