data_PCOD9406008
_publ_section_title
;
Structure prediction by ZEFSAII (Michael W. Deem and Ramdas Pophale) SiO2 
 PCOD9406008
Probable space group: P M M A
;
_chemical_formula_sum "Si O2"
_cell_formula_units_Z 48
_cell_length_a 29.450356
_cell_length_b 7.894735
_cell_length_c 10.305811
_cell_angle_alpha 90.000000
_cell_angle_beta 90.000000
_cell_angle_gamma 90.000000
_cell_volume 2396.129463
_symmetry_space_group_name_H-M "P M M A"
_symmetry_group_IT_number 51
_symmetry_cell_setting 'orthorhombic'
loop_
_space_group_symop_operation_xyz
x,y,z
1/2-x,-y,z
1/2+x,-y,-z
-x,y,-z
-x,-y,-z
1/2+x,y,-z
1/2-x,y,z
x,-y,z
loop_
_atom_site_type_symbol
_atom_site_label
_atom_site_fract_x
_atom_site_fract_y
_atom_site_fract_z
Si Si1 0.372540 0.301846 0.989391
Si Si2 0.802565 0.792813 0.502880
Si Si3 0.303099 0.203532 0.204439
Si Si4 0.482443 0.702718 0.637161
Si Si5 0.379220 0.801414 0.695832
Si Si6 0.535089 0.293883 0.886621
O O1 0.380937 0.500000 0.964405
O O2 0.330822 0.280582 0.086489
O O3 0.415974 0.231533 0.067736
O O4 0.367756 0.222638 0.847438
O O5 0.750000 0.739665 0.479965
O O6 0.816646 0.742173 0.649455
O O7 0.838992 0.732846 0.396777
O O8 0.801746 0.000000 0.501009
O O9 0.250000 0.242752 0.191787
O O10 0.308316 0.000000 0.198199
O O11 0.500000 0.770765 0.500000
O O12 0.488690 0.500000 0.635441
O O13 0.429318 0.731127 0.665566
O O14 0.513959 0.770539 0.753075
O O15 0.382066 0.000000 0.668785
O O16 0.537685 0.500000 0.877393
O O17 0.500000 0.253412 0.000000
#
# Coordination Sequence:
#
# PCOD9406008 Si02
#       6
#     8   8   8   8   8   8
#     4  11  22  36  57  83 113 147 186 229 273 329
#     4   8  17  36  59  80 107 145 183 222 273 332
#     4   9  19  38  61  83 109 142 181 225 277 334
#     4  10  21  37  57  79 108 147 188 228 279 340
#     4  11  22  36  56  84 115 146 188 234 278 328
#     4   9  17  34  55  75 105 146 184 219 267 326
#
# _framework density 20.032305999999998
#
# number of rings (size 3 to 8) (size 9 to 14) (size 15 to 20)
#    0.000    2.333    1.667    2.000    2.333    1.333 
#    0.000    5.000    0.000    3.500    0.000    0.000 
#    0.000    0.000    0.000    0.000    0.000    0.000 
#
# Total GULP energy -267840.661593 kJ/mol
# GULP energy per Si atom -5580.013783 kJ/mol
# Density = 1.998671 g / cm^3
# Si number density = 20.032306 Si / 1000 Ang^3
#
#
#
# Elastic Constant Matrix: (Units=GPa)
#
#
# Indices 1 2 3 4 5 6 
#
# 1 50.4208 -1.4139 53.5152 0.0000 0.0000 0.0000
# 2 -1.4139 11.8468 -0.8471 0.0000 0.0000 0.0000
# 3 53.5152 -0.8471 158.8588 0.0000 0.0000 0.0000
# 4 0.0000 0.0000 0.0000 -8.9275 0.0000 0.0000
# 5 0.0000 0.0000 0.0000 0.0000 39.3554 0.0000
# 6 0.0000 0.0000 0.0000 0.0000 0.0000 25.8017
#
#
#
# Elastic Compliance Matrix: (Units=1/GPa)
#
#
# Indices 1 2 3 4 5 6 
#
# 1 0.030974 0.002952 -0.010418 0.000000 0.000000 0.000000
# 2 0.002952 0.084725 -0.000543 0.000000 0.000000 0.000000
# 3 -0.010418 -0.000543 0.009802 0.000000 0.000000 0.000000
# 4 0.000000 0.000000 0.000000 -0.112013 0.000000 0.000000
# 5 0.000000 0.000000 0.000000 0.000000 0.025409 0.000000
# 6 0.000000 0.000000 0.000000 0.000000 0.000000 0.038757
#
#
# Mechanical properties :
#
#
# Convention : Reuss Voigt Hill
#
# Bulk Modulus (GPa) = 9.13396 35.95942 22.54669
# Shear Modulus (GPa) = 38.41246 22.57073 30.49160
#
# Velocity S-wave (km/s) = 4.38371 3.36030 3.90567
# Velocity P-wave (km/s) = 5.49473 5.74849 5.62304
#
# Compressibility (1/GPa) = 0.10948158
#
# Stress axis : x y z
#
# Youngs Moduli (GPa) = 32.28544 11.80294 102.02304
#
# Poissons Ratio (x) = -0.03484 1.06292
# Poissons Ratio (y) = -0.09530 0.05536
# Poissons Ratio (z) = 0.33636 0.00640
#
# Static dielectric constant tensor:
#      x y z
#    x 1.965540 0.000000 0.000000 
#    y 0.000000 1.733960 0.000000 
#    z 0.000000 0.000000 1.706150 
# 
# From -- ./inp_files/12764.got.cif
#   From: 2010.05.17/outbox.cif.g08.bks.cpg/sg51_7_cif.got.tgz:12764.got - 2010.06.03 11:52:47.
