data_PCOD9406199
_publ_section_title
;
Structure prediction by ZEFSAII (Michael W. Deem and Ramdas Pophale) SiO2 
 PCOD9406199
Probable space group: P M M A
;
_chemical_formula_sum "Si O2"
_cell_formula_units_Z 40
_cell_length_a 9.886619
_cell_length_b 15.194098
_cell_length_c 13.831875
_cell_angle_alpha 90.000000
_cell_angle_beta 90.000000
_cell_angle_gamma 90.000000
_cell_volume 2077.800167
_symmetry_space_group_name_H-M "P M M A"
_symmetry_group_IT_number 51
_symmetry_cell_setting 'orthorhombic'
loop_
_space_group_symop_operation_xyz
x,y,z
1/2-x,-y,z
1/2+x,-y,-z
-x,y,-z
-x,-y,-z
1/2+x,y,-z
1/2-x,y,z
x,-y,z
loop_
_atom_site_type_symbol
_atom_site_label
_atom_site_fract_x
_atom_site_fract_y
_atom_site_fract_z
Si Si1 0.750000 0.103828 0.614064
Si Si2 0.914574 0.000000 0.100244
Si Si3 0.504050 0.849582 0.252212
Si Si4 0.090401 0.339575 0.234534
Si Si5 0.405815 0.606319 0.586533
Si Si6 0.250000 0.891064 0.609740
Si Si7 0.598795 0.500000 0.912205
O O1 0.877274 0.126891 0.680093
O O2 0.750000 0.137490 0.503043
O O3 0.750000 0.000000 0.600638
O O4 0.958069 0.917230 0.167182
O O5 0.750000 0.000000 0.085694
O O6 0.000000 0.000000 0.000000
O O7 0.465879 0.755808 0.206446
O O8 0.624280 0.853739 0.330148
O O9 0.250000 0.334085 0.264048
O O10 0.082060 0.413512 0.152971
O O11 0.990953 0.370266 0.319241
O O12 0.500000 0.640613 0.500000
O O13 0.250000 0.637936 0.585903
O O14 0.399409 0.500000 0.578647
O O15 0.250000 0.000000 0.615665
O O16 0.750000 0.500000 0.951053
O O17 0.500000 0.500000 0.000000
#
# Coordination Sequence:
#
# PCOD9406199 Si02
#       7
#     4   4   8   8   8   4   4
#     4  11  22  38  70  99 134 187 223 274 331 407
#     4  12  28  48  73  99 132 176 223 281 347 408
#     4  12  23  44  65  99 140 176 225 276 334 404
#     4  11  24  42  67  94 132 178 219 273 335 395
#     4  10  21  37  60  91 127 172 219 265 318 383
#     4  11  22  42  66  99 142 185 231 272 335 395
#     4  10  24  48  71  94 125 162 221 290 348 406
#
# _framework density 19.251128999999999
#
# number of rings (size 3 to 8) (size 9 to 14) (size 15 to 20)
#    0.000    1.000    5.000    1.200    2.800    5.600 
#    0.000    2.000    0.000    0.000    0.000    0.000 
#    0.000    0.000    0.000    0.000    0.000    0.000 
#
# Total GULP energy -223268.725690 kJ/mol
# GULP energy per Si atom -5581.718142 kJ/mol
# Density = 1.920731 g / cm^3
# Si number density = 19.251129 Si / 1000 Ang^3
#
#
#
# Elastic Constant Matrix: (Units=GPa)
#
#
# Indices 1 2 3 4 5 6 
#
# 1 223.8737 62.5665 106.7699 0.0000 0.0000 0.0000
# 2 62.5665 91.3891 41.0112 0.0000 0.0000 0.0000
# 3 106.7699 41.0112 135.9589 0.0000 0.0000 0.0000
# 4 0.0000 0.0000 0.0000 7.0803 0.0000 0.0000
# 5 0.0000 0.0000 0.0000 0.0000 45.4480 0.0000
# 6 0.0000 0.0000 0.0000 0.0000 0.0000 29.3825
#
#
#
# Elastic Compliance Matrix: (Units=1/GPa)
#
#
# Indices 1 2 3 4 5 6 
#
# 1 0.007790 -0.002993 -0.005215 0.000000 0.000000 0.000000
# 2 -0.002993 0.013805 -0.001814 0.000000 0.000000 0.000000
# 3 -0.005215 -0.001814 0.011998 0.000000 0.000000 0.000000
# 4 0.000000 0.000000 0.000000 0.141237 0.000000 0.000000
# 5 0.000000 0.000000 0.000000 0.000000 0.022003 0.000000
# 6 0.000000 0.000000 0.000000 0.000000 0.000000 0.034034
#
#
# Mechanical properties :
#
#
# Convention : Reuss Voigt Hill
#
# Bulk Modulus (GPa) = 73.80310 96.87967 85.34139
# Shear Modulus (GPa) = 19.57497 32.44044 26.00771
#
# Velocity S-wave (km/s) = 3.19222 4.10947 3.67954
# Velocity P-wave (km/s) = 7.21161 8.54110 7.90436
#
# Compressibility (1/GPa) = 0.01354957
#
# Stress axis : x y z
#
# Youngs Moduli (GPa) = 128.36151 72.43577 83.34937
#
# Poissons Ratio (x) = 0.21682 0.43467
# Poissons Ratio (y) = 0.38422 0.15117
# Poissons Ratio (z) = 0.66941 0.13138
#
# Static dielectric constant tensor:
#      x y z
#    x 1.368150 0.000000 0.000000 
#    y 0.000000 1.731500 0.000000 
#    z 0.000000 0.000000 1.644660 
# 
# From -- ./inp_files/20605.got.cif
#   From: 2010.05.17/outbox.cif.g08.bks.cpg/sg51_11_cif.got.tgz:20605.got - 2010.06.03 11:52:47.
