data_PCOD9406560
_publ_section_title
;
Structure prediction by ZEFSAII (Michael W. Deem and Ramdas Pophale) SiO2 
 PCOD9406560
Probable space group: P M M A
;
_chemical_formula_sum "Si O2"
_cell_formula_units_Z 56
_cell_length_a 15.201254
_cell_length_b 13.859131
_cell_length_c 12.426016
_cell_angle_alpha 90.000000
_cell_angle_beta 90.000000
_cell_angle_gamma 90.000000
_cell_volume 2617.865466
_symmetry_space_group_name_H-M "P M M A"
_symmetry_group_IT_number 51
_symmetry_cell_setting 'orthorhombic'
loop_
_space_group_symop_operation_xyz
x,y,z
1/2-x,-y,z
1/2+x,-y,-z
-x,y,-z
-x,-y,-z
1/2+x,y,-z
1/2-x,y,z
x,-y,z
loop_
_atom_site_type_symbol
_atom_site_label
_atom_site_fract_x
_atom_site_fract_y
_atom_site_fract_z
Si Si1 0.981236 0.785840 0.616588
Si Si2 0.105549 0.385400 0.884421
Si Si3 0.604578 0.113291 0.018125
Si Si4 0.600549 0.616245 0.879332
Si Si5 0.347869 0.115680 0.219752
Si Si6 0.849829 0.383938 0.641263
Si Si7 0.345649 0.781212 0.758491
O O1 0.918458 0.843002 0.698329
O O2 0.928114 0.684200 0.597711
O O3 0.000000 0.829836 0.500000
O O4 0.075173 0.784980 0.675214
O O5 0.111258 0.500000 0.875233
O O6 0.156827 0.330029 0.794223
O O7 0.002454 0.356114 0.873187
O O8 0.135109 0.354704 0.003994
O O9 0.631939 0.164079 0.129039
O O10 0.628035 0.000000 0.028580
O O11 0.500000 0.120704 0.000000
O O12 0.642655 0.149932 0.904075
O O13 0.600418 0.500000 0.884032
O O14 0.648392 0.640404 0.769454
O O15 0.250000 0.138370 0.258542
O O16 0.358461 0.000000 0.214983
O O17 0.750000 0.365458 0.600824
O O18 0.866805 0.500000 0.630060
O O19 0.250000 0.813591 0.719051
#
# Coordination Sequence:
#
# PCOD9406560 Si02
#       7
#     8   8   8   8   8   8   8
#     4  12  27  45  66  88 127 176 224 275 322 373
#     4   9  18  33  53  84 128 169 204 246 305 382
#     4  10  21  41  69 100 136 170 204 253 320 394
#     4   8  15  29  53  83 117 156 195 243 306 374
#     4  10  22  43  73 105 131 160 205 262 325 392
#     4  10  21  39  65  94 121 159 217 277 330 381
#     4  12  26  39  61  95 131 172 216 261 322 390
#
# _framework density 21.391473999999999
#
# number of rings (size 3 to 8) (size 9 to 14) (size 15 to 20)
#    0.000    1.857    2.857    1.714    4.000    3.429 
#    0.000    1.429    0.000    0.000    0.000    0.000 
#    0.000    0.000    0.000    0.000    0.000    0.000 
#
# Total GULP energy -312657.458940 kJ/mol
# GULP energy per Si atom -5583.168910 kJ/mol
# Density = 2.134279 g / cm^3
# Si number density = 21.391474 Si / 1000 Ang^3
#
#
#
# Elastic Constant Matrix: (Units=GPa)
#
#
# Indices 1 2 3 4 5 6 
#
# 1 141.7337 28.0120 51.0875 0.0000 0.0000 0.0000
# 2 28.0120 66.3305 22.0778 0.0000 0.0000 0.0000
# 3 51.0875 22.0778 85.0276 0.0000 0.0000 0.0000
# 4 0.0000 0.0000 0.0000 9.9063 0.0000 0.0000
# 5 0.0000 0.0000 0.0000 0.0000 -6.6685 0.0000
# 6 0.0000 0.0000 0.0000 0.0000 0.0000 11.1009
#
#
#
# Elastic Compliance Matrix: (Units=1/GPa)
#
#
# Indices 1 2 3 4 5 6 
#
# 1 0.009307 -0.002265 -0.005004 0.000000 0.000000 0.000000
# 2 -0.002265 0.017053 -0.003067 0.000000 0.000000 0.000000
# 3 -0.005004 -0.003067 0.015564 0.000000 0.000000 0.000000
# 4 0.000000 0.000000 0.000000 0.100946 0.000000 0.000000
# 5 0.000000 0.000000 0.000000 0.000000 -0.149958 0.000000
# 6 0.000000 0.000000 0.000000 0.000000 0.000000 0.090083
#
#
# Mechanical properties :
#
#
# Convention : Reuss Voigt Hill
#
# Bulk Modulus (GPa) = 47.05377 55.04962 51.05169
# Shear Modulus (GPa) = 45.14688 15.66203 30.40446
#
# Velocity S-wave (km/s) = 4.59901 2.70879 3.77415
# Velocity P-wave (km/s) = 7.08840 5.96436 6.55054
#
# Compressibility (1/GPa) = 0.02125228
#
# Stress axis : x y z
#
# Youngs Moduli (GPa) = 107.44975 58.63940 64.25209
#
# Poissons Ratio (x) = 0.13281 0.32150
# Poissons Ratio (y) = 0.24336 0.19707
# Poissons Ratio (z) = 0.53765 0.17986
#
# Static dielectric constant tensor:
#      x y z
#    x 1.846570 0.000000 0.000000 
#    y 0.000000 1.836050 0.000000 
#    z 0.000000 0.000000 1.740870 
# 
# From -- ./inp_files/16642.got.cif
#   From: 2010.05.17/outbox.cif.g08.bks.cpg/sg51_9_cif.got.tgz:16642.got - 2010.06.03 11:52:47.
