data_PCOD9406615
_publ_section_title
;
Structure prediction by ZEFSAII (Michael W. Deem and Ramdas Pophale) SiO2 
 PCOD9406615
Probable space group: P M M A
;
_chemical_formula_sum "Si O2"
_cell_formula_units_Z 56
_cell_length_a 14.742335
_cell_length_b 8.589650
_cell_length_c 24.617596
_cell_angle_alpha 90.000000
_cell_angle_beta 90.000000
_cell_angle_gamma 90.000000
_cell_volume 3117.363055
_symmetry_space_group_name_H-M "P M M A"
_symmetry_group_IT_number 51
_symmetry_cell_setting 'orthorhombic'
loop_
_space_group_symop_operation_xyz
x,y,z
1/2-x,-y,z
1/2+x,-y,-z
-x,y,-z
-x,-y,-z
1/2+x,y,-z
1/2-x,y,z
x,-y,z
loop_
_atom_site_type_symbol
_atom_site_label
_atom_site_fract_x
_atom_site_fract_y
_atom_site_fract_z
Si Si1 0.000004 0.310551 0.438201
Si Si2 0.146003 0.687791 0.941282
Si Si3 0.500950 0.184676 0.141969
Si Si4 0.999766 0.812935 0.733580
Si Si5 0.854570 0.311536 0.650390
Si Si6 0.354736 0.688502 0.650564
Si Si7 0.141501 0.317000 0.062774
O O1 0.000179 0.500000 0.439892
O O2 0.911636 0.264782 0.403162
O O3 0.000000 0.253942 0.500000
O O4 0.088217 0.264090 0.403140
O O5 0.250000 0.738337 0.932934
O O6 0.145432 0.500000 0.942527
O O7 0.081293 0.744983 0.894133
O O8 0.116394 0.738463 0.001926
O O9 0.500303 0.241320 0.204041
O O10 0.409709 0.227942 0.109938
O O11 0.511772 0.000000 0.143306
O O12 0.912120 0.750853 0.701179
O O13 0.087881 0.752948 0.701116
O O14 0.998687 0.000000 0.732307
O O15 0.750000 0.260678 0.649705
O O16 0.855884 0.500000 0.652413
O O17 0.250000 0.738341 0.649775
O O18 0.356638 0.500000 0.653122
O O19 0.250000 0.305058 0.066998
O O20 0.116987 0.500000 0.066701
#
# Coordination Sequence:
#
# PCOD9406615 Si02
#       7
#     8   8   8   8   8   8   8
#     4   8  14  26  47  78 111 134 156 196 250 302
#     4   9  19  36  56  77 101 130 164 201 244 298
#     4  11  23  35  50  75 103 131 165 207 254 299
#     4  10  22  37  50  69 100 135 171 210 250 296
#     4   9  18  33  53  76 101 131 169 210 249 291
#     4   9  18  33  53  76 101 131 169 210 249 291
#     4   9  19  36  56  77 101 130 164 201 244 298
#
# _framework density 17.963901
#
# number of rings (size 3 to 8) (size 9 to 14) (size 15 to 20)
#    0.000    2.714    0.000    3.000    0.000    7.429 
#    0.000   10.000    0.000    6.857    0.000    8.000 
#    0.000    0.000    0.000    0.000    0.000    0.000 
#
# Total GULP energy -312306.664083 kJ/mol
# GULP energy per Si atom -5576.904716 kJ/mol
# Density = 1.792301 g / cm^3
# Si number density = 17.963901 Si / 1000 Ang^3
#
#
#
# Elastic Constant Matrix: (Units=GPa)
#
#
# Indices 1 2 3 4 5 6 
#
# 1 139.1852 17.9280 85.1243 0.0000 0.0000 0.0000
# 2 17.9280 9.6251 22.4175 0.0000 0.0000 0.0000
# 3 85.1243 22.4175 187.5283 0.0000 0.0000 0.0000
# 4 0.0000 0.0000 0.0000 43.8808 0.0000 0.0000
# 5 0.0000 0.0000 0.0000 0.0000 15.1252 0.0000
# 6 0.0000 0.0000 0.0000 0.0000 0.0000 58.2841
#
#
#
# Elastic Compliance Matrix: (Units=1/GPa)
#
#
# Indices 1 2 3 4 5 6 
#
# 1 0.010882 -0.012146 -0.003488 0.000000 0.000000 0.000000
# 2 -0.012146 0.157540 -0.013319 0.000000 0.000000 0.000000
# 3 -0.003488 -0.013319 0.008508 0.000000 0.000000 0.000000
# 4 0.000000 0.000000 0.000000 0.022789 0.000000 0.000000
# 5 0.000000 0.000000 0.000000 0.000000 0.066115 0.000000
# 6 0.000000 0.000000 0.000000 0.000000 0.000000 0.017157
#
#
# Mechanical properties :
#
#
# Convention : Reuss Voigt Hill
#
# Bulk Modulus (GPa) = 8.40171 65.25314 36.82742
# Shear Modulus (GPa) = 13.13812 37.51596 25.32704
#
# Velocity S-wave (km/s) = 2.70731 4.57487 3.75892
# Velocity P-wave (km/s) = 3.80261 8.01931 6.27571
#
# Compressibility (1/GPa) = 0.11902345
#
# Stress axis : x y z
#
# Youngs Moduli (GPa) = 91.89229 6.34761 117.53778
#
# Poissons Ratio (x) = 0.07710 0.40994
# Poissons Ratio (y) = 1.11617 1.56548
# Poissons Ratio (z) = 0.32050 0.08454
#
# Static dielectric constant tensor:
#      x y z
#    x 1.607730 0.000000 0.000000 
#    y 0.000000 1.610560 0.000000 
#    z 0.000000 0.000000 1.606200 
# 
# From -- ./inp_files/33441.got.cif
#   From: 2010.05.17/outbox.cif.g08.bks.cpg/sg51_17_cif.got.tgz:33441.got - 2010.06.03 11:52:47.
