data_PCOD9406884
_publ_section_title
;
Structure prediction by ZEFSAII (Michael W. Deem and Ramdas Pophale) SiO2 
 PCOD9406884
Probable space group: P M M A
;
_chemical_formula_sum "Si O2"
_cell_formula_units_Z 64
_cell_length_a 15.479039
_cell_length_b 15.232169
_cell_length_c 12.328282
_cell_angle_alpha 90.000000
_cell_angle_beta 90.000000
_cell_angle_gamma 90.000000
_cell_volume 2906.754169
_symmetry_space_group_name_H-M "P M M A"
_symmetry_group_IT_number 51
_symmetry_cell_setting 'orthorhombic'
loop_
_space_group_symop_operation_xyz
x,y,z
1/2-x,-y,z
1/2+x,-y,-z
-x,y,-z
-x,-y,-z
1/2+x,y,-z
1/2-x,y,z
x,-y,z
loop_
_atom_site_type_symbol
_atom_site_label
_atom_site_fract_x
_atom_site_fract_y
_atom_site_fract_z
Si Si1 0.424494 0.899599 0.164194
Si Si2 0.604507 0.095961 0.482670
Si Si3 0.145780 0.595773 0.918267
Si Si4 0.847389 0.787385 0.020476
Si Si5 0.145527 0.662144 0.680462
Si Si6 0.355683 0.596581 0.441646
Si Si7 0.651957 0.230004 0.657813
Si Si8 0.604935 0.847470 0.249958
O O1 0.403836 0.852637 0.051126
O O2 0.385119 0.835000 0.253720
O O3 0.523892 0.896320 0.198048
O O4 0.393074 0.000000 0.165931
O O5 0.500000 0.104277 0.500000
O O6 0.647113 0.175479 0.546239
O O7 0.631158 0.099614 0.356765
O O8 0.628064 0.000000 0.528122
O O9 0.250000 0.596497 0.932546
O O10 0.113764 0.500000 0.955890
O O11 0.131273 0.605919 0.789061
O O12 0.116493 0.687478 0.972908
O O13 0.750000 0.785174 0.975082
O O14 0.841256 0.822983 0.143467
O O15 0.250000 0.683018 0.677645
O O16 0.123694 0.616538 0.567299
O O17 0.091363 0.751112 0.697028
O O18 0.250000 0.597325 0.436763
O O19 0.385799 0.500000 0.410241
O O20 0.388990 0.675385 0.366431
O O21 0.750000 0.246736 0.689046
#
# Coordination Sequence:
#
# PCOD9406884 Si02
#       8
#     8   8   8   8   8   8   8   8
#     4  12  26  44  62  80 114 167 214 246 300 378
#     4  11  22  38  59  86 120 158 197 243 303 368
#     4   8  14  28  54  86 116 147 185 231 291 360
#     4  10  23  41  63  92 120 151 202 263 310 348
#     4   9  16  29  54  89 124 156 189 236 296 355
#     4   9  17  31  55  88 123 157 195 240 294 359
#     4  11  23  39  61  88 118 156 204 251 293 350
#     4  11  21  37  63  89 121 156 198 246 304 363
#
# _framework density 22.017686999999999
#
# number of rings (size 3 to 8) (size 9 to 14) (size 15 to 20)
#    0.000    1.875    2.500    3.000    0.000    5.250 
#    0.000    0.625    0.000   19.500    0.000    0.000 
#    0.000    0.000    0.000    0.000    0.000    0.000 
#
# Total GULP energy -357013.678521 kJ/mol
# GULP energy per Si atom -5578.338727 kJ/mol
# Density = 2.196757 g / cm^3
# Si number density = 22.017687 Si / 1000 Ang^3
#
#
#
# Elastic Constant Matrix: (Units=GPa)
#
#
# Indices 1 2 3 4 5 6 
#
# 1 19.3257 18.6715 7.3813 0.0000 0.0000 0.0000
# 2 18.6715 196.5700 56.7709 0.0000 0.0000 0.0000
# 3 7.3813 56.7709 95.0488 0.0000 0.0000 0.0000
# 4 0.0000 0.0000 0.0000 23.3874 0.0000 0.0000
# 5 0.0000 0.0000 0.0000 0.0000 25.4534 0.0000
# 6 0.0000 0.0000 0.0000 0.0000 0.0000 20.2843
#
#
#
# Elastic Compliance Matrix: (Units=1/GPa)
#
#
# Indices 1 2 3 4 5 6 
#
# 1 0.057137 -0.005010 -0.001445 0.000000 0.000000 0.000000
# 2 -0.005010 0.006587 -0.003545 0.000000 0.000000 0.000000
# 3 -0.001445 -0.003545 0.012751 0.000000 0.000000 0.000000
# 4 0.000000 0.000000 0.000000 0.042758 0.000000 0.000000
# 5 0.000000 0.000000 0.000000 0.000000 0.039287 0.000000
# 6 0.000000 0.000000 0.000000 0.000000 0.000000 0.049299
#
#
# Mechanical properties :
#
#
# Convention : Reuss Voigt Hill
#
# Bulk Modulus (GPa) = 17.70714 52.95466 35.33090
# Shear Modulus (GPa) = 20.27216 29.03308 24.65262
#
# Velocity S-wave (km/s) = 3.03763 3.63523 3.34978
# Velocity P-wave (km/s) = 4.51250 6.45934 5.57161
#
# Compressibility (1/GPa) = 0.05647440
#
# Stress axis : x y z
#
# Youngs Moduli (GPa) = 17.50190 151.81370 78.42756
#
# Poissons Ratio (x) = 0.76058 0.11331
# Poissons Ratio (y) = 0.08768 0.27804
# Poissons Ratio (z) = 0.02529 0.53822
#
# Static dielectric constant tensor:
#      x y z
#    x 1.834180 0.000000 0.000000 
#    y 0.000000 1.823640 0.000000 
#    z 0.000000 0.000000 1.819750 
# 
# From -- ./inp_files/17516.got.cif
#   From: 2010.05.17/outbox.cif.g08.bks.cpg/sg51_9_cif.got.tgz:17516.got - 2010.06.03 11:52:47.
