data_PCOD9406765
_publ_section_title
;
Structure prediction by ZEFSAII (Michael W. Deem and Ramdas Pophale) SiO2 
 PCOD9406765
Probable space group: P M M A
;
_chemical_formula_sum "Si O2"
_cell_formula_units_Z 40
_cell_length_a 7.732684
_cell_length_b 8.177208
_cell_length_c 31.212338
_cell_angle_alpha 90.000000
_cell_angle_beta 90.000000
_cell_angle_gamma 90.000000
_cell_volume 1973.611236
_symmetry_space_group_name_H-M "P M M A"
_symmetry_group_IT_number 51
_symmetry_cell_setting 'orthorhombic'
loop_
_space_group_symop_operation_xyz
x,y,z
1/2-x,-y,z
1/2+x,-y,-z
-x,y,-z
-x,-y,-z
1/2+x,y,-z
1/2-x,y,z
x,-y,z
loop_
_atom_site_type_symbol
_atom_site_label
_atom_site_fract_x
_atom_site_fract_y
_atom_site_fract_z
Si Si1 0.750000 0.799783 0.797333
Si Si2 0.250000 0.194032 0.299901
Si Si3 0.457359 0.187168 0.954286
Si Si4 0.542889 0.186258 0.454059
Si Si5 0.550564 0.799611 0.138986
Si Si6 0.052750 0.306198 0.638492
O O1 0.750000 0.739854 0.748569
O O2 0.580519 0.749403 0.824006
O O3 0.750000 0.000000 0.796826
O O4 0.419350 0.243202 0.326533
O O5 0.250000 0.000000 0.296705
O O6 0.250000 0.178022 0.951673
O O7 0.510838 0.257648 0.908303
O O8 0.527455 0.000000 0.956111
O O9 0.500000 0.266566 0.000000
O O10 0.500000 0.264445 0.500000
O O11 0.750000 0.181095 0.452277
O O12 0.487560 0.266126 0.409594
O O13 0.474326 0.000000 0.454677
O O14 0.750000 0.750056 0.146224
O O15 0.550148 0.000000 0.137118
O O16 0.250000 0.240293 0.643369
O O17 0.061513 0.500000 0.642273
#
# Coordination Sequence:
#
# PCOD9406765 Si02
#       6
#     4   4   8   8   8   8
#     4   9  18  29  43  63  85 119 163 213 270 315
#     4  11  23  37  57  83 107 139 189 239 286 333
#     4   8  13  18  26  43  66  99 143 191 243 293
#     4   9  18  32  52  81 114 148 183 218 261 316
#     4   8  14  24  35  50  77 110 149 201 255 306
#     4  10  22  40  59  81 112 148 184 226 278 333
#
# _framework density 20.267416000000001
#
# number of rings (size 3 to 8) (size 9 to 14) (size 15 to 20)
#    0.000    3.000    0.000    2.100    2.800    2.400 
#    0.000    2.000    0.000    0.000    0.000    0.000 
#    0.000    0.000    0.000    0.000    0.000    4.000 
#
# Total GULP energy -222908.936525 kJ/mol
# GULP energy per Si atom -5572.723413 kJ/mol
# Density = 2.022129 g / cm^3
# Si number density = 20.267416 Si / 1000 Ang^3
#
#
#
# Elastic Constant Matrix: (Units=GPa)
#
#
# Indices 1 2 3 4 5 6 
#
# 1 97.0309 10.6883 95.3668 0.0000 0.0000 0.0000
# 2 10.6883 14.8306 19.6674 0.0000 0.0000 0.0000
# 3 95.3668 19.6674 239.4947 0.0000 0.0000 0.0000
# 4 0.0000 0.0000 0.0000 -24.7046 0.0000 0.0000
# 5 0.0000 0.0000 0.0000 0.0000 3.9986 0.0000
# 6 0.0000 0.0000 0.0000 0.0000 0.0000 18.6822
#
#
#
# Elastic Compliance Matrix: (Units=1/GPa)
#
#
# Indices 1 2 3 4 5 6 
#
# 1 0.017112 -0.003699 -0.006510 0.000000 0.000000 0.000000
# 2 -0.003699 0.076468 -0.004807 0.000000 0.000000 0.000000
# 3 -0.006510 -0.004807 0.007163 0.000000 0.000000 0.000000
# 4 0.000000 0.000000 0.000000 -0.040478 0.000000 0.000000
# 5 0.000000 0.000000 0.000000 0.000000 0.250090 0.000000
# 6 0.000000 0.000000 0.000000 0.000000 0.000000 0.053527
#
#
# Mechanical properties :
#
#
# Convention : Reuss Voigt Hill
#
# Bulk Modulus (GPa) = 14.14210 66.97792 40.56001
# Shear Modulus (GPa) = 11.97652 14.63748 13.30700
#
# Velocity S-wave (km/s) = 2.43353 2.69033 2.56514
# Velocity P-wave (km/s) = 3.85863 6.53982 5.36928
#
# Compressibility (1/GPa) = 0.07071085
#
# Stress axis : x y z
#
# Youngs Moduli (GPa) = 58.43828 13.07736 139.61470
#
# Poissons Ratio (x) = 0.04837 0.90893
# Poissons Ratio (y) = 0.21616 0.67108
# Poissons Ratio (z) = 0.38045 0.06286
#
# Static dielectric constant tensor:
#      x y z
#    x 1.725470 0.000000 0.000000 
#    y 0.000000 1.718150 0.000000 
#    z 0.000000 0.000000 1.749920 
# 
# From -- ./inp_files/36005.got.cif
#   From: 2010.05.17/outbox.cif.g08.bks.cpg/sg51_19_cif.got.tgz:36005.got - 2010.06.03 11:52:47.
