data_PCOD9406025
_publ_section_title
;
Structure prediction by ZEFSAII (Michael W. Deem and Ramdas Pophale) SiO2 
 PCOD9406025
Probable space group: P M M A
;
_chemical_formula_sum "Si O2"
_cell_formula_units_Z 56
_cell_length_a 8.747737
_cell_length_b 14.557408
_cell_length_c 24.347732
_cell_angle_alpha 90.000000
_cell_angle_beta 90.000000
_cell_angle_gamma 90.000000
_cell_volume 3100.546753
_symmetry_space_group_name_H-M "P M M A"
_symmetry_group_IT_number 51
_symmetry_cell_setting 'orthorhombic'
loop_
_space_group_symop_operation_xyz
x,y,z
1/2-x,-y,z
1/2+x,-y,-z
-x,y,-z
-x,-y,-z
1/2+x,y,-z
1/2-x,y,z
x,-y,z
loop_
_atom_site_type_symbol
_atom_site_label
_atom_site_fract_x
_atom_site_fract_y
_atom_site_fract_z
Si Si1 0.932367 0.749185 0.141336
Si Si2 0.932373 0.107021 0.941603
Si Si3 0.433339 0.248077 0.561008
Si Si4 0.571766 0.390250 0.941225
Si Si5 0.433779 0.891980 0.352376
Si Si6 0.566255 0.607988 0.645243
Si Si7 0.065775 0.251964 0.731019
O O1 0.750000 0.755347 0.138773
O O2 0.977370 0.747168 0.205096
O O3 0.003724 0.833825 0.108172
O O4 0.987839 0.660113 0.108219
O O5 0.750000 0.114322 0.943748
O O6 0.974633 0.000000 0.935068
O O7 0.000000 0.138765 0.000000
O O8 0.500000 0.247095 0.500000
O O9 0.250000 0.247681 0.560467
O O10 0.495020 0.160782 0.595460
O O11 0.493862 0.337177 0.594083
O O12 0.750000 0.364551 0.940998
O O13 0.559265 0.500000 0.935770
O O14 0.500000 0.364769 0.000000
O O15 0.250000 0.881793 0.353619
O O16 0.499952 0.837394 0.300007
O O17 0.470527 0.000000 0.351603
O O18 0.750000 0.618064 0.643553
O O19 0.529228 0.500000 0.645010
O O20 0.501706 0.660580 0.698610
O O21 0.250000 0.252515 0.726075
#
# Coordination Sequence:
#
# PCOD9406025 Si02
#       7
#     8   8   8   8   8   8   8
#     4  11  23  37  55  80 110 144 181 224 273 324
#     4  10  21  37  57  80 107 140 178 222 273 329
#     4  11  22  37  59  86 118 151 185 228 271 318
#     4  10  21  37  57  80 107 140 178 222 273 329
#     4  10  21  38  60  84 112 147 185 227 275 324
#     4  10  21  38  60  84 112 147 185 227 275 324
#     4  10  22  38  56  80 110 145 185 228 272 322
#
# _framework density 18.061330999999999
#
# number of rings (size 3 to 8) (size 9 to 14) (size 15 to 20)
#    0.000    1.714    0.000    6.000    0.000    8.000 
#    0.000    5.714    0.000    0.000    0.000    0.000 
#    0.000    0.000    0.000    0.000    0.000    0.000 
#
# Total GULP energy -312915.386155 kJ/mol
# GULP energy per Si atom -5587.774753 kJ/mol
# Density = 1.802022 g / cm^3
# Si number density = 18.061331 Si / 1000 Ang^3
#
#
#
# Elastic Constant Matrix: (Units=GPa)
#
#
# Indices 1 2 3 4 5 6 
#
# 1 89.3275 53.5867 64.8156 0.0000 0.0000 0.0000
# 2 53.5867 133.4563 78.2249 0.0000 0.0000 0.0000
# 3 64.8156 78.2249 187.8284 0.0000 0.0000 0.0000
# 4 0.0000 0.0000 0.0000 26.6718 0.0000 0.0000
# 5 0.0000 0.0000 0.0000 0.0000 34.5560 0.0000
# 6 0.0000 0.0000 0.0000 0.0000 0.0000 27.1959
#
#
#
# Elastic Compliance Matrix: (Units=1/GPa)
#
#
# Indices 1 2 3 4 5 6 
#
# 1 0.016680 -0.004397 -0.003925 0.000000 0.000000 0.000000
# 2 -0.004397 0.011072 -0.003094 0.000000 0.000000 0.000000
# 3 -0.003925 -0.003094 0.007967 0.000000 0.000000 0.000000
# 4 0.000000 0.000000 0.000000 0.037493 0.000000 0.000000
# 5 0.000000 0.000000 0.000000 0.000000 0.028939 0.000000
# 6 0.000000 0.000000 0.000000 0.000000 0.000000 0.036770
#
#
# Mechanical properties :
#
#
# Convention : Reuss Voigt Hill
#
# Bulk Modulus (GPa) = 77.59272 89.31851 83.45562
# Shear Modulus (GPa) = 30.11170 31.95041 31.03105
#
# Velocity S-wave (km/s) = 4.08756 4.21051 4.14949
# Velocity P-wave (km/s) = 8.08279 8.55559 8.32254
#
# Compressibility (1/GPa) = 0.01288781
#
# Stress axis : x y z
#
# Youngs Moduli (GPa) = 59.95064 90.31687 125.52026
#
# Poissons Ratio (x) = 0.39714 0.49264
# Poissons Ratio (y) = 0.26361 0.38834
# Poissons Ratio (z) = 0.23529 0.27942
#
# Static dielectric constant tensor:
#      x y z
#    x 1.605510 0.000000 0.000000 
#    y 0.000000 1.614330 0.000000 
#    z 0.000000 0.000000 1.588070 
# 
# From -- ./inp_files/31901.got.cif
#   From: 2010.05.17/outbox.cif.g08.bks.cpg/sg51_16_cif.got.tgz:31901.got - 2010.06.03 11:52:47.
