data_PCOD9406675
_publ_section_title
;
Structure prediction by ZEFSAII (Michael W. Deem and Ramdas Pophale) SiO2 
 PCOD9406675
Probable space group: P M M A
;
_chemical_formula_sum "Si O2"
_cell_formula_units_Z 40
_cell_length_a 16.196771
_cell_length_b 7.357874
_cell_length_c 17.871573
_cell_angle_alpha 90.000000
_cell_angle_beta 90.000000
_cell_angle_gamma 90.000000
_cell_volume 2129.823270
_symmetry_space_group_name_H-M "P M M A"
_symmetry_group_IT_number 51
_symmetry_cell_setting 'orthorhombic'
loop_
_space_group_symop_operation_xyz
x,y,z
1/2-x,-y,z
1/2+x,-y,-z
-x,y,-z
-x,-y,-z
1/2+x,y,-z
1/2-x,y,z
x,-y,z
loop_
_atom_site_type_symbol
_atom_site_label
_atom_site_fract_x
_atom_site_fract_y
_atom_site_fract_z
Si Si1 0.078609 0.715929 0.302076
Si Si2 0.912989 0.278513 0.035103
Si Si3 0.841356 0.000000 0.315867
Si Si4 0.495425 0.000000 0.411311
Si Si5 0.415518 0.284656 0.792237
Si Si6 0.250000 0.721148 0.227297
Si Si7 0.750000 0.722024 0.945213
O O1 0.080747 0.500000 0.316769
O O2 0.166848 0.775157 0.270006
O O3 0.008229 0.747426 0.238965
O O4 0.050791 0.827248 0.374649
O O5 0.913672 0.500000 0.033725
O O6 0.907444 0.226138 0.121925
O O7 0.833047 0.220533 0.988131
O O8 0.000000 0.219078 0.000000
O O9 0.856726 0.827478 0.262195
O O10 0.750000 0.000000 0.347375
O O11 0.912295 0.000000 0.377792
O O12 0.500000 0.000000 0.500000
O O13 0.399448 0.500000 0.787828
O O14 0.250000 0.500000 0.225648
O O15 0.250000 0.780517 0.141048
O O16 0.750000 0.500000 0.945434
#
# Coordination Sequence:
#
# PCOD9406675 Si02
#       7
#     8   8   4   4   8   4   4
#     4   9  18  34  57  83 110 145 180 215 263 319
#     4   9  16  26  43  71 104 140 183 226 267 306
#     4  10  22  38  56  79 106 136 176 221 266 321
#     4  10  22  41  60  84 109 136 169 213 273 331
#     4   9  18  33  54  76 106 147 187 223 264 314
#     4   9  16  29  51  81 114 144 184 226 260 311
#     4   9  16  24  41  71 105 141 182 227 267 301
#
# _framework density 18.780901
#
# number of rings (size 3 to 8) (size 9 to 14) (size 15 to 20)
#    0.000    2.800    0.000    1.200    1.400    6.000 
#    1.800    0.500    0.000    2.400    0.000    0.000 
#    0.000    0.000    0.000    0.000    0.000    0.000 
#
# Total GULP energy -223329.546265 kJ/mol
# GULP energy per Si atom -5583.238657 kJ/mol
# Density = 1.873816 g / cm^3
# Si number density = 18.780901 Si / 1000 Ang^3
#
#
#
# Elastic Constant Matrix: (Units=GPa)
#
#
# Indices 1 2 3 4 5 6 
#
# 1 155.1137 36.4559 86.7577 0.0000 0.0000 0.0000
# 2 36.4559 72.2768 40.4055 0.0000 0.0000 0.0000
# 3 86.7577 40.4055 182.3300 0.0000 0.0000 0.0000
# 4 0.0000 0.0000 0.0000 44.3909 0.0000 0.0000
# 5 0.0000 0.0000 0.0000 0.0000 11.5114 0.0000
# 6 0.0000 0.0000 0.0000 0.0000 0.0000 5.6539
#
#
#
# Elastic Compliance Matrix: (Units=1/GPa)
#
#
# Indices 1 2 3 4 5 6 
#
# 1 0.009162 -0.002493 -0.003807 0.000000 0.000000 0.000000
# 2 -0.002493 0.016470 -0.002464 0.000000 0.000000 0.000000
# 3 -0.003807 -0.002464 0.007842 0.000000 0.000000 0.000000
# 4 0.000000 0.000000 0.000000 0.022527 0.000000 0.000000
# 5 0.000000 0.000000 0.000000 0.000000 0.086871 0.000000
# 6 0.000000 0.000000 0.000000 0.000000 0.000000 0.176869
#
#
# Mechanical properties :
#
#
# Convention : Reuss Voigt Hill
#
# Bulk Modulus (GPa) = 62.70776 81.88429 72.29602
# Shear Modulus (GPa) = 14.59492 28.71801 21.65646
#
# Velocity S-wave (km/s) = 2.79070 3.91462 3.39943
# Velocity P-wave (km/s) = 6.62160 8.00792 7.34753
#
# Compressibility (1/GPa) = 0.01594699
#
# Stress axis : x y z
#
# Youngs Moduli (GPa) = 109.14388 60.71474 127.51691
#
# Poissons Ratio (x) = 0.15136 0.48548
# Poissons Ratio (y) = 0.27210 0.31417
# Poissons Ratio (z) = 0.41553 0.14958
#
# Static dielectric constant tensor:
#      x y z
#    x 1.637280 0.000000 0.000000 
#    y 0.000000 1.698360 0.000000 
#    z 0.000000 0.000000 1.588040 
# 
# From -- ./inp_files/23849.got.cif
#   From: 2010.05.17/outbox.cif.g08.bks.cpg/sg51_12_cif.got.tgz:23849.got - 2010.06.03 11:52:47.
