data_PCOD9406393
_publ_section_title
;
Structure prediction by ZEFSAII (Michael W. Deem and Ramdas Pophale) SiO2 
 PCOD9406393
Probable space group: P M M A
;
_chemical_formula_sum "Si O2"
_cell_formula_units_Z 48
_cell_length_a 8.579154
_cell_length_b 32.105243
_cell_length_c 9.325199
_cell_angle_alpha 90.000000
_cell_angle_beta 90.000000
_cell_angle_gamma 90.000000
_cell_volume 2568.493870
_symmetry_space_group_name_H-M "P M M A"
_symmetry_group_IT_number 51
_symmetry_cell_setting 'orthorhombic'
loop_
_space_group_symop_operation_xyz
x,y,z
1/2-x,-y,z
1/2+x,-y,-z
-x,y,-z
-x,-y,-z
1/2+x,y,-z
1/2-x,y,z
x,-y,z
loop_
_atom_site_type_symbol
_atom_site_label
_atom_site_fract_x
_atom_site_fract_y
_atom_site_fract_z
Si Si1 0.563237 0.547817 0.341058
Si Si2 0.938337 0.044705 0.336649
Si Si3 0.938467 0.864211 0.337472
Si Si4 0.562549 0.216781 0.161084
Si Si5 0.936629 0.376603 0.840282
Si Si6 0.437261 0.704847 0.338812
O O1 0.500000 0.557578 0.500000
O O2 0.750000 0.550014 0.343239
O O3 0.517340 0.500000 0.307764
O O4 0.497889 0.580900 0.229515
O O5 0.750000 0.044614 0.338615
O O6 0.987571 0.090008 0.278990
O O7 0.000000 0.044567 0.500000
O O8 0.988931 0.000000 0.271505
O O9 0.750000 0.863537 0.343785
O O10 0.989312 0.825901 0.239165
O O11 0.000000 0.859531 0.500000
O O12 0.750000 0.217709 0.159042
O O13 0.501318 0.255809 0.251657
O O14 0.500000 0.218718 0.000000
O O15 0.750000 0.377568 0.844032
O O16 0.985555 0.337590 0.741715
O O17 0.000000 0.371200 0.000000
O O18 0.500000 0.705280 0.500000
O O19 0.250000 0.706612 0.341072
#
# Coordination Sequence:
#
# PCOD9406393 Si02
#       6
#     8   8   8   8   8   8
#     4  10  21  38  61  88 118 153 193 236 280 327
#     4   8  13  23  41  66  96 128 163 207 258 309
#     4   9  18  31  49  75 103 133 172 216 263 317
#     4  11  23  38  56  78 107 142 180 223 272 325
#     4  11  24  40  60  86 117 152 188 229 276 327
#     4  11  24  41  62  87 113 143 181 224 271 324
#
# _framework density 18.687994
#
# number of rings (size 3 to 8) (size 9 to 14) (size 15 to 20)
#    0.000    2.000    0.000    3.500    0.000    9.333 
#    0.000    0.000    0.000    0.500    0.000    0.000 
#    0.000    0.000    0.000    0.000    0.000    0.167 
#
# Total GULP energy -267914.418945 kJ/mol
# GULP energy per Si atom -5581.550395 kJ/mol
# Density = 1.864546 g / cm^3
# Si number density = 18.687994 Si / 1000 Ang^3
#
#
#
# Elastic Constant Matrix: (Units=GPa)
#
#
# Indices 1 2 3 4 5 6 
#
# 1 32.8774 38.5220 31.2858 0.0000 0.0000 0.0000
# 2 38.5220 164.7386 101.2826 0.0000 0.0000 0.0000
# 3 31.2858 101.2826 138.7816 0.0000 0.0000 0.0000
# 4 0.0000 0.0000 0.0000 11.2595 0.0000 0.0000
# 5 0.0000 0.0000 0.0000 0.0000 32.0641 0.0000
# 6 0.0000 0.0000 0.0000 0.0000 0.0000 13.4593
#
#
#
# Elastic Compliance Matrix: (Units=1/GPa)
#
#
# Indices 1 2 3 4 5 6 
#
# 1 0.043263 -0.007474 -0.004299 0.000000 0.000000 0.000000
# 2 -0.007474 0.012302 -0.007293 0.000000 0.000000 0.000000
# 3 -0.004299 -0.007293 0.013497 0.000000 0.000000 0.000000
# 4 0.000000 0.000000 0.000000 0.088814 0.000000 0.000000
# 5 0.000000 0.000000 0.000000 0.000000 0.031188 0.000000
# 6 0.000000 0.000000 0.000000 0.000000 0.000000 0.074298
#
#
# Mechanical properties :
#
#
# Convention : Reuss Voigt Hill
#
# Bulk Modulus (GPa) = 32.32953 75.39759 53.86356
# Shear Modulus (GPa) = 16.03582 22.37708 19.20645
#
# Velocity S-wave (km/s) = 2.93248 3.46411 3.20932
# Velocity P-wave (km/s) = 5.36685 7.51220 6.52825
#
# Compressibility (1/GPa) = 0.03093147
#
# Stress axis : x y z
#
# Youngs Moduli (GPa) = 23.11420 81.29062 74.09105
#
# Poissons Ratio (x) = 0.60755 0.31849
# Poissons Ratio (y) = 0.17275 0.54033
# Poissons Ratio (z) = 0.09936 0.59284
#
# Static dielectric constant tensor:
#      x y z
#    x 1.633280 0.000000 0.000000 
#    y 0.000000 1.682420 0.000000 
#    z 0.000000 0.000000 1.591960 
# 
# From -- ./inp_files/6020.got.cif
#   From: 2010.05.17/outbox.cif.g08.bks.cpg/sg51_4_cif.got.tgz:6020.got - 2010.06.03 11:52:47.
