data_PCOD9406020
_publ_section_title
;
Structure prediction by ZEFSAII (Michael W. Deem and Ramdas Pophale) SiO2 
 PCOD9406020
Probable space group: P M M A
;
_chemical_formula_sum "Si O2"
_cell_formula_units_Z 64
_cell_length_a 14.279535
_cell_length_b 9.364623
_cell_length_c 24.514395
_cell_angle_alpha 90.000000
_cell_angle_beta 90.000000
_cell_angle_gamma 90.000000
_cell_volume 3278.125251
_symmetry_space_group_name_H-M "P M M A"
_symmetry_group_IT_number 51
_symmetry_cell_setting 'orthorhombic'
loop_
_space_group_symop_operation_xyz
x,y,z
1/2-x,-y,z
1/2+x,-y,-z
-x,y,-z
-x,-y,-z
1/2+x,y,-z
1/2-x,y,z
x,-y,z
loop_
_atom_site_type_symbol
_atom_site_label
_atom_site_fract_x
_atom_site_fract_y
_atom_site_fract_z
Si Si1 0.140183 0.829645 0.916323
Si Si2 0.361267 0.331782 0.360440
Si Si3 0.364624 0.835487 0.468294
Si Si4 0.138761 0.168357 0.686109
Si Si5 0.526624 0.330589 0.867039
Si Si6 0.362577 0.164098 0.041744
Si Si7 0.864014 0.663420 0.424577
Si Si8 0.515187 0.669854 0.744714
O O1 0.250000 0.798622 0.909260
O O2 0.074301 0.739973 0.877358
O O3 0.127778 0.000000 0.908857
O O4 0.113469 0.796398 0.979343
O O5 0.250000 0.308967 0.353538
O O6 0.375095 0.500000 0.372176
O O7 0.393708 0.240531 0.412303
O O8 0.414027 0.296762 0.304536
O O9 0.250000 0.833939 0.468608
O O10 0.394718 0.747758 0.521585
O O11 0.394095 0.000000 0.470577
O O12 0.250000 0.185997 0.695006
O O13 0.113145 0.251474 0.630415
O O14 0.077614 0.239325 0.733281
O O15 0.119743 0.000000 0.680625
O O16 0.522318 0.500000 0.874306
O O17 0.593446 0.262010 0.912249
O O18 0.555470 0.300539 0.804653
O O19 0.250000 0.167129 0.044852
O O20 0.393431 0.000000 0.050294
O O21 0.750000 0.658353 0.426672
O O22 0.897909 0.500000 0.423068
O O23 0.494081 0.500000 0.742055
#
# Coordination Sequence:
#
# PCOD9406020 Si02
#       8
#     8   8   8   8   8   8   8   8
#     4   9  19  37  60  84 112 148 187 225 269 324
#     4   9  18  35  57  76  99 137 181 221 264 318
#     4   9  16  27  47  77 109 136 167 214 270 323
#     4  10  21  37  57  80 106 138 178 227 278 321
#     4  11  23  36  54  83 116 148 183 228 279 325
#     4   9  19  37  60  85 113 147 186 225 268 323
#     4   9  16  28  50  78 106 138 174 212 263 329
#     4  10  23  40  55  76 108 146 186 224 265 319
#
# _framework density 19.523354000000001
#
# number of rings (size 3 to 8) (size 9 to 14) (size 15 to 20)
#    0.000    2.500    0.000    2.625    0.000    8.750 
#    0.000    5.625    0.000    5.250    0.000    0.000 
#    0.000    0.000    0.000    0.000    0.000    0.000 
#
# Total GULP energy -357570.432713 kJ/mol
# GULP energy per Si atom -5587.038011 kJ/mol
# Density = 1.947892 g / cm^3
# Si number density = 19.523354 Si / 1000 Ang^3
#
#
#
# Elastic Constant Matrix: (Units=GPa)
#
#
# Indices 1 2 3 4 5 6 
#
# 1 40.1787 10.4635 10.3378 0.0000 0.0000 0.0000
# 2 10.4635 62.1186 38.2223 0.0000 0.0000 0.0000
# 3 10.3378 38.2223 78.2521 0.0000 0.0000 0.0000
# 4 0.0000 0.0000 0.0000 52.1200 0.0000 0.0000
# 5 0.0000 0.0000 0.0000 0.0000 22.5924 0.0000
# 6 0.0000 0.0000 0.0000 0.0000 0.0000 -58.1569
#
#
#
# Elastic Compliance Matrix: (Units=1/GPa)
#
#
# Indices 1 2 3 4 5 6 
#
# 1 0.026220 -0.003267 -0.001868 0.000000 0.000000 0.000000
# 2 -0.003267 0.023423 -0.011009 0.000000 0.000000 0.000000
# 3 -0.001868 -0.011009 0.018403 0.000000 0.000000 0.000000
# 4 0.000000 0.000000 0.000000 0.019187 0.000000 0.000000
# 5 0.000000 0.000000 0.000000 0.000000 0.044263 0.000000
# 6 0.000000 0.000000 0.000000 0.000000 0.000000 -0.017195
#
#
# Mechanical properties :
#
#
# Convention : Reuss Voigt Hill
#
# Bulk Modulus (GPa) = 27.96619 33.17742 30.57180
# Shear Modulus (GPa) = 31.54398 11.41281 21.47839
#
# Velocity S-wave (km/s) = 4.02394 2.42042 3.32043
# Velocity P-wave (km/s) = 5.99542 4.98416 5.51303
#
# Compressibility (1/GPa) = 0.03575747
#
# Stress axis : x y z
#
# Youngs Moduli (GPa) = 38.13838 42.69370 54.33764
#
# Poissons Ratio (x) = 0.13949 0.10151
# Poissons Ratio (y) = 0.12461 0.59821
# Poissons Ratio (z) = 0.07124 0.47002
#
# Static dielectric constant tensor:
#      x y z
#    x 1.714960 0.000000 0.000000 
#    y 0.000000 1.648310 0.000000 
#    z 0.000000 0.000000 1.657710 
# 
# From -- ./inp_files/35771.got.cif
#   From: 2010.05.17/outbox.cif.g08.bks.cpg/sg51_18_cif.got.tgz:35771.got - 2010.06.03 11:52:47.
