data_PCOD9406323
_publ_section_title
;
Structure prediction by ZEFSAII (Michael W. Deem and Ramdas Pophale) SiO2 
 PCOD9406323
Probable space group: P M M A
;
_chemical_formula_sum "Si O2"
_cell_formula_units_Z 64
_cell_length_a 30.953022
_cell_length_b 8.941148
_cell_length_c 12.512112
_cell_angle_alpha 90.000000
_cell_angle_beta 90.000000
_cell_angle_gamma 90.000000
_cell_volume 3462.796448
_symmetry_space_group_name_H-M "P M M A"
_symmetry_group_IT_number 51
_symmetry_cell_setting 'orthorhombic'
loop_
_space_group_symop_operation_xyz
x,y,z
1/2-x,-y,z
1/2+x,-y,-z
-x,y,-z
-x,-y,-z
1/2+x,y,-z
1/2-x,y,z
x,-y,z
loop_
_atom_site_type_symbol
_atom_site_label
_atom_site_fract_x
_atom_site_fract_y
_atom_site_fract_z
Si Si1 0.198524 0.670996 0.045037
Si Si2 0.357640 0.323491 0.859454
Si Si3 0.802449 0.168092 0.743732
Si Si4 0.930600 0.823234 0.005305
Si Si5 0.471489 0.182774 0.601606
Si Si6 0.699575 0.321554 0.522273
Si Si7 0.990941 0.824097 0.824970
Si Si8 0.127764 0.179254 0.630555
O O1 0.250000 0.671308 0.052910
O O2 0.183449 0.500000 0.060531
O O3 0.181604 0.771224 0.142372
O O4 0.185404 0.715538 0.925537
O O5 0.358582 0.500000 0.834910
O O6 0.364881 0.232019 0.752010
O O7 0.393571 0.277850 0.946030
O O8 0.750000 0.163617 0.749458
O O9 0.812232 0.271885 0.642782
O O10 0.818099 0.000000 0.724080
O O11 0.949988 0.767675 0.892517
O O12 0.918290 0.000000 0.997457
O O13 0.969001 0.816721 0.092997
O O14 0.500000 0.227953 0.500000
O O15 0.493909 0.238159 0.711361
O O16 0.421040 0.227167 0.597647
O O17 0.471284 0.000000 0.605251
O O18 0.750000 0.275484 0.503029
O O19 0.697823 0.500000 0.512728
O O20 0.665377 0.248062 0.442379
O O21 0.981923 0.000000 0.807872
O O22 0.129632 0.000000 0.624405
#
# Coordination Sequence:
#
# PCOD9406323 Si02
#       8
#     8   8   8   8   8   8   8   8
#     4   9  19  36  55  75 105 147 186 219 267 333
#     4  11  22  35  53  78 111 148 187 231 285 346
#     4   9  17  32  56  83 108 135 176 229 276 319
#     4   9  16  30  53  77 101 133 176 223 270 324
#     4   9  17  32  55  81 110 142 181 229 283 340
#     4  10  21  38  60  84 115 156 193 226 275 338
#     4   8  14  28  52  77 100 133 175 215 265 330
#     4  11  22  37  58  83 113 147 191 244 287 328
#
# _framework density 18.482171000000001
#
# number of rings (size 3 to 8) (size 9 to 14) (size 15 to 20)
#    0.000    2.500    1.250    2.250    0.000    3.750 
#    2.250    2.500    0.000    1.500    0.000    0.000 
#    0.000    0.000    0.000    0.000    0.000    0.000 
#
# Total GULP energy -356577.551077 kJ/mol
# GULP energy per Si atom -5571.524236 kJ/mol
# Density = 1.844011 g / cm^3
# Si number density = 18.482171 Si / 1000 Ang^3
#
#
#
# Elastic Constant Matrix: (Units=GPa)
#
#
# Indices 1 2 3 4 5 6 
#
# 1 48.2620 30.3203 61.7452 0.0000 0.0000 0.0000
# 2 30.3203 40.3584 34.2995 0.0000 0.0000 0.0000
# 3 61.7452 34.2995 119.7294 0.0000 0.0000 0.0000
# 4 0.0000 0.0000 0.0000 26.4150 0.0000 0.0000
# 5 0.0000 0.0000 0.0000 0.0000 32.1339 0.0000
# 6 0.0000 0.0000 0.0000 0.0000 0.0000 13.2999
#
#
#
# Elastic Compliance Matrix: (Units=1/GPa)
#
#
# Indices 1 2 3 4 5 6 
#
# 1 0.089337 -0.036960 -0.035483 0.000000 0.000000 0.000000
# 2 -0.036960 0.048043 0.005298 0.000000 0.000000 0.000000
# 3 -0.035483 0.005298 0.025134 0.000000 0.000000 0.000000
# 4 0.000000 0.000000 0.000000 0.037857 0.000000 0.000000
# 5 0.000000 0.000000 0.000000 0.000000 0.031120 0.000000
# 6 0.000000 0.000000 0.000000 0.000000 0.000000 0.075188
#
#
# Mechanical properties :
#
#
# Convention : Reuss Voigt Hill
#
# Bulk Modulus (GPa) = 35.43434 51.23111 43.33272
# Shear Modulus (GPa) = 11.10177 19.83543 15.46860
#
# Velocity S-wave (km/s) = 2.45353 3.27956 2.89614
# Velocity P-wave (km/s) = 5.21921 6.49000 5.88898
#
# Compressibility (1/GPa) = 0.02822121
#
# Stress axis : x y z
#
# Youngs Moduli (GPa) = 11.19357 20.81462 39.78739
#
# Poissons Ratio (x) = 0.76932 1.41179
# Poissons Ratio (y) = 0.41372 -0.21077
# Poissons Ratio (z) = 0.39719 -0.11027
#
# Static dielectric constant tensor:
#      x y z
#    x 1.693210 0.000000 0.000000 
#    y 0.000000 1.631890 0.000000 
#    z 0.000000 0.000000 1.640520 
# 
# From -- ./inp_files/19628.got.cif
#   From: 2010.05.17/outbox.cif.g08.bks.cpg/sg51_10_cif.got.tgz:19628.got - 2010.06.03 11:52:47.
