data_PCOD9406027
_publ_section_title
;
Structure prediction by ZEFSAII (Michael W. Deem and Ramdas Pophale) SiO2 
 PCOD9406027
Probable space group: P M M A
;
_chemical_formula_sum "Si O2"
_cell_formula_units_Z 56
_cell_length_a 13.589186
_cell_length_b 9.024881
_cell_length_c 21.448608
_cell_angle_alpha 90.000000
_cell_angle_beta 90.000000
_cell_angle_gamma 90.000000
_cell_volume 2630.474155
_symmetry_space_group_name_H-M "P M M A"
_symmetry_group_IT_number 51
_symmetry_cell_setting 'orthorhombic'
loop_
_space_group_symop_operation_xyz
x,y,z
1/2-x,-y,z
1/2+x,-y,-z
-x,y,-z
-x,-y,-z
1/2+x,y,-z
1/2-x,y,z
x,-y,z
loop_
_atom_site_type_symbol
_atom_site_label
_atom_site_fract_x
_atom_site_fract_y
_atom_site_fract_z
Si Si1 0.631467 0.168422 0.160714
Si Si2 0.369506 0.673011 0.965045
Si Si3 0.449647 0.324587 0.717792
Si Si4 0.356695 0.820330 0.457636
Si Si5 0.364819 0.175793 0.233225
Si Si6 0.432229 0.178460 0.593110
Si Si7 0.630636 0.329425 0.895443
O O1 0.750000 0.165615 0.158566
O O2 0.597085 0.235155 0.094730
O O3 0.600736 0.266882 0.219149
O O4 0.596345 0.000000 0.169189
O O5 0.250000 0.681922 0.965064
O O6 0.394448 0.500000 0.957161
O O7 0.401234 0.716992 0.034969
O O8 0.449127 0.500000 0.715313
O O9 0.560669 0.261278 0.722397
O O10 0.400246 0.255154 0.656567
O O11 0.250000 0.767224 0.435250
O O12 0.455251 0.773416 0.422256
O O13 0.371408 0.785185 0.530839
O O14 0.356932 0.000000 0.453578
O O15 0.250000 0.213626 0.243122
O O16 0.392439 0.224964 0.162677
O O17 0.375468 0.000000 0.241130
O O18 0.430106 0.000000 0.600625
O O19 0.750000 0.333139 0.897856
O O20 0.598772 0.500000 0.883436
#
# Coordination Sequence:
#
# PCOD9406027 Si02
#       7
#     8   8   8   8   8   8   8
#     4  10  21  37  57  80 107 142 187 238 286 333
#     4   8  14  27  49  76 106 140 177 221 279 344
#     4  12  25  39  56  79 114 155 190 228 274 329
#     4   8  15  31  58  88 114 142 176 217 264 311
#     4  10  21  37  57  80 107 142 187 238 286 333
#     4   9  18  34  56  83 113 143 182 225 261 310
#     4   8  14  27  49  76 106 140 177 221 279 344
#
# _framework density 21.288938000000002
#
# number of rings (size 3 to 8) (size 9 to 14) (size 15 to 20)
#    0.000    2.714    0.000    3.857    0.000    3.429 
#    0.000    7.857    0.000    5.143    0.000    0.000 
#    0.000    0.000    0.000    0.000    0.000    0.000 
#
# Total GULP energy -312833.120480 kJ/mol
# GULP energy per Si atom -5586.305723 kJ/mol
# Density = 2.124048 g / cm^3
# Si number density = 21.288938 Si / 1000 Ang^3
#
#
#
# Elastic Constant Matrix: (Units=GPa)
#
#
# Indices 1 2 3 4 5 6 
#
# 1 57.2013 -2.9265 -8.9755 0.0000 0.0000 0.0000
# 2 -2.9265 68.3948 33.7350 0.0000 0.0000 0.0000
# 3 -8.9755 33.7350 83.5578 0.0000 0.0000 0.0000
# 4 0.0000 0.0000 0.0000 45.8407 0.0000 0.0000
# 5 0.0000 0.0000 0.0000 0.0000 10.1624 0.0000
# 6 0.0000 0.0000 0.0000 0.0000 0.0000 17.4112
#
#
#
# Elastic Compliance Matrix: (Units=1/GPa)
#
#
# Indices 1 2 3 4 5 6 
#
# 1 0.017785 -0.000226 0.002002 0.000000 0.000000 0.000000
# 2 -0.000226 0.018259 -0.007396 0.000000 0.000000 0.000000
# 3 0.002002 -0.007396 0.015169 0.000000 0.000000 0.000000
# 4 0.000000 0.000000 0.000000 0.021815 0.000000 0.000000
# 5 0.000000 0.000000 0.000000 0.000000 0.098402 0.000000
# 6 0.000000 0.000000 0.000000 0.000000 0.000000 0.057434
#
#
# Mechanical properties :
#
#
# Convention : Reuss Voigt Hill
#
# Bulk Modulus (GPa) = 25.01798 28.09110 26.55454
# Shear Modulus (GPa) = 19.72936 27.17092 23.45014
#
# Velocity S-wave (km/s) = 3.04755 3.57640 3.32251
# Velocity P-wave (km/s) = 4.91534 5.50254 5.21721
#
# Compressibility (1/GPa) = 0.03997125
#
# Stress axis : x y z
#
# Youngs Moduli (GPa) = 56.22832 54.76621 65.92439
#
# Poissons Ratio (x) = 0.01240 -0.13197
# Poissons Ratio (y) = 0.01273 0.48759
# Poissons Ratio (z) = -0.11256 0.40506
#
# Static dielectric constant tensor:
#      x y z
#    x 1.851920 0.000000 0.000000 
#    y 0.000000 1.710330 0.000000 
#    z 0.000000 0.000000 1.752560 
# 
# From -- ./inp_files/33363.got.cif
#   From: 2010.05.17/outbox.cif.g08.bks.cpg/sg51_17_cif.got.tgz:33363.got - 2010.06.03 11:52:47.
