data_PCOD9406760
_publ_section_title
;
Structure prediction by ZEFSAII (Michael W. Deem and Ramdas Pophale) SiO2 
 PCOD9406760
Probable space group: P M M A
;
_chemical_formula_sum "Si O2"
_cell_formula_units_Z 48
_cell_length_a 8.615314
_cell_length_b 21.091943
_cell_length_c 14.773401
_cell_angle_alpha 90.000000
_cell_angle_beta 90.000000
_cell_angle_gamma 90.000000
_cell_volume 2684.529532
_symmetry_space_group_name_H-M "P M M A"
_symmetry_group_IT_number 51
_symmetry_cell_setting 'orthorhombic'
loop_
_space_group_symop_operation_xyz
x,y,z
1/2-x,-y,z
1/2+x,-y,-z
-x,y,-z
-x,-y,-z
1/2+x,y,-z
1/2-x,y,z
x,-y,z
loop_
_atom_site_type_symbol
_atom_site_label
_atom_site_fract_x
_atom_site_fract_y
_atom_site_fract_z
Si Si1 0.437163 0.927882 0.400450
Si Si2 0.063226 0.570144 0.717635
Si Si3 0.437045 0.692665 0.601724
Si Si4 0.064716 0.238931 0.904105
Si Si5 0.935004 0.382115 0.904154
Si Si6 0.436795 0.190367 0.280346
O O1 0.500000 0.911607 0.500000
O O2 0.250000 0.927332 0.404368
O O3 0.485073 0.875094 0.328385
O O4 0.487329 0.000000 0.379144
O O5 0.250000 0.573646 0.726820
O O6 0.022573 0.500000 0.682968
O O7 0.015705 0.627486 0.652105
O O8 0.990914 0.580108 0.816570
O O9 0.500000 0.694249 0.500000
O O10 0.250000 0.696280 0.601127
O O11 0.503513 0.751398 0.658630
O O12 0.250000 0.241886 0.906178
O O13 0.999726 0.310501 0.893128
O O14 0.006341 0.198978 0.819142
O O15 0.000000 0.215084 0.000000
O O16 0.750000 0.380110 0.908303
O O17 0.000000 0.406658 0.000000
O O18 0.250000 0.192822 0.275683
#
# Coordination Sequence:
#
# PCOD9406760 Si02
#       6
#     8   8   8   8   8   8
#     4   9  19  35  55  82 117 154 190 227 271 323
#     4  10  22  40  58  77 106 145 186 230 280 333
#     4  11  23  38  57  80 109 143 184 233 279 329
#     4  11  21  35  56  83 114 146 182 226 276 329
#     4  11  21  35  57  82 110 142 180 225 278 333
#     4  11  21  35  58  86 115 147 185 229 276 326
#
# _framework density 17.880227000000001
#
# number of rings (size 3 to 8) (size 9 to 14) (size 15 to 20)
#    0.000    1.500    1.667    5.500    0.000    4.333 
#    0.000    0.000    0.000    0.500    0.000    0.000 
#    0.000    0.000    0.000    0.000    0.000    0.000 
#
# Total GULP energy -268217.266317 kJ/mol
# GULP energy per Si atom -5587.859715 kJ/mol
# Density = 1.783953 g / cm^3
# Si number density = 17.880227 Si / 1000 Ang^3
#
#
#
# Elastic Constant Matrix: (Units=GPa)
#
#
# Indices 1 2 3 4 5 6 
#
# 1 59.2641 32.5207 35.3015 0.0000 0.0000 0.0000
# 2 32.5207 102.1649 73.6854 0.0000 0.0000 0.0000
# 3 35.3015 73.6854 143.3962 0.0000 0.0000 0.0000
# 4 0.0000 0.0000 0.0000 -13.4377 0.0000 0.0000
# 5 0.0000 0.0000 0.0000 0.0000 33.0435 0.0000
# 6 0.0000 0.0000 0.0000 0.0000 0.0000 21.5775
#
#
#
# Elastic Compliance Matrix: (Units=1/GPa)
#
#
# Indices 1 2 3 4 5 6 
#
# 1 0.021116 -0.004723 -0.002772 0.000000 0.000000 0.000000
# 2 -0.004723 0.016608 -0.007372 0.000000 0.000000 0.000000
# 3 -0.002772 -0.007372 0.011444 0.000000 0.000000 0.000000
# 4 0.000000 0.000000 0.000000 -0.074418 0.000000 0.000000
# 5 0.000000 0.000000 0.000000 0.000000 0.030263 0.000000
# 6 0.000000 0.000000 0.000000 0.000000 0.000000 0.046345
#
#
# Mechanical properties :
#
#
# Convention : Reuss Voigt Hill
#
# Bulk Modulus (GPa) = 51.44962 65.31560 58.38261
# Shear Modulus (GPa) = 57.09810 19.12450 38.11130
#
# Velocity S-wave (km/s) = 5.65712 3.27401 4.62180
# Velocity P-wave (km/s) = 8.45622 7.13449 7.82332
#
# Compressibility (1/GPa) = 0.01943649
#
# Stress axis : x y z
#
# Youngs Moduli (GPa) = 47.35731 60.21182 87.38229
#
# Poissons Ratio (x) = 0.28435 0.24219
# Poissons Ratio (y) = 0.22365 0.64415
# Poissons Ratio (z) = 0.13126 0.44386
#
# Static dielectric constant tensor:
#      x y z
#    x 1.602210 0.000000 0.000000 
#    y 0.000000 1.614730 0.000000 
#    z 0.000000 0.000000 1.592680 
# 
# From -- ./inp_files/21091.got.cif
#   From: 2010.05.17/outbox.cif.g08.bks.cpg/sg51_11_cif.got.tgz:21091.got - 2010.06.03 11:52:47.
