data_PCOD9406258
_publ_section_title
;
Structure prediction by ZEFSAII (Michael W. Deem and Ramdas Pophale) SiO2 
 PCOD9406258
Probable space group: P M M A
;
_chemical_formula_sum "Si O2"
_cell_formula_units_Z 56
_cell_length_a 13.524142
_cell_length_b 9.143227
_cell_length_c 21.265746
_cell_angle_alpha 90.000000
_cell_angle_beta 90.000000
_cell_angle_gamma 90.000000
_cell_volume 2629.600942
_symmetry_space_group_name_H-M "P M M A"
_symmetry_group_IT_number 51
_symmetry_cell_setting 'orthorhombic'
loop_
_space_group_symop_operation_xyz
x,y,z
1/2-x,-y,z
1/2+x,-y,-z
-x,y,-z
-x,-y,-z
1/2+x,y,-z
1/2-x,y,z
x,-y,z
loop_
_atom_site_type_symbol
_atom_site_label
_atom_site_fract_x
_atom_site_fract_y
_atom_site_fract_z
Si Si1 0.129627 0.333847 0.412259
Si Si2 0.868616 0.665280 0.339779
Si Si3 0.365315 0.325188 0.266847
Si Si4 0.448167 0.173476 0.781158
Si Si5 0.643180 0.677110 0.956882
Si Si6 0.129147 0.166497 0.536136
Si Si7 0.569070 0.676116 0.094206
O O1 0.250000 0.336916 0.413394
O O2 0.096908 0.500000 0.425688
O O3 0.106684 0.295604 0.340004
O O4 0.099294 0.225965 0.467808
O O5 0.750000 0.659050 0.342581
O O6 0.905672 0.500000 0.329565
O O7 0.897267 0.767293 0.281968
O O8 0.902402 0.729712 0.406585
O O9 0.250000 0.288359 0.257825
O O10 0.375165 0.500000 0.256329
O O11 0.440417 0.236713 0.224089
O O12 0.398934 0.244090 0.842712
O O13 0.446867 0.000000 0.783835
O O14 0.750000 0.730326 0.934039
O O15 0.643070 0.500000 0.952515
O O16 0.544068 0.722942 0.921352
O O17 0.629180 0.710594 0.030856
O O18 0.250000 0.167232 0.536626
O O19 0.097795 0.000000 0.546740
O O20 0.571881 0.500000 0.102885
#
# Coordination Sequence:
#
# PCOD9406258 Si02
#       7
#     8   8   8   8   8   8   8
#     4   8  14  27  49  75 101 133 177 228 280 332
#     4  10  21  38  59  79 102 140 191 240 282 330
#     4   9  19  37  59  80 105 143 192 240 281 327
#     4  12  25  38  54  80 118 155 185 225 276 332
#     4   8  15  31  58  88 112 137 176 226 268 302
#     4   9  16  27  47  76 108 139 172 219 283 346
#     4   9  18  34  56  82 111 143 183 224 261 312
#
# _framework density 21.296008
#
# number of rings (size 3 to 8) (size 9 to 14) (size 15 to 20)
#    0.000    2.714    0.000    3.857    0.000    4.571 
#    0.000    6.429    0.000    5.143    0.000    0.000 
#    0.000    0.000    0.000    0.000    0.000    0.000 
#
# Total GULP energy -312932.525765 kJ/mol
# GULP energy per Si atom -5588.080817 kJ/mol
# Density = 2.124754 g / cm^3
# Si number density = 21.296008 Si / 1000 Ang^3
#
#
#
# Elastic Constant Matrix: (Units=GPa)
#
#
# Indices 1 2 3 4 5 6 
#
# 1 57.8643 -2.8284 -10.3456 0.0000 0.0000 0.0000
# 2 -2.8284 71.4493 36.6194 0.0000 0.0000 0.0000
# 3 -10.3456 36.6194 81.3952 0.0000 0.0000 0.0000
# 4 0.0000 0.0000 0.0000 -14.8688 0.0000 0.0000
# 5 0.0000 0.0000 0.0000 0.0000 8.5049 0.0000
# 6 0.0000 0.0000 0.0000 0.0000 0.0000 17.6070
#
#
#
# Elastic Compliance Matrix: (Units=1/GPa)
#
#
# Indices 1 2 3 4 5 6 
#
# 1 0.017703 -0.000588 0.002515 0.000000 0.000000 0.000000
# 2 -0.000588 0.018210 -0.008267 0.000000 0.000000 0.000000
# 3 0.002515 -0.008267 0.016325 0.000000 0.000000 0.000000
# 4 0.000000 0.000000 0.000000 -0.067255 0.000000 0.000000
# 5 0.000000 0.000000 0.000000 0.000000 0.117579 0.000000
# 6 0.000000 0.000000 0.000000 0.000000 0.000000 0.056795
#
#
# Mechanical properties :
#
#
# Convention : Reuss Voigt Hill
#
# Bulk Modulus (GPa) = 25.28069 28.62219 26.95144
# Shear Modulus (GPa) = 26.99450 14.73287 20.86368
#
# Velocity S-wave (km/s) = 3.56418 2.63309 3.13341
# Velocity P-wave (km/s) = 5.36979 4.76587 5.07682
#
# Compressibility (1/GPa) = 0.03955588
#
# Stress axis : x y z
#
# Youngs Moduli (GPa) = 56.48874 54.91545 61.25664
#
# Poissons Ratio (x) = 0.03229 -0.15404
# Poissons Ratio (y) = 0.03322 0.50642
# Poissons Ratio (z) = -0.14205 0.45400
#
# Static dielectric constant tensor:
#      x y z
#    x 1.849720 0.000000 0.000000 
#    y 0.000000 1.703610 0.000000 
#    z 0.000000 0.000000 1.742260 
# 
# From -- ./inp_files/33334.got.cif
#   From: 2010.05.17/outbox.cif.g08.bks.cpg/sg51_17_cif.got.tgz:33334.got - 2010.06.03 11:52:47.
