data_PCOD9406544
_publ_section_title
;
Structure prediction by ZEFSAII (Michael W. Deem and Ramdas Pophale) SiO2 
 PCOD9406544
Probable space group: P M M A
;
_chemical_formula_sum "Si O2"
_cell_formula_units_Z 56
_cell_length_a 13.810244
_cell_length_b 19.601332
_cell_length_c 10.165714
_cell_angle_alpha 90.000000
_cell_angle_beta 90.000000
_cell_angle_gamma 90.000000
_cell_volume 2751.850420
_symmetry_space_group_name_H-M "P M M A"
_symmetry_group_IT_number 51
_symmetry_cell_setting 'orthorhombic'
loop_
_space_group_symop_operation_xyz
x,y,z
1/2-x,-y,z
1/2+x,-y,-z
-x,y,-z
-x,-y,-z
1/2+x,y,-z
1/2-x,y,z
x,-y,z
loop_
_atom_site_type_symbol
_atom_site_label
_atom_site_fract_x
_atom_site_fract_y
_atom_site_fract_z
Si Si1 0.365693 0.705052 0.981855
Si Si2 0.366011 0.079373 0.882358
Si Si3 0.479059 0.851325 0.642427
Si Si4 0.136516 0.578575 0.142199
Si Si5 0.134611 0.280776 0.685181
Si Si6 0.465528 0.576467 0.649711
Si Si7 0.634311 0.167210 0.857383
O O1 0.250000 0.708095 0.978364
O O2 0.390304 0.629023 0.024273
O O3 0.395855 0.758015 0.092201
O O4 0.394050 0.727925 0.838101
O O5 0.250000 0.085955 0.869776
O O6 0.412236 0.110257 0.750079
O O7 0.391840 0.000000 0.893877
O O8 0.390507 0.117945 0.019176
O O9 0.500000 0.883670 0.500000
O O10 0.426666 0.778272 0.614905
O O11 0.578840 0.845928 0.723147
O O12 0.250000 0.591900 0.180317
O O13 0.130939 0.500000 0.101321
O O14 0.059906 0.589145 0.258997
O O15 0.250000 0.271130 0.667302
O O16 0.106145 0.359269 0.657938
O O17 0.500000 0.573614 0.500000
O O18 0.427081 0.500000 0.684467
O O19 0.750000 0.164262 0.839480
#
# Coordination Sequence:
#
# PCOD9406544 Si02
#       7
#     8   8   8   8   8   8   8
#     4   9  18  34  57  82 110 146 196 249 301 363
#     4  10  22  43  70  97 127 165 209 255 302 357
#     4  12  25  39  62  95 131 168 206 252 308 373
#     4   9  18  33  54  80 111 146 188 250 319 373
#     4  11  23  39  59  84 118 158 202 256 313 367
#     4  10  22  38  54  78 111 152 204 250 301 374
#     4  10  21  39  63  92 123 163 213 260 306 359
#
# _framework density 20.349943
#
# number of rings (size 3 to 8) (size 9 to 14) (size 15 to 20)
#    0.000    1.857    1.429    2.143    0.000    5.714 
#    0.000    5.714    0.000    1.714    0.000    0.000 
#    0.000    0.000    0.000    0.000    0.000    0.000 
#
# Total GULP energy -312567.407438 kJ/mol
# GULP energy per Si atom -5581.560847 kJ/mol
# Density = 2.030363 g / cm^3
# Si number density = 20.349943 Si / 1000 Ang^3
#
#
#
# Elastic Constant Matrix: (Units=GPa)
#
#
# Indices 1 2 3 4 5 6 
#
# 1 111.4034 39.1676 26.2624 0.0000 0.0000 0.0000
# 2 39.1676 70.3884 9.0788 0.0000 0.0000 0.0000
# 3 26.2624 9.0788 85.9446 0.0000 0.0000 0.0000
# 4 0.0000 0.0000 0.0000 39.2824 0.0000 0.0000
# 5 0.0000 0.0000 0.0000 0.0000 9.4710 0.0000
# 6 0.0000 0.0000 0.0000 0.0000 0.0000 19.7786
#
#
#
# Elastic Compliance Matrix: (Units=1/GPa)
#
#
# Indices 1 2 3 4 5 6 
#
# 1 0.011862 -0.006218 -0.002968 0.000000 0.000000 0.000000
# 2 -0.006218 0.017662 0.000034 0.000000 0.000000 0.000000
# 3 -0.002968 0.000034 0.012539 0.000000 0.000000 0.000000
# 4 0.000000 0.000000 0.000000 0.025457 0.000000 0.000000
# 5 0.000000 0.000000 0.000000 0.000000 0.105585 0.000000
# 6 0.000000 0.000000 0.000000 0.000000 0.000000 0.050560
#
#
# Mechanical properties :
#
#
# Convention : Reuss Voigt Hill
#
# Bulk Modulus (GPa) = 42.08733 46.30602 44.19668
# Shear Modulus (GPa) = 20.00896 26.58824 23.29860
#
# Velocity S-wave (km/s) = 3.13907 3.61855 3.38730
# Velocity P-wave (km/s) = 5.81937 6.34529 6.08801
#
# Compressibility (1/GPa) = 0.02376012
#
# Stress axis : x y z
#
# Youngs Moduli (GPa) = 84.30169 56.61739 79.75306
#
# Poissons Ratio (x) = 0.35204 0.23670
# Poissons Ratio (y) = 0.52418 -0.00273
# Poissons Ratio (z) = 0.25020 -0.00194
#
# Static dielectric constant tensor:
#      x y z
#    x 1.743490 0.000000 0.000000 
#    y 0.000000 1.752660 0.000000 
#    z 0.000000 0.000000 1.707510 
# 
# From -- ./inp_files/8569.got.cif
#   From: 2010.05.17/outbox.cif.g08.bks.cpg/sg51_5_cif.got.tgz:8569.got - 2010.06.03 11:52:47.
