data_PCOD9406946
_publ_section_title
;
Structure prediction by ZEFSAII (Michael W. Deem and Ramdas Pophale) SiO2 
 PCOD9406946
Probable space group: P M M A
;
_chemical_formula_sum "Si O2"
_cell_formula_units_Z 48
_cell_length_a 14.199211
_cell_length_b 14.087653
_cell_length_c 14.952093
_cell_angle_alpha 90.000000
_cell_angle_beta 90.000000
_cell_angle_gamma 90.000000
_cell_volume 2990.920354
_symmetry_space_group_name_H-M "P M M A"
_symmetry_group_IT_number 51
_symmetry_cell_setting 'orthorhombic'
loop_
_space_group_symop_operation_xyz
x,y,z
1/2-x,-y,z
1/2+x,-y,-z
-x,y,-z
-x,-y,-z
1/2+x,y,-z
1/2-x,y,z
x,-y,z
loop_
_atom_site_type_symbol
_atom_site_label
_atom_site_fract_x
_atom_site_fract_y
_atom_site_fract_z
Si Si1 0.045625 0.268568 0.316928
Si Si2 0.854564 0.385715 0.045959
Si Si3 0.452240 0.385315 0.141635
Si Si4 0.856975 0.771024 0.394588
Si Si5 0.363511 0.108177 0.431604
Si Si6 0.356905 0.609511 0.462306
O O1 0.072899 0.319691 0.225311
O O2 0.100337 0.175842 0.352478
O O3 0.069643 0.345424 0.394026
O O4 0.936026 0.239737 0.320152
O O5 0.750000 0.348149 0.065994
O O6 0.850312 0.500000 0.051231
O O7 0.941034 0.360595 0.110688
O O8 0.886637 0.365566 0.944227
O O9 0.447476 0.500000 0.160484
O O10 0.750000 0.792359 0.365829
O O11 0.887910 0.846126 0.471590
O O12 0.856062 0.671881 0.448598
O O13 0.250000 0.109760 0.429170
O O14 0.396248 0.000000 0.424314
O O15 0.250000 0.618646 0.424011
O O16 0.375470 0.500000 0.479667
#
# Coordination Sequence:
#
# PCOD9406946 Si02
#       6
#     8   8   8   8   8   8
#     4  11  19  27  44  67  90 113 143 185 227 264
#     4   8  15  30  48  62  84 120 153 180 214 258
#     4   9  18  29  42  67  95 116 146 182 216 262
#     4   9  19  31  41  59  86 118 155 186 214 256
#     4   9  18  33  50  66  87 116 151 190 227 262
#     4   9  17  28  40  56  83 118 151 179 210 254
#
# _framework density 16.048572
#
# number of rings (size 3 to 8) (size 9 to 14) (size 15 to 20)
#    0.000    2.833    0.000    5.000    0.000    5.333 
#    0.000    1.667    0.000    0.000    0.000    2.333 
#    0.000    1.333    0.000    0.000    0.000    0.000 
#
# Total GULP energy -267271.298350 kJ/mol
# GULP energy per Si atom -5568.152049 kJ/mol
# Density = 1.601204 g / cm^3
# Si number density = 16.048572 Si / 1000 Ang^3
#
#
#
# Elastic Constant Matrix: (Units=GPa)
#
#
# Indices 1 2 3 4 5 6 
#
# 1 42.6263 -2.3902 -15.3539 0.0000 0.0000 0.0000
# 2 -2.3902 90.5913 13.9122 0.0000 0.0000 0.0000
# 3 -15.3539 13.9122 21.7582 0.0000 0.0000 0.0000
# 4 0.0000 0.0000 0.0000 12.2227 0.0000 0.0000
# 5 0.0000 0.0000 0.0000 0.0000 4.8431 0.0000
# 6 0.0000 0.0000 0.0000 0.0000 0.0000 15.6736
#
#
#
# Elastic Compliance Matrix: (Units=1/GPa)
#
#
# Indices 1 2 3 4 5 6 
#
# 1 0.032137 -0.002922 0.024546 0.000000 0.000000 0.000000
# 2 -0.002922 0.012506 -0.010058 0.000000 0.000000 0.000000
# 3 0.024546 -0.010058 0.069712 0.000000 0.000000 0.000000
# 4 0.000000 0.000000 0.000000 0.081815 0.000000 0.000000
# 5 0.000000 0.000000 0.000000 0.000000 0.206480 0.000000
# 6 0.000000 0.000000 0.000000 0.000000 0.000000 0.063801
#
#
# Mechanical properties :
#
#
# Convention : Reuss Voigt Hill
#
# Bulk Modulus (GPa) = 7.27334 16.36800 11.82067
# Shear Modulus (GPa) = 10.22183 17.13506 13.67844
#
# Velocity S-wave (km/s) = 2.52649 3.27111 2.92261
# Velocity P-wave (km/s) = 3.61286 4.94854 4.33248
#
# Compressibility (1/GPa) = 0.13748843
#
# Stress axis : x y z
#
# Youngs Moduli (GPa) = 31.11640 79.96064 14.34471
#
# Poissons Ratio (x) = 0.23362 -0.35211
# Poissons Ratio (y) = 0.09091 0.14428
# Poissons Ratio (z) = -0.76379 0.80426
#
# Static dielectric constant tensor:
#      x y z
#    x 1.617880 0.000000 0.000000 
#    y 0.000000 1.526750 0.000000 
#    z 0.000000 0.000000 1.514140 
# 
# From -- ./inp_files/16435.got.cif
#   From: 2010.05.17/outbox.cif.g08.bks.cpg/sg51_9_cif.got.tgz:16435.got - 2010.06.03 11:52:47.
