data_PCOD9406061
_publ_section_title
;
Structure prediction by ZEFSAII (Michael W. Deem and Ramdas Pophale) SiO2 
 PCOD9406061
Probable space group: P M M A
;
_chemical_formula_sum "Si O2"
_cell_formula_units_Z 64
_cell_length_a 9.524768
_cell_length_b 14.459287
_cell_length_c 24.237643
_cell_angle_alpha 90.000000
_cell_angle_beta 90.000000
_cell_angle_gamma 90.000000
_cell_volume 3338.041015
_symmetry_space_group_name_H-M "P M M A"
_symmetry_group_IT_number 51
_symmetry_cell_setting 'orthorhombic'
loop_
_space_group_symop_operation_xyz
x,y,z
1/2-x,-y,z
1/2+x,-y,-z
-x,y,-z
-x,-y,-z
1/2+x,y,-z
1/2-x,y,z
x,-y,z
loop_
_atom_site_type_symbol
_atom_site_label
_atom_site_fract_x
_atom_site_fract_y
_atom_site_fract_z
Si Si1 0.016206 0.604940 0.827896
Si Si2 0.919306 0.106865 0.558538
Si Si3 0.906726 0.802453 0.144330
Si Si4 0.910068 0.608850 0.702633
Si Si5 0.599618 0.610152 0.951529
Si Si6 0.584291 0.104739 0.943310
Si Si7 0.080249 0.764123 0.644646
Si Si8 0.419551 0.898491 0.745566
O O1 0.077385 0.500000 0.827003
O O2 0.105265 0.697645 0.834303
O O3 0.939196 0.616071 0.768854
O O4 0.934259 0.611061 0.886308
O O5 0.750000 0.122003 0.553640
O O6 0.000000 0.109903 0.500000
O O7 0.995743 0.184089 0.596024
O O8 0.938076 0.000000 0.579522
O O9 0.750000 0.834257 0.128201
O O10 0.964095 0.861317 0.195443
O O11 0.014798 0.818879 0.095556
O O12 0.750000 0.640088 0.692466
O O13 0.920734 0.500000 0.689995
O O14 0.016886 0.666371 0.664611
O O15 0.750000 0.654398 0.960216
O O16 0.608355 0.500000 0.963047
O O17 0.500000 0.647555 0.000000
O O18 0.750000 0.117124 0.950905
O O19 0.562866 0.000000 0.919868
O O20 0.500000 0.107182 0.000000
O O21 0.250000 0.760937 0.635102
O O22 0.049228 0.828125 0.697493
O O23 0.250000 0.902614 0.748377
O O24 0.475326 0.000000 0.733874
#
# Coordination Sequence:
#
# PCOD9406061 Si02
#       8
#     8   8   8   8   8   8   8   8
#     4  10  21  37  57  81 112 151 199 251 302 360
#     4  10  21  38  62  95 134 175 216 256 300 354
#     4  11  22  37  57  83 114 150 189 235 293 354
#     4  10  21  38  60  85 116 159 210 264 318 368
#     4   9  18  33  52  73  97 130 174 225 286 352
#     4  10  22  41  64  88 111 140 181 232 291 356
#     4  11  21  36  59  90 126 165 207 253 304 358
#     4   9  18  33  53  80 115 152 188 230 288 353
#
# _framework density 19.172923000000001
#
# number of rings (size 3 to 8) (size 9 to 14) (size 15 to 20)
#    0.000    2.000    1.250    2.250    0.000    6.500 
#    0.000    2.500    0.000    2.625    0.000    0.000 
#    0.000    0.000    0.000    0.000    0.000    0.000 
#
# Total GULP energy -356492.030133 kJ/mol
# GULP energy per Si atom -5570.187971 kJ/mol
# Density = 1.912928 g / cm^3
# Si number density = 19.172923 Si / 1000 Ang^3
#
#
#
# Elastic Constant Matrix: (Units=GPa)
#
#
# Indices 1 2 3 4 5 6 
#
# 1 112.0948 34.1560 47.8996 0.0000 0.0000 0.0000
# 2 34.1560 89.4874 24.6635 0.0000 0.0000 0.0000
# 3 47.8996 24.6635 81.8387 0.0000 0.0000 0.0000
# 4 0.0000 0.0000 0.0000 46.5814 0.0000 0.0000
# 5 0.0000 0.0000 0.0000 0.0000 2.3284 0.0000
# 6 0.0000 0.0000 0.0000 0.0000 0.0000 22.8054
#
#
#
# Elastic Compliance Matrix: (Units=1/GPa)
#
#
# Indices 1 2 3 4 5 6 
#
# 1 0.012607 -0.003030 -0.006466 0.000000 0.000000 0.000000
# 2 -0.003030 0.012915 -0.002119 0.000000 0.000000 0.000000
# 3 -0.006466 -0.002119 0.016642 0.000000 0.000000 0.000000
# 4 0.000000 0.000000 0.000000 0.021468 0.000000 0.000000
# 5 0.000000 0.000000 0.000000 0.000000 0.429471 0.000000
# 6 0.000000 0.000000 0.000000 0.000000 0.000000 0.043849
#
#
# Mechanical properties :
#
#
# Convention : Reuss Voigt Hill
#
# Bulk Modulus (GPa) = 52.81117 55.20659 54.00888
# Shear Modulus (GPa) = 8.82622 26.12316 17.47469
#
# Velocity S-wave (km/s) = 2.14790 3.69521 3.02226
# Velocity P-wave (km/s) = 5.80997 6.86023 6.35683
#
# Compressibility (1/GPa) = 0.01893539
#
# Stress axis : x y z
#
# Youngs Moduli (GPa) = 79.31991 77.42809 60.08866
#
# Poissons Ratio (x) = 0.23460 0.38852
# Poissons Ratio (y) = 0.24034 0.12732
# Poissons Ratio (z) = 0.51286 0.16406
#
# Static dielectric constant tensor:
#      x y z
#    x 1.670650 0.000000 0.000000 
#    y 0.000000 1.727490 0.000000 
#    z 0.000000 0.000000 1.652860 
# 
# From -- ./inp_files/34979.got.cif
#   From: 2010.05.17/outbox.cif.g08.bks.cpg/sg51_18_cif.got.tgz:34979.got - 2010.06.03 11:52:47.
