data_PCOD9406973
_publ_section_title
;
Structure prediction by ZEFSAII (Michael W. Deem and Ramdas Pophale) SiO2 
 PCOD9406973
Probable space group: P M M A
;
_chemical_formula_sum "Si O2"
_cell_formula_units_Z 52
_cell_length_a 10.273948
_cell_length_b 21.917101
_cell_length_c 14.616595
_cell_angle_alpha 90.000000
_cell_angle_beta 90.000000
_cell_angle_gamma 90.000000
_cell_volume 3291.294059
_symmetry_space_group_name_H-M "P M M A"
_symmetry_group_IT_number 51
_symmetry_cell_setting 'orthorhombic'
loop_
_space_group_symop_operation_xyz
x,y,z
1/2-x,-y,z
1/2+x,-y,-z
-x,y,-z
-x,-y,-z
1/2+x,y,-z
1/2-x,y,z
x,-y,z
loop_
_atom_site_type_symbol
_atom_site_label
_atom_site_fract_x
_atom_site_fract_y
_atom_site_fract_z
Si Si1 0.900561 0.612028 0.920015
Si Si2 0.595033 0.243169 0.722269
Si Si3 0.400472 0.000000 0.415815
Si Si4 0.103985 0.760489 0.072290
Si Si5 0.403469 0.133640 0.414127
Si Si6 0.015437 0.380144 0.287636
Si Si7 0.250000 0.426865 0.413137
Si Si8 0.750000 0.426789 0.374118
O O1 0.750000 0.591093 0.931374
O O2 0.897354 0.686162 0.926385
O O3 0.949668 0.599383 0.816460
O O4 0.000000 0.590818 0.000000
O O5 0.750000 0.258014 0.716890
O O6 0.571531 0.220441 0.824986
O O7 0.565832 0.189854 0.651719
O O8 0.520770 0.306560 0.708866
O O9 0.500000 0.000000 0.500000
O O10 0.418524 0.933965 0.369199
O O11 0.250000 0.000000 0.448525
O O12 0.250000 0.779544 0.048912
O O13 0.000000 0.782176 0.000000
O O14 0.500000 0.136091 0.500000
O O15 0.250000 0.139167 0.440129
O O16 0.124721 0.404096 0.357506
O O17 0.877368 0.403821 0.321683
O O18 0.250000 0.500000 0.413321
O O19 0.250000 0.406210 0.519189
O O20 0.750000 0.500000 0.374816
#
# Coordination Sequence:
#
# PCOD9406973 Si02
#       8
#     8   8   4   8   8   8   4   4
#     4   9  17  30  53  79 102 129 159 194 246 307
#     4   9  17  32  49  71 100 128 158 195 244 294
#     4   8  14  26  44  64  89 128 172 202 229 272
#     4   8  14  26  43  65  92 121 152 189 232 280
#     4   9  17  29  45  67  98 133 166 200 236 281
#     4  11  20  38  56  77 103 130 162 208 261 301
#     4  11  22  40  61  73  91 130 175 205 241 303
#     4  11  26  40  55  79  99 126 171 217 247 291
#
# _framework density 15.799257000000001
#
# number of rings (size 3 to 8) (size 9 to 14) (size 15 to 20)
#    0.000    2.615    1.538    1.846    1.077    2.462 
#    5.538    0.000    0.000    2.769    0.000    0.538 
#    0.000    0.000    0.000    0.000    0.000    0.000 
#
# Total GULP energy -289546.590818 kJ/mol
# GULP energy per Si atom -5568.203670 kJ/mol
# Density = 1.576330 g / cm^3
# Si number density = 15.799257 Si / 1000 Ang^3
#
#
#
# Elastic Constant Matrix: (Units=GPa)
#
#
# Indices 1 2 3 4 5 6 
#
# 1 118.5098 40.0793 82.9712 0.0000 0.0000 0.0000
# 2 40.0793 55.5423 41.8756 0.0000 0.0000 0.0000
# 3 82.9712 41.8756 118.7389 0.0000 0.0000 0.0000
# 4 0.0000 0.0000 0.0000 -11.3707 0.0000 0.0000
# 5 0.0000 0.0000 0.0000 0.0000 23.5320 0.0000
# 6 0.0000 0.0000 0.0000 0.0000 0.0000 18.2897
#
#
#
# Elastic Compliance Matrix: (Units=1/GPa)
#
#
# Indices 1 2 3 4 5 6 
#
# 1 0.017342 -0.004601 -0.010496 0.000000 0.000000 0.000000
# 2 -0.004601 0.025746 -0.005865 0.000000 0.000000 0.000000
# 3 -0.010496 -0.005865 0.017824 0.000000 0.000000 0.000000
# 4 0.000000 0.000000 0.000000 -0.087945 0.000000 0.000000
# 5 0.000000 0.000000 0.000000 0.000000 0.042495 0.000000
# 6 0.000000 0.000000 0.000000 0.000000 0.000000 0.054675
#
#
# Mechanical properties :
#
#
# Convention : Reuss Voigt Hill
#
# Bulk Modulus (GPa) = 52.66026 69.18257 60.92142
# Shear Modulus (GPa) = 42.23286 14.61455 28.42370
#
# Velocity S-wave (km/s) = 5.17580 3.04471 4.24613
# Velocity P-wave (km/s) = 8.31395 7.49959 7.91725
#
# Compressibility (1/GPa) = 0.01898965
#
# Stress axis : x y z
#
# Youngs Moduli (GPa) = 57.66199 38.84076 56.10346
#
# Poissons Ratio (x) = 0.17871 0.58884
# Poissons Ratio (y) = 0.26531 0.32903
# Poissons Ratio (z) = 0.60520 0.22779
#
# Static dielectric constant tensor:
#      x y z
#    x 1.547750 0.000000 0.000000 
#    y 0.000000 1.528510 0.000000 
#    z 0.000000 0.000000 1.522440 
# 
# From -- ./inp_files/21676.got.cif
#   From: 2010.05.17/outbox.cif.g08.bks.cpg/sg51_11_cif.got.tgz:21676.got - 2010.06.03 11:52:47.
