data_PCOD9406914
_publ_section_title
;
Structure prediction by ZEFSAII (Michael W. Deem and Ramdas Pophale) SiO2 
 PCOD9406914
Probable space group: P M M A
;
_chemical_formula_sum "Si O2"
_cell_formula_units_Z 56
_cell_length_a 19.741398
_cell_length_b 13.759379
_cell_length_c 9.948506
_cell_angle_alpha 90.000000
_cell_angle_beta 90.000000
_cell_angle_gamma 90.000000
_cell_volume 2702.306488
_symmetry_space_group_name_H-M "P M M A"
_symmetry_group_IT_number 51
_symmetry_cell_setting 'orthorhombic'
loop_
_space_group_symop_operation_xyz
x,y,z
1/2-x,-y,z
1/2+x,-y,-z
-x,y,-z
-x,-y,-z
1/2+x,y,-z
1/2-x,y,z
x,-y,z
loop_
_atom_site_type_symbol
_atom_site_label
_atom_site_fract_x
_atom_site_fract_y
_atom_site_fract_z
Si Si1 0.917109 0.391660 0.505103
Si Si2 0.669693 0.615248 0.227447
Si Si3 0.073688 0.814407 0.439177
Si Si4 0.068290 0.742495 0.936147
Si Si5 0.393096 0.885854 0.720942
Si Si6 0.250000 0.883298 0.853703
Si Si7 0.250000 0.882940 0.157671
Si Si8 0.105046 0.110720 0.172894
O O1 0.895734 0.500000 0.551416
O O2 0.877100 0.373440 0.363188
O O3 0.900666 0.295067 0.590432
O O4 0.000000 0.396585 0.500000
O O5 0.750000 0.645591 0.240911
O O6 0.670988 0.500000 0.201364
O O7 0.627053 0.668890 0.110102
O O8 0.111230 0.865741 0.562574
O O9 0.065176 0.880211 0.309757
O O10 0.000000 0.800260 0.500000
O O11 0.059164 0.811783 0.804601
O O12 0.087823 0.818484 0.052505
O O13 0.000000 0.695969 0.000000
O O14 0.319078 0.859835 0.779445
O O15 0.407884 0.000000 0.746273
O O16 0.250000 0.000000 0.864687
O O17 0.250000 0.844713 0.005258
O O18 0.320165 0.858109 0.223604
O O19 0.250000 0.000000 0.151779
O O20 0.104420 0.000000 0.122332
#
# Coordination Sequence:
#
# PCOD9406914 Si02
#       8
#     8   8   8   8   8   4   4   8
#     4   9  19  39  68  96 128 166 212 278 346 402
#     4  10  23  45  73 102 130 169 226 285 339 401
#     4  11  23  39  59  88 124 167 215 266 328 392
#     4  12  25  38  62  98 130 175 224 270 332 396
#     4  11  22  37  60  89 125 170 224 276 323 389
#     4   9  18  35  59  85 112 159 223 276 318 375
#     4   9  18  37  57  79 114 163 213 258 316 379
#     4  11  24  40  60  88 132 179 218 266 329 392
#
# _framework density 20.723037999999999
#
# number of rings (size 3 to 8) (size 9 to 14) (size 15 to 20)
#    0.000    1.571    2.857    1.714    4.000    4.286 
#    1.286    2.857    0.000    0.000    0.000    0.000 
#    0.000    0.000    0.000    0.000    0.000    0.000 
#
# Total GULP energy -311901.766497 kJ/mol
# GULP energy per Si atom -5569.674402 kJ/mol
# Density = 2.067587 g / cm^3
# Si number density = 20.723038 Si / 1000 Ang^3
#
#
#
# Elastic Constant Matrix: (Units=GPa)
#
#
# Indices 1 2 3 4 5 6 
#
# 1 106.0328 25.6095 30.9595 0.0000 0.0000 0.0000
# 2 25.6095 83.5881 14.2323 0.0000 0.0000 0.0000
# 3 30.9595 14.2323 57.5499 0.0000 0.0000 0.0000
# 4 0.0000 0.0000 0.0000 27.8855 0.0000 0.0000
# 5 0.0000 0.0000 0.0000 0.0000 33.1189 0.0000
# 6 0.0000 0.0000 0.0000 0.0000 0.0000 21.5636
#
#
#
# Elastic Compliance Matrix: (Units=1/GPa)
#
#
# Indices 1 2 3 4 5 6 
#
# 1 0.011716 -0.002627 -0.005653 0.000000 0.000000 0.000000
# 2 -0.002627 0.013078 -0.001821 0.000000 0.000000 0.000000
# 3 -0.005653 -0.001821 0.020868 0.000000 0.000000 0.000000
# 4 0.000000 0.000000 0.000000 0.035861 0.000000 0.000000
# 5 0.000000 0.000000 0.000000 0.000000 0.030194 0.000000
# 6 0.000000 0.000000 0.000000 0.000000 0.000000 0.046374
#
#
# Mechanical properties :
#
#
# Convention : Reuss Voigt Hill
#
# Bulk Modulus (GPa) = 39.27770 43.19706 41.23738
# Shear Modulus (GPa) = 26.76932 28.27156 27.52044
#
# Velocity S-wave (km/s) = 3.59801 3.69759 3.64814
# Velocity P-wave (km/s) = 6.02127 6.25458 6.13904
#
# Compressibility (1/GPa) = 0.02545974
#
# Stress axis : x y z
#
# Youngs Moduli (GPa) = 85.35232 76.46225 47.92085
#
# Poissons Ratio (x) = 0.20087 0.27090
# Poissons Ratio (y) = 0.22422 0.08727
# Poissons Ratio (z) = 0.48251 0.13924
#
# Static dielectric constant tensor:
#      x y z
#    x 1.865550 0.000000 0.000000 
#    y 0.000000 1.781240 0.000000 
#    z 0.000000 0.000000 1.870580 
# 
# From -- ./inp_files/11045.got.cif
#   From: 2010.05.17/outbox.cif.g08.bks.cpg/sg51_6_cif.got.tgz:11045.got - 2010.06.03 11:52:47.
