data_PCOD9406119
_publ_section_title
;
Structure prediction by ZEFSAII (Michael W. Deem and Ramdas Pophale) SiO2 
 PCOD9406119
Probable space group: P M M A
;
_chemical_formula_sum "Si O2"
_cell_formula_units_Z 40
_cell_length_a 16.536106
_cell_length_b 10.078653
_cell_length_c 12.915852
_cell_angle_alpha 90.000000
_cell_angle_beta 90.000000
_cell_angle_gamma 90.000000
_cell_volume 2152.577520
_symmetry_space_group_name_H-M "P M M A"
_symmetry_group_IT_number 51
_symmetry_cell_setting 'orthorhombic'
loop_
_space_group_symop_operation_xyz
x,y,z
1/2-x,-y,z
1/2+x,-y,-z
-x,y,-z
-x,-y,-z
1/2+x,y,-z
1/2-x,y,z
x,-y,z
loop_
_atom_site_type_symbol
_atom_site_label
_atom_site_fract_x
_atom_site_fract_y
_atom_site_fract_z
Si Si1 0.347489 0.840708 0.734746
Si Si2 0.412240 0.839526 0.959913
Si Si3 0.845195 0.147596 0.825995
Si Si4 0.654950 0.646443 0.664277
Si Si5 0.087744 0.343560 0.552653
O O1 0.250000 0.821542 0.732557
O O2 0.382147 0.797479 0.847225
O O3 0.390066 0.753711 0.645912
O O4 0.361845 0.000000 0.721423
O O5 0.413803 0.000000 0.953711
O O6 0.500000 0.794556 0.000000
O O7 0.354639 0.805529 0.056204
O O8 0.750000 0.135920 0.804433
O O9 0.881846 0.247393 0.742634
O O10 0.881875 0.000000 0.817289
O O11 0.750000 0.636984 0.688386
O O12 0.617961 0.500000 0.677207
O O13 0.646671 0.682769 0.544508
O O14 0.094456 0.500000 0.581920
O O15 0.000000 0.323198 0.500000
#
# Coordination Sequence:
#
# PCOD9406119 Si02
#       5
#     8   8   8   8   8
#     4  10  21  37  58  84 113 147 189 234 279 334
#     4   9  18  32  52  78 109 143 177 217 272 329
#     4   9  17  30  51  77 103 133 171 214 259 315
#     4   9  18  33  52  73 101 137 173 213 265 322
#     4  10  22  38  56  79 110 147 186 228 279 335
#
# _framework density 18.582374999999999
#
# number of rings (size 3 to 8) (size 9 to 14) (size 15 to 20)
#    0.000    2.600    0.000    1.200    2.800    4.800 
#    0.000    3.000    0.000    3.600    0.000    0.000 
#    0.000    0.000    0.000    0.000    0.000    0.000 
#
# Total GULP energy -222756.206004 kJ/mol
# GULP energy per Si atom -5568.905150 kJ/mol
# Density = 1.854008 g / cm^3
# Si number density = 18.582375 Si / 1000 Ang^3
#
#
#
# Elastic Constant Matrix: (Units=GPa)
#
#
# Indices 1 2 3 4 5 6 
#
# 1 45.3347 27.8268 29.0494 0.0000 0.0000 0.0000
# 2 27.8268 77.8478 96.5623 0.0000 0.0000 0.0000
# 3 29.0494 96.5623 167.7088 0.0000 0.0000 0.0000
# 4 0.0000 0.0000 0.0000 61.1758 0.0000 0.0000
# 5 0.0000 0.0000 0.0000 0.0000 25.5104 0.0000
# 6 0.0000 0.0000 0.0000 0.0000 0.0000 12.2114
#
#
#
# Elastic Compliance Matrix: (Units=1/GPa)
#
#
# Indices 1 2 3 4 5 6 
#
# 1 0.028765 -0.014352 0.003281 0.000000 0.000000 0.000000
# 2 -0.014352 0.052105 -0.027515 0.000000 0.000000 0.000000
# 3 0.003281 -0.027515 0.021237 0.000000 0.000000 0.000000
# 4 0.000000 0.000000 0.000000 0.016346 0.000000 0.000000
# 5 0.000000 0.000000 0.000000 0.000000 0.039200 0.000000
# 6 0.000000 0.000000 0.000000 0.000000 0.000000 0.081890
#
#
# Mechanical properties :
#
#
# Convention : Reuss Voigt Hill
#
# Bulk Modulus (GPa) = 40.10347 66.41869 53.26108
# Shear Modulus (GPa) = 15.38342 28.94305 22.16323
#
# Velocity S-wave (km/s) = 2.88036 3.95087 3.45730
# Velocity P-wave (km/s) = 5.71754 7.52548 6.68293
#
# Compressibility (1/GPa) = 0.02493550
#
# Stress axis : x y z
#
# Youngs Moduli (GPa) = 34.76443 19.19216 47.08851
#
# Poissons Ratio (x) = 0.27544 -0.15449
# Poissons Ratio (y) = 0.49892 1.29562
# Poissons Ratio (z) = -0.11405 0.52806
#
# Static dielectric constant tensor:
#      x y z
#    x 1.725200 0.000000 0.000000 
#    y 0.000000 1.723110 0.000000 
#    z 0.000000 0.000000 1.632420 
# 
# From -- ./inp_files/9291.got.cif
#   From: 2010.05.17/outbox.cif.g08.bks.cpg/sg51_5_cif.got.tgz:9291.got - 2010.06.03 11:52:47.
