data_PCOD9406417
_publ_section_title
;
Structure prediction by ZEFSAII (Michael W. Deem and Ramdas Pophale) SiO2 
 PCOD9406417
Probable space group: P M M A
;
_chemical_formula_sum "Si O2"
_cell_formula_units_Z 40
_cell_length_a 25.365996
_cell_length_b 8.902231
_cell_length_c 9.399665
_cell_angle_alpha 90.000000
_cell_angle_beta 90.000000
_cell_angle_gamma 90.000000
_cell_volume 2122.575538
_symmetry_space_group_name_H-M "P M M A"
_symmetry_group_IT_number 51
_symmetry_cell_setting 'orthorhombic'
loop_
_space_group_symop_operation_xyz
x,y,z
1/2-x,-y,z
1/2+x,-y,-z
-x,y,-z
-x,-y,-z
1/2+x,y,-z
1/2-x,y,z
x,-y,z
loop_
_atom_site_type_symbol
_atom_site_label
_atom_site_fract_x
_atom_site_fract_y
_atom_site_fract_z
Si Si1 0.688024 0.179050 0.850032
Si Si2 0.005155 0.320949 0.834385
Si Si3 0.598916 0.178786 0.344541
Si Si4 0.312406 0.321970 0.842915
Si Si5 0.899415 0.321137 0.653999
O O1 0.750000 0.207717 0.821660
O O2 0.650958 0.248380 0.730156
O O3 0.680407 0.000000 0.859552
O O4 0.675018 0.254490 0.001767
O O5 0.016722 0.500000 0.826453
O O6 0.051490 0.232515 0.756632
O O7 0.950371 0.294045 0.752877
O O8 0.000000 0.280411 0.000000
O O9 0.652397 0.240796 0.274095
O O10 0.591770 0.250271 0.499747
O O11 0.600205 0.000000 0.354461
O O12 0.250000 0.299561 0.818358
O O13 0.323253 0.500000 0.842841
O O14 0.892298 0.500000 0.640817
#
# Coordination Sequence:
#
# PCOD9406417 Si02
#       5
#     8   8   8   8   8
#     4  10  21  38  61  90 123 156 193 241 294 347
#     4  10  22  41  64  88 115 150 195 244 293 350
#     4  12  25  39  59  87 121 157 194 244 300 350
#     4  10  21  39  63  88 116 154 199 243 289 348
#     4  11  23  39  61  87 119 159 199 241 290 348
#
# _framework density 18.845030000000001
#
# number of rings (size 3 to 8) (size 9 to 14) (size 15 to 20)
#    0.000    1.400    0.000    5.400    0.000    9.200 
#    0.000    0.000    0.000    0.000    0.000    0.000 
#    0.000    0.000    0.000    0.000    0.000    0.000 
#
# Total GULP energy -223761.045246 kJ/mol
# GULP energy per Si atom -5594.026131 kJ/mol
# Density = 1.880214 g / cm^3
# Si number density = 18.845030 Si / 1000 Ang^3
#
#
#
# Elastic Constant Matrix: (Units=GPa)
#
#
# Indices 1 2 3 4 5 6 
#
# 1 70.1443 66.6078 72.6999 0.0000 0.0000 0.0000
# 2 66.6078 108.2081 83.0668 0.0000 0.0000 0.0000
# 3 72.6999 83.0668 171.0784 0.0000 0.0000 0.0000
# 4 0.0000 0.0000 0.0000 7.4795 0.0000 0.0000
# 5 0.0000 0.0000 0.0000 0.0000 -362.8207 0.0000
# 6 0.0000 0.0000 0.0000 0.0000 0.0000 29.6209
#
#
#
# Elastic Compliance Matrix: (Units=1/GPa)
#
#
# Indices 1 2 3 4 5 6 
#
# 1 0.040308 -0.018593 -0.008101 0.000000 0.000000 0.000000
# 2 -0.018593 0.023309 -0.003417 0.000000 0.000000 0.000000
# 3 -0.008101 -0.003417 0.010947 0.000000 0.000000 0.000000
# 4 0.000000 0.000000 0.000000 0.133698 0.000000 0.000000
# 5 0.000000 0.000000 0.000000 0.000000 -0.002756 0.000000
# 6 0.000000 0.000000 0.000000 0.000000 0.000000 0.033760
#
#
# Mechanical properties :
#
#
# Convention : Reuss Voigt Hill
#
# Bulk Modulus (GPa) = 69.72212 88.24219 78.98215
# Shear Modulus (GPa) = 16.43288 -56.67362 -20.12037
#
# Velocity S-wave (km/s) = 2.95617 -5.48988 -3.27107
# Velocity P-wave (km/s) = 6.98068 2.59649 5.26648
#
# Compressibility (1/GPa) = 0.01434265
#
# Stress axis : x y z
#
# Youngs Moduli (GPa) = 24.80898 42.90173 91.35011
#
# Poissons Ratio (x) = 0.79766 0.74005
# Poissons Ratio (y) = 0.46127 0.31212
# Poissons Ratio (z) = 0.20098 0.14658
#
# Static dielectric constant tensor:
#      x y z
#    x 1.637000 0.000000 0.000000 
#    y 0.000000 1.625520 0.000000 
#    z 0.000000 0.000000 1.615100 
# 
# From -- ./inp_files/11420.got.cif
#   From: 2010.05.17/outbox.cif.g08.bks.cpg/sg51_6_cif.got.tgz:11420.got - 2010.06.03 11:52:47.
