data_PCOD9406451
_publ_section_title
;
Structure prediction by ZEFSAII (Michael W. Deem and Ramdas Pophale) SiO2 
 PCOD9406451
Probable space group: P M M A
;
_chemical_formula_sum "Si O2"
_cell_formula_units_Z 56
_cell_length_a 8.786429
_cell_length_b 20.354205
_cell_length_c 15.725138
_cell_angle_alpha 90.000000
_cell_angle_beta 90.000000
_cell_angle_gamma 90.000000
_cell_volume 2812.295900
_symmetry_space_group_name_H-M "P M M A"
_symmetry_group_IT_number 51
_symmetry_cell_setting 'orthorhombic'
loop_
_space_group_symop_operation_xyz
x,y,z
1/2-x,-y,z
1/2+x,-y,-z
-x,y,-z
-x,-y,-z
1/2+x,y,-z
1/2-x,y,z
x,-y,z
loop_
_atom_site_type_symbol
_atom_site_label
_atom_site_fract_x
_atom_site_fract_y
_atom_site_fract_z
Si Si1 0.925223 0.829438 0.919612
Si Si2 0.567967 0.677270 0.725355
Si Si3 0.423825 0.073075 0.610990
Si Si4 0.068491 0.214710 0.411485
Si Si5 0.428954 0.421768 0.592390
Si Si6 0.918491 0.074085 0.186140
Si Si7 0.569538 0.312885 0.090001
O O1 0.750000 0.812495 0.932148
O O2 0.951453 0.876676 0.841291
O O3 0.022961 0.763863 0.909422
O O4 0.000000 0.865504 0.000000
O O5 0.750000 0.680933 0.735694
O O6 0.519338 0.743411 0.672338
O O7 0.518154 0.618753 0.663280
O O8 0.496168 0.665345 0.818507
O O9 0.250000 0.079644 0.577597
O O10 0.517378 0.138581 0.591635
O O11 0.413292 0.071980 0.712762
O O12 0.483168 0.000000 0.587958
O O13 0.250000 0.219010 0.415735
O O14 0.000000 0.242298 0.500000
O O15 0.500000 0.408235 0.500000
O O16 0.250000 0.404312 0.593347
O O17 0.441863 0.500000 0.607263
O O18 0.750000 0.096393 0.156204
O O19 0.943790 0.000000 0.154915
O O20 0.750000 0.321636 0.087952
O O21 0.500000 0.339018 0.000000
#
# Coordination Sequence:
#
# PCOD9406451 Si02
#       7
#     8   8   8   8   8   8   8
#     4  11  21  33  49  70  98 132 173 222 280 344
#     4  11  23  39  61  91 124 158 200 247 298 354
#     4   9  19  36  56  75  98 134 180 229 283 344
#     4  11  24  38  55  81 113 149 190 239 291 348
#     4  10  21  38  62  94 131 171 212 250 293 348
#     4   9  18  33  51  70  93 124 166 218 278 344
#     4  11  22  38  60  85 115 151 192 239 291 346
#
# _framework density 19.912555000000001
#
# number of rings (size 3 to 8) (size 9 to 14) (size 15 to 20)
#    0.000    1.714    0.000    6.857    0.000    8.286 
#    0.000    1.429    0.000    0.429    0.000    0.000 
#    0.000    0.000    0.000    0.000    0.000    0.000 
#
# Total GULP energy -312469.774074 kJ/mol
# GULP energy per Si atom -5579.817394 kJ/mol
# Density = 1.986723 g / cm^3
# Si number density = 19.912555 Si / 1000 Ang^3
#
#
#
# Elastic Constant Matrix: (Units=GPa)
#
#
# Indices 1 2 3 4 5 6 
#
# 1 95.5203 25.2759 50.6108 0.0000 0.0000 0.0000
# 2 25.2759 49.9553 37.4631 0.0000 0.0000 0.0000
# 3 50.6108 37.4631 141.7466 0.0000 0.0000 0.0000
# 4 0.0000 0.0000 0.0000 18.8261 0.0000 0.0000
# 5 0.0000 0.0000 0.0000 0.0000 36.9976 0.0000
# 6 0.0000 0.0000 0.0000 0.0000 0.0000 20.0140
#
#
#
# Elastic Compliance Matrix: (Units=1/GPa)
#
#
# Indices 1 2 3 4 5 6 
#
# 1 0.013529 -0.004019 -0.003768 0.000000 0.000000 0.000000
# 2 -0.004019 0.026160 -0.005479 0.000000 0.000000 0.000000
# 3 -0.003768 -0.005479 0.009848 0.000000 0.000000 0.000000
# 4 0.000000 0.000000 0.000000 0.053118 0.000000 0.000000
# 5 0.000000 0.000000 0.000000 0.000000 0.027029 0.000000
# 6 0.000000 0.000000 0.000000 0.000000 0.000000 0.049965
#
#
# Mechanical properties :
#
#
# Convention : Reuss Voigt Hill
#
# Bulk Modulus (GPa) = 43.46941 57.10241 50.28591
# Shear Modulus (GPa) = 23.38073 26.75901 25.06987
#
# Velocity S-wave (km/s) = 3.43033 3.66980 3.55209
# Velocity P-wave (km/s) = 6.12920 6.83340 6.49086
#
# Compressibility (1/GPa) = 0.02300469
#
# Stress axis : x y z
#
# Youngs Moduli (GPa) = 73.91432 38.22561 101.53937
#
# Poissons Ratio (x) = 0.15364 0.38263
# Poissons Ratio (y) = 0.29709 0.55633
# Poissons Ratio (z) = 0.27853 0.20944
#
# Static dielectric constant tensor:
#      x y z
#    x 1.723280 0.000000 0.000000 
#    y 0.000000 1.692710 0.000000 
#    z 0.000000 0.000000 1.799340 
# 
# From -- ./inp_files/21744.got.cif
#   From: 2010.05.17/outbox.cif.g08.bks.cpg/sg51_11_cif.got.tgz:21744.got - 2010.06.03 11:52:47.
