data_PCOD9406185
_publ_section_title
;
Structure prediction by ZEFSAII (Michael W. Deem and Ramdas Pophale) SiO2 
 PCOD9406185
Probable space group: P M M A
;
_chemical_formula_sum "Si O2"
_cell_formula_units_Z 56
_cell_length_a 15.133600
_cell_length_b 16.017103
_cell_length_c 11.214815
_cell_angle_alpha 90.000000
_cell_angle_beta 90.000000
_cell_angle_gamma 90.000000
_cell_volume 2718.431119
_symmetry_space_group_name_H-M "P M M A"
_symmetry_group_IT_number 51
_symmetry_cell_setting 'orthorhombic'
loop_
_space_group_symop_operation_xyz
x,y,z
1/2-x,-y,z
1/2+x,-y,-z
-x,y,-z
-x,-y,-z
1/2+x,y,-z
1/2-x,y,z
x,-y,z
loop_
_atom_site_type_symbol
_atom_site_label
_atom_site_fract_x
_atom_site_fract_y
_atom_site_fract_z
Si Si1 0.441137 0.406291 0.121819
Si Si2 0.848910 0.239811 0.940365
Si Si3 0.450698 0.407820 0.628392
Si Si4 0.958935 0.910712 0.839274
Si Si5 0.151007 0.238602 0.577709
Si Si6 0.143071 0.091997 0.409562
Si Si7 0.346328 0.850639 0.828510
O O1 0.402320 0.500000 0.122431
O O2 0.374356 0.329941 0.107531
O O3 0.492428 0.397664 0.248893
O O4 0.500000 0.401106 0.000000
O O5 0.750000 0.217494 0.900087
O O6 0.917673 0.170133 0.899550
O O7 0.851467 0.229311 0.083146
O O8 0.500000 0.411819 0.500000
O O9 0.406796 0.500000 0.641672
O O10 0.394575 0.324519 0.611844
O O11 0.915369 0.909769 0.708781
O O12 0.064523 0.902869 0.840822
O O13 0.932292 0.000000 0.893784
O O14 0.250000 0.259419 0.537294
O O15 0.113502 0.174293 0.480550
O O16 0.154848 0.182858 0.695545
O O17 0.250000 0.098213 0.387297
O O18 0.130894 0.000000 0.469572
O O19 0.250000 0.890865 0.854415
#
# Coordination Sequence:
#
# PCOD9406185 Si02
#       7
#     8   8   8   8   8   8   8
#     4  10  21  40  65  90 120 165 213 254 305 369
#     4  11  23  39  62  91 124 158 203 261 312 362
#     4  10  22  38  58  89 125 159 201 253 305 363
#     4  11  23  39  61  86 117 162 208 250 306 371
#     4  10  21  37  60  85 116 159 201 246 310 372
#     4   9  20  38  58  86 120 154 204 262 308 361
#     4  10  23  40  58  88 123 156 200 256 310 368
#
# _framework density 20.600117000000001
#
# number of rings (size 3 to 8) (size 9 to 14) (size 15 to 20)
#    0.000    1.857    0.000    3.429    4.000    3.429 
#    0.000    4.286    0.000    7.714    0.000    0.000 
#    0.000    0.000    0.000    0.000    0.000    0.000 
#
# Total GULP energy -312040.477316 kJ/mol
# GULP energy per Si atom -5572.151381 kJ/mol
# Density = 2.055323 g / cm^3
# Si number density = 20.600117 Si / 1000 Ang^3
#
#
#
# Elastic Constant Matrix: (Units=GPa)
#
#
# Indices 1 2 3 4 5 6 
#
# 1 94.2079 51.4006 17.9861 0.0000 0.0000 0.0000
# 2 51.4006 105.9238 26.0697 0.0000 0.0000 0.0000
# 3 17.9861 26.0697 95.7530 0.0000 0.0000 0.0000
# 4 0.0000 0.0000 0.0000 38.1739 0.0000 0.0000
# 5 0.0000 0.0000 0.0000 0.0000 24.5485 0.0000
# 6 0.0000 0.0000 0.0000 0.0000 0.0000 -7.5210
#
#
#
# Elastic Compliance Matrix: (Units=1/GPa)
#
#
# Indices 1 2 3 4 5 6 
#
# 1 0.014504 -0.006825 -0.000866 0.000000 0.000000 0.000000
# 2 -0.006825 0.013330 -0.002347 0.000000 0.000000 0.000000
# 3 -0.000866 -0.002347 0.011245 0.000000 0.000000 0.000000
# 4 0.000000 0.000000 0.000000 0.026196 0.000000 0.000000
# 5 0.000000 0.000000 0.000000 0.000000 0.040736 0.000000
# 6 0.000000 0.000000 0.000000 0.000000 0.000000 -0.132960
#
#
# Mechanical properties :
#
#
# Convention : Reuss Voigt Hill
#
# Bulk Modulus (GPa) = 52.62452 54.08862 53.35657
# Shear Modulus (GPa) = -9299.01138 24.40215 -4637.30462
#
# Velocity S-wave (km/s) = -67.25963 3.44548 -47.49729
# Velocity P-wave (km/s) = 77.49973 6.49168 54.60800
#
# Compressibility (1/GPa) = 0.01900255
#
# Stress axis : x y z
#
# Youngs Moduli (GPa) = 68.94662 75.01663 88.92574
#
# Poissons Ratio (x) = 0.51199 0.07703
# Poissons Ratio (y) = 0.47056 0.20874
# Poissons Ratio (z) = 0.05972 0.17609
#
# Static dielectric constant tensor:
#      x y z
#    x 1.765420 0.000000 0.000000 
#    y 0.000000 1.732070 0.000000 
#    z 0.000000 0.000000 1.761900 
# 
# From -- ./inp_files/16652.got.cif
#   From: 2010.05.17/outbox.cif.g08.bks.cpg/sg51_9_cif.got.tgz:16652.got - 2010.06.03 11:52:47.
