data_PCOD9406747
_publ_section_title
;
Structure prediction by ZEFSAII (Michael W. Deem and Ramdas Pophale) SiO2 
 PCOD9406747
Probable space group: P M M A
;
_chemical_formula_sum "Si O2"
_cell_formula_units_Z 38
_cell_length_a 9.319028
_cell_length_b 22.216704
_cell_length_c 10.165178
_cell_angle_alpha 90.000000
_cell_angle_beta 90.000000
_cell_angle_gamma 90.000000
_cell_volume 2104.579004
_symmetry_space_group_name_H-M "P M M A"
_symmetry_group_IT_number 51
_symmetry_cell_setting 'orthorhombic'
loop_
_space_group_symop_operation_xyz
x,y,z
1/2-x,-y,z
1/2+x,-y,-z
-x,y,-z
-x,-y,-z
1/2+x,y,-z
1/2-x,y,z
x,-y,z
loop_
_atom_site_type_symbol
_atom_site_label
_atom_site_fract_x
_atom_site_fract_y
_atom_site_fract_z
Si Si1 0.081192 0.342926 0.367492
Si Si2 0.918916 0.124159 0.139481
Si Si3 0.078391 0.430985 0.137642
Si Si4 0.750000 0.000000 0.543304
Si Si5 0.963183 0.000000 0.292138
Si Si6 0.920604 0.199265 0.636811
O O1 0.250000 0.354584 0.384659
O O2 0.030701 0.382703 0.245318
O O3 0.064642 0.271327 0.346786
O O4 0.000000 0.359500 0.500000
O O5 0.750000 0.139971 0.125998
O O6 0.000522 0.167253 0.242909
O O7 0.930391 0.058394 0.204486
O O8 0.000000 0.126207 0.000000
O O9 0.250000 0.425061 0.119401
O O10 0.050093 0.500000 0.180378
O O11 0.000000 0.421276 0.000000
O O12 0.869782 0.000000 0.424053
O O13 0.874964 0.000000 0.656779
O O14 0.750000 0.184291 0.629771
O O15 0.000000 0.182137 0.500000
#
# Coordination Sequence:
#
# PCOD9406747 Si02
#       6
#     8   8   8   2   4   8
#     4   9  19  36  55  81 113 146 184 232 282 330
#     4  12  26  43  62  87 120 154 191 235 290 340
#     4   9  18  33  53  78 109 146 187 230 277 332
#     4  10  24  42  66  96 116 150 192 234 278 346
#     4  11  25  42  65  92 121 149 192 235 286 338
#     4  10  22  39  61  85 114 150 193 237 282 340
#
# _framework density 18.055868
#
# number of rings (size 3 to 8) (size 9 to 14) (size 15 to 20)
#    0.000    1.895    1.053    1.579    5.895    2.947 
#    0.000    2.105    0.000    0.000    0.000    0.000 
#    0.000    0.000    0.000    0.000    0.000    0.000 
#
# Total GULP energy -211611.634046 kJ/mol
# GULP energy per Si atom -5568.727212 kJ/mol
# Density = 1.801477 g / cm^3
# Si number density = 18.055868 Si / 1000 Ang^3
#
#
#
# Elastic Constant Matrix: (Units=GPa)
#
#
# Indices 1 2 3 4 5 6 
#
# 1 139.4733 46.5044 77.6844 0.0000 0.0000 0.0000
# 2 46.5044 51.8894 66.4760 0.0000 0.0000 0.0000
# 3 77.6844 66.4760 151.9880 0.0000 0.0000 0.0000
# 4 0.0000 0.0000 0.0000 95.2263 0.0000 0.0000
# 5 0.0000 0.0000 0.0000 0.0000 41.9207 0.0000
# 6 0.0000 0.0000 0.0000 0.0000 0.0000 30.2051
#
#
#
# Elastic Compliance Matrix: (Units=1/GPa)
#
#
# Indices 1 2 3 4 5 6 
#
# 1 0.010766 -0.005911 -0.002917 0.000000 0.000000 0.000000
# 2 -0.005911 0.047078 -0.017569 0.000000 0.000000 0.000000
# 3 -0.002917 -0.017569 0.015755 0.000000 0.000000 0.000000
# 4 0.000000 0.000000 0.000000 0.010501 0.000000 0.000000
# 5 0.000000 0.000000 0.000000 0.000000 0.023855 0.000000
# 6 0.000000 0.000000 0.000000 0.000000 0.000000 0.033107
#
#
# Mechanical properties :
#
#
# Convention : Reuss Voigt Hill
#
# Bulk Modulus (GPa) = 48.07030 80.52004 64.29517
# Shear Modulus (GPa) = 24.90157 43.64949 34.27553
#
# Velocity S-wave (km/s) = 3.71771 4.92211 4.36168
# Velocity P-wave (km/s) = 6.71635 8.77466 7.81358
#
# Compressibility (1/GPa) = 0.02080287
#
# Stress axis : x y z
#
# Youngs Moduli (GPa) = 92.88870 21.24149 63.47240
#
# Poissons Ratio (x) = 0.12556 0.18516
# Poissons Ratio (y) = 0.54908 1.11517
# Poissons Ratio (z) = 0.27097 0.37320
#
# Static dielectric constant tensor:
#      x y z
#    x 1.615800 0.000000 0.000000 
#    y 0.000000 1.640190 0.000000 
#    z 0.000000 0.000000 1.571150 
# 
# From -- ./inp_files/5304.got.cif
#   From: 2010.05.17/outbox.cif.g08.bks.cpg/sg51_3_cif.got.tgz:5304.got - 2010.06.03 11:52:47.
