data_PCOD9406981
_publ_section_title
;
Structure prediction by ZEFSAII (Michael W. Deem and Ramdas Pophale) SiO2 
 PCOD9406981
Probable space group: P M M A
;
_chemical_formula_sum "Si O2"
_cell_formula_units_Z 48
_cell_length_a 9.122989
_cell_length_b 13.865359
_cell_length_c 24.644133
_cell_angle_alpha 90.000000
_cell_angle_beta 90.000000
_cell_angle_gamma 90.000000
_cell_volume 3117.323072
_symmetry_space_group_name_H-M "P M M A"
_symmetry_group_IT_number 51
_symmetry_cell_setting 'orthorhombic'
loop_
_space_group_symop_operation_xyz
x,y,z
1/2-x,-y,z
1/2+x,-y,-z
-x,y,-z
-x,-y,-z
1/2+x,y,-z
1/2-x,y,z
x,-y,z
loop_
_atom_site_type_symbol
_atom_site_label
_atom_site_fract_x
_atom_site_fract_y
_atom_site_fract_z
Si Si1 0.575629 0.799938 0.555812
Si Si2 0.920145 0.382882 0.945994
Si Si3 0.574248 0.609936 0.618770
Si Si4 0.925259 0.706652 0.278676
Si Si5 0.426227 0.615212 0.174804
Si Si6 0.925470 0.888766 0.670978
O O1 0.500000 0.827302 0.500000
O O2 0.750000 0.804244 0.548438
O O3 0.536188 0.690621 0.574146
O O4 0.538621 0.865191 0.608016
O O5 0.750000 0.356780 0.949547
O O6 0.928137 0.500000 0.946255
O O7 0.973900 0.354255 0.886052
O O8 0.000000 0.347570 0.000000
O O9 0.750000 0.618211 0.628709
O O10 0.542483 0.500000 0.602973
O O11 0.490618 0.638681 0.673673
O O12 0.750000 0.704377 0.279298
O O13 0.989458 0.670102 0.221868
O O14 0.986471 0.812722 0.293048
O O15 0.250000 0.629937 0.179209
O O16 0.450815 0.500000 0.180267
O O17 0.750000 0.871476 0.677095
O O18 0.955687 0.000000 0.683283
#
# Coordination Sequence:
#
# PCOD9406981 Si02
#       6
#     8   8   8   8   8   8
#     4   9  18  31  47  69  92 113 141 176 215 261
#     4   8  14  24  38  57  83 118 158 194 224 253
#     4   9  18  33  49  62  84 122 158 183 212 256
#     4  11  21  30  44  69  95 114 141 187 233 267
#     4   9  17  29  44  62  89 128 165 189 215 259
#     4   9  19  37  56  68  83 113 147 176 215 272
#
# _framework density 15.397826
#
# number of rings (size 3 to 8) (size 9 to 14) (size 15 to 20)
#    0.000    2.833    0.000    4.000    0.000    7.000 
#    0.000    1.667    0.000    0.000    0.000    0.000 
#    0.000    0.667    0.000    2.167    0.000    2.667 
#
# Total GULP energy -267447.839088 kJ/mol
# GULP energy per Si atom -5571.829981 kJ/mol
# Density = 1.536278 g / cm^3
# Si number density = 15.397826 Si / 1000 Ang^3
#
#
#
# Elastic Constant Matrix: (Units=GPa)
#
#
# Indices 1 2 3 4 5 6 
#
# 1 38.2682 18.1089 40.7338 0.0000 0.0000 0.0000
# 2 18.1089 46.6587 9.8267 0.0000 0.0000 0.0000
# 3 40.7338 9.8267 103.8962 0.0000 0.0000 0.0000
# 4 0.0000 0.0000 0.0000 10.0414 0.0000 0.0000
# 5 0.0000 0.0000 0.0000 0.0000 27.2931 0.0000
# 6 0.0000 0.0000 0.0000 0.0000 0.0000 11.2730
#
#
#
# Elastic Compliance Matrix: (Units=1/GPa)
#
#
# Indices 1 2 3 4 5 6 
#
# 1 0.056011 -0.017462 -0.020308 0.000000 0.000000 0.000000
# 2 -0.017462 0.027312 0.004263 0.000000 0.000000 0.000000
# 3 -0.020308 0.004263 0.017184 0.000000 0.000000 0.000000
# 4 0.000000 0.000000 0.000000 0.099588 0.000000 0.000000
# 5 0.000000 0.000000 0.000000 0.000000 0.036639 0.000000
# 6 0.000000 0.000000 0.000000 0.000000 0.000000 0.088707
#
#
# Mechanical properties :
#
#
# Convention : Reuss Voigt Hill
#
# Bulk Modulus (GPa) = 29.85748 36.24020 33.04884
# Shear Modulus (GPa) = 12.38792 17.73176 15.05984
#
# Velocity S-wave (km/s) = 2.83949 3.39717 3.13077
# Velocity P-wave (km/s) = 5.49391 6.24297 5.88038
#
# Compressibility (1/GPa) = 0.03349244
#
# Stress axis : x y z
#
# Youngs Moduli (GPa) = 17.85361 36.61452 58.19397
#
# Poissons Ratio (x) = 0.63935 1.18182
# Poissons Ratio (y) = 0.31175 -0.24807
# Poissons Ratio (z) = 0.36258 -0.15608
#
# Static dielectric constant tensor:
#      x y z
#    x 1.512890 0.000000 0.000000 
#    y 0.000000 1.504600 0.000000 
#    z 0.000000 0.000000 1.511430 
# 
# From -- ./inp_files/34630.got.cif
#   From: 2010.05.17/outbox.cif.g08.bks.cpg/sg51_18_cif.got.tgz:34630.got - 2010.06.03 11:52:47.
