data_PCOD9406094
_publ_section_title
;
Structure prediction by ZEFSAII (Michael W. Deem and Ramdas Pophale) SiO2 
 PCOD9406094
Probable space group: P M M A
;
_chemical_formula_sum "Si O2"
_cell_formula_units_Z 40
_cell_length_a 18.606887
_cell_length_b 8.701684
_cell_length_c 13.034226
_cell_angle_alpha 90.000000
_cell_angle_beta 90.000000
_cell_angle_gamma 90.000000
_cell_volume 2110.387836
_symmetry_space_group_name_H-M "P M M A"
_symmetry_group_IT_number 51
_symmetry_cell_setting 'orthorhombic'
loop_
_space_group_symop_operation_xyz
x,y,z
1/2-x,-y,z
1/2+x,-y,-z
-x,y,-z
-x,-y,-z
1/2+x,y,-z
1/2-x,y,z
x,-y,z
loop_
_atom_site_type_symbol
_atom_site_label
_atom_site_fract_x
_atom_site_fract_y
_atom_site_fract_z
Si Si1 0.916535 0.685158 0.987531
Si Si2 0.084418 0.683083 0.397509
Si Si3 0.834195 0.315059 0.196924
Si Si4 0.666501 0.816842 0.793314
Si Si5 0.925969 0.817013 0.382073
O O1 0.912982 0.500000 0.975094
O O2 0.880880 0.761619 0.888897
O O3 0.872992 0.726243 0.090316
O O4 0.000000 0.727829 0.000000
O O5 0.083532 0.500000 0.407471
O O6 0.138273 0.736113 0.309363
O O7 0.101458 0.757993 0.507555
O O8 0.004494 0.741159 0.368042
O O9 0.750000 0.276139 0.193282
O O10 0.840568 0.500000 0.209132
O O11 0.874024 0.235084 0.291224
O O12 0.750000 0.779128 0.812092
O O13 0.659774 0.000000 0.781120
O O14 0.933905 0.000000 0.384370
#
# Coordination Sequence:
#
# PCOD9406094 Si02
#       5
#     8   8   8   8   8
#     4  10  21  38  62  89 116 151 196 242 287 342
#     4  11  22  39  63  87 115 153 197 239 285 347
#     4  10  21  37  57  84 120 159 198 239 286 345
#     4  11  24  40  59  87 122 155 191 240 296 350
#     4  11  22  38  61  88 119 152 192 243 295 344
#
# _framework density 18.953861
#
# number of rings (size 3 to 8) (size 9 to 14) (size 15 to 20)
#    0.000    1.400    0.000    7.200    0.000    6.400 
#    0.000    0.000    0.000    0.000    0.000    0.000 
#    0.000    0.000    0.000    0.000    0.000    0.000 
#
# Total GULP energy -223733.202191 kJ/mol
# GULP energy per Si atom -5593.330055 kJ/mol
# Density = 1.891072 g / cm^3
# Si number density = 18.953861 Si / 1000 Ang^3
#
#
#
# Elastic Constant Matrix: (Units=GPa)
#
#
# Indices 1 2 3 4 5 6 
#
# 1 50.1995 17.7752 18.8010 0.0000 0.0000 0.0000
# 2 17.7752 53.8979 13.1325 0.0000 0.0000 0.0000
# 3 18.8010 13.1325 52.6653 0.0000 0.0000 0.0000
# 4 0.0000 0.0000 0.0000 33.5338 0.0000 0.0000
# 5 0.0000 0.0000 0.0000 0.0000 -140.2064 0.0000
# 6 0.0000 0.0000 0.0000 0.0000 0.0000 673.6674
#
#
#
# Elastic Compliance Matrix: (Units=1/GPa)
#
#
# Indices 1 2 3 4 5 6 
#
# 1 0.024935 -0.006446 -0.007294 0.000000 0.000000 0.000000
# 2 -0.006446 0.021420 -0.003040 0.000000 0.000000 0.000000
# 3 -0.007294 -0.003040 0.022350 0.000000 0.000000 0.000000
# 4 0.000000 0.000000 0.000000 0.029821 0.000000 0.000000
# 5 0.000000 0.000000 0.000000 0.000000 -0.007132 0.000000
# 6 0.000000 0.000000 0.000000 0.000000 0.000000 0.001484
#
#
# Mechanical properties :
#
#
# Convention : Reuss Voigt Hill
#
# Bulk Modulus (GPa) = 28.45415 28.46446 28.45931
# Shear Modulus (GPa) = 36.19178 120.53590 78.36384
#
# Velocity S-wave (km/s) = 4.37449 7.98326 6.43695
# Velocity P-wave (km/s) = 6.36865 10.00135 8.38411
#
# Compressibility (1/GPa) = 0.03514426
#
# Stress axis : x y z
#
# Youngs Moduli (GPa) = 40.10457 46.68483 44.74311
#
# Poissons Ratio (x) = 0.30094 0.32636
# Poissons Ratio (y) = 0.25852 0.13602
# Poissons Ratio (z) = 0.29253 0.14193
#
# Static dielectric constant tensor:
#      x y z
#    x 1.637480 0.000000 0.000000 
#    y 0.000000 1.641670 0.000000 
#    z 0.000000 0.000000 1.622720 
# 
# From -- ./inp_files/17079.got.cif
#   From: 2010.05.17/outbox.cif.g08.bks.cpg/sg51_9_cif.got.tgz:17079.got - 2010.06.03 11:52:47.
