data_PCOD9406476
_publ_section_title
;
Structure prediction by ZEFSAII (Michael W. Deem and Ramdas Pophale) SiO2 
 PCOD9406476
Probable space group: P M M A
;
_chemical_formula_sum "Si O2"
_cell_formula_units_Z 52
_cell_length_a 9.675710
_cell_length_b 10.819399
_cell_length_c 28.846913
_cell_angle_alpha 90.000000
_cell_angle_beta 90.000000
_cell_angle_gamma 90.000000
_cell_volume 3019.849677
_symmetry_space_group_name_H-M "P M M A"
_symmetry_group_IT_number 51
_symmetry_cell_setting 'orthorhombic'
loop_
_space_group_symop_operation_xyz
x,y,z
1/2-x,-y,z
1/2+x,-y,-z
-x,y,-z
-x,-y,-z
1/2+x,y,-z
1/2-x,y,z
x,-y,z
loop_
_atom_site_type_symbol
_atom_site_label
_atom_site_fract_x
_atom_site_fract_y
_atom_site_fract_z
Si Si1 0.487750 0.263307 0.099020
Si Si2 0.750000 0.149743 0.964795
Si Si3 0.586671 0.641847 0.799647
Si Si4 0.750000 0.141654 0.071425
Si Si5 0.909814 0.851049 0.366246
Si Si6 0.083086 0.854731 0.272809
Si Si7 0.088598 0.150641 0.454733
Si Si8 0.409126 0.500000 0.954843
O O1 0.379107 0.202918 0.063758
O O2 0.431844 0.305418 0.148479
O O3 0.616460 0.172559 0.101128
O O4 0.551651 0.382888 0.075214
O O5 0.750000 0.000000 0.962681
O O6 0.750000 0.195840 0.018427
O O7 0.750000 0.630918 0.791464
O O8 0.529439 0.500000 0.795560
O O9 0.539996 0.750276 0.764528
O O10 0.750000 0.000000 0.060711
O O11 0.750000 0.805886 0.365812
O O12 0.995106 0.829265 0.319132
O O13 0.002609 0.807343 0.409592
O O14 0.901350 0.000000 0.370895
O O15 0.250000 0.845151 0.280862
O O16 0.058924 0.000000 0.259132
O O17 0.250000 0.190417 0.455500
O O18 0.000000 0.186334 0.500000
O O19 0.092052 0.000000 0.453919
O O20 0.250000 0.500000 0.967313
O O21 0.500000 0.500000 0.000000
#
# Coordination Sequence:
#
# PCOD9406476 Si02
#       8
#     8   4   8   4   8   8   8   4
#     4  12  23  40  61  84 113 144 181 221 271 326
#     4  11  24  41  63  87 115 150 185 219 264 327
#     4  10  21  39  59  82 110 140 178 224 276 330
#     4  11  24  41  57  83 117 148 177 219 268 321
#     4   9  16  27  43  66  98 134 175 224 275 326
#     4   9  18  33  54  76  99 133 180 226 269 321
#     4   9  15  22  35  59  95 140 185 225 269 320
#     4  12  26  40  62  88 112 142 182 222 263 322
#
# _framework density 17.2194
#
# number of rings (size 3 to 8) (size 9 to 14) (size 15 to 20)
#    0.000    1.846    2.308    2.769    1.077    6.154 
#    1.385    0.000    0.000    0.000    0.000    0.000 
#    0.000    0.615    0.000    1.692    0.000    3.077 
#
# Total GULP energy -289624.582461 kJ/mol
# GULP energy per Si atom -5569.703509 kJ/mol
# Density = 1.718021 g / cm^3
# Si number density = 17.219400 Si / 1000 Ang^3
#
#
#
# Elastic Constant Matrix: (Units=GPa)
#
#
# Indices 1 2 3 4 5 6 
#
# 1 78.7647 27.5277 20.5136 0.0000 0.0000 0.0000
# 2 27.5277 73.2385 44.6088 0.0000 0.0000 0.0000
# 3 20.5136 44.6088 98.8652 0.0000 0.0000 0.0000
# 4 0.0000 0.0000 0.0000 10.8271 0.0000 0.0000
# 5 0.0000 0.0000 0.0000 0.0000 21.2310 0.0000
# 6 0.0000 0.0000 0.0000 0.0000 0.0000 14.3252
#
#
#
# Elastic Compliance Matrix: (Units=1/GPa)
#
#
# Indices 1 2 3 4 5 6 
#
# 1 0.014658 -0.005043 -0.000766 0.000000 0.000000 0.000000
# 2 -0.005043 0.020564 -0.008232 0.000000 0.000000 0.000000
# 3 -0.000766 -0.008232 0.013988 0.000000 0.000000 0.000000
# 4 0.000000 0.000000 0.000000 0.092361 0.000000 0.000000
# 5 0.000000 0.000000 0.000000 0.000000 0.047101 0.000000
# 6 0.000000 0.000000 0.000000 0.000000 0.000000 0.069807
#
#
# Mechanical properties :
#
#
# Convention : Reuss Voigt Hill
#
# Bulk Modulus (GPa) = 47.33118 48.46318 47.89718
# Shear Modulus (GPa) = 17.02979 19.82454 18.42716
#
# Velocity S-wave (km/s) = 3.14823 3.39675 3.27485
# Velocity P-wave (km/s) = 6.38451 6.60223 6.49428
#
# Compressibility (1/GPa) = 0.02112772
#
# Stress axis : x y z
#
# Youngs Moduli (GPa) = 68.22225 48.62980 71.48919
#
# Poissons Ratio (x) = 0.24523 0.05476
# Poissons Ratio (y) = 0.34403 0.58851
# Poissons Ratio (z) = 0.05226 0.40033
#
# Static dielectric constant tensor:
#      x y z
#    x 1.555840 0.000000 0.000000 
#    y 0.000000 1.525400 0.000000 
#    z 0.000000 0.000000 1.570270 
# 
# From -- ./inp_files/36272.got.cif
#   From: 2010.05.17/outbox.cif.g08.bks.cpg/sg51_19_cif.got.tgz:36272.got - 2010.06.03 11:52:47.
