data_PCOD9406465
_publ_section_title
;
Structure prediction by ZEFSAII (Michael W. Deem and Ramdas Pophale) SiO2 
 PCOD9406465
Probable space group: P M M A
;
_chemical_formula_sum "Si O2"
_cell_formula_units_Z 40
_cell_length_a 10.099942
_cell_length_b 14.831315
_cell_length_c 13.412776
_cell_angle_alpha 90.000000
_cell_angle_beta 90.000000
_cell_angle_gamma 90.000000
_cell_volume 2009.172432
_symmetry_space_group_name_H-M "P M M A"
_symmetry_group_IT_number 51
_symmetry_cell_setting 'orthorhombic'
loop_
_space_group_symop_operation_xyz
x,y,z
1/2-x,-y,z
1/2+x,-y,-z
-x,y,-z
-x,-y,-z
1/2+x,y,-z
1/2-x,y,z
x,-y,z
loop_
_atom_site_type_symbol
_atom_site_label
_atom_site_fract_x
_atom_site_fract_y
_atom_site_fract_z
Si Si1 0.397026 0.395785 0.574615
Si Si2 0.750000 0.109994 0.156532
Si Si3 0.094603 0.000000 0.401949
Si Si4 0.398765 0.361380 0.261197
Si Si5 0.750000 0.105943 0.928792
Si Si6 0.462706 0.152910 0.236808
Si Si7 0.394643 0.500000 0.085068
O O1 0.500000 0.348489 0.500000
O O2 0.250000 0.356169 0.580386
O O3 0.381502 0.500000 0.542081
O O4 0.478055 0.397124 0.676225
O O5 0.617019 0.143702 0.210052
O O6 0.750000 0.000000 0.159843
O O7 0.750000 0.143508 0.041091
O O8 0.069231 0.085978 0.328807
O O9 0.000000 0.000000 0.500000
O O10 0.250000 0.000000 0.431145
O O11 0.250000 0.381499 0.302859
O O12 0.418747 0.254689 0.258250
O O13 0.404061 0.412453 0.156017
O O14 0.622627 0.127331 0.861126
O O15 0.750000 0.000000 0.943481
O O16 0.250000 0.500000 0.038181
O O17 0.500000 0.500000 0.000000
#
# Coordination Sequence:
#
# PCOD9406465 Si02
#       7
#     8   4   4   8   4   8   4
#     4  10  21  38  64  94 123 158 207 267 328 383
#     4  11  24  38  70 103 131 168 213 274 328 400
#     4  12  26  46  71  95 134 180 217 271 335 406
#     4  11  23  42  66  92 129 177 221 272 325 386
#     4  11  20  42  68  95 129 170 213 262 336 386
#     4  12  23  44  65  97 139 172 218 272 331 400
#     4  10  24  44  65  92 131 178 225 274 330 392
#
# _framework density 19.908695000000002
#
# number of rings (size 3 to 8) (size 9 to 14) (size 15 to 20)
#    0.000    1.000    5.000    1.200    2.800    5.600 
#    0.000    2.000    0.000    0.000    0.000    0.000 
#    0.000    0.000    0.000    0.000    0.000    0.000 
#
# Total GULP energy -223191.125133 kJ/mol
# GULP energy per Si atom -5579.778128 kJ/mol
# Density = 1.986338 g / cm^3
# Si number density = 19.908695 Si / 1000 Ang^3
#
#
#
# Elastic Constant Matrix: (Units=GPa)
#
#
# Indices 1 2 3 4 5 6 
#
# 1 232.1437 19.9797 75.1706 0.0000 0.0000 0.0000
# 2 19.9797 97.1501 21.0740 0.0000 0.0000 0.0000
# 3 75.1706 21.0740 88.1597 0.0000 0.0000 0.0000
# 4 0.0000 0.0000 0.0000 21.4633 0.0000 0.0000
# 5 0.0000 0.0000 0.0000 0.0000 34.3890 0.0000
# 6 0.0000 0.0000 0.0000 0.0000 0.0000 96.2322
#
#
#
# Elastic Compliance Matrix: (Units=1/GPa)
#
#
# Indices 1 2 3 4 5 6 
#
# 1 0.005952 -0.000130 -0.005044 0.000000 0.000000 0.000000
# 2 -0.000130 0.010859 -0.002485 0.000000 0.000000 0.000000
# 3 -0.005044 -0.002485 0.016238 0.000000 0.000000 0.000000
# 4 0.000000 0.000000 0.000000 0.046591 0.000000 0.000000
# 5 0.000000 0.000000 0.000000 0.000000 0.029079 0.000000
# 6 0.000000 0.000000 0.000000 0.000000 0.000000 0.010392
#
#
# Mechanical properties :
#
#
# Convention : Reuss Voigt Hill
#
# Bulk Modulus (GPa) = 56.39791 72.21135 64.30463
# Shear Modulus (GPa) = 35.62777 50.49883 43.06330
#
# Velocity S-wave (km/s) = 4.23491 5.04185 4.65589
# Velocity P-wave (km/s) = 7.23204 8.38115 7.82771
#
# Compressibility (1/GPa) = 0.01773116
#
# Stress axis : x y z
#
# Youngs Moduli (GPa) = 168.00454 92.08840 61.58362
#
# Poissons Ratio (x) = 0.01196 0.31064
# Poissons Ratio (y) = 0.02183 0.15304
# Poissons Ratio (z) = 0.84745 0.22884
#
# Static dielectric constant tensor:
#      x y z
#    x 1.724540 0.000000 0.000000 
#    y 0.000000 1.778440 0.000000 
#    z 0.000000 0.000000 1.735560 
# 
# From -- ./inp_files/20620.got.cif
#   From: 2010.05.17/outbox.cif.g08.bks.cpg/sg51_11_cif.got.tgz:20620.got - 2010.06.03 11:52:47.
