data_PCOD9406728
_publ_section_title
;
Structure prediction by ZEFSAII (Michael W. Deem and Ramdas Pophale) SiO2 
 PCOD9406728
Probable space group: P M M A
;
_chemical_formula_sum "Si O2"
_cell_formula_units_Z 40
_cell_length_a 10.148094
_cell_length_b 24.439999
_cell_length_c 8.848456
_cell_angle_alpha 90.000000
_cell_angle_beta 90.000000
_cell_angle_gamma 90.000000
_cell_volume 2194.588812
_symmetry_space_group_name_H-M "P M M A"
_symmetry_group_IT_number 51
_symmetry_cell_setting 'orthorhombic'
loop_
_space_group_symop_operation_xyz
x,y,z
1/2-x,-y,z
1/2+x,-y,-z
-x,y,-z
-x,-y,-z
1/2+x,y,-z
1/2-x,y,z
x,-y,z
loop_
_atom_site_type_symbol
_atom_site_label
_atom_site_fract_x
_atom_site_fract_y
_atom_site_fract_z
Si Si1 0.593169 0.266902 0.146300
Si Si2 0.495107 0.375162 0.680412
Si Si3 0.095826 0.936237 0.859749
Si Si4 0.250000 0.435362 0.822838
Si Si5 0.402353 0.162040 0.638162
Si Si6 0.750000 0.566566 0.819709
O O1 0.750000 0.276945 0.112783
O O2 0.534847 0.316082 0.247192
O O3 0.585668 0.210949 0.241053
O O4 0.500000 0.263241 0.000000
O O5 0.500000 0.371393 0.500000
O O6 0.375685 0.412056 0.738331
O O7 0.624604 0.404516 0.744713
O O8 0.250000 0.928661 0.902903
O O9 0.068474 0.894698 0.724144
O O10 0.078320 0.000000 0.817405
O O11 0.000000 0.924620 0.000000
O O12 0.250000 0.500000 0.814871
O O13 0.250000 0.421064 0.000793
O O14 0.500000 0.170684 0.500000
O O15 0.250000 0.160925 0.586465
O O16 0.750000 0.500000 0.800552
#
# Coordination Sequence:
#
# PCOD9406728 Si02
#       6
#     8   8   8   4   8   4
#     4  11  24  42  64  89 118 156 201 248 300 365
#     4  12  25  41  63  92 125 157 197 251 305 361
#     4   9  18  34  57  85 119 159 205 255 304 360
#     4  11  23  43  65  89 123 159 202 247 292 359
#     4  10  22  39  58  86 124 159 201 251 304 360
#     4  11  25  43  67  93 121 163 204 243 298 361
#
# _framework density 18.226648999999998
#
# number of rings (size 3 to 8) (size 9 to 14) (size 15 to 20)
#    0.000    1.400    1.000    4.200    1.400    6.000 
#    0.000    0.000    0.000    0.000    0.000    0.000 
#    0.000    0.000    0.000    0.000    0.000    0.000 
#
# Total GULP energy -223474.011042 kJ/mol
# GULP energy per Si atom -5586.850276 kJ/mol
# Density = 1.818516 g / cm^3
# Si number density = 18.226649 Si / 1000 Ang^3
#
#
#
# Elastic Constant Matrix: (Units=GPa)
#
#
# Indices 1 2 3 4 5 6 
#
# 1 154.9282 62.2030 98.4926 0.0000 0.0000 0.0000
# 2 62.2030 86.1696 67.3026 0.0000 0.0000 0.0000
# 3 98.4926 67.3026 154.9568 0.0000 0.0000 0.0000
# 4 0.0000 0.0000 0.0000 -47.4874 0.0000 0.0000
# 5 0.0000 0.0000 0.0000 0.0000 9.5065 0.0000
# 6 0.0000 0.0000 0.0000 0.0000 0.0000 30.8956
#
#
#
# Elastic Compliance Matrix: (Units=1/GPa)
#
#
# Indices 1 2 3 4 5 6 
#
# 1 0.011669 -0.003981 -0.005688 0.000000 0.000000 0.000000
# 2 -0.003981 0.018921 -0.005688 0.000000 0.000000 0.000000
# 3 -0.005688 -0.005688 0.012539 0.000000 0.000000 0.000000
# 4 0.000000 0.000000 0.000000 -0.021058 0.000000 0.000000
# 5 0.000000 0.000000 0.000000 0.000000 0.105191 0.000000
# 6 0.000000 0.000000 0.000000 0.000000 0.000000 0.032367
#
#
# Mechanical properties :
#
#
# Convention : Reuss Voigt Hill
#
# Bulk Modulus (GPa) = 80.54084 94.67233 87.60659
# Shear Modulus (GPa) = 25.70952 9.78671 17.74811
#
# Velocity S-wave (km/s) = 3.75980 2.31972 3.12387
# Velocity P-wave (km/s) = 7.94560 7.69606 7.82182
#
# Compressibility (1/GPa) = 0.01241606
#
# Stress axis : x y z
#
# Youngs Moduli (GPa) = 85.69818 52.85125 79.75092
#
# Poissons Ratio (x) = 0.21039 0.45361
# Poissons Ratio (y) = 0.34115 0.45360
# Poissons Ratio (z) = 0.48744 0.30060
#
# Static dielectric constant tensor:
#      x y z
#    x 1.600690 0.000000 0.000000 
#    y 0.000000 1.625830 0.000000 
#    z 0.000000 0.000000 1.583260 
# 
# From -- ./inp_files/5623.got.cif
#   From: 2010.05.17/outbox.cif.g08.bks.cpg/sg51_3_cif.got.tgz:5623.got - 2010.06.03 11:52:47.
