data_PCOD9406100
_publ_section_title
;
Structure prediction by ZEFSAII (Michael W. Deem and Ramdas Pophale) SiO2 
 PCOD9406100
Probable space group: P M M A
;
_chemical_formula_sum "Si O2"
_cell_formula_units_Z 58
_cell_length_a 30.547937
_cell_length_b 8.022648
_cell_length_c 12.648681
_cell_angle_alpha 90.000000
_cell_angle_beta 90.000000
_cell_angle_gamma 90.000000
_cell_volume 3099.879868
_symmetry_space_group_name_H-M "P M M A"
_symmetry_group_IT_number 51
_symmetry_cell_setting 'orthorhombic'
loop_
_space_group_symop_operation_xyz
x,y,z
1/2-x,-y,z
1/2+x,-y,-z
-x,y,-z
-x,-y,-z
1/2+x,y,-z
1/2-x,y,z
x,-y,z
loop_
_atom_site_type_symbol
_atom_site_label
_atom_site_fract_x
_atom_site_fract_y
_atom_site_fract_z
Si Si1 0.687433 0.194042 0.525312
Si Si2 0.798361 0.197869 0.776770
Si Si3 0.049609 0.305112 0.752288
Si Si4 0.107926 0.311371 0.171257
Si Si5 0.750000 0.500000 0.464268
Si Si6 0.958929 0.809463 0.665190
Si Si7 0.091786 0.698522 0.533867
Si Si8 0.950440 0.805735 0.015810
O O1 0.696129 0.220581 0.650517
O O2 0.712447 0.347991 0.469837
O O3 0.636154 0.213143 0.501711
O O4 0.700038 0.000000 0.501257
O O5 0.750000 0.262617 0.806439
O O6 0.840578 0.275204 0.831969
O O7 0.799135 0.000000 0.796665
O O8 0.058587 0.500000 0.769459
O O9 0.076402 0.246873 0.649929
O O10 0.059750 0.212021 0.860785
O O11 0.998646 0.283555 0.722266
O O12 0.101393 0.500000 0.207720
O O13 0.083263 0.200464 0.258306
O O14 0.083848 0.283638 0.060206
O O15 0.945357 0.735985 0.552731
O O16 0.972464 0.000000 0.652174
O O17 0.098759 0.500000 0.535763
O O18 0.950718 0.000000 0.984412
O O19 0.000000 0.739947 0.000000
#
# Coordination Sequence:
#
# PCOD9406100 Si02
#       8
#     8   8   8   8   2   8   8   8
#     4  11  22  36  58  88 123 160 200 246 303 371
#     4  10  21  37  57  86 121 156 194 244 303 364
#     4  11  24  40  60  85 117 158 206 252 297 357
#     4  12  24  36  59  88 120 156 198 248 304 359
#     4  12  22  36  60  86 122 158 202 252 304 366
#     4  12  23  36  56  84 121 162 203 246 296 356
#     4  11  23  39  57  86 124 162 201 246 302 364
#     4  11  23  40  62  86 115 154 202 250 300 356
#
# _framework density 18.710402999999999
#
# number of rings (size 3 to 8) (size 9 to 14) (size 15 to 20)
#    0.000    0.828    4.138    4.345    0.966    4.690 
#    0.000    0.000    0.000    0.000    1.793    0.000 
#    0.000    0.000    0.000    0.000    0.000    0.000 
#
# Total GULP energy -323575.088014 kJ/mol
# GULP energy per Si atom -5578.880828 kJ/mol
# Density = 1.866782 g / cm^3
# Si number density = 18.710403 Si / 1000 Ang^3
#
#
#
# Elastic Constant Matrix: (Units=GPa)
#
#
# Indices 1 2 3 4 5 6 
#
# 1 100.3247 12.6851 24.0516 0.0000 0.0000 0.0000
# 2 12.6851 70.3938 5.6392 0.0000 0.0000 0.0000
# 3 24.0516 5.6392 78.9143 0.0000 0.0000 0.0000
# 4 0.0000 0.0000 0.0000 31.6601 0.0000 0.0000
# 5 0.0000 0.0000 0.0000 0.0000 0.4250 0.0000
# 6 0.0000 0.0000 0.0000 0.0000 0.0000 21.5316
#
#
#
# Elastic Compliance Matrix: (Units=1/GPa)
#
#
# Indices 1 2 3 4 5 6 
#
# 1 0.010956 -0.001717 -0.003216 0.000000 0.000000 0.000000
# 2 -0.001717 0.014557 -0.000517 0.000000 0.000000 0.000000
# 3 -0.003216 -0.000517 0.013689 0.000000 0.000000 0.000000
# 4 0.000000 0.000000 0.000000 0.031586 0.000000 0.000000
# 5 0.000000 0.000000 0.000000 0.000000 2.353166 0.000000
# 6 0.000000 0.000000 0.000000 0.000000 0.000000 0.046443
#
#
# Mechanical properties :
#
#
# Convention : Reuss Voigt Hill
#
# Bulk Modulus (GPa) = 35.33389 37.15385 36.24387
# Shear Modulus (GPa) = 2.00744 24.54045 13.27395
#
# Velocity S-wave (km/s) = 1.03693 3.62552 2.66642
# Velocity P-wave (km/s) = 4.51212 6.11770 5.37520
#
# Compressibility (1/GPa) = 0.02830144
#
# Stress axis : x y z
#
# Youngs Moduli (GPa) = 91.27596 68.69757 73.05005
#
# Poissons Ratio (x) = 0.11793 0.23496
# Poissons Ratio (y) = 0.15668 0.03777
# Poissons Ratio (z) = 0.29358 0.03552
#
# Static dielectric constant tensor:
#      x y z
#    x 1.670450 0.000000 0.000000 
#    y 0.000000 1.646520 0.000000 
#    z 0.000000 0.000000 1.623040 
# 
# From -- ./inp_files/19149.got.cif
#   From: 2010.05.17/outbox.cif.g08.bks.cpg/sg51_10_cif.got.tgz:19149.got - 2010.06.03 11:52:47.
