data_PCOD9406606
_publ_section_title
;
Structure prediction by ZEFSAII (Michael W. Deem and Ramdas Pophale) SiO2 
 PCOD9406606
Probable space group: P M M A
;
_chemical_formula_sum "Si O2"
_cell_formula_units_Z 52
_cell_length_a 24.140847
_cell_length_b 7.817456
_cell_length_c 14.908255
_cell_angle_alpha 90.000000
_cell_angle_beta 90.000000
_cell_angle_gamma 90.000000
_cell_volume 2813.486021
_symmetry_space_group_name_H-M "P M M A"
_symmetry_group_IT_number 51
_symmetry_cell_setting 'orthorhombic'
loop_
_space_group_symop_operation_xyz
x,y,z
1/2-x,-y,z
1/2+x,-y,-z
-x,y,-z
-x,-y,-z
1/2+x,y,-z
1/2-x,y,z
x,-y,z
loop_
_atom_site_type_symbol
_atom_site_label
_atom_site_fract_x
_atom_site_fract_y
_atom_site_fract_z
Si Si1 0.000761 0.500000 0.104748
Si Si2 0.603674 0.194815 0.284585
Si Si3 0.118077 0.196865 0.341880
Si Si4 0.683167 0.500000 0.969205
Si Si5 0.372169 0.500000 0.835349
Si Si6 0.563989 0.790242 0.482255
Si Si7 0.520015 0.180992 0.792290
Si Si8 0.816466 0.201822 0.831471
O O1 0.937761 0.500000 0.140614
O O2 0.030919 0.664730 0.142792
O O3 0.000000 0.500000 0.000000
O O4 0.637441 0.331871 0.226122
O O5 0.588748 0.254939 0.385319
O O6 0.543327 0.183257 0.238108
O O7 0.626379 0.000000 0.286935
O O8 0.105095 0.272601 0.439036
O O9 0.157712 0.264466 0.263322
O O10 0.057828 0.194130 0.295056
O O11 0.136509 0.000000 0.355919
O O12 0.750000 0.500000 0.975537
O O13 0.667190 0.669202 0.911463
O O14 0.658663 0.500000 0.069373
O O15 0.500000 0.735416 0.500000
O O16 0.562724 0.000000 0.485440
O O17 0.532401 0.000000 0.836751
O O18 0.750000 0.206385 0.825100
O O19 0.832445 0.000000 0.844700
#
# Coordination Sequence:
#
# PCOD9406606 Si02
#       8
#     4   8   8   4   4   8   8   8
#     4  10  22  32  43  66  97 131 160 198 247 295
#     4   9  17  32  50  70 105 139 165 205 244 282
#     4   9  16  27  49  76 101 135 170 203 249 298
#     4  10  22  40  61  76  92 128 173 219 266 309
#     4  10  22  36  49  73  99 124 170 213 254 303
#     4   9  14  25  49  76 103 141 179 202 233 291
#     4   9  17  30  45  65  96 133 167 197 235 286
#     4   9  19  35  54  78 103 125 161 214 264 310
#
# _framework density 18.482410999999999
#
# number of rings (size 3 to 8) (size 9 to 14) (size 15 to 20)
#    0.000    2.769    1.538    0.000    2.154    0.923 
#    0.000    1.923    0.000    0.923    0.000    2.154 
#    0.000    0.000    0.000    0.000    0.000    0.000 
#
# Total GULP energy -289533.318676 kJ/mol
# GULP energy per Si atom -5567.948436 kJ/mol
# Density = 1.844034 g / cm^3
# Si number density = 18.482411 Si / 1000 Ang^3
#
#
#
# Elastic Constant Matrix: (Units=GPa)
#
#
# Indices 1 2 3 4 5 6 
#
# 1 33.4429 18.7259 26.1433 0.0000 0.0000 0.0000
# 2 18.7259 101.0017 77.1844 0.0000 0.0000 0.0000
# 3 26.1433 77.1844 157.0157 0.0000 0.0000 0.0000
# 4 0.0000 0.0000 0.0000 11.3678 0.0000 0.0000
# 5 0.0000 0.0000 0.0000 0.0000 22.6687 0.0000
# 6 0.0000 0.0000 0.0000 0.0000 0.0000 6.3331
#
#
#
# Elastic Compliance Matrix: (Units=1/GPa)
#
#
# Indices 1 2 3 4 5 6 
#
# 1 0.035035 -0.003264 -0.004229 0.000000 0.000000 0.000000
# 2 -0.003264 0.016162 -0.007401 0.000000 0.000000 0.000000
# 3 -0.004229 -0.007401 0.010711 0.000000 0.000000 0.000000
# 4 0.000000 0.000000 0.000000 0.087968 0.000000 0.000000
# 5 0.000000 0.000000 0.000000 0.000000 0.044114 0.000000
# 6 0.000000 0.000000 0.000000 0.000000 0.000000 0.157899
#
#
# Mechanical properties :
#
#
# Convention : Reuss Voigt Hill
#
# Bulk Modulus (GPa) = 31.13322 59.50750 45.32036
# Shear Modulus (GPa) = 12.74262 19.36772 16.05517
#
# Velocity S-wave (km/s) = 2.62858 3.24064 2.95052
# Velocity P-wave (km/s) = 5.10822 6.80214 6.01511
#
# Compressibility (1/GPa) = 0.03212003
#
# Stress axis : x y z
#
# Youngs Moduli (GPa) = 28.54272 61.87374 93.36031
#
# Poissons Ratio (x) = 0.20195 0.39482
# Poissons Ratio (y) = 0.09316 0.69099
# Poissons Ratio (z) = 0.12071 0.45795
#
# Static dielectric constant tensor:
#      x y z
#    x 1.630160 0.000000 0.000000 
#    y 0.000000 1.699100 0.000000 
#    z 0.000000 0.000000 1.639760 
# 
# From -- ./inp_files/19099.got.cif
#   From: 2010.05.17/outbox.cif.g08.bks.cpg/sg51_10_cif.got.tgz:19099.got - 2010.06.03 11:52:47.
