data_PCOD9406116
_publ_section_title
;
Structure prediction by ZEFSAII (Michael W. Deem and Ramdas Pophale) SiO2 
 PCOD9406116
Probable space group: P M M A
;
_chemical_formula_sum "Si O2"
_cell_formula_units_Z 48
_cell_length_a 8.787068
_cell_length_b 31.329452
_cell_length_c 9.533842
_cell_angle_alpha 90.000000
_cell_angle_beta 90.000000
_cell_angle_gamma 90.000000
_cell_volume 2624.609739
_symmetry_space_group_name_H-M "P M M A"
_symmetry_group_IT_number 51
_symmetry_cell_setting 'orthorhombic'
loop_
_space_group_symop_operation_xyz
x,y,z
1/2-x,-y,z
1/2+x,-y,-z
-x,y,-z
-x,-y,-z
1/2+x,y,-z
1/2-x,y,z
x,-y,z
loop_
_atom_site_type_symbol
_atom_site_label
_atom_site_fract_x
_atom_site_fract_y
_atom_site_fract_z
Si Si1 0.068673 0.327670 0.345602
Si Si2 0.568487 0.254398 0.153934
Si Si3 0.932209 0.500000 0.155792
Si Si4 0.932654 0.156568 0.156215
Si Si5 0.566944 0.000000 0.843623
Si Si6 0.932654 0.425008 0.656525
Si Si7 0.066833 0.918048 0.343819
O O1 0.250000 0.323277 0.351103
O O2 0.034700 0.376195 0.297461
O O3 0.000000 0.323734 0.500000
O O4 0.999386 0.290744 0.251390
O O5 0.750000 0.258221 0.149083
O O6 0.532165 0.205622 0.197614
O O7 0.500000 0.259875 0.000000
O O8 0.750000 0.500000 0.151241
O O9 0.992525 0.458883 0.240188
O O10 0.000000 0.500000 0.000000
O O11 0.750000 0.151559 0.150614
O O12 0.003908 0.123759 0.265778
O O13 0.000000 0.149312 0.000000
O O14 0.522733 0.958359 0.753699
O O15 0.750000 0.000000 0.855913
O O16 0.500000 0.000000 0.000000
O O17 0.750000 0.430804 0.651791
O O18 0.000000 0.430575 0.500000
O O19 0.250000 0.916516 0.351844
O O20 0.000000 0.922124 0.500000
#
# Coordination Sequence:
#
# PCOD9406116 Si02
#       7
#     8   8   4   8   4   8   8
#     4  10  21  37  59  85 114 148 188 232 279 332
#     4  10  21  37  58  83 114 150 189 233 282 334
#     4  12  25  40  59  84 114 148 186 232 281 332
#     4  10  21  38  59  84 113 149 191 234 280 335
#     4  10  23  40  60  86 114 148 189 230 279 336
#     4  10  21  39  61  85 113 148 188 230 277 333
#     4  11  23  39  59  85 116 150 188 234 284 334
#
# _framework density 18.288433999999999
#
# number of rings (size 3 to 8) (size 9 to 14) (size 15 to 20)
#    0.000    1.667    0.000    4.250    0.000    8.000 
#    0.000    0.000    0.000    0.000    0.000    0.000 
#    0.000    0.000    0.000    0.000    0.000    0.000 
#
# Total GULP energy -268238.948835 kJ/mol
# GULP energy per Si atom -5588.311434 kJ/mol
# Density = 1.824681 g / cm^3
# Si number density = 18.288434 Si / 1000 Ang^3
#
#
#
# Elastic Constant Matrix: (Units=GPa)
#
#
# Indices 1 2 3 4 5 6 
#
# 1 95.7751 91.7803 70.5149 0.0000 0.0000 0.0000
# 2 91.7803 189.6087 129.0221 0.0000 0.0000 0.0000
# 3 70.5149 129.0221 144.1238 0.0000 0.0000 0.0000
# 4 0.0000 0.0000 0.0000 39.5319 0.0000 0.0000
# 5 0.0000 0.0000 0.0000 0.0000 40.7321 0.0000
# 6 0.0000 0.0000 0.0000 0.0000 0.0000 33.5200
#
#
#
# Elastic Compliance Matrix: (Units=1/GPa)
#
#
# Indices 1 2 3 4 5 6 
#
# 1 0.019922 -0.007703 -0.002851 0.000000 0.000000 0.000000
# 2 -0.007703 0.016473 -0.010978 0.000000 0.000000 0.000000
# 3 -0.002851 -0.010978 0.018161 0.000000 0.000000 0.000000
# 4 0.000000 0.000000 0.000000 0.025296 0.000000 0.000000
# 5 0.000000 0.000000 0.000000 0.000000 0.024551 0.000000
# 6 0.000000 0.000000 0.000000 0.000000 0.000000 0.029833
#
#
# Mechanical properties :
#
#
# Convention : Reuss Voigt Hill
#
# Bulk Modulus (GPa) = 87.02038 112.46024 99.74031
# Shear Modulus (GPa) = 27.60435 31.96947 29.78691
#
# Velocity S-wave (km/s) = 3.88930 4.18553 4.04013
# Velocity P-wave (km/s) = 8.23738 9.21869 8.74181
#
# Compressibility (1/GPa) = 0.01149156
#
# Stress axis : x y z
#
# Youngs Moduli (GPa) = 50.19490 60.70617 55.06306
#
# Poissons Ratio (x) = 0.46764 0.15700
# Poissons Ratio (y) = 0.38666 0.60447
# Poissons Ratio (z) = 0.14312 0.66642
#
# Static dielectric constant tensor:
#      x y z
#    x 1.609930 0.000000 0.000000 
#    y 0.000000 1.633100 0.000000 
#    z 0.000000 0.000000 1.579570 
# 
# From -- ./inp_files/6189.got.cif
#   From: 2010.05.17/outbox.cif.g08.bks.cpg/sg51_4_cif.got.tgz:6189.got - 2010.06.03 11:52:47.
