data_PCOD9406971
_publ_section_title
;
Structure prediction by ZEFSAII (Michael W. Deem and Ramdas Pophale) SiO2 
 PCOD9406971
Probable space group: P M M A
;
_chemical_formula_sum "Si O2"
_cell_formula_units_Z 40
_cell_length_a 18.992473
_cell_length_b 10.284204
_cell_length_c 11.127752
_cell_angle_alpha 90.000000
_cell_angle_beta 90.000000
_cell_angle_gamma 90.000000
_cell_volume 2173.499971
_symmetry_space_group_name_H-M "P M M A"
_symmetry_group_IT_number 51
_symmetry_cell_setting 'orthorhombic'
loop_
_space_group_symop_operation_xyz
x,y,z
1/2-x,-y,z
1/2+x,-y,-z
-x,y,-z
-x,-y,-z
1/2+x,y,-z
1/2-x,y,z
x,-y,z
loop_
_atom_site_type_symbol
_atom_site_label
_atom_site_fract_x
_atom_site_fract_y
_atom_site_fract_z
Si Si1 0.669657 0.000000 0.515514
Si Si2 0.945128 0.159225 0.169029
Si Si3 0.664498 0.500000 0.531449
Si Si4 0.098998 0.237749 0.080874
Si Si5 0.078498 0.248685 0.560386
Si Si6 0.326292 0.000000 0.199923
Si Si7 0.665985 0.500000 0.821632
O O1 0.624087 0.125438 0.482221
O O2 0.676542 0.000000 0.657964
O O3 0.750000 0.000000 0.464809
O O4 0.929209 0.223971 0.296894
O O5 0.018964 0.218076 0.123972
O O6 0.948516 0.000000 0.177276
O O7 0.894279 0.201053 0.059753
O O8 0.750000 0.500000 0.508799
O O9 0.623899 0.624924 0.476730
O O10 0.655192 0.500000 0.676784
O O11 0.130292 0.375143 0.117926
O O12 0.137161 0.128573 0.156881
O O13 0.000000 0.252085 0.500000
O O14 0.250000 0.000000 0.144343
O O15 0.750000 0.500000 0.841574
#
# Coordination Sequence:
#
# PCOD9406971 Si02
#       7
#     4   8   4   8   8   4   4
#     4  11  23  38  59  92 128 168 211 263 324 374
#     4  11  22  41  65  94 128 162 208 269 319 366
#     4  11  25  46  65  92 134 174 209 263 328 390
#     4  11  22  40  64  90 126 163 205 261 320 370
#     4  12  24  40  68  96 128 168 221 267 315 381
#     4  11  20  35  61  87 115 163 215 254 302 371
#     4  11  24  43  65  93 127 163 211 262 310 375
#
# _framework density 18.403494999999999
#
# number of rings (size 3 to 8) (size 9 to 14) (size 15 to 20)
#    0.000    0.800    3.000    6.000    0.000    6.400 
#    0.000    6.000    0.000    0.000    0.000    0.000 
#    0.000    0.000    0.000    0.000    0.000    0.000 
#
# Total GULP energy -223216.139416 kJ/mol
# GULP energy per Si atom -5580.403485 kJ/mol
# Density = 1.836161 g / cm^3
# Si number density = 18.403495 Si / 1000 Ang^3
#
#
#
# Elastic Constant Matrix: (Units=GPa)
#
#
# Indices 1 2 3 4 5 6 
#
# 1 119.6231 73.8102 52.6188 0.0000 0.0000 0.0000
# 2 73.8102 190.4403 64.0704 0.0000 0.0000 0.0000
# 3 52.6188 64.0704 153.1426 0.0000 0.0000 0.0000
# 4 0.0000 0.0000 0.0000 36.4972 0.0000 0.0000
# 5 0.0000 0.0000 0.0000 0.0000 18.1211 0.0000
# 6 0.0000 0.0000 0.0000 0.0000 0.0000 67.6307
#
#
#
# Elastic Compliance Matrix: (Units=1/GPa)
#
#
# Indices 1 2 3 4 5 6 
#
# 1 0.011744 -0.003717 -0.002480 0.000000 0.000000 0.000000
# 2 -0.003717 0.007288 -0.001772 0.000000 0.000000 0.000000
# 3 -0.002480 -0.001772 0.008123 0.000000 0.000000 0.000000
# 4 0.000000 0.000000 0.000000 0.027399 0.000000 0.000000
# 5 0.000000 0.000000 0.000000 0.000000 0.055184 0.000000
# 6 0.000000 0.000000 0.000000 0.000000 0.000000 0.014786
#
#
# Mechanical properties :
#
#
# Convention : Reuss Voigt Hill
#
# Bulk Modulus (GPa) = 89.15054 93.80054 91.47554
# Shear Modulus (GPa) = 34.67350 42.63025 38.65188
#
# Velocity S-wave (km/s) = 4.34530 4.81814 4.58782
# Velocity P-wave (km/s) = 8.58620 9.05716 8.82482
#
# Compressibility (1/GPa) = 0.01121698
#
# Stress axis : x y z
#
# Youngs Moduli (GPa) = 85.14842 137.21468 123.10413
#
# Poissons Ratio (x) = 0.51009 0.30529
# Poissons Ratio (y) = 0.31653 0.21811
# Poissons Ratio (z) = 0.21116 0.24311
#
# Static dielectric constant tensor:
#      x y z
#    x 1.559390 0.000000 0.000000 
#    y 0.000000 1.584710 0.000000 
#    z 0.000000 0.000000 1.642240 
# 
# From -- ./inp_files/18023.got.cif
#   From: 2010.05.17/outbox.cif.g08.bks.cpg/sg51_10_cif.got.tgz:18023.got - 2010.06.03 11:52:47.
