data_PCOD9406081
_publ_section_title
;
Structure prediction by ZEFSAII (Michael W. Deem and Ramdas Pophale) SiO2 
 PCOD9406081
Probable space group: P M M A
;
_chemical_formula_sum "Si O2"
_cell_formula_units_Z 64
_cell_length_a 9.022926
_cell_length_b 14.075384
_cell_length_c 26.798975
_cell_angle_alpha 90.000000
_cell_angle_beta 90.000000
_cell_angle_gamma 90.000000
_cell_volume 3403.500597
_symmetry_space_group_name_H-M "P M M A"
_symmetry_group_IT_number 51
_symmetry_cell_setting 'orthorhombic'
loop_
_space_group_symop_operation_xyz
x,y,z
1/2-x,-y,z
1/2+x,-y,-z
-x,y,-z
-x,-y,-z
1/2+x,y,-z
1/2-x,y,z
x,-y,z
loop_
_atom_site_type_symbol
_atom_site_label
_atom_site_fract_x
_atom_site_fract_y
_atom_site_fract_z
Si Si1 0.921535 0.615042 0.258012
Si Si2 0.928594 0.888908 0.310048
Si Si3 0.924495 0.386011 0.447469
Si Si4 0.571530 0.700435 0.949637
Si Si5 0.073454 0.711795 0.352582
Si Si6 0.921533 0.614485 0.843707
Si Si7 0.572276 0.892662 0.904237
Si Si8 0.418291 0.115398 0.802318
O O1 0.750000 0.643482 0.263775
O O2 0.928765 0.500000 0.259592
O O3 0.014977 0.656011 0.303718
O O4 0.983200 0.645915 0.203946
O O5 0.750000 0.880044 0.314159
O O6 0.968290 0.858352 0.253202
O O7 0.011710 0.818488 0.346674
O O8 0.965290 0.000000 0.316631
O O9 0.750000 0.363073 0.448014
O O10 0.938685 0.500000 0.441568
O O11 0.000000 0.360201 0.500000
O O12 0.004337 0.336210 0.401379
O O13 0.750000 0.694635 0.953349
O O14 0.527699 0.649599 0.897983
O O15 0.525581 0.810640 0.942032
O O16 0.500000 0.661755 0.000000
O O17 0.250000 0.709756 0.354321
O O18 0.750000 0.645046 0.836995
O O19 0.923867 0.500000 0.844171
O O20 0.750000 0.895599 0.904426
O O21 0.519830 0.861353 0.849160
O O22 0.516768 0.000000 0.914251
O O23 0.250000 0.149006 0.810667
O O24 0.412790 0.000000 0.800884
#
# Coordination Sequence:
#
# PCOD9406081 Si02
#       8
#     8   8   8   8   8   8   8   8
#     4  10  21  37  57  83 114 147 185 229 280 341
#     4   9  19  36  55  78 113 154 196 242 288 334
#     4  10  21  39  63  90 122 159 200 246 293 342
#     4  10  22  37  52  73  98 127 169 215 265 325
#     4  12  24  35  55  87 122 160 199 238 284 339
#     4   9  19  37  57  76 102 134 168 215 274 332
#     4   9  18  32  49  70  99 131 163 206 259 317
#     4   8  15  29  49  73  99 130 171 216 264 319
#
# _framework density 18.804169000000002
#
# number of rings (size 3 to 8) (size 9 to 14) (size 15 to 20)
#    0.000    2.375    0.000    3.000    1.750    5.250 
#    0.000    1.250    0.000    0.375    0.000    0.000 
#    0.000    0.000    0.000    0.000    0.000    0.000 
#
# Total GULP energy -357346.823745 kJ/mol
# GULP energy per Si atom -5583.544121 kJ/mol
# Density = 1.876137 g / cm^3
# Si number density = 18.804169 Si / 1000 Ang^3
#
#
#
# Elastic Constant Matrix: (Units=GPa)
#
#
# Indices 1 2 3 4 5 6 
#
# 1 76.0617 38.4154 67.1834 0.0000 0.0000 0.0000
# 2 38.4154 51.5708 47.6530 0.0000 0.0000 0.0000
# 3 67.1834 47.6530 152.7767 0.0000 0.0000 0.0000
# 4 0.0000 0.0000 0.0000 32.0916 0.0000 0.0000
# 5 0.0000 0.0000 0.0000 0.0000 35.1438 0.0000
# 6 0.0000 0.0000 0.0000 0.0000 0.0000 20.9773
#
#
#
# Elastic Compliance Matrix: (Units=1/GPa)
#
#
# Indices 1 2 3 4 5 6 
#
# 1 0.026169 -0.012448 -0.007625 0.000000 0.000000 0.000000
# 2 -0.012448 0.033163 -0.004870 0.000000 0.000000 0.000000
# 3 -0.007625 -0.004870 0.011418 0.000000 0.000000 0.000000
# 4 0.000000 0.000000 0.000000 0.031161 0.000000 0.000000
# 5 0.000000 0.000000 0.000000 0.000000 0.028455 0.000000
# 6 0.000000 0.000000 0.000000 0.000000 0.000000 0.047670
#
#
# Mechanical properties :
#
#
# Convention : Reuss Voigt Hill
#
# Bulk Modulus (GPa) = 47.92930 65.21255 56.57092
# Shear Modulus (GPa) = 21.28772 26.11969 23.70371
#
# Velocity S-wave (km/s) = 3.36828 3.73102 3.55428
# Velocity P-wave (km/s) = 6.37739 7.30177 6.85518
#
# Compressibility (1/GPa) = 0.02086406
#
# Stress axis : x y z
#
# Youngs Moduli (GPa) = 38.21291 30.15376 87.58229
#
# Poissons Ratio (x) = 0.37534 0.66784
# Poissons Ratio (y) = 0.47566 0.42655
# Poissons Ratio (z) = 0.29139 0.14686
#
# Static dielectric constant tensor:
#      x y z
#    x 1.630600 0.000000 0.000000 
#    y 0.000000 1.700390 0.000000 
#    z 0.000000 0.000000 1.622330 
# 
# From -- ./inp_files/35037.got.cif
#   From: 2010.05.17/outbox.cif.g08.bks.cpg/sg51_18_cif.got.tgz:35037.got - 2010.06.03 11:52:47.
