data_PCOD9406659
_publ_section_title
;
Structure prediction by ZEFSAII (Michael W. Deem and Ramdas Pophale) SiO2 
 PCOD9406659
Probable space group: P M M A
;
_chemical_formula_sum "Si O2"
_cell_formula_units_Z 44
_cell_length_a 7.506030
_cell_length_b 7.675899
_cell_length_c 32.879396
_cell_angle_alpha 90.000000
_cell_angle_beta 90.000000
_cell_angle_gamma 90.000000
_cell_volume 1894.363766
_symmetry_space_group_name_H-M "P M M A"
_symmetry_group_IT_number 51
_symmetry_cell_setting 'orthorhombic'
loop_
_space_group_symop_operation_xyz
x,y,z
1/2-x,-y,z
1/2+x,-y,-z
-x,y,-z
-x,-y,-z
1/2+x,y,-z
1/2-x,y,z
x,-y,z
loop_
_atom_site_type_symbol
_atom_site_label
_atom_site_fract_x
_atom_site_fract_y
_atom_site_fract_z
Si Si1 0.035469 0.796845 0.805823
Si Si2 0.464081 0.500000 0.047646
Si Si3 0.966008 0.791466 0.281417
Si Si4 0.454781 0.208194 0.631869
Si Si5 0.536557 0.698717 0.456349
Si Si6 0.538892 0.197622 0.895192
O O1 0.250000 0.795029 0.804234
O O2 0.973378 0.720711 0.762432
O O3 0.984350 0.725382 0.849718
O O4 0.976952 0.000000 0.806974
O O5 0.250000 0.500000 0.052684
O O6 0.533068 0.328788 0.071023
O O7 0.500000 0.500000 0.000000
O O8 0.750000 0.771902 0.283026
O O9 0.033799 0.726066 0.325270
O O10 0.000885 0.000000 0.279598
O O11 0.250000 0.274445 0.630419
O O12 0.534296 0.238638 0.587245
O O13 0.446879 0.000000 0.636120
O O14 0.500000 0.786201 0.500000
O O15 0.750000 0.702697 0.453369
O O16 0.472720 0.500000 0.459522
O O17 0.750000 0.182588 0.901678
O O18 0.464423 0.000000 0.896483
#
# Coordination Sequence:
#
# PCOD9406659 Si02
#       6
#     8   4   8   8   8   8
#     4   8  13  23  43  70  95 120 152 187 222 264
#     4  10  22  38  54  74 100 130 162 200 241 278
#     4   7  10  18  35  60  87 112 138 171 213 258
#     4   8  13  22  38  59  81 106 135 168 210 258
#     4   9  17  28  41  56  74 100 134 171 211 256
#     4   9  18  33  52  73  98 129 162 194 232 279
#
# _framework density 23.226797000000001
#
# number of rings (size 3 to 8) (size 9 to 14) (size 15 to 20)
#    0.000    3.636    0.000    2.182    0.000    1.455 
#    0.000    0.000    2.000    1.091    0.000    2.545 
#    0.000    0.000    0.000    0.000    0.000    0.000 
#
# Total GULP energy -244939.344765 kJ/mol
# GULP energy per Si atom -5566.803290 kJ/mol
# Density = 2.317393 g / cm^3
# Si number density = 23.226797 Si / 1000 Ang^3
#
#
#
# Elastic Constant Matrix: (Units=GPa)
#
#
# Indices 1 2 3 4 5 6 
#
# 1 57.6845 4.4114 3.4792 0.0000 0.0000 0.0000
# 2 4.4114 63.7768 69.5790 0.0000 0.0000 0.0000
# 3 3.4792 69.5790 297.7073 0.0000 0.0000 0.0000
# 4 0.0000 0.0000 0.0000 43.0861 0.0000 0.0000
# 5 0.0000 0.0000 0.0000 0.0000 12.2426 0.0000
# 6 0.0000 0.0000 0.0000 0.0000 0.0000 -2.1526
#
#
#
# Elastic Compliance Matrix: (Units=1/GPa)
#
#
# Indices 1 2 3 4 5 6 
#
# 1 0.017430 -0.001320 0.000105 0.000000 0.000000 0.000000
# 2 -0.001320 0.021146 -0.004927 0.000000 0.000000 0.000000
# 3 0.000105 -0.004927 0.004509 0.000000 0.000000 0.000000
# 4 0.000000 0.000000 0.000000 0.023209 0.000000 0.000000
# 5 0.000000 0.000000 0.000000 0.000000 0.081682 0.000000
# 6 0.000000 0.000000 0.000000 0.000000 0.000000 -0.464559
#
#
# Mechanical properties :
#
#
# Convention : Reuss Voigt Hill
#
# Bulk Modulus (GPa) = 32.46575 63.78974 48.12775
# Shear Modulus (GPa) = -17.00500 33.41516 8.20508
#
# Velocity S-wave (km/s) = -2.70872 3.79706 1.88156
# Velocity P-wave (km/s) = 2.05552 6.83718 5.04838
#
# Compressibility (1/GPa) = 0.03080169
#
# Stress axis : x y z
#
# Youngs Moduli (GPa) = 57.37134 47.29045 221.76732
#
# Poissons Ratio (x) = 0.06242 -0.02324
# Poissons Ratio (y) = 0.07573 1.09258
# Poissons Ratio (z) = -0.00601 0.23299
#
# Static dielectric constant tensor:
#      x y z
#    x 1.903720 0.000000 0.000000 
#    y 0.000000 1.906040 0.000000 
#    z 0.000000 0.000000 1.947500 
# 
# From -- ./inp_files/36766.got.cif
#   From: 2010.05.17/outbox.cif.g08.bks.cpg/sg51_19_cif.got.tgz:36766.got - 2010.06.03 11:52:47.
