data_PCOD9406676
_publ_section_title
;
Structure prediction by ZEFSAII (Michael W. Deem and Ramdas Pophale) SiO2 
 PCOD9406676
Probable space group: P M M A
;
_chemical_formula_sum "Si O2"
_cell_formula_units_Z 44
_cell_length_a 9.428638
_cell_length_b 7.475872
_cell_length_c 31.855225
_cell_angle_alpha 90.000000
_cell_angle_beta 90.000000
_cell_angle_gamma 90.000000
_cell_volume 2245.388509
_symmetry_space_group_name_H-M "P M M A"
_symmetry_group_IT_number 51
_symmetry_cell_setting 'orthorhombic'
loop_
_space_group_symop_operation_xyz
x,y,z
1/2-x,-y,z
1/2+x,-y,-z
-x,y,-z
-x,-y,-z
1/2+x,y,-z
1/2-x,y,z
x,-y,z
loop_
_atom_site_type_symbol
_atom_site_label
_atom_site_fract_x
_atom_site_fract_y
_atom_site_fract_z
Si Si1 0.418514 0.711110 0.887064
Si Si2 0.420121 0.000000 0.956120
Si Si3 0.911294 0.712819 0.805676
Si Si4 0.413252 0.781248 0.541109
Si Si5 0.415761 0.218140 0.377281
Si Si6 0.413336 0.214281 0.285691
O O1 0.250000 0.731304 0.880198
O O2 0.447396 0.500000 0.893649
O O3 0.456876 0.828295 0.927448
O O4 0.499768 0.776256 0.845452
O O5 0.250000 0.000000 0.962781
O O6 0.500000 0.000000 0.000000
O O7 0.750000 0.785950 0.805911
O O8 0.901763 0.500000 0.810403
O O9 0.977772 0.742244 0.759531
O O10 0.500000 0.725158 0.500000
O O11 0.250000 0.724784 0.539395
O O12 0.491276 0.721541 0.583571
O O13 0.413927 0.000000 0.541298
O O14 0.250000 0.269597 0.381567
O O15 0.469670 0.275221 0.331005
O O16 0.417588 0.000000 0.378005
O O17 0.250000 0.280206 0.283877
O O18 0.409160 0.000000 0.287709
#
# Coordination Sequence:
#
# PCOD9406676 Si02
#       6
#     8   4   8   8   8   8
#     4   9  19  36  54  73 103 138 166 201 251 299
#     4  10  22  38  56  80 106 134 172 210 249 298
#     4   9  17  29  47  72  97 123 161 202 234 274
#     4   9  15  21  30  45  67  97 133 172 215 264
#     4   8  13  22  34  47  68 100 137 173 213 264
#     4   8  14  24  39  60  86 117 148 182 228 275
#
# _framework density 19.595718999999999
#
# number of rings (size 3 to 8) (size 9 to 14) (size 15 to 20)
#    0.000    3.273    0.000    1.636    1.273    3.273 
#    0.000    0.909    0.000    1.091    0.000    0.000 
#    0.000    0.727    0.000    1.273    0.000    1.818 
#
# Total GULP energy -245186.103979 kJ/mol
# GULP energy per Si atom -5572.411454 kJ/mol
# Density = 1.955112 g / cm^3
# Si number density = 19.595719 Si / 1000 Ang^3
#
#
#
# Elastic Constant Matrix: (Units=GPa)
#
#
# Indices 1 2 3 4 5 6 
#
# 1 70.7081 21.2454 94.8916 0.0000 0.0000 0.0000
# 2 21.2454 61.9174 38.6571 0.0000 0.0000 0.0000
# 3 94.8916 38.6571 253.2893 0.0000 0.0000 0.0000
# 4 0.0000 0.0000 0.0000 158.3462 0.0000 0.0000
# 5 0.0000 0.0000 0.0000 0.0000 34.4946 0.0000
# 6 0.0000 0.0000 0.0000 0.0000 0.0000 1.4224
#
#
#
# Elastic Compliance Matrix: (Units=1/GPa)
#
#
# Indices 1 2 3 4 5 6 
#
# 1 0.029119 -0.003516 -0.010373 0.000000 0.000000 0.000000
# 2 -0.003516 0.018276 -0.001472 0.000000 0.000000 0.000000
# 3 -0.010373 -0.001472 0.008059 0.000000 0.000000 0.000000
# 4 0.000000 0.000000 0.000000 0.006315 0.000000 0.000000
# 5 0.000000 0.000000 0.000000 0.000000 0.028990 0.000000
# 6 0.000000 0.000000 0.000000 0.000000 0.000000 0.703052
#
#
# Mechanical properties :
#
#
# Convention : Reuss Voigt Hill
#
# Bulk Modulus (GPa) = 40.43165 77.27810 58.85488
# Shear Modulus (GPa) = 6.00401 54.26067 30.13234
#
# Velocity S-wave (km/s) = 1.75231 5.26784 3.92561
# Velocity P-wave (km/s) = 4.97713 8.74769 7.11667
#
# Compressibility (1/GPa) = 0.02473310
#
# Stress axis : x y z
#
# Youngs Moduli (GPa) = 34.34168 54.71658 124.08957
#
# Poissons Ratio (x) = 0.19236 1.28713
# Poissons Ratio (y) = 0.12073 0.18269
# Poissons Ratio (z) = 0.35621 0.08055
#
# Static dielectric constant tensor:
#      x y z
#    x 1.662800 0.000000 0.000000 
#    y 0.000000 1.785020 0.000000 
#    z 0.000000 0.000000 1.691160 
# 
# From -- ./inp_files/36723.got.cif
#   From: 2010.05.17/outbox.cif.g08.bks.cpg/sg51_19_cif.got.tgz:36723.got - 2010.06.03 11:52:47.
