data_PCOD9406076
_publ_section_title
;
Structure prediction by ZEFSAII (Michael W. Deem and Ramdas Pophale) SiO2 
 PCOD9406076
Probable space group: P M M A
;
_chemical_formula_sum "Si O2"
_cell_formula_units_Z 30
_cell_length_a 9.550278
_cell_length_b 7.503057
_cell_length_c 21.537063
_cell_angle_alpha 90.000000
_cell_angle_beta 90.000000
_cell_angle_gamma 90.000000
_cell_volume 1543.265821
_symmetry_space_group_name_H-M "P M M A"
_symmetry_group_IT_number 51
_symmetry_cell_setting 'orthorhombic'
loop_
_space_group_symop_operation_xyz
x,y,z
1/2-x,-y,z
1/2+x,-y,-z
-x,y,-z
-x,-y,-z
1/2+x,y,-z
1/2-x,y,z
x,-y,z
loop_
_atom_site_type_symbol
_atom_site_label
_atom_site_fract_x
_atom_site_fract_y
_atom_site_fract_z
Si Si1 0.590288 0.714232 0.679789
Si Si2 0.750000 0.000000 0.983655
Si Si3 0.026680 0.000000 0.903174
Si Si4 0.909356 0.787452 0.442276
Si Si5 0.586645 0.287782 0.200651
O O1 0.750000 0.781069 0.674340
O O2 0.596851 0.500000 0.682575
O O3 0.495326 0.759235 0.620733
O O4 0.512669 0.771164 0.742816
O O5 0.869061 0.000000 0.039059
O O6 0.872228 0.000000 0.930276
O O7 0.054492 0.828074 0.859862
O O8 0.750000 0.717217 0.439500
O O9 0.000000 0.715686 0.500000
O O10 0.898092 0.000000 0.451134
O O11 0.750000 0.261611 0.217832
O O12 0.566568 0.500000 0.189592
#
# Coordination Sequence:
#
# PCOD9406076 Si02
#       5
#     8   2   4   8   8
#     4  10  22  38  57  85 117 150 198 250 295 354
#     4  10  24  42  66  94 128 156 206 242 294 358
#     4  11  22  44  64  92 127 162 196 254 291 358
#     4  10  21  37  57  82 115 154 199 246 298 357
#     4  10  21  39  63  90 122 162 204 248 303 358
#
# _framework density 19.439297
#
# number of rings (size 3 to 8) (size 9 to 14) (size 15 to 20)
#    0.000    1.867    1.333    1.600    3.733    3.733 
#    0.000    4.000    0.000    0.000    0.000    0.000 
#    0.000    0.000    0.000    0.000    0.000    0.000 
#
# Total GULP energy -167004.239532 kJ/mol
# GULP energy per Si atom -5566.807984 kJ/mol
# Density = 1.939505 g / cm^3
# Si number density = 19.439297 Si / 1000 Ang^3
#
#
#
# Elastic Constant Matrix: (Units=GPa)
#
#
# Indices 1 2 3 4 5 6 
#
# 1 229.6480 34.0180 86.9006 0.0000 0.0000 0.0000
# 2 34.0180 60.1062 27.9785 0.0000 0.0000 0.0000
# 3 86.9006 27.9785 119.2112 0.0000 0.0000 0.0000
# 4 0.0000 0.0000 0.0000 -15.2257 0.0000 0.0000
# 5 0.0000 0.0000 0.0000 0.0000 43.3365 0.0000
# 6 0.0000 0.0000 0.0000 0.0000 0.0000 42.5689
#
#
#
# Elastic Compliance Matrix: (Units=1/GPa)
#
#
# Indices 1 2 3 4 5 6 
#
# 1 0.006141 -0.001563 -0.004110 0.000000 0.000000 0.000000
# 2 -0.001563 0.019075 -0.003338 0.000000 0.000000 0.000000
# 3 -0.004110 -0.003338 0.012168 0.000000 0.000000 0.000000
# 4 0.000000 0.000000 0.000000 -0.065679 0.000000 0.000000
# 5 0.000000 0.000000 0.000000 0.000000 0.023075 0.000000
# 6 0.000000 0.000000 0.000000 0.000000 0.000000 0.023491
#
#
# Mechanical properties :
#
#
# Convention : Reuss Voigt Hill
#
# Bulk Modulus (GPa) = 51.64336 78.52883 65.08610
# Shear Modulus (GPa) = 116.96524 31.47382 74.21953
#
# Velocity S-wave (km/s) = 7.76531 4.02815 6.18571
# Velocity P-wave (km/s) = 10.34525 7.88158 9.19629
#
# Compressibility (1/GPa) = 0.01936357
#
# Stress axis : x y z
#
# Youngs Moduli (GPa) = 162.83446 52.42378 82.18354
#
# Poissons Ratio (x) = 0.08192 0.33777
# Poissons Ratio (y) = 0.25444 0.27432
# Poissons Ratio (z) = 0.66925 0.17498
#
# Static dielectric constant tensor:
#      x y z
#    x 1.680990 0.000000 0.000000 
#    y 0.000000 1.715810 0.000000 
#    z 0.000000 0.000000 1.629340 
# 
# From -- ./inp_files/31084.got.cif
#   From: 2010.05.17/outbox.cif.g08.bks.cpg/sg51_16_cif.got.tgz:31084.got - 2010.06.03 11:52:47.
