data_PCOD9406433
_publ_section_title
;
Structure prediction by ZEFSAII (Michael W. Deem and Ramdas Pophale) SiO2 
 PCOD9406433
Probable space group: P M M A
;
_chemical_formula_sum "Si O2"
_cell_formula_units_Z 48
_cell_length_a 30.769032
_cell_length_b 7.935133
_cell_length_c 10.530281
_cell_angle_alpha 90.000000
_cell_angle_beta 90.000000
_cell_angle_gamma 90.000000
_cell_volume 2571.035091
_symmetry_space_group_name_H-M "P M M A"
_symmetry_group_IT_number 51
_symmetry_cell_setting 'orthorhombic'
loop_
_space_group_symop_operation_xyz
x,y,z
1/2-x,-y,z
1/2+x,-y,-z
-x,y,-z
-x,-y,-z
1/2+x,y,-z
1/2-x,y,z
x,-y,z
loop_
_atom_site_type_symbol
_atom_site_label
_atom_site_fract_x
_atom_site_fract_y
_atom_site_fract_z
Si Si1 0.129851 0.299060 0.133728
Si Si2 0.201397 0.298424 0.644210
Si Si3 0.029294 0.694027 0.125657
Si Si4 0.866730 0.296075 0.571219
Si Si5 0.700404 0.800581 0.075849
Si Si6 0.929909 0.000000 0.494000
Si Si7 0.003013 0.000000 0.707673
O O1 0.130434 0.500000 0.127170
O O2 0.079635 0.250031 0.104848
O O3 0.140302 0.253554 0.280164
O O4 0.166040 0.241214 0.033900
O O5 0.250000 0.226249 0.635909
O O6 0.204089 0.500000 0.641934
O O7 0.173065 0.253508 0.522299
O O8 0.184151 0.252854 0.784098
O O9 0.030640 0.500000 0.176037
O O10 0.006877 0.831053 0.214713
O O11 0.000000 0.690648 0.000000
O O12 0.875412 0.500000 0.562905
O O13 0.903980 0.171850 0.521533
O O14 0.750000 0.730059 0.057350
O O15 0.704326 0.000000 0.077876
O O16 0.968583 0.000000 0.594480
O O17 0.949423 0.000000 0.353201
#
# Coordination Sequence:
#
# PCOD9406433 Si02
#       7
#     8   8   8   8   8   4   4
#     4  10  21  38  62  87 115 157 199 244 300 355
#     4   9  19  38  61  85 118 158 197 241 293 353
#     4  10  22  41  63  88 120 158 200 248 306 361
#     4  10  22  40  62  89 120 155 199 246 298 357
#     4  10  22  37  56  87 122 156 195 242 297 355
#     4  11  24  38  61  88 115 157 196 240 301 356
#     4  11  23  40  60  88 118 152 201 242 295 358
#
# _framework density 18.669523999999999
#
# number of rings (size 3 to 8) (size 9 to 14) (size 15 to 20)
#    0.000    2.000    1.667    0.750    3.500    3.667 
#    0.000    6.667    0.000    0.000    0.000    0.000 
#    0.000    0.000    0.000    0.000    0.000    0.000 
#
# Total GULP energy -267492.232334 kJ/mol
# GULP energy per Si atom -5572.754840 kJ/mol
# Density = 1.862703 g / cm^3
# Si number density = 18.669524 Si / 1000 Ang^3
#
#
#
# Elastic Constant Matrix: (Units=GPa)
#
#
# Indices 1 2 3 4 5 6 
#
# 1 83.4540 28.3398 97.6802 0.0000 0.0000 0.0000
# 2 28.3398 54.4100 41.7312 0.0000 0.0000 0.0000
# 3 97.6802 41.7312 137.7617 0.0000 0.0000 0.0000
# 4 0.0000 0.0000 0.0000 21.6345 0.0000 0.0000
# 5 0.0000 0.0000 0.0000 0.0000 -53.4566 0.0000
# 6 0.0000 0.0000 0.0000 0.0000 0.0000 27.7832
#
#
#
# Elastic Compliance Matrix: (Units=1/GPa)
#
#
# Indices 1 2 3 4 5 6 
#
# 1 0.070640 0.002114 -0.050728 0.000000 0.000000 0.000000
# 2 0.002114 0.024005 -0.008770 0.000000 0.000000 0.000000
# 3 -0.050728 -0.008770 0.045884 0.000000 0.000000 0.000000
# 4 0.000000 0.000000 0.000000 0.046222 0.000000 0.000000
# 5 0.000000 0.000000 0.000000 0.000000 -0.018707 0.000000
# 6 0.000000 0.000000 0.000000 0.000000 0.000000 0.035993
#
#
# Mechanical properties :
#
#
# Convention : Reuss Voigt Hill
#
# Bulk Modulus (GPa) = 38.81949 67.90313 53.36131
# Shear Modulus (GPa) = 15.27217 6.38386 10.82802
#
# Velocity S-wave (km/s) = 2.86322 1.85117 2.41090
# Velocity P-wave (km/s) = 5.63638 6.40462 6.03274
#
# Compressibility (1/GPa) = 0.02576026
#
# Stress axis : x y z
#
# Youngs Moduli (GPa) = 14.15629 41.65862 21.79398
#
# Poissons Ratio (x) = -0.08806 1.10556
# Poissons Ratio (y) = -0.02992 0.19114
# Poissons Ratio (z) = 0.71812 0.36536
#
# Static dielectric constant tensor:
#      x y z
#    x 1.696350 0.000000 0.000000 
#    y 0.000000 1.642490 0.000000 
#    z 0.000000 0.000000 1.665630 
# 
# From -- ./inp_files/12977.got.cif
#   From: 2010.05.17/outbox.cif.g08.bks.cpg/sg51_7_cif.got.tgz:12977.got - 2010.06.03 11:52:47.
