data_PCOD9406836
_publ_section_title
;
Structure prediction by ZEFSAII (Michael W. Deem and Ramdas Pophale) SiO2 
 PCOD9406836
Probable space group: P M M A
;
_chemical_formula_sum "Si O2"
_cell_formula_units_Z 40
_cell_length_a 13.885156
_cell_length_b 15.601547
_cell_length_c 9.558507
_cell_angle_alpha 90.000000
_cell_angle_beta 90.000000
_cell_angle_gamma 90.000000
_cell_volume 2070.658549
_symmetry_space_group_name_H-M "P M M A"
_symmetry_group_IT_number 51
_symmetry_cell_setting 'orthorhombic'
loop_
_space_group_symop_operation_xyz
x,y,z
1/2-x,-y,z
1/2+x,-y,-z
-x,y,-z
-x,-y,-z
1/2+x,y,-z
1/2-x,y,z
x,-y,z
loop_
_atom_site_type_symbol
_atom_site_label
_atom_site_fract_x
_atom_site_fract_y
_atom_site_fract_z
Si Si1 0.135246 0.598239 0.696700
Si Si2 0.134526 0.864116 0.150700
Si Si3 0.142600 0.398572 0.375969
Si Si4 0.971417 0.000000 0.665977
Si Si5 0.488906 0.691835 0.152661
Si Si6 0.137829 0.000000 0.901580
O O1 0.250000 0.595837 0.706697
O O2 0.101908 0.500000 0.733459
O O3 0.110112 0.614444 0.534912
O O4 0.094338 0.678024 0.783012
O O5 0.250000 0.847329 0.166363
O O6 0.093260 0.919362 0.281432
O O7 0.066053 0.781645 0.139616
O O8 0.123202 0.919954 0.008136
O O9 0.250000 0.361807 0.361150
O O10 0.148023 0.500000 0.358161
O O11 0.074691 0.361235 0.260105
O O12 0.000000 0.000000 0.500000
O O13 0.064912 0.000000 0.770603
O O14 0.500000 0.652891 0.000000
O O15 0.250000 0.000000 0.856799
#
# Coordination Sequence:
#
# PCOD9406836 Si02
#       6
#     8   8   8   4   8   4
#     4   9  20  39  59  79 110 155 201 242 290 349
#     4  10  22  42  62  81 115 161 198 229 275 342
#     4   9  19  37  58  78 106 149 195 235 284 349
#     4  11  22  38  65  99 123 143 181 237 292 336
#     4  12  23  34  54  86 118 148 188 241 291 338
#     4   9  19  40  66  85 113 159 198 223 266 342
#
# _framework density 19.317526000000001
#
# number of rings (size 3 to 8) (size 9 to 14) (size 15 to 20)
#    0.000    2.000    0.000    6.300    0.000    7.200 
#    0.000    3.000    0.000    0.000    0.000    0.000 
#    0.000    0.000    0.000    0.000    0.000    0.000 
#
# Total GULP energy -222902.026797 kJ/mol
# GULP energy per Si atom -5572.550670 kJ/mol
# Density = 1.927356 g / cm^3
# Si number density = 19.317526 Si / 1000 Ang^3
#
#
#
# Elastic Constant Matrix: (Units=GPa)
#
#
# Indices 1 2 3 4 5 6 
#
# 1 120.2505 43.9478 55.9335 0.0000 0.0000 0.0000
# 2 43.9478 46.7266 53.0184 0.0000 0.0000 0.0000
# 3 55.9335 53.0184 102.9669 0.0000 0.0000 0.0000
# 4 0.0000 0.0000 0.0000 10.3078 0.0000 0.0000
# 5 0.0000 0.0000 0.0000 0.0000 32.5229 0.0000
# 6 0.0000 0.0000 0.0000 0.0000 0.0000 37.1034
#
#
#
# Elastic Compliance Matrix: (Units=1/GPa)
#
#
# Indices 1 2 3 4 5 6 
#
# 1 0.012811 -0.009989 -0.001816 0.000000 0.000000 0.000000
# 2 -0.009989 0.059263 -0.025089 0.000000 0.000000 0.000000
# 3 -0.001816 -0.025089 0.023617 0.000000 0.000000 0.000000
# 4 0.000000 0.000000 0.000000 0.097014 0.000000 0.000000
# 5 0.000000 0.000000 0.000000 0.000000 0.030748 0.000000
# 6 0.000000 0.000000 0.000000 0.000000 0.000000 0.026952
#
#
# Mechanical properties :
#
#
# Convention : Reuss Voigt Hill
#
# Bulk Modulus (GPa) = 45.65441 63.97147 54.81294
# Shear Modulus (GPa) = 15.08327 23.78976 19.43652
#
# Velocity S-wave (km/s) = 2.79732 3.51310 3.17544
# Velocity P-wave (km/s) = 5.84109 7.04581 6.47155
#
# Compressibility (1/GPa) = 0.02190369
#
# Stress axis : x y z
#
# Youngs Moduli (GPa) = 78.05613 16.87391 42.34289
#
# Poissons Ratio (x) = 0.16855 0.07689
# Poissons Ratio (y) = 0.77970 1.06233
# Poissons Ratio (z) = 0.14174 0.42335
#
# Static dielectric constant tensor:
#      x y z
#    x 1.775400 0.000000 0.000000 
#    y 0.000000 1.696910 0.000000 
#    z 0.000000 0.000000 1.745430 
# 
# From -- ./inp_files/8014.got.cif
#   From: 2010.05.17/outbox.cif.g08.bks.cpg/sg51_5_cif.got.tgz:8014.got - 2010.06.03 11:52:47.
