data_PCOD9406138
_publ_section_title
;
Structure prediction by ZEFSAII (Michael W. Deem and Ramdas Pophale) SiO2 
 PCOD9406138
Probable space group: P M M A
;
_chemical_formula_sum "Si O2"
_cell_formula_units_Z 48
_cell_length_a 9.769759
_cell_length_b 7.772499
_cell_length_c 29.066175
_cell_angle_alpha 90.000000
_cell_angle_beta 90.000000
_cell_angle_gamma 90.000000
_cell_volume 2207.152848
_symmetry_space_group_name_H-M "P M M A"
_symmetry_group_IT_number 51
_symmetry_cell_setting 'orthorhombic'
loop_
_space_group_symop_operation_xyz
x,y,z
1/2-x,-y,z
1/2+x,-y,-z
-x,y,-z
-x,-y,-z
1/2+x,y,-z
1/2-x,y,z
x,-y,z
loop_
_atom_site_type_symbol
_atom_site_label
_atom_site_fract_x
_atom_site_fract_y
_atom_site_fract_z
Si Si1 0.905079 0.795253 0.715067
Si Si2 0.750000 0.195390 0.024333
Si Si3 0.102081 0.292349 0.794660
Si Si4 0.250000 0.697454 0.077266
Si Si5 0.090975 0.707336 0.456820
Si Si6 0.959342 0.290730 0.102194
Si Si7 0.907620 0.207320 0.368142
O O1 0.750000 0.725626 0.712076
O O2 0.975821 0.767205 0.764193
O O3 0.010500 0.726426 0.676667
O O4 0.895714 0.000000 0.707513
O O5 0.875997 0.229899 0.058111
O O6 0.750000 0.000000 0.008497
O O7 0.750000 0.303344 0.977965
O O8 0.250000 0.234730 0.775489
O O9 0.099985 0.500000 0.794448
O O10 0.093684 0.237515 0.847879
O O11 0.250000 0.500000 0.093527
O O12 0.387913 0.775555 0.096043
O O13 0.250000 0.769544 0.456078
O O14 0.098289 0.500000 0.460141
O O15 0.000000 0.770325 0.500000
O O16 0.003774 0.750925 0.411536
O O17 0.953835 0.500000 0.100840
O O18 0.750000 0.270944 0.372009
O O19 0.899068 0.000000 0.364915
#
# Coordination Sequence:
#
# PCOD9406138 Si02
#       7
#     8   4   8   4   8   8   8
#     4  10  22  39  59  85 117 152 188 231 287 346
#     4  12  24  38  58  86 118 152 186 230 283 336
#     4  10  21  38  61  86 112 144 188 238 281 331
#     4  10  22  38  62  86 110 150 192 232 283 336
#     4  10  21  37  58  85 118 156 198 246 300 351
#     4  10  21  40  62  84 112 148 191 234 279 337
#     4  10  21  38  60  85 115 155 200 242 285 342
#
# _framework density 21.747475999999999
#
# number of rings (size 3 to 8) (size 9 to 14) (size 15 to 20)
#    0.000    1.833    0.833    2.750    1.167    7.667 
#    0.000    0.000    0.000    0.000    0.000    0.000 
#    0.000    0.000    0.000    0.000    0.000    0.000 
#
# Total GULP energy -268088.485283 kJ/mol
# GULP energy per Si atom -5585.176777 kJ/mol
# Density = 2.169798 g / cm^3
# Si number density = 21.747476 Si / 1000 Ang^3
#
#
#
# Elastic Constant Matrix: (Units=GPa)
#
#
# Indices 1 2 3 4 5 6 
#
# 1 217.1502 7.7830 55.2996 0.0000 0.0000 0.0000
# 2 7.7830 33.9828 -8.7260 0.0000 0.0000 0.0000
# 3 55.2996 -8.7260 87.8444 0.0000 0.0000 0.0000
# 4 0.0000 0.0000 0.0000 20.4582 0.0000 0.0000
# 5 0.0000 0.0000 0.0000 0.0000 32.8177 0.0000
# 6 0.0000 0.0000 0.0000 0.0000 0.0000 4.8815
#
#
#
# Elastic Compliance Matrix: (Units=1/GPa)
#
#
# Indices 1 2 3 4 5 6 
#
# 1 0.005649 -0.002265 -0.003781 0.000000 0.000000 0.000000
# 2 -0.002265 0.031105 0.004515 0.000000 0.000000 0.000000
# 3 -0.003781 0.004515 0.014213 0.000000 0.000000 0.000000
# 4 0.000000 0.000000 0.000000 0.048880 0.000000 0.000000
# 5 0.000000 0.000000 0.000000 0.000000 0.030471 0.000000
# 6 0.000000 0.000000 0.000000 0.000000 0.000000 0.204857
#
#
# Mechanical properties :
#
#
# Convention : Reuss Voigt Hill
#
# Bulk Modulus (GPa) = 20.87436 49.74341 35.30889
# Shear Modulus (GPa) = 14.11613 30.60620 22.36117
#
# Velocity S-wave (km/s) = 2.55049 3.75553 3.21006
# Velocity P-wave (km/s) = 4.27700 6.45974 5.47818
#
# Compressibility (1/GPa) = 0.04790565
#
# Stress axis : x y z
#
# Youngs Moduli (GPa) = 177.01571 32.14938 70.35975
#
# Poissons Ratio (x) = 0.07281 0.26605
# Poissons Ratio (y) = 0.40090 -0.31771
# Poissons Ratio (z) = 0.66934 -0.14517
#
# Static dielectric constant tensor:
#      x y z
#    x 1.725990 0.000000 0.000000 
#    y 0.000000 1.810780 0.000000 
#    z 0.000000 0.000000 1.748390 
# 
# From -- ./inp_files/37125.got.cif
#   From: 2010.05.17/outbox.cif.g08.bks.cpg/sg51_19_cif.got.tgz:37125.got - 2010.06.03 11:52:47.
