data_PCOD9406170
_publ_section_title
;
Structure prediction by ZEFSAII (Michael W. Deem and Ramdas Pophale) SiO2 
 PCOD9406170
Probable space group: P M M A
;
_chemical_formula_sum "Si O2"
_cell_formula_units_Z 64
_cell_length_a 17.680179
_cell_length_b 19.532187
_cell_length_c 9.696556
_cell_angle_alpha 90.000000
_cell_angle_beta 90.000000
_cell_angle_gamma 90.000000
_cell_volume 3348.536530
_symmetry_space_group_name_H-M "P M M A"
_symmetry_group_IT_number 51
_symmetry_cell_setting 'orthorhombic'
loop_
_space_group_symop_operation_xyz
x,y,z
1/2-x,-y,z
1/2+x,-y,-z
-x,y,-z
-x,-y,-z
1/2+x,y,-z
1/2-x,y,z
x,-y,z
loop_
_atom_site_type_symbol
_atom_site_label
_atom_site_fract_x
_atom_site_fract_y
_atom_site_fract_z
Si Si1 0.835417 0.709728 0.989333
Si Si2 0.340564 0.077986 0.760653
Si Si3 0.086730 0.078244 0.048245
Si Si4 0.511681 0.578979 0.663162
Si Si5 0.159323 0.200795 0.559203
Si Si6 0.334932 0.420998 0.183303
Si Si7 0.599598 0.798237 0.750028
Si Si8 0.441668 0.283508 0.756213
O O1 0.750000 0.720808 0.041634
O O2 0.844869 0.631072 0.942558
O O3 0.848801 0.752236 0.850186
O O4 0.897955 0.728646 0.101123
O O5 0.250000 0.075411 0.758562
O O6 0.363539 0.132469 0.645115
O O7 0.369496 0.000000 0.738622
O O8 0.366274 0.100270 0.913105
O O9 0.095559 0.128551 0.175706
O O10 0.108303 0.000000 0.081623
O O11 0.000000 0.079181 0.000000
O O12 0.500000 0.587761 0.500000
O O13 0.492099 0.500000 0.698372
O O14 0.599091 0.590043 0.706038
O O15 0.464953 0.637357 0.740886
O O16 0.250000 0.208488 0.567663
O O17 0.132988 0.196683 0.402070
O O18 0.114930 0.261742 0.634621
O O19 0.250000 0.409186 0.239279
O O20 0.339689 0.500000 0.138759
O O21 0.517356 0.762136 0.747334
#
# Coordination Sequence:
#
# PCOD9406170 Si02
#       8
#     8   8   8   8   8   8   8   8
#     4  11  23  39  60  87 119 155 197 246 298 353
#     4   9  19  38  62  86 115 154 197 242 300 363
#     4  10  21  37  59  87 118 153 193 241 298 357
#     4  10  21  39  62  90 122 157 200 248 299 358
#     4  11  24  40  60  86 119 159 200 249 304 359
#     4   9  19  37  62  90 120 155 196 245 302 358
#     4  12  23  38  60  88 120 155 201 249 296 355
#     4  12  24  40  60  88 119 160 200 246 299 358
#
# _framework density 19.112826999999999
#
# number of rings (size 3 to 8) (size 9 to 14) (size 15 to 20)
#    0.000    1.500    1.250    4.500    0.000    3.000 
#    0.000    1.875    0.000    5.625    0.000    0.000 
#    0.000    0.000    0.000    0.000    0.000    0.000 
#
# Total GULP energy -357555.592157 kJ/mol
# GULP energy per Si atom -5586.806127 kJ/mol
# Density = 1.906933 g / cm^3
# Si number density = 19.112827 Si / 1000 Ang^3
#
#
#
# Elastic Constant Matrix: (Units=GPa)
#
#
# Indices 1 2 3 4 5 6 
#
# 1 75.3928 43.5363 31.2989 0.0000 0.0000 0.0000
# 2 43.5363 98.0569 49.5478 0.0000 0.0000 0.0000
# 3 31.2989 49.5478 94.3458 0.0000 0.0000 0.0000
# 4 0.0000 0.0000 0.0000 7.7669 0.0000 0.0000
# 5 0.0000 0.0000 0.0000 0.0000 35.7299 0.0000
# 6 0.0000 0.0000 0.0000 0.0000 0.0000 20.5938
#
#
#
# Elastic Compliance Matrix: (Units=1/GPa)
#
#
# Indices 1 2 3 4 5 6 
#
# 1 0.018243 -0.006863 -0.002448 0.000000 0.000000 0.000000
# 2 -0.006863 0.016464 -0.006370 0.000000 0.000000 0.000000
# 3 -0.002448 -0.006370 0.014757 0.000000 0.000000 0.000000
# 4 0.000000 0.000000 0.000000 0.128752 0.000000 0.000000
# 5 0.000000 0.000000 0.000000 0.000000 0.027988 0.000000
# 6 0.000000 0.000000 0.000000 0.000000 0.000000 0.048558
#
#
# Mechanical properties :
#
#
# Convention : Reuss Voigt Hill
#
# Bulk Modulus (GPa) = 55.24039 57.39573 56.31806
# Shear Modulus (GPa) = 17.11412 22.37893 19.74652
#
# Velocity S-wave (km/s) = 2.99561 3.42553 3.21776
# Velocity P-wave (km/s) = 6.39765 6.76320 6.58296
#
# Compressibility (1/GPa) = 0.01810270
#
# Stress axis : x y z
#
# Youngs Moduli (GPa) = 54.81520 60.73959 67.76665
#
# Poissons Ratio (x) = 0.41685 0.16589
# Poissons Ratio (y) = 0.37619 0.43164
# Poissons Ratio (z) = 0.13418 0.38689
#
# Static dielectric constant tensor:
#      x y z
#    x 1.660670 0.000000 0.000000 
#    y 0.000000 1.701990 0.000000 
#    z 0.000000 0.000000 1.624840 
# 
# From -- ./inp_files/10041.got.cif
#   From: 2010.05.17/outbox.cif.g08.bks.cpg/sg51_6_cif.got.tgz:10041.got - 2010.06.03 11:52:47.
