data_PCOD9406702
_publ_section_title
;
Structure prediction by ZEFSAII (Michael W. Deem and Ramdas Pophale) SiO2 
 PCOD9406702
Probable space group: P M M A
;
_chemical_formula_sum "Si O2"
_cell_formula_units_Z 48
_cell_length_a 19.201476
_cell_length_b 14.990582
_cell_length_c 8.874329
_cell_angle_alpha 90.000000
_cell_angle_beta 90.000000
_cell_angle_gamma 90.000000
_cell_volume 2554.398400
_symmetry_space_group_name_H-M "P M M A"
_symmetry_group_IT_number 51
_symmetry_cell_setting 'orthorhombic'
loop_
_space_group_symop_operation_xyz
x,y,z
1/2-x,-y,z
1/2+x,-y,-z
-x,y,-z
-x,-y,-z
1/2+x,y,-z
1/2-x,y,z
x,-y,z
loop_
_atom_site_type_symbol
_atom_site_label
_atom_site_fract_x
_atom_site_fract_y
_atom_site_fract_z
Si Si1 0.566761 0.244056 0.595484
Si Si2 0.954281 0.104803 0.851997
Si Si3 0.333412 0.761589 0.671166
Si Si4 0.592942 0.603678 0.158977
Si Si5 0.831440 0.898062 0.062332
Si Si6 0.074940 0.603496 0.185108
O O1 0.500000 0.275793 0.500000
O O2 0.538298 0.168742 0.709871
O O3 0.625508 0.212214 0.479517
O O4 0.597703 0.325319 0.692387
O O5 0.967049 0.000000 0.818583
O O6 0.876163 0.117185 0.913649
O O7 0.000000 0.128666 0.000000
O O8 0.250000 0.757703 0.651368
O O9 0.364721 0.668662 0.733140
O O10 0.349911 0.832361 0.802765
O O11 0.610753 0.500000 0.183858
O O12 0.509458 0.612008 0.179986
O O13 0.603900 0.624435 0.981569
O O14 0.750000 0.888761 0.031377
O O15 0.845876 0.000000 0.110134
O O16 0.090792 0.500000 0.219134
#
# Coordination Sequence:
#
# PCOD9406702 Si02
#       6
#     8   8   8   8   8   8
#     4  12  23  34  56  83 116 152 184 225 282 342
#     4  10  22  38  58  83 110 142 187 239 283 325
#     4  11  23  37  54  84 120 151 182 226 287 345
#     4   9  18  36  60  83 107 143 190 235 274 322
#     4   9  19  38  61  79 102 144 192 230 268 326
#     4   9  19  35  59  85 107 140 194 240 267 316
#
# _framework density 18.791117
#
# number of rings (size 3 to 8) (size 9 to 14) (size 15 to 20)
#    0.000    2.000    1.667    3.000    2.333    3.000 
#    0.000    0.833    0.000    1.000    0.000    0.000 
#    0.000    0.000    0.000    0.000    0.000    0.000 
#
# Total GULP energy -267930.576369 kJ/mol
# GULP energy per Si atom -5581.887008 kJ/mol
# Density = 1.874835 g / cm^3
# Si number density = 18.791117 Si / 1000 Ang^3
#
#
#
# Elastic Constant Matrix: (Units=GPa)
#
#
# Indices 1 2 3 4 5 6 
#
# 1 29.0730 6.6199 11.2015 0.0000 0.0000 0.0000
# 2 6.6199 47.9248 34.1049 0.0000 0.0000 0.0000
# 3 11.2015 34.1049 68.4104 0.0000 0.0000 0.0000
# 4 0.0000 0.0000 0.0000 -8.1746 0.0000 0.0000
# 5 0.0000 0.0000 0.0000 0.0000 30.2976 0.0000
# 6 0.0000 0.0000 0.0000 0.0000 0.0000 17.3967
#
#
#
# Elastic Compliance Matrix: (Units=1/GPa)
#
#
# Indices 1 2 3 4 5 6 
#
# 1 0.036759 -0.001231 -0.005405 0.000000 0.000000 0.000000
# 2 -0.001231 0.032380 -0.015941 0.000000 0.000000 0.000000
# 3 -0.005405 -0.015941 0.023450 0.000000 0.000000 0.000000
# 4 0.000000 0.000000 0.000000 -0.122330 0.000000 0.000000
# 5 0.000000 0.000000 0.000000 0.000000 0.033006 0.000000
# 6 0.000000 0.000000 0.000000 0.000000 0.000000 0.057482
#
#
# Mechanical properties :
#
#
# Convention : Reuss Voigt Hill
#
# Bulk Modulus (GPa) = 21.08169 27.69565 24.38867
# Shear Modulus (GPa) = 41.08013 14.13606 27.60809
#
# Velocity S-wave (km/s) = 4.68070 2.74574 3.83719
# Velocity P-wave (km/s) = 6.36044 4.98225 5.71305
#
# Compressibility (1/GPa) = 0.04743453
#
# Stress axis : x y z
#
# Youngs Moduli (GPa) = 27.20421 30.88298 42.64406
#
# Poissons Ratio (x) = 0.03802 0.23050
# Poissons Ratio (y) = 0.03349 0.67979
# Poissons Ratio (z) = 0.14704 0.49231
#
# Static dielectric constant tensor:
#      x y z
#    x 1.656390 0.000000 0.000000 
#    y 0.000000 1.666650 0.000000 
#    z 0.000000 0.000000 1.645590 
# 
# From -- ./inp_files/9568.got.cif
#   From: 2010.05.17/outbox.cif.g08.bks.cpg/sg51_5_cif.got.tgz:9568.got - 2010.06.03 11:52:47.
