data_PCOD9406833
_publ_section_title
;
Structure prediction by ZEFSAII (Michael W. Deem and Ramdas Pophale) SiO2 
 PCOD9406833
Probable space group: P M M A
;
_chemical_formula_sum "Si O2"
_cell_formula_units_Z 28
_cell_length_a 20.291084
_cell_length_b 10.927943
_cell_length_c 5.850732
_cell_angle_alpha 90.000000
_cell_angle_beta 90.000000
_cell_angle_gamma 90.000000
_cell_volume 1297.340198
_symmetry_space_group_name_H-M "P M M A"
_symmetry_group_IT_number 51
_symmetry_cell_setting 'orthorhombic'
loop_
_space_group_symop_operation_xyz
x,y,z
1/2-x,-y,z
1/2+x,-y,-z
-x,y,-z
-x,-y,-z
1/2+x,y,-z
1/2-x,y,z
x,-y,z
loop_
_atom_site_type_symbol
_atom_site_label
_atom_site_fract_x
_atom_site_fract_y
_atom_site_fract_z
Si Si1 0.322671 0.634518 0.819009
Si Si2 0.175840 0.141286 0.171924
Si Si3 0.924128 0.766706 0.452039
Si Si4 0.464097 0.000000 0.756659
O O1 0.250000 0.637553 0.708514
O O2 0.329985 0.500000 0.928347
O O3 0.380249 0.656583 0.638754
O O4 0.323900 0.747519 0.993159
O O5 0.250000 0.144642 0.281036
O O6 0.115733 0.171040 0.341009
O O7 0.168886 0.000000 0.088551
O O8 0.926487 0.872665 0.260308
O O9 0.000000 0.733248 0.500000
O O10 0.500000 0.000000 0.500000
O O11 0.500000 0.000000 0.000000
#
# Coordination Sequence:
#
# PCOD9406833 Si02
#       4
#     8   8   8   4
#     4  10  24  44  65  91 130 179 226 283 356 431
#     4  10  22  41  66  97 128 169 226 284 345 415
#     4  11  24  38  66  98 134 175 226 287 355 418
#     4  10  24  40  65 102 147 186 223 280 363 426
#
# _framework density 21.582619999999999
#
# number of rings (size 3 to 8) (size 9 to 14) (size 15 to 20)
#    0.000    1.714    1.429    0.857   10.000    1.714 
#    0.000    4.286    0.000    0.000    0.000    0.000 
#    0.000    0.000    0.000    0.000    0.000    0.000 
#
# Total GULP energy -156052.745967 kJ/mol
# GULP energy per Si atom -5573.312356 kJ/mol
# Density = 2.153350 g / cm^3
# Si number density = 21.582620 Si / 1000 Ang^3
#
#
#
# Elastic Constant Matrix: (Units=GPa)
#
#
# Indices 1 2 3 4 5 6 
#
# 1 195.7352 63.0282 55.2662 0.0000 0.0000 0.0000
# 2 63.0282 158.5183 47.3703 0.0000 0.0000 0.0000
# 3 55.2662 47.3703 55.2806 0.0000 0.0000 0.0000
# 4 0.0000 0.0000 0.0000 19.0023 0.0000 0.0000
# 5 0.0000 0.0000 0.0000 0.0000 37.5103 0.0000
# 6 0.0000 0.0000 0.0000 0.0000 0.0000 21.2188
#
#
#
# Elastic Compliance Matrix: (Units=1/GPa)
#
#
# Indices 1 2 3 4 5 6 
#
# 1 0.007225 -0.000960 -0.006401 0.000000 0.000000 0.000000
# 2 -0.000960 0.008607 -0.006416 0.000000 0.000000 0.000000
# 3 -0.006401 -0.006416 0.029986 0.000000 0.000000 0.000000
# 4 0.000000 0.000000 0.000000 0.052625 0.000000 0.000000
# 5 0.000000 0.000000 0.000000 0.000000 0.026659 0.000000
# 6 0.000000 0.000000 0.000000 0.000000 0.000000 0.047128
#
#
# Mechanical properties :
#
#
# Convention : Reuss Voigt Hill
#
# Bulk Modulus (GPa) = 54.74742 82.31817 68.53279
# Shear Modulus (GPa) = 24.28666 31.80421 28.04544
#
# Velocity S-wave (km/s) = 3.35817 3.84292 3.60869
# Velocity P-wave (km/s) = 6.36065 7.61015 7.01329
#
# Compressibility (1/GPa) = 0.01826570
#
# Stress axis : x y z
#
# Youngs Moduli (GPa) = 138.40106 116.17841 33.34837
#
# Poissons Ratio (x) = 0.11154 0.21346
# Poissons Ratio (y) = 0.13288 0.21396
# Poissons Ratio (z) = 0.88587 0.74539
#
# Static dielectric constant tensor:
#      x y z
#    x 1.857530 0.000000 0.000000 
#    y 0.000000 1.794970 0.000000 
#    z 0.000000 0.000000 1.800790 
# 
# From -- ./inp_files/2276.got.cif
#   From: 2010.05.17/outbox.cif.g08.bks.cpg/sg51_2_cif.got.tgz:2276.got - 2010.06.03 11:52:47.
