data_PCOD9406010
_publ_section_title
;
Structure prediction by ZEFSAII (Michael W. Deem and Ramdas Pophale) SiO2 
 PCOD9406010
Probable space group: P M M A
;
_chemical_formula_sum "Si O2"
_cell_formula_units_Z 48
_cell_length_a 9.662011
_cell_length_b 8.109347
_cell_length_c 32.502089
_cell_angle_alpha 90.000000
_cell_angle_beta 90.000000
_cell_angle_gamma 90.000000
_cell_volume 2546.623176
_symmetry_space_group_name_H-M "P M M A"
_symmetry_group_IT_number 51
_symmetry_cell_setting 'orthorhombic'
loop_
_space_group_symop_operation_xyz
x,y,z
1/2-x,-y,z
1/2+x,-y,-z
-x,y,-z
-x,-y,-z
1/2+x,y,-z
1/2-x,y,z
x,-y,z
loop_
_atom_site_type_symbol
_atom_site_label
_atom_site_fract_x
_atom_site_fract_y
_atom_site_fract_z
Si Si1 0.089536 0.202176 0.961205
Si Si2 0.581495 0.191175 0.128220
Si Si3 0.591354 0.699177 0.461860
Si Si4 0.092897 0.303490 0.294545
Si Si5 0.591201 0.803188 0.371252
Si Si6 0.908768 0.800735 0.217804
O O1 0.250000 0.248563 0.966411
O O2 0.039641 0.261918 0.916115
O O3 0.085629 0.000000 0.959977
O O4 0.000000 0.256308 0.000000
O O5 0.750000 0.189952 0.127795
O O6 0.543988 0.263368 0.172734
O O7 0.535384 0.000000 0.128342
O O8 0.500000 0.758638 0.500000
O O9 0.750000 0.756665 0.466095
O O10 0.591509 0.500000 0.462840
O O11 0.542051 0.751816 0.416696
O O12 0.250000 0.237400 0.295503
O O13 0.099745 0.500000 0.292685
O O14 0.007770 0.256876 0.335223
O O15 0.009052 0.244491 0.254673
O O16 0.750000 0.740266 0.366076
O O17 0.596372 0.000000 0.369365
O O18 0.750000 0.745125 0.225617
O O19 0.903796 0.000000 0.214957
#
# Coordination Sequence:
#
# PCOD9406010 Si02
#       6
#     8   8   8   8   8   8
#     4   8  12  18  29  47  75 111 147 181 218 264
#     4   7  11  21  37  57  82 113 148 186 229 276
#     4   9  18  33  53  77 106 139 172 205 241 282
#     4  11  24  38  51  71 100 131 162 199 246 298
#     4  10  21  37  57  80 104 132 169 209 246 288
#     4   9  17  31  52  74  94 121 160 202 243 290
#
# _framework density 18.848490000000002
#
# number of rings (size 3 to 8) (size 9 to 14) (size 15 to 20)
#    0.000    3.000    0.000    3.500    0.000    5.667 
#    0.000    2.500    0.000    3.000    0.000    0.000 
#    0.000    0.667    0.000    1.500    0.000    4.333 
#
# Total GULP energy -267444.690144 kJ/mol
# GULP energy per Si atom -5571.764378 kJ/mol
# Density = 1.880559 g / cm^3
# Si number density = 18.848490 Si / 1000 Ang^3
#
#
#
# Elastic Constant Matrix: (Units=GPa)
#
#
# Indices 1 2 3 4 5 6 
#
# 1 86.3399 9.8682 107.6121 0.0000 0.0000 0.0000
# 2 9.8682 14.1479 14.9899 0.0000 0.0000 0.0000
# 3 107.6121 14.9899 236.1430 0.0000 0.0000 0.0000
# 4 0.0000 0.0000 0.0000 61.9884 0.0000 0.0000
# 5 0.0000 0.0000 0.0000 0.0000 35.5293 0.0000
# 6 0.0000 0.0000 0.0000 0.0000 0.0000 3.9831
#
#
#
# Elastic Compliance Matrix: (Units=1/GPa)
#
#
# Indices 1 2 3 4 5 6 
#
# 1 0.027321 -0.006288 -0.012051 0.000000 0.000000 0.000000
# 2 -0.006288 0.077226 -0.002037 0.000000 0.000000 0.000000
# 3 -0.012051 -0.002037 0.009856 0.000000 0.000000 0.000000
# 4 0.000000 0.000000 0.000000 0.016132 0.000000 0.000000
# 5 0.000000 0.000000 0.000000 0.000000 0.028146 0.000000
# 6 0.000000 0.000000 0.000000 0.000000 0.000000 0.251062
#
#
# Mechanical properties :
#
#
# Convention : Reuss Voigt Hill
#
# Bulk Modulus (GPa) = 13.57757 66.84123 40.20940
# Shear Modulus (GPa) = 10.52530 33.91087 22.21809
#
# Velocity S-wave (km/s) = 2.36565 4.24622 3.43705
# Velocity P-wave (km/s) = 3.83156 7.71880 6.09347
#
# Compressibility (1/GPa) = 0.07365086
#
# Stress axis : x y z
#
# Youngs Moduli (GPa) = 36.60128 12.94905 101.46181
#
# Poissons Ratio (x) = 0.08142 1.22276
# Poissons Ratio (y) = 0.23015 0.20664
# Poissons Ratio (z) = 0.44110 0.02637
#
# Static dielectric constant tensor:
#      x y z
#    x 1.647050 0.000000 0.000000 
#    y 0.000000 1.678510 0.000000 
#    z 0.000000 0.000000 1.674420 
# 
# From -- ./inp_files/37025.got.cif
#   From: 2010.05.17/outbox.cif.g08.bks.cpg/sg51_19_cif.got.tgz:37025.got - 2010.06.03 11:52:47.
