data_PCOD9406605
_publ_section_title
;
Structure prediction by ZEFSAII (Michael W. Deem and Ramdas Pophale) SiO2 
 PCOD9406605
Probable space group: P M M A
;
_chemical_formula_sum "Si O2"
_cell_formula_units_Z 24
_cell_length_a 10.864243
_cell_length_b 17.069643
_cell_length_c 6.063117
_cell_angle_alpha 90.000000
_cell_angle_beta 90.000000
_cell_angle_gamma 90.000000
_cell_volume 1124.397466
_symmetry_space_group_name_H-M "P M M A"
_symmetry_group_IT_number 51
_symmetry_cell_setting 'orthorhombic'
loop_
_space_group_symop_operation_xyz
x,y,z
1/2-x,-y,z
1/2+x,-y,-z
-x,y,-z
-x,-y,-z
1/2+x,y,-z
1/2-x,y,z
x,-y,z
loop_
_atom_site_type_symbol
_atom_site_label
_atom_site_fract_x
_atom_site_fract_y
_atom_site_fract_z
Si Si1 0.000000 0.290409 0.500000
Si Si2 0.112150 0.589655 0.829572
Si Si3 0.383403 0.174973 0.160538
Si Si4 0.940385 0.000000 0.747519
O O1 0.914613 0.346663 0.354788
O O2 0.913463 0.234824 0.645426
O O3 0.250000 0.600238 0.925143
O O4 0.106859 0.500000 0.744019
O O5 0.000000 0.597973 0.000000
O O6 0.250000 0.192246 0.056540
O O7 0.379692 0.085593 0.245994
O O8 0.500000 0.181884 0.000000
O O9 0.000000 0.000000 0.500000
O O10 0.000000 0.000000 0.000000
#
# Coordination Sequence:
#
# PCOD9406605 Si02
#       4
#     4   8   8   4
#     4  12  23  39  66  98 132 170 222 277 345 408
#     4  10  23  43  66  93 127 170 219 274 337 410
#     4  11  25  44  67  98 136 180 229 285 346 413
#     4  10  21  46  70 103 137 188 238 292 347 417
#
# _framework density 21.344764000000001
#
# number of rings (size 3 to 8) (size 9 to 14) (size 15 to 20)
#    0.000    1.333    1.667    3.000    0.000    8.000 
#    0.000    5.000    0.000    0.000    0.000    0.000 
#    0.000    0.000    0.000    0.000    0.000    0.000 
#
# Total GULP energy -133785.106789 kJ/mol
# GULP energy per Si atom -5574.379450 kJ/mol
# Density = 2.129618 g / cm^3
# Si number density = 21.344764 Si / 1000 Ang^3
#
#
#
# Elastic Constant Matrix: (Units=GPa)
#
#
# Indices 1 2 3 4 5 6 
#
# 1 204.3138 63.0216 68.9834 0.0000 0.0000 0.0000
# 2 63.0216 166.8042 66.5721 0.0000 0.0000 0.0000
# 3 68.9834 66.5721 92.1127 0.0000 0.0000 0.0000
# 4 0.0000 0.0000 0.0000 76.5206 0.0000 0.0000
# 5 0.0000 0.0000 0.0000 0.0000 23.9421 0.0000
# 6 0.0000 0.0000 0.0000 0.0000 0.0000 -77.4320
#
#
#
# Elastic Compliance Matrix: (Units=1/GPa)
#
#
# Indices 1 2 3 4 5 6 
#
# 1 0.006614 -0.000734 -0.004423 0.000000 0.000000 0.000000
# 2 -0.000734 0.008507 -0.005599 0.000000 0.000000 0.000000
# 3 -0.004423 -0.005599 0.018215 0.000000 0.000000 0.000000
# 4 0.000000 0.000000 0.000000 0.013068 0.000000 0.000000
# 5 0.000000 0.000000 0.000000 0.000000 0.041767 0.000000
# 6 0.000000 0.000000 0.000000 0.000000 0.000000 -0.012915
#
#
# Mechanical properties :
#
#
# Convention : Reuss Voigt Hill
#
# Bulk Modulus (GPa) = 84.56568 95.59832 90.08200
# Shear Modulus (GPa) = 49.64794 22.24972 35.94883
#
# Velocity S-wave (km/s) = 4.82810 3.23212 4.10835
# Velocity P-wave (km/s) = 8.41342 7.66901 8.04982
#
# Compressibility (1/GPa) = 0.01182513
#
# Stress axis : x y z
#
# Youngs Moduli (GPa) = 151.19165 117.55539 54.90011
#
# Poissons Ratio (x) = 0.08625 0.24283
# Poissons Ratio (y) = 0.11092 0.30736
# Poissons Ratio (z) = 0.66873 0.65813
#
# Static dielectric constant tensor:
#      x y z
#    x 1.851930 0.000000 0.000000 
#    y 0.000000 1.759640 0.000000 
#    z 0.000000 0.000000 1.815540 
# 
# From -- ./inp_files/522.got.cif
#   From: 2010.05.17/outbox.cif.g08.bks.cpg/sg51_1_cif.got.tgz:522.got - 2010.06.03 11:52:47.
