data_PCOD9406145
_publ_section_title
;
Structure prediction by ZEFSAII (Michael W. Deem and Ramdas Pophale) SiO2 
 PCOD9406145
Probable space group: P M M A
;
_chemical_formula_sum "Si O2"
_cell_formula_units_Z 64
_cell_length_a 8.938016
_cell_length_b 25.101885
_cell_length_c 15.495100
_cell_angle_alpha 90.000000
_cell_angle_beta 90.000000
_cell_angle_gamma 90.000000
_cell_volume 3476.496902
_symmetry_space_group_name_H-M "P M M A"
_symmetry_group_IT_number 51
_symmetry_cell_setting 'orthorhombic'
loop_
_space_group_symop_operation_xyz
x,y,z
1/2-x,-y,z
1/2+x,-y,-z
-x,y,-z
-x,-y,-z
1/2+x,y,-z
1/2-x,y,z
x,-y,z
loop_
_atom_site_type_symbol
_atom_site_label
_atom_site_fract_x
_atom_site_fract_y
_atom_site_fract_z
Si Si1 0.569923 0.358637 0.771112
Si Si2 0.927781 0.328854 0.410461
Si Si3 0.429086 0.939928 0.764305
Si Si4 0.427216 0.436346 0.907988
Si Si5 0.071861 0.903341 0.411961
Si Si6 0.577175 0.218688 0.627090
Si Si7 0.077795 0.758827 0.170805
Si Si8 0.572190 0.856704 0.090065
O O1 0.750000 0.361162 0.763262
O O2 0.499039 0.354997 0.675520
O O3 0.505511 0.405570 0.829662
O O4 0.533457 0.302819 0.819667
O O5 0.750000 0.335488 0.410924
O O6 0.000000 0.348739 0.500000
O O7 0.971181 0.266148 0.403619
O O8 0.250000 0.934092 0.752898
O O9 0.506467 0.930544 0.672828
O O10 0.479227 0.896044 0.833468
O O11 0.458710 0.000000 0.795040
O O12 0.250000 0.424959 0.909227
O O13 0.447037 0.500000 0.898223
O O14 0.500000 0.421017 0.000000
O O15 0.250000 0.908896 0.414209
O O16 0.036677 0.840041 0.403971
O O17 0.000000 0.923949 0.500000
O O18 0.750000 0.230888 0.601869
O O19 0.572726 0.219416 0.731032
O O20 0.250000 0.761816 0.140845
O O21 0.976940 0.796830 0.113601
O O22 0.750000 0.859997 0.084312
O O23 0.500000 0.872548 0.000000
#
# Coordination Sequence:
#
# PCOD9406145 Si02
#       8
#     8   8   8   8   8   8   8   8
#     4  10  21  37  58  86 120 158 198 243 291 343
#     4  11  21  33  52  80 117 158 199 240 285 340
#     4  10  23  43  62  81 107 139 181 233 283 337
#     4  10  21  38  61  89 120 156 200 248 296 346
#     4  11  22  36  57  84 112 144 182 225 276 336
#     4   9  18  33  53  79 111 146 184 228 276 331
#     4   9  18  35  56  81 115 148 182 227 276 331
#     4  11  23  38  60  85 110 143 181 225 281 341
#
# _framework density 18.409336
#
# number of rings (size 3 to 8) (size 9 to 14) (size 15 to 20)
#    0.000    1.875    1.250    3.750    0.000    7.000 
#    0.000    0.000    0.000    0.375    0.000    0.000 
#    0.000    0.000    0.000    0.000    0.000    0.000 
#
# Total GULP energy -357463.188518 kJ/mol
# GULP energy per Si atom -5585.362321 kJ/mol
# Density = 1.836744 g / cm^3
# Si number density = 18.409336 Si / 1000 Ang^3
#
#
#
# Elastic Constant Matrix: (Units=GPa)
#
#
# Indices 1 2 3 4 5 6 
#
# 1 73.4234 43.7457 55.7522 0.0000 0.0000 0.0000
# 2 43.7457 56.3208 46.4873 0.0000 0.0000 0.0000
# 3 55.7522 46.4873 116.1666 0.0000 0.0000 0.0000
# 4 0.0000 0.0000 0.0000 -3.9736 0.0000 0.0000
# 5 0.0000 0.0000 0.0000 0.0000 34.4175 0.0000
# 6 0.0000 0.0000 0.0000 0.0000 0.0000 24.4570
#
#
#
# Elastic Compliance Matrix: (Units=1/GPa)
#
#
# Indices 1 2 3 4 5 6 
#
# 1 0.028998 -0.016480 -0.007322 0.000000 0.000000 0.000000
# 2 -0.016480 0.035878 -0.006449 0.000000 0.000000 0.000000
# 3 -0.007322 -0.006449 0.014703 0.000000 0.000000 0.000000
# 4 0.000000 0.000000 0.000000 -0.251658 0.000000 0.000000
# 5 0.000000 0.000000 0.000000 0.000000 0.029055 0.000000
# 6 0.000000 0.000000 0.000000 0.000000 0.000000 0.040888
#
#
# Mechanical properties :
#
#
# Convention : Reuss Voigt Hill
#
# Bulk Modulus (GPa) = 52.41534 59.76455 56.08995
# Shear Modulus (GPa) = -141.74638 17.64188 -62.05225
#
# Velocity S-wave (km/s) = -8.78431 3.09902 -5.81207
# Velocity P-wave (km/s) = 8.62274 6.73350 3.80865
#
# Compressibility (1/GPa) = 0.01907838
#
# Stress axis : x y z
#
# Youngs Moduli (GPa) = 34.48471 27.87203 68.01259
#
# Poissons Ratio (x) = 0.45932 0.49802
# Poissons Ratio (y) = 0.56830 0.43858
# Poissons Ratio (z) = 0.25251 0.17973
#
# Static dielectric constant tensor:
#      x y z
#    x 1.618160 0.000000 0.000000 
#    y 0.000000 1.624600 0.000000 
#    z 0.000000 0.000000 1.627110 
# 
# From -- ./inp_files/22230.got.cif
#   From: 2010.05.17/outbox.cif.g08.bks.cpg/sg51_12_cif.got.tgz:22230.got - 2010.06.03 11:52:47.
