data_PCOD9406373
_publ_section_title
;
Structure prediction by ZEFSAII (Michael W. Deem and Ramdas Pophale) SiO2 
 PCOD9406373
Probable space group: P M M A
;
_chemical_formula_sum "Si O2"
_cell_formula_units_Z 48
_cell_length_a 9.579706
_cell_length_b 7.804785
_cell_length_c 31.964864
_cell_angle_alpha 90.000000
_cell_angle_beta 90.000000
_cell_angle_gamma 90.000000
_cell_volume 2389.934430
_symmetry_space_group_name_H-M "P M M A"
_symmetry_group_IT_number 51
_symmetry_cell_setting 'orthorhombic'
loop_
_space_group_symop_operation_xyz
x,y,z
1/2-x,-y,z
1/2+x,-y,-z
-x,y,-z
-x,-y,-z
1/2+x,y,-z
1/2-x,y,z
x,-y,z
loop_
_atom_site_type_symbol
_atom_site_label
_atom_site_fract_x
_atom_site_fract_y
_atom_site_fract_z
Si Si1 0.908779 0.202708 0.882348
Si Si2 0.910987 0.707125 0.197428
Si Si3 0.090489 0.793855 0.461156
Si Si4 0.589146 0.290871 0.291367
Si Si5 0.591756 0.703754 0.038311
Si Si6 0.909379 0.293623 0.630592
O O1 0.750000 0.271935 0.883702
O O2 0.983388 0.235074 0.838120
O O3 0.007088 0.273384 0.918911
O O4 0.901137 0.000000 0.888826
O O5 0.750000 0.762760 0.189466
O O6 0.909444 0.500000 0.197113
O O7 0.951919 0.763020 0.244411
O O8 0.250000 0.728641 0.463189
O O9 0.032564 0.751140 0.415192
O O10 0.000000 0.729185 0.500000
O O11 0.095655 0.000000 0.464165
O O12 0.750000 0.241542 0.297635
O O13 0.584549 0.500000 0.291477
O O14 0.495694 0.229496 0.329707
O O15 0.750000 0.773378 0.040310
O O16 0.604404 0.500000 0.031335
O O17 0.500000 0.775633 0.000000
O O18 0.750000 0.229473 0.632225
O O19 0.905838 0.500000 0.633166
#
# Coordination Sequence:
#
# PCOD9406373 Si02
#       6
#     8   8   8   8   8   8
#     4  11  24  38  52  76 110 144 177 213 255 303
#     4   9  18  34  56  79 102 132 172 214 255 301
#     4   9  18  32  47  63  87 120 155 191 233 281
#     4   8  15  29  49  73  99 125 156 197 243 290
#     4  10  21  38  61  86 109 136 173 215 258 305
#     4   9  17  29  46  69  95 121 152 191 235 284
#
# _framework density 20.084230999999999
#
# number of rings (size 3 to 8) (size 9 to 14) (size 15 to 20)
#    0.000    2.667    0.000    2.500    0.000    6.667 
#    0.000    2.500    0.000    3.000    0.000    0.000 
#    0.000    0.000    0.000    0.000    0.000    0.000 
#
# Total GULP energy -267800.882026 kJ/mol
# GULP energy per Si atom -5579.185042 kJ/mol
# Density = 2.003852 g / cm^3
# Si number density = 20.084231 Si / 1000 Ang^3
#
#
#
# Elastic Constant Matrix: (Units=GPa)
#
#
# Indices 1 2 3 4 5 6 
#
# 1 135.1291 6.0924 112.0728 0.0000 0.0000 0.0000
# 2 6.0924 23.7833 -4.3016 0.0000 0.0000 0.0000
# 3 112.0728 -4.3016 185.9660 0.0000 0.0000 0.0000
# 4 0.0000 0.0000 0.0000 68.0835 0.0000 0.0000
# 5 0.0000 0.0000 0.0000 0.0000 41.7272 0.0000
# 6 0.0000 0.0000 0.0000 0.0000 0.0000 9.5478
#
#
#
# Elastic Compliance Matrix: (Units=1/GPa)
#
#
# Indices 1 2 3 4 5 6 
#
# 1 0.015527 -0.005694 -0.009489 0.000000 0.000000 0.000000
# 2 -0.005694 0.044311 0.004456 0.000000 0.000000 0.000000
# 3 -0.009489 0.004456 0.011199 0.000000 0.000000 0.000000
# 4 0.000000 0.000000 0.000000 0.014688 0.000000 0.000000
# 5 0.000000 0.000000 0.000000 0.000000 0.023965 0.000000
# 6 0.000000 0.000000 0.000000 0.000000 0.000000 0.104736
#
#
# Mechanical properties :
#
#
# Convention : Reuss Voigt Hill
#
# Bulk Modulus (GPa) = 20.16786 63.62285 41.89536
# Shear Modulus (GPa) = 19.80923 39.27267 29.54095
#
# Velocity S-wave (km/s) = 3.14396 4.42679 3.83933
# Velocity P-wave (km/s) = 4.82107 7.60759 6.36860
#
# Compressibility (1/GPa) = 0.04958383
#
# Stress axis : x y z
#
# Youngs Moduli (GPa) = 64.40351 22.56784 89.29322
#
# Poissons Ratio (x) = 0.12850 0.84732
# Poissons Ratio (y) = 0.36670 -0.39792
# Poissons Ratio (z) = 0.61113 -0.10057
#
# Static dielectric constant tensor:
#      x y z
#    x 1.706410 0.000000 0.000000 
#    y 0.000000 1.735110 0.000000 
#    z 0.000000 0.000000 1.694380 
# 
# From -- ./inp_files/36903.got.cif
#   From: 2010.05.17/outbox.cif.g08.bks.cpg/sg51_19_cif.got.tgz:36903.got - 2010.06.03 11:52:47.
