data_PCOD9406310
_publ_section_title
;
Structure prediction by ZEFSAII (Michael W. Deem and Ramdas Pophale) SiO2 
 PCOD9406310
Probable space group: P M M A
;
_chemical_formula_sum "Si O2"
_cell_formula_units_Z 64
_cell_length_a 8.389231
_cell_length_b 24.484258
_cell_length_c 15.686144
_cell_angle_alpha 90.000000
_cell_angle_beta 90.000000
_cell_angle_gamma 90.000000
_cell_volume 3221.998232
_symmetry_space_group_name_H-M "P M M A"
_symmetry_group_IT_number 51
_symmetry_cell_setting 'orthorhombic'
loop_
_space_group_symop_operation_xyz
x,y,z
1/2-x,-y,z
1/2+x,-y,-z
-x,y,-z
-x,-y,-z
1/2+x,y,-z
1/2-x,y,z
x,-y,z
loop_
_atom_site_type_symbol
_atom_site_label
_atom_site_fract_x
_atom_site_fract_y
_atom_site_fract_z
Si Si1 0.434457 0.181669 0.858378
Si Si2 0.057079 0.059606 0.902509
Si Si3 0.437935 0.701194 0.091827
Si Si4 0.558498 0.651712 0.268343
Si Si5 0.057911 0.939520 0.404854
Si Si6 0.557426 0.563406 0.405465
Si Si7 0.937525 0.832673 0.682488
Si Si8 0.939872 0.738425 0.412452
O O1 0.250000 0.181928 0.884433
O O2 0.499844 0.119738 0.871887
O O3 0.514686 0.234546 0.899641
O O4 0.455787 0.190268 0.757953
O O5 0.250000 0.060441 0.897280
O O6 0.005218 0.000000 0.864242
O O7 0.000000 0.057824 0.000000
O O8 0.250000 0.698080 0.092282
O O9 0.498551 0.667147 0.174057
O O10 0.500000 0.681434 0.000000
O O11 0.750000 0.648526 0.262186
O O12 0.503343 0.599021 0.323649
O O13 0.517170 0.700933 0.332454
O O14 0.250000 0.939305 0.406120
O O15 0.008192 0.893594 0.339176
O O16 0.000000 0.927115 0.500000
O O17 0.000469 0.000000 0.382437
O O18 0.500000 0.581233 0.500000
O O19 0.750000 0.566643 0.406981
O O20 0.509917 0.500000 0.395494
O O21 0.750000 0.831486 0.704973
O O22 0.969050 0.795261 0.600998
O O23 0.750000 0.745835 0.414704
O O24 0.000000 0.712864 0.500000
#
# Coordination Sequence:
#
# PCOD9406310 Si02
#       8
#     8   8   8   8   8   8   8   8
#     4  11  22  37  56  79 110 143 183 235 292 354
#     4   9  19  35  54  76 101 131 170 219 279 349
#     4  12  25  41  63  87 116 154 199 250 304 361
#     4  10  21  38  59  87 123 161 202 248 293 341
#     4   9  19  35  52  70  94 128 174 226 279 338
#     4   9  18  34  59  93 133 175 213 248 289 340
#     4  11  22  35  52  75 104 138 181 230 283 343
#     4  11  22  35  54  79 114 153 190 234 285 341
#
# _framework density 19.863451000000001
#
# number of rings (size 3 to 8) (size 9 to 14) (size 15 to 20)
#    0.000    1.750    1.250    3.375    0.000    5.500 
#    0.000    0.000    0.000    0.375    0.000    0.000 
#    0.000    0.000    0.000    0.000    0.000    0.000 
#
# Total GULP energy -356961.164924 kJ/mol
# GULP energy per Si atom -5577.518202 kJ/mol
# Density = 1.981824 g / cm^3
# Si number density = 19.863451 Si / 1000 Ang^3
#
#
#
# Elastic Constant Matrix: (Units=GPa)
#
#
# Indices 1 2 3 4 5 6 
#
# 1 20.7853 17.7478 20.1482 0.0000 0.0000 0.0000
# 2 17.7478 103.3987 55.6036 0.0000 0.0000 0.0000
# 3 20.1482 55.6036 135.0330 0.0000 0.0000 0.0000
# 4 0.0000 0.0000 0.0000 27.8845 0.0000 0.0000
# 5 0.0000 0.0000 0.0000 0.0000 30.2857 0.0000
# 6 0.0000 0.0000 0.0000 0.0000 0.0000 13.3252
#
#
#
# Elastic Compliance Matrix: (Units=1/GPa)
#
#
# Indices 1 2 3 4 5 6 
#
# 1 0.059990 -0.007043 -0.006051 0.000000 0.000000 0.000000
# 2 -0.007043 0.013249 -0.004405 0.000000 0.000000 0.000000
# 3 -0.006051 -0.004405 0.010122 0.000000 0.000000 0.000000
# 4 0.000000 0.000000 0.000000 0.035862 0.000000 0.000000
# 5 0.000000 0.000000 0.000000 0.000000 0.033019 0.000000
# 6 0.000000 0.000000 0.000000 0.000000 0.000000 0.075046
#
#
# Mechanical properties :
#
#
# Convention : Reuss Voigt Hill
#
# Bulk Modulus (GPa) = 20.67653 49.57958 35.12806
# Shear Modulus (GPa) = 17.95931 25.34690 21.65311
#
# Velocity S-wave (km/s) = 3.01015 3.57607 3.30525
# Velocity P-wave (km/s) = 4.74482 6.48579 5.68237
#
# Compressibility (1/GPa) = 0.04836402
#
# Stress axis : x y z
#
# Youngs Moduli (GPa) = 16.66936 75.47819 98.79263
#
# Poissons Ratio (x) = 0.53159 0.59779
# Poissons Ratio (y) = 0.11740 0.43515
# Poissons Ratio (z) = 0.10087 0.33246
#
# Static dielectric constant tensor:
#      x y z
#    x 1.685280 0.000000 0.000000 
#    y 0.000000 1.765370 0.000000 
#    z 0.000000 0.000000 1.739110 
# 
# From -- ./inp_files/22197.got.cif
#   From: 2010.05.17/outbox.cif.g08.bks.cpg/sg51_12_cif.got.tgz:22197.got - 2010.06.03 11:52:47.
