data_PCOD9406875
_publ_section_title
;
Structure prediction by ZEFSAII (Michael W. Deem and Ramdas Pophale) SiO2 
 PCOD9406875
Probable space group: P M M A
;
_chemical_formula_sum "Si O2"
_cell_formula_units_Z 22
_cell_length_a 7.538675
_cell_length_b 15.164587
_cell_length_c 8.084624
_cell_angle_alpha 90.000000
_cell_angle_beta 90.000000
_cell_angle_gamma 90.000000
_cell_volume 924.241434
_symmetry_space_group_name_H-M "P M M A"
_symmetry_group_IT_number 51
_symmetry_cell_setting 'orthorhombic'
loop_
_space_group_symop_operation_xyz
x,y,z
1/2-x,-y,z
1/2+x,-y,-z
-x,y,-z
-x,-y,-z
1/2+x,y,-z
1/2-x,y,z
x,-y,z
loop_
_atom_site_type_symbol
_atom_site_label
_atom_site_fract_x
_atom_site_fract_y
_atom_site_fract_z
Si Si1 0.037977 0.500000 0.306282
Si Si2 0.960746 0.310685 0.809382
Si Si3 0.250000 0.000000 0.177274
Si Si4 0.548815 0.124571 0.310785
O O1 0.250000 0.500000 0.277984
O O2 0.968646 0.408195 0.232614
O O3 0.000000 0.500000 0.500000
O O4 0.750000 0.310687 0.780500
O O5 0.037654 0.229908 0.706391
O O6 0.000000 0.292249 0.000000
O O7 0.406110 0.923349 0.196009
O O8 0.500000 0.100774 0.500000
O O9 0.750000 0.097879 0.273467
#
# Coordination Sequence:
#
# PCOD9406875 Si02
#       4
#     4   8   2   8
#     4  10  23  40  68 100 136 172 221 271 326 393
#     4  11  23  43  65  97 137 179 221 271 332 401
#     4  12  24  44  68  98 136 166 236 274 352 382
#     4  12  24  41  69  99 133 175 224 282 337 394
#
# _framework density 23.803304000000001
#
# number of rings (size 3 to 8) (size 9 to 14) (size 15 to 20)
#    0.000    0.727    3.636    3.818    0.000    5.818 
#    0.000    0.909    0.000    0.000    0.000    0.000 
#    0.000    0.000    0.000    0.000    0.000    0.000 
#
# Total GULP energy -122735.040251 kJ/mol
# GULP energy per Si atom -5578.865466 kJ/mol
# Density = 2.374913 g / cm^3
# Si number density = 23.803304 Si / 1000 Ang^3
#
#
#
# Elastic Constant Matrix: (Units=GPa)
#
#
# Indices 1 2 3 4 5 6 
#
# 1 198.4589 47.1673 -9.7286 0.0000 0.0000 0.0000
# 2 47.1673 204.7857 11.4367 0.0000 0.0000 0.0000
# 3 -9.7286 11.4367 52.3375 0.0000 0.0000 0.0000
# 4 0.0000 0.0000 0.0000 -88.7979 0.0000 0.0000
# 5 0.0000 0.0000 0.0000 0.0000 22.0924 0.0000
# 6 0.0000 0.0000 0.0000 0.0000 0.0000 105.8239
#
#
#
# Elastic Compliance Matrix: (Units=1/GPa)
#
#
# Indices 1 2 3 4 5 6 
#
# 1 0.005416 -0.001320 0.001295 0.000000 0.000000 0.000000
# 2 -0.001320 0.005265 -0.001396 0.000000 0.000000 0.000000
# 3 0.001295 -0.001396 0.019653 0.000000 0.000000 0.000000
# 4 0.000000 0.000000 0.000000 -0.011262 0.000000 0.000000
# 5 0.000000 0.000000 0.000000 0.000000 0.045264 0.000000
# 6 0.000000 0.000000 0.000000 0.000000 0.000000 0.009450
#
#
# Mechanical properties :
#
#
# Convention : Reuss Voigt Hill
#
# Bulk Modulus (GPa) = 36.37337 61.48143 48.92740
# Shear Modulus (GPa) = 58.28095 34.93744 46.60920
#
# Velocity S-wave (km/s) = 4.95354 3.83529 4.42984
# Velocity P-wave (km/s) = 6.93042 6.74519 6.83843
#
# Compressibility (1/GPa) = 0.02749264
#
# Stress axis : x y z
#
# Youngs Moduli (GPa) = 184.63876 189.93049 50.88403
#
# Poissons Ratio (x) = 0.25066 -0.06590
# Poissons Ratio (y) = 0.24368 0.07103
# Poissons Ratio (z) = -0.23913 0.26511
#
# Static dielectric constant tensor:
#      x y z
#    x 1.861990 0.000000 0.000000 
#    y 0.000000 1.927400 0.000000 
#    z 0.000000 0.000000 1.896160 
# 
# From -- ./inp_files/4487.got.cif
#   From: 2010.05.17/outbox.cif.g08.bks.cpg/sg51_3_cif.got.tgz:4487.got - 2010.06.03 11:52:47.
