data_PCOD9406280
_publ_section_title
;
Structure prediction by ZEFSAII (Michael W. Deem and Ramdas Pophale) SiO2 
 PCOD9406280
Probable space group: P M M A
;
_chemical_formula_sum "Si O2"
_cell_formula_units_Z 64
_cell_length_a 8.446303
_cell_length_b 20.926497
_cell_length_c 19.141404
_cell_angle_alpha 90.000000
_cell_angle_beta 90.000000
_cell_angle_gamma 90.000000
_cell_volume 3383.272527
_symmetry_space_group_name_H-M "P M M A"
_symmetry_group_IT_number 51
_symmetry_cell_setting 'orthorhombic'
loop_
_space_group_symop_operation_xyz
x,y,z
1/2-x,-y,z
1/2+x,-y,-z
-x,y,-z
-x,-y,-z
1/2+x,y,-z
1/2-x,y,z
x,-y,z
loop_
_atom_site_type_symbol
_atom_site_label
_atom_site_fract_x
_atom_site_fract_y
_atom_site_fract_z
Si Si1 0.439624 0.689991 0.832813
Si Si2 0.441268 0.427206 0.577626
Si Si3 0.057108 0.927500 0.173462
Si Si4 0.558919 0.073092 0.666137
Si Si5 0.060322 0.189877 0.078958
Si Si6 0.560183 0.573547 0.922093
Si Si7 0.943420 0.310131 0.327468
Si Si8 0.939024 0.808994 0.421469
O O1 0.250000 0.694062 0.833352
O O2 0.506389 0.747940 0.878586
O O3 0.490919 0.623533 0.867597
O O4 0.495760 0.694025 0.752640
O O5 0.500000 0.410256 0.500000
O O6 0.250000 0.426855 0.576695
O O7 0.493540 0.500000 0.592830
O O8 0.494433 0.375076 0.633867
O O9 0.250000 0.927552 0.172789
O O10 0.009808 0.913100 0.253558
O O11 0.002514 0.873342 0.120175
O O12 0.006399 0.000000 0.156333
O O13 0.750000 0.075680 0.663973
O O14 0.491754 0.124867 0.613566
O O15 0.511712 0.000000 0.650061
O O16 0.250000 0.188537 0.077864
O O17 0.000000 0.191585 0.000000
O O18 0.750000 0.577282 0.921578
O O19 0.513113 0.500000 0.907465
O O20 0.500000 0.589450 0.000000
O O21 0.750000 0.310077 0.326991
O O22 0.996358 0.249462 0.372908
O O23 0.750000 0.806543 0.422897
O O24 0.000000 0.802796 0.500000
#
# Coordination Sequence:
#
# PCOD9406280 Si02
#       8
#     8   8   8   8   8   8   8   8
#     4  11  22  37  57  80 108 141 180 223 268 319
#     4   9  17  32  54  78 105 137 172 209 252 304
#     4   8  16  33  57  82 107 138 177 220 266 318
#     4   9  18  35  58  81 105 135 173 216 263 316
#     4  11  22  36  55  79 109 143 179 220 267 317
#     4  10  21  38  59  83 111 142 178 220 266 317
#     4   9  20  36  54  78 106 138 176 219 263 309
#     4  11  22  36  54  77 107 140 177 220 265 314
#
# _framework density 18.916596999999999
#
# number of rings (size 3 to 8) (size 9 to 14) (size 15 to 20)
#    0.000    2.250    0.000    3.750    0.000    2.000 
#    0.000    5.625    0.000    4.125    0.000    0.000 
#    0.000    0.000    0.000    0.000    0.000    0.000 
#
# Total GULP energy -357384.124744 kJ/mol
# GULP energy per Si atom -5584.126949 kJ/mol
# Density = 1.887354 g / cm^3
# Si number density = 18.916597 Si / 1000 Ang^3
#
#
#
# Elastic Constant Matrix: (Units=GPa)
#
#
# Indices 1 2 3 4 5 6 
#
# 1 27.7907 25.7274 29.6173 0.0000 0.0000 0.0000
# 2 25.7274 132.2998 120.9830 0.0000 0.0000 0.0000
# 3 29.6173 120.9830 183.6390 0.0000 0.0000 0.0000
# 4 0.0000 0.0000 0.0000 44.4530 0.0000 0.0000
# 5 0.0000 0.0000 0.0000 0.0000 11.4269 0.0000
# 6 0.0000 0.0000 0.0000 0.0000 0.0000 5.0566
#
#
#
# Elastic Compliance Matrix: (Units=1/GPa)
#
#
# Indices 1 2 3 4 5 6 
#
# 1 0.044884 -0.005304 -0.003745 0.000000 0.000000 0.000000
# 2 -0.005304 0.019640 -0.012084 0.000000 0.000000 0.000000
# 3 -0.003745 -0.012084 0.014010 0.000000 0.000000 0.000000
# 4 0.000000 0.000000 0.000000 0.022496 0.000000 0.000000
# 5 0.000000 0.000000 0.000000 0.000000 0.087513 0.000000
# 6 0.000000 0.000000 0.000000 0.000000 0.000000 0.197760
#
#
# Mechanical properties :
#
#
# Convention : Reuss Voigt Hill
#
# Bulk Modulus (GPa) = 27.57103 77.37609 52.47356
# Shear Modulus (GPa) = 11.34669 23.34743 17.34706
#
# Velocity S-wave (km/s) = 2.45179 3.51697 3.03153
# Velocity P-wave (km/s) = 4.75623 7.58187 6.32876
#
# Compressibility (1/GPa) = 0.03626995
#
# Stress axis : x y z
#
# Youngs Moduli (GPa) = 22.27959 50.91674 71.37700
#
# Poissons Ratio (x) = 0.27006 0.26728
# Poissons Ratio (y) = 0.11817 0.86248
# Poissons Ratio (z) = 0.08343 0.61525
#
# Static dielectric constant tensor:
#      x y z
#    x 1.652760 0.000000 0.000000 
#    y 0.000000 1.649820 0.000000 
#    z 0.000000 0.000000 1.612770 
# 
# From -- ./inp_files/28473.got.cif
#   From: 2010.05.17/outbox.cif.g08.bks.cpg/sg51_15_cif.got.tgz:28473.got - 2010.06.03 11:52:47.
