data_PCOD9406536
_publ_section_title
;
Structure prediction by ZEFSAII (Michael W. Deem and Ramdas Pophale) SiO2 
 PCOD9406536
Probable space group: P M M A
;
_chemical_formula_sum "Si O2"
_cell_formula_units_Z 40
_cell_length_a 8.632975
_cell_length_b 26.387593
_cell_length_c 9.313885
_cell_angle_alpha 90.000000
_cell_angle_beta 90.000000
_cell_angle_gamma 90.000000
_cell_volume 2121.734956
_symmetry_space_group_name_H-M "P M M A"
_symmetry_group_IT_number 51
_symmetry_cell_setting 'orthorhombic'
loop_
_space_group_symop_operation_xyz
x,y,z
1/2-x,-y,z
1/2+x,-y,-z
-x,y,-z
-x,-y,-z
1/2+x,y,-z
1/2-x,y,z
x,-y,z
loop_
_atom_site_type_symbol
_atom_site_label
_atom_site_fract_x
_atom_site_fract_y
_atom_site_fract_z
Si Si1 0.434784 0.849982 0.339896
Si Si2 0.564804 0.059160 0.159223
Si Si3 0.435916 0.555418 0.663052
Si Si4 0.935131 0.339256 0.662850
Si Si5 0.435333 0.755608 0.839128
O O1 0.500000 0.845440 0.500000
O O2 0.250000 0.845909 0.341305
O O3 0.486541 0.903116 0.270822
O O4 0.505098 0.805269 0.243370
O O5 0.750000 0.066435 0.159925
O O6 0.532346 0.000000 0.190648
O O7 0.500000 0.069962 0.000000
O O8 0.500000 0.553831 0.500000
O O9 0.250000 0.560637 0.659053
O O10 0.473328 0.500000 0.727967
O O11 0.510063 0.606345 0.725149
O O12 0.750000 0.337318 0.657939
O O13 0.000000 0.335209 0.500000
O O14 0.001955 0.293461 0.755397
O O15 0.250000 0.755142 0.840861
O O16 0.500000 0.755876 0.000000
#
# Coordination Sequence:
#
# PCOD9406536 Si02
#       5
#     8   8   8   8   8
#     4  12  25  42  63  89 120 154 194 240 291 342
#     4  10  21  39  63  91 123 160 200 240 285 339
#     4   9  16  27  46  75 110 147 187 232 282 335
#     4  11  21  35  56  84 116 151 191 236 287 339
#     4  12  25  43  63  85 114 149 191 236 287 346
#
# _framework density 18.852495999999999
#
# number of rings (size 3 to 8) (size 9 to 14) (size 15 to 20)
#    0.000    1.200    0.000    9.000    0.000    2.800 
#    0.000    0.000    0.000    0.600    0.000    0.000 
#    0.000    0.000    0.000    0.000    0.000    0.000 
#
# Total GULP energy -223611.071726 kJ/mol
# GULP energy per Si atom -5590.276793 kJ/mol
# Density = 1.880959 g / cm^3
# Si number density = 18.852496 Si / 1000 Ang^3
#
#
#
# Elastic Constant Matrix: (Units=GPa)
#
#
# Indices 1 2 3 4 5 6 
#
# 1 188.6328 81.4241 65.2909 0.0000 0.0000 0.0000
# 2 81.4241 132.7993 83.1498 0.0000 0.0000 0.0000
# 3 65.2909 83.1498 114.5308 0.0000 0.0000 0.0000
# 4 0.0000 0.0000 0.0000 121.1991 0.0000 0.0000
# 5 0.0000 0.0000 0.0000 0.0000 31.5131 0.0000
# 6 0.0000 0.0000 0.0000 0.0000 0.0000 37.5621
#
#
#
# Elastic Compliance Matrix: (Units=1/GPa)
#
#
# Indices 1 2 3 4 5 6 
#
# 1 0.007384 -0.003468 -0.001691 0.000000 0.000000 0.000000
# 2 -0.003468 0.015435 -0.009229 0.000000 0.000000 0.000000
# 3 -0.001691 -0.009229 0.016396 0.000000 0.000000 0.000000
# 4 0.000000 0.000000 0.000000 0.008251 0.000000 0.000000
# 5 0.000000 0.000000 0.000000 0.000000 0.031733 0.000000
# 6 0.000000 0.000000 0.000000 0.000000 0.000000 0.026623
#
#
# Mechanical properties :
#
#
# Convention : Reuss Voigt Hill
#
# Bulk Modulus (GPa) = 95.80623 99.52140 97.66382
# Shear Modulus (GPa) = 36.21173 51.79474 44.00324
#
# Velocity S-wave (km/s) = 4.38744 5.24722 4.83647
# Velocity P-wave (km/s) = 8.75188 9.46653 9.11621
#
# Compressibility (1/GPa) = 0.01043773
#
# Stress axis : x y z
#
# Youngs Moduli (GPa) = 135.43115 64.78727 60.99212
#
# Poissons Ratio (x) = 0.22470 0.10316
# Poissons Ratio (y) = 0.46972 0.56288
# Poissons Ratio (z) = 0.22906 0.59791
#
# Static dielectric constant tensor:
#      x y z
#    x 1.624700 0.000000 0.000000 
#    y 0.000000 1.675740 0.000000 
#    z 0.000000 0.000000 1.618810 
# 
# From -- ./inp_files/5225.got.cif
#   From: 2010.05.17/outbox.cif.g08.bks.cpg/sg51_3_cif.got.tgz:5225.got - 2010.06.03 11:52:47.
