data_PCOD9406944
_publ_section_title
;
Structure prediction by ZEFSAII (Michael W. Deem and Ramdas Pophale) SiO2 
 PCOD9406944
Probable space group: P M M A
;
_chemical_formula_sum "Si O2"
_cell_formula_units_Z 64
_cell_length_a 15.052049
_cell_length_b 18.262330
_cell_length_c 11.636349
_cell_angle_alpha 90.000000
_cell_angle_beta 90.000000
_cell_angle_gamma 90.000000
_cell_volume 3198.663450
_symmetry_space_group_name_H-M "P M M A"
_symmetry_group_IT_number 51
_symmetry_cell_setting 'orthorhombic'
loop_
_space_group_symop_operation_xyz
x,y,z
1/2-x,-y,z
1/2+x,-y,-z
-x,y,-z
-x,-y,-z
1/2+x,y,-z
1/2-x,y,z
x,-y,z
loop_
_atom_site_type_symbol
_atom_site_label
_atom_site_fract_x
_atom_site_fract_y
_atom_site_fract_z
Si Si1 0.845557 0.316798 0.261863
Si Si2 0.106770 0.082910 0.991540
Si Si3 0.653116 0.848587 0.245563
Si Si4 0.525045 0.326557 0.866756
Si Si5 0.851729 0.418144 0.726363
Si Si6 0.148412 0.813614 0.194198
Si Si7 0.969778 0.848098 0.614976
Si Si8 0.904226 0.688292 0.523530
O O1 0.750000 0.353702 0.239072
O O2 0.840944 0.235757 0.207471
O O3 0.855839 0.308630 0.400476
O O4 0.936956 0.344230 0.207907
O O5 0.148584 0.141233 0.076936
O O6 0.129933 0.000000 0.023136
O O7 0.137137 0.099880 0.862608
O O8 0.000000 0.090897 0.000000
O O9 0.750000 0.865580 0.300550
O O10 0.564000 0.846551 0.320310
O O11 0.591075 0.391509 0.833825
O O12 0.578336 0.253346 0.824679
O O13 0.500000 0.319231 0.000000
O O14 0.750000 0.418952 0.761487
O O15 0.877263 0.500000 0.688133
O O16 0.860630 0.360098 0.622184
O O17 0.250000 0.790657 0.222601
O O18 0.104898 0.866645 0.291336
O O19 0.928116 0.769954 0.569979
O O20 0.000000 0.890201 0.500000
O O21 0.000000 0.652983 0.500000
#
# Coordination Sequence:
#
# PCOD9406944 Si02
#       8
#     8   8   8   8   8   8   8   8
#     4  11  21  36  60  92 123 154 199 254 307 357
#     4  11  23  41  64  89 122 161 203 254 312 366
#     4  11  20  34  58  86 121 158 193 243 303 360
#     4  12  23  40  62  87 123 160 207 250 301 362
#     4  11  24  41  62  89 122 162 206 252 309 371
#     4  12  23  37  63  93 123 158 200 255 307 360
#     4  11  20  37  58  90 124 153 202 246 298 357
#     4  11  18  37  62  89 120 159 193 257 307 358
#
# _framework density 20.008358000000001
#
# number of rings (size 3 to 8) (size 9 to 14) (size 15 to 20)
#    0.000    0.750    7.500    2.250    0.000    4.500 
#    0.000    0.000    0.000    1.875    0.000    1.750 
#    0.000    0.000    0.000    0.000    0.000    0.000 
#
# Total GULP energy -356531.874056 kJ/mol
# GULP energy per Si atom -5570.810532 kJ/mol
# Density = 1.996282 g / cm^3
# Si number density = 20.008358 Si / 1000 Ang^3
#
#
#
# Elastic Constant Matrix: (Units=GPa)
#
#
# Indices 1 2 3 4 5 6 
#
# 1 142.0405 10.0244 32.6936 0.0000 0.0000 0.0000
# 2 10.0244 34.1002 6.3500 0.0000 0.0000 0.0000
# 3 32.6936 6.3500 85.9369 0.0000 0.0000 0.0000
# 4 0.0000 0.0000 0.0000 7.0167 0.0000 0.0000
# 5 0.0000 0.0000 0.0000 0.0000 17.0097 0.0000
# 6 0.0000 0.0000 0.0000 0.0000 0.0000 16.9323
#
#
#
# Elastic Compliance Matrix: (Units=1/GPa)
#
#
# Indices 1 2 3 4 5 6 
#
# 1 0.007820 -0.001769 -0.002844 0.000000 0.000000 0.000000
# 2 -0.001769 0.030135 -0.001554 0.000000 0.000000 0.000000
# 3 -0.002844 -0.001554 0.012833 0.000000 0.000000 0.000000
# 4 0.000000 0.000000 0.000000 0.142517 0.000000 0.000000
# 5 0.000000 0.000000 0.000000 0.000000 0.058790 0.000000
# 6 0.000000 0.000000 0.000000 0.000000 0.000000 0.059059
#
#
# Mechanical properties :
#
#
# Convention : Reuss Voigt Hill
#
# Bulk Modulus (GPa) = 26.00521 40.02373 33.01447
# Shear Modulus (GPa) = 14.86747 22.39240 18.62993
#
# Velocity S-wave (km/s) = 2.72888 3.34900 3.05472
# Velocity P-wave (km/s) = 4.79108 5.91619 5.38311
#
# Compressibility (1/GPa) = 0.03845383
#
# Stress axis : x y z
#
# Youngs Moduli (GPa) = 127.88133 33.18426 77.92239
#
# Poissons Ratio (x) = 0.05871 0.22163
# Poissons Ratio (y) = 0.22624 0.12106
# Poissons Ratio (z) = 0.36372 0.05156
#
# Static dielectric constant tensor:
#      x y z
#    x 1.786480 0.000000 0.000000 
#    y 0.000000 1.702400 0.000000 
#    z 0.000000 0.000000 1.767750 
# 
# From -- ./inp_files/16867.got.cif
#   From: 2010.05.17/outbox.cif.g08.bks.cpg/sg51_9_cif.got.tgz:16867.got - 2010.06.03 11:52:47.
