data_PCOD9406426
_publ_section_title
;
Structure prediction by ZEFSAII (Michael W. Deem and Ramdas Pophale) SiO2 
 PCOD9406426
Probable space group: P M M A
;
_chemical_formula_sum "Si O2"
_cell_formula_units_Z 48
_cell_length_a 16.235045
_cell_length_b 8.280489
_cell_length_c 17.245834
_cell_angle_alpha 90.000000
_cell_angle_beta 90.000000
_cell_angle_gamma 90.000000
_cell_volume 2318.428372
_symmetry_space_group_name_H-M "P M M A"
_symmetry_group_IT_number 51
_symmetry_cell_setting 'orthorhombic'
loop_
_space_group_symop_operation_xyz
x,y,z
1/2-x,-y,z
1/2+x,-y,-z
-x,y,-z
-x,-y,-z
1/2+x,y,-z
1/2-x,y,z
x,-y,z
loop_
_atom_site_type_symbol
_atom_site_label
_atom_site_fract_x
_atom_site_fract_y
_atom_site_fract_z
Si Si1 0.653385 0.308272 0.509584
Si Si2 0.504840 0.804433 0.909814
Si Si3 0.386888 0.312543 0.663771
Si Si4 0.434538 0.186034 0.340689
Si Si5 0.157036 0.307063 0.193101
Si Si6 0.838891 0.191734 0.172878
O O1 0.750000 0.290884 0.526407
O O2 0.632647 0.500000 0.513232
O O3 0.636531 0.252482 0.421880
O O4 0.601259 0.217865 0.574285
O O5 0.586751 0.741975 0.867843
O O6 0.421715 0.743983 0.867318
O O7 0.506824 0.000000 0.904088
O O8 0.500000 0.760515 0.000000
O O9 0.362224 0.500000 0.668307
O O10 0.484950 0.294054 0.671660
O O11 0.347109 0.221052 0.735485
O O12 0.368126 0.230191 0.275403
O O13 0.459287 0.000000 0.331257
O O14 0.250000 0.257602 0.170864
O O15 0.155909 0.500000 0.201933
O O16 0.750000 0.257812 0.146267
O O17 0.838308 0.000000 0.158229
#
# Coordination Sequence:
#
# PCOD9406426 Si02
#       6
#     8   8   8   8   8   8
#     4  10  22  39  57  82 118 159 206 255 303 361
#     4  10  22  41  66  96 129 165 205 251 307 372
#     4  11  22  38  61  87 118 161 209 255 306 363
#     4  12  24  38  59  88 121 160 207 257 313 368
#     4  11  24  42  65  93 126 166 210 258 312 368
#     4  10  21  38  61  91 127 165 205 253 308 366
#
# _framework density 20.703681
#
# number of rings (size 3 to 8) (size 9 to 14) (size 15 to 20)
#    0.000    1.333    1.667    4.000    0.000    9.000 
#    0.000    1.667    0.000    0.000    0.000    0.000 
#    0.000    0.000    0.000    0.000    0.000    0.000 
#
# Total GULP energy -268369.210170 kJ/mol
# GULP energy per Si atom -5591.025212 kJ/mol
# Density = 2.065656 g / cm^3
# Si number density = 20.703681 Si / 1000 Ang^3
#
#
#
# Elastic Constant Matrix: (Units=GPa)
#
#
# Indices 1 2 3 4 5 6 
#
# 1 125.7150 0.0568 34.8792 0.0000 0.0000 0.0000
# 2 0.0568 19.7113 1.6417 0.0000 0.0000 0.0000
# 3 34.8792 1.6417 85.7868 0.0000 0.0000 0.0000
# 4 0.0000 0.0000 0.0000 39.6278 0.0000 0.0000
# 5 0.0000 0.0000 0.0000 0.0000 3.1576 0.0000
# 6 0.0000 0.0000 0.0000 0.0000 0.0000 18.2154
#
#
#
# Elastic Compliance Matrix: (Units=1/GPa)
#
#
# Indices 1 2 3 4 5 6 
#
# 1 0.008967 0.000278 -0.003651 0.000000 0.000000 0.000000
# 2 0.000278 0.050822 -0.001086 0.000000 0.000000 0.000000
# 3 -0.003651 -0.001086 0.013162 0.000000 0.000000 0.000000
# 4 0.000000 0.000000 0.000000 0.025235 0.000000 0.000000
# 5 0.000000 0.000000 0.000000 0.000000 0.316697 0.000000
# 6 0.000000 0.000000 0.000000 0.000000 0.000000 0.054899
#
#
# Mechanical properties :
#
#
# Convention : Reuss Voigt Hill
#
# Bulk Modulus (GPa) = 15.61669 33.81871 24.71770
# Shear Modulus (GPa) = 9.99911 25.17586 17.58748
#
# Velocity S-wave (km/s) = 2.20003 3.49091 2.91776
# Velocity P-wave (km/s) = 3.74337 5.71128 4.82864
#
# Compressibility (1/GPa) = 0.06403406
#
# Stress axis : x y z
#
# Youngs Moduli (GPa) = 111.51485 19.67651 75.97556
#
# Poissons Ratio (x) = -0.00548 0.27741
# Poissons Ratio (y) = -0.03103 0.08249
# Poissons Ratio (z) = 0.40717 0.02136
#
# Static dielectric constant tensor:
#      x y z
#    x 1.752160 0.000000 0.000000 
#    y 0.000000 1.720510 0.000000 
#    z 0.000000 0.000000 1.707010 
# 
# From -- ./inp_files/29393.got.cif
#   From: 2010.05.17/outbox.cif.g08.bks.cpg/sg51_15_cif.got.tgz:29393.got - 2010.06.03 11:52:47.
