data_PCOD9406924
_publ_section_title
;
Structure prediction by ZEFSAII (Michael W. Deem and Ramdas Pophale) SiO2 
 PCOD9406924
Probable space group: P M M A
;
_chemical_formula_sum "Si O2"
_cell_formula_units_Z 30
_cell_length_a 7.768097
_cell_length_b 20.673350
_cell_length_c 8.784295
_cell_angle_alpha 90.000000
_cell_angle_beta 90.000000
_cell_angle_gamma 90.000000
_cell_volume 1410.692669
_symmetry_space_group_name_H-M "P M M A"
_symmetry_group_IT_number 51
_symmetry_cell_setting 'orthorhombic'
loop_
_space_group_symop_operation_xyz
x,y,z
1/2-x,-y,z
1/2+x,-y,-z
-x,y,-z
-x,-y,-z
1/2+x,y,-z
1/2-x,y,z
x,-y,z
loop_
_atom_site_type_symbol
_atom_site_label
_atom_site_fract_x
_atom_site_fract_y
_atom_site_fract_z
Si Si1 0.048315 0.000000 0.323687
Si Si2 0.250000 0.500000 0.281383
Si Si3 0.455668 0.734155 0.675157
Si Si4 0.952495 0.863858 0.176145
Si Si5 0.541492 0.401090 0.177817
O O1 0.000000 0.000000 0.500000
O O2 0.989530 0.066163 0.245750
O O3 0.250000 0.000000 0.310880
O O4 0.405699 0.444475 0.270654
O O5 0.500000 0.722139 0.500000
O O6 0.250000 0.737745 0.681555
O O7 0.530356 0.802521 0.733840
O O8 0.500437 0.673141 0.780284
O O9 0.750000 0.856265 0.185281
O O10 0.000000 0.861695 0.000000
O O11 0.750000 0.412680 0.203280
O O12 0.500000 0.414077 0.000000
#
# Coordination Sequence:
#
# PCOD9406924 Si02
#       5
#     4   2   8   8   8
#     4  12  25  42  63  96 134 176 216 264 321 382
#     4  12  24  40  68  96 128 172 206 264 340 370
#     4  10  24  42  65  92 127 167 215 263 321 384
#     4  11  23  42  66  97 130 171 218 269 321 377
#     4  11  23  40  65  97 128 164 217 266 320 394
#
# _framework density 21.266148000000001
#
# number of rings (size 3 to 8) (size 9 to 14) (size 15 to 20)
#    0.000    1.067    1.333    4.800    1.867    4.267 
#    0.000    0.667    0.000    0.000    0.000    0.000 
#    0.000    0.000    0.000    0.000    0.000    0.000 
#
# Total GULP energy -167045.169467 kJ/mol
# GULP energy per Si atom -5568.172316 kJ/mol
# Density = 2.121775 g / cm^3
# Si number density = 21.266148 Si / 1000 Ang^3
#
#
#
# Elastic Constant Matrix: (Units=GPa)
#
#
# Indices 1 2 3 4 5 6 
#
# 1 114.6871 48.9576 1.0394 0.0000 0.0000 0.0000
# 2 48.9576 145.6808 11.7110 0.0000 0.0000 0.0000
# 3 1.0394 11.7110 38.6798 0.0000 0.0000 0.0000
# 4 0.0000 0.0000 0.0000 -37.0699 0.0000 0.0000
# 5 0.0000 0.0000 0.0000 0.0000 31.4665 0.0000
# 6 0.0000 0.0000 0.0000 0.0000 0.0000 -92.8187
#
#
#
# Elastic Compliance Matrix: (Units=1/GPa)
#
#
# Indices 1 2 3 4 5 6 
#
# 1 0.010203 -0.003492 0.000783 0.000000 0.000000 0.000000
# 2 -0.003492 0.008231 -0.002398 0.000000 0.000000 0.000000
# 3 0.000783 -0.002398 0.026558 0.000000 0.000000 0.000000
# 4 0.000000 0.000000 0.000000 -0.026976 0.000000 0.000000
# 5 0.000000 0.000000 0.000000 0.000000 0.031780 0.000000
# 6 0.000000 0.000000 0.000000 0.000000 0.000000 -0.010774
#
#
# Mechanical properties :
#
#
# Convention : Reuss Voigt Hill
#
# Bulk Modulus (GPa) = 28.75374 46.94039 37.84706
# Shear Modulus (GPa) = 82.19890 -3.86177 39.16857
#
# Velocity S-wave (km/s) = 6.22386 -1.34902 4.29631
# Velocity P-wave (km/s) = 8.07457 4.43782 6.51510
#
# Compressibility (1/GPa) = 0.03477808
#
# Stress axis : x y z
#
# Youngs Moduli (GPa) = 98.01214 121.49887 37.65295
#
# Poissons Ratio (x) = 0.42424 -0.02948
# Poissons Ratio (y) = 0.34223 0.09030
# Poissons Ratio (z) = -0.07674 0.29137
#
# Static dielectric constant tensor:
#      x y z
#    x 1.765330 0.000000 0.000000 
#    y 0.000000 1.734520 0.000000 
#    z 0.000000 0.000000 1.798710 
# 
# From -- ./inp_files/4884.got.cif
#   From: 2010.05.17/outbox.cif.g08.bks.cpg/sg51_3_cif.got.tgz:4884.got - 2010.06.03 11:52:47.
