data_PCOD9406210
_publ_section_title
;
Structure prediction by ZEFSAII (Michael W. Deem and Ramdas Pophale) SiO2 
 PCOD9406210
Probable space group: P M M A
;
_chemical_formula_sum "Si O2"
_cell_formula_units_Z 64
_cell_length_a 32.468062
_cell_length_b 8.250360
_cell_length_c 12.407722
_cell_angle_alpha 90.000000
_cell_angle_beta 90.000000
_cell_angle_gamma 90.000000
_cell_volume 3323.696197
_symmetry_space_group_name_H-M "P M M A"
_symmetry_group_IT_number 51
_symmetry_cell_setting 'orthorhombic'
loop_
_space_group_symop_operation_xyz
x,y,z
1/2-x,-y,z
1/2+x,-y,-z
-x,y,-z
-x,-y,-z
1/2+x,y,-z
1/2-x,y,z
x,-y,z
loop_
_atom_site_type_symbol
_atom_site_label
_atom_site_fract_x
_atom_site_fract_y
_atom_site_fract_z
Si Si1 0.296519 0.695533 0.503940
Si Si2 0.516647 0.197372 0.884037
Si Si3 0.047460 0.691021 0.503153
Si Si4 0.111355 0.196218 0.128960
Si Si5 0.874695 0.806673 0.633248
Si Si6 0.628043 0.306313 0.106940
Si Si7 0.943792 0.807403 0.262110
Si Si8 0.295742 0.697480 0.751620
O O1 0.250000 0.748742 0.470956
O O2 0.296161 0.500000 0.503088
O O3 0.335109 0.750977 0.434110
O O4 0.302915 0.748111 0.628105
O O5 0.563459 0.245686 0.870160
O O6 0.487150 0.250679 0.787615
O O7 0.515043 0.000000 0.884691
O O8 0.500000 0.252740 0.000000
O O9 0.044896 0.500000 0.483603
O O10 0.081579 0.757900 0.420401
O O11 0.064155 0.723741 0.623935
O O12 0.000000 0.756974 0.500000
O O13 0.129157 0.252021 0.243230
O O14 0.113177 0.000000 0.124123
O O15 0.129692 0.262387 0.018381
O O16 0.874692 0.000000 0.635873
O O17 0.624325 0.500000 0.118067
O O18 0.589578 0.228358 0.169694
O O19 0.668721 0.248441 0.168953
O O20 0.945362 0.000000 0.280878
O O21 0.250000 0.749872 0.783944
O O22 0.296035 0.500000 0.751715
#
# Coordination Sequence:
#
# PCOD9406210 Si02
#       8
#     8   8   8   8   8   8   8   8
#     4   9  18  36  63  89 114 148 188 235 294 354
#     4   9  16  31  54  75  99 141 188 226 264 316
#     4  11  24  40  57  81 117 153 189 240 296 347
#     4  10  21  38  55  75 108 149 192 231 274 333
#     4  11  23  38  59  84 114 155 197 241 293 351
#     4  11  21  33  54  84 112 139 178 228 280 331
#     4  11  21  35  58  82 109 144 186 231 276 335
#     4   8  16  33  56  80 106 137 172 215 270 330
#
# _framework density 19.255671
#
# number of rings (size 3 to 8) (size 9 to 14) (size 15 to 20)
#    0.000    2.000    1.250    3.750    0.000    4.250 
#    0.000    3.125    0.000    5.250    0.000    0.000 
#    0.000    0.000    0.000    0.000    0.000    0.000 
#
# Total GULP energy -357253.957378 kJ/mol
# GULP energy per Si atom -5582.093084 kJ/mol
# Density = 1.921184 g / cm^3
# Si number density = 19.255671 Si / 1000 Ang^3
#
#
#
# Elastic Constant Matrix: (Units=GPa)
#
#
# Indices 1 2 3 4 5 6 
#
# 1 124.6207 14.0379 59.0979 0.0000 0.0000 0.0000
# 2 14.0379 19.1843 4.1722 0.0000 0.0000 0.0000
# 3 59.0979 4.1722 105.7976 0.0000 0.0000 0.0000
# 4 0.0000 0.0000 0.0000 25.3770 0.0000 0.0000
# 5 0.0000 0.0000 0.0000 0.0000 37.6052 0.0000
# 6 0.0000 0.0000 0.0000 0.0000 0.0000 4.5272
#
#
#
# Elastic Compliance Matrix: (Units=1/GPa)
#
#
# Indices 1 2 3 4 5 6 
#
# 1 0.011848 -0.007293 -0.006331 0.000000 0.000000 0.000000
# 2 -0.007293 0.057066 0.001823 0.000000 0.000000 0.000000
# 3 -0.006331 0.001823 0.012916 0.000000 0.000000 0.000000
# 4 0.000000 0.000000 0.000000 0.039406 0.000000 0.000000
# 5 0.000000 0.000000 0.000000 0.000000 0.026592 0.000000
# 6 0.000000 0.000000 0.000000 0.000000 0.000000 0.220886
#
#
# Mechanical properties :
#
#
# Convention : Reuss Voigt Hill
#
# Bulk Modulus (GPa) = 17.17328 44.91315 31.04321
# Shear Modulus (GPa) = 12.14405 24.98820 18.56612
#
# Velocity S-wave (km/s) = 2.51405 3.60628 3.10851
# Velocity P-wave (km/s) = 4.16715 6.38088 5.38891
#
# Compressibility (1/GPa) = 0.05823001
#
# Stress axis : x y z
#
# Youngs Moduli (GPa) = 84.40270 17.52359 77.42131
#
# Poissons Ratio (x) = 0.12780 0.49012
# Poissons Ratio (y) = 0.61554 -0.14116
# Poissons Ratio (z) = 0.53432 -0.03195
#
# Static dielectric constant tensor:
#      x y z
#    x 1.679790 0.000000 0.000000 
#    y 0.000000 1.676620 0.000000 
#    z 0.000000 0.000000 1.673600 
# 
# From -- ./inp_files/19626.got.cif
#   From: 2010.05.17/outbox.cif.g08.bks.cpg/sg51_10_cif.got.tgz:19626.got - 2010.06.03 11:52:47.
