data_PCOD9406404
_publ_section_title
;
Structure prediction by ZEFSAII (Michael W. Deem and Ramdas Pophale) SiO2 
 PCOD9406404
Probable space group: P M M A
;
_chemical_formula_sum "Si O2"
_cell_formula_units_Z 48
_cell_length_a 9.738652
_cell_length_b 28.716999
_cell_length_c 9.301191
_cell_angle_alpha 90.000000
_cell_angle_beta 90.000000
_cell_angle_gamma 90.000000
_cell_volume 2601.216276
_symmetry_space_group_name_H-M "P M M A"
_symmetry_group_IT_number 51
_symmetry_cell_setting 'orthorhombic'
loop_
_space_group_symop_operation_xyz
x,y,z
1/2-x,-y,z
1/2+x,-y,-z
-x,y,-z
-x,-y,-z
1/2+x,y,-z
1/2-x,y,z
x,-y,z
loop_
_atom_site_type_symbol
_atom_site_label
_atom_site_fract_x
_atom_site_fract_y
_atom_site_fract_z
Si Si1 0.584819 0.810247 0.145651
Si Si2 0.407807 0.297941 0.865091
Si Si3 0.411948 0.555921 0.143121
Si Si4 0.750000 0.056528 0.827704
Si Si5 0.503887 0.895602 0.327743
Si Si6 0.914208 0.618375 0.355445
Si Si7 0.750000 0.944711 0.166520
O O1 0.750000 0.817571 0.128061
O O2 0.561617 0.755534 0.176538
O O3 0.527965 0.843191 0.270923
O O4 0.500000 0.821351 0.000000
O O5 0.250000 0.298967 0.913038
O O6 0.423380 0.334442 0.737678
O O7 0.500000 0.311248 0.000000
O O8 0.250000 0.570981 0.136500
O O9 0.410229 0.500000 0.158928
O O10 0.501175 0.579145 0.268729
O O11 0.500000 0.566947 0.000000
O O12 0.624948 0.080152 0.745883
O O13 0.750000 0.000000 0.816367
O O14 0.750000 0.068755 0.997783
O O15 0.500000 0.897780 0.500000
O O16 0.624413 0.924717 0.254778
O O17 0.750000 0.607845 0.374478
O O18 0.000000 0.625018 0.500000
O O19 0.750000 0.000000 0.168470
#
# Coordination Sequence:
#
# PCOD9406404 Si02
#       7
#     8   8   8   4   8   8   4
#     4  10  21  40  64  89 118 155 198 243 292 358
#     4   9  20  38  61  88 116 151 196 244 293 349
#     4  10  21  38  61  88 119 157 203 255 308 366
#     4  11  25  43  65  89 117 157 203 243 290 357
#     4  12  25  39  61  91 124 156 191 245 304 355
#     4  11  23  38  58  85 121 163 203 251 307 364
#     4  11  23  43  65  87 115 157 203 243 290 353
#
# _framework density 18.452905000000001
#
# number of rings (size 3 to 8) (size 9 to 14) (size 15 to 20)
#    0.000    1.500    0.833    4.000    1.167    8.000 
#    0.000    0.000    0.000    0.000    0.000    0.000 
#    0.000    0.000    0.000    0.000    0.000    0.000 
#
# Total GULP energy -267880.086039 kJ/mol
# GULP energy per Si atom -5580.835126 kJ/mol
# Density = 1.841091 g / cm^3
# Si number density = 18.452905 Si / 1000 Ang^3
#
#
#
# Elastic Constant Matrix: (Units=GPa)
#
#
# Indices 1 2 3 4 5 6 
#
# 1 181.2953 56.7425 93.7114 0.0000 0.0000 0.0000
# 2 56.7425 66.2775 56.8391 0.0000 0.0000 0.0000
# 3 93.7114 56.8391 162.1174 0.0000 0.0000 0.0000
# 4 0.0000 0.0000 0.0000 -15.6383 0.0000 0.0000
# 5 0.0000 0.0000 0.0000 0.0000 32.4353 0.0000
# 6 0.0000 0.0000 0.0000 0.0000 0.0000 24.2676
#
#
#
# Elastic Compliance Matrix: (Units=1/GPa)
#
#
# Indices 1 2 3 4 5 6 
#
# 1 0.008710 -0.004489 -0.003461 0.000000 0.000000 0.000000
# 2 -0.004489 0.023888 -0.005781 0.000000 0.000000 0.000000
# 3 -0.003461 -0.005781 0.010196 0.000000 0.000000 0.000000
# 4 0.000000 0.000000 0.000000 -0.063945 0.000000 0.000000
# 5 0.000000 0.000000 0.000000 0.000000 0.030831 0.000000
# 6 0.000000 0.000000 0.000000 0.000000 0.000000 0.041207
#
#
# Mechanical properties :
#
#
# Convention : Reuss Voigt Hill
#
# Bulk Modulus (GPa) = 65.21757 91.58624 78.40190
# Shear Modulus (GPa) = 59.91054 21.70607 40.80830
#
# Velocity S-wave (km/s) = 5.70414 3.43344 4.70774
# Velocity P-wave (km/s) = 8.87707 8.09062 8.49295
#
# Compressibility (1/GPa) = 0.01533329
#
# Stress axis : x y z
#
# Youngs Moduli (GPa) = 114.81532 41.86118 98.08097
#
# Poissons Ratio (x) = 0.18790 0.33944
# Poissons Ratio (y) = 0.51536 0.56698
# Poissons Ratio (z) = 0.39736 0.24199
#
# Static dielectric constant tensor:
#      x y z
#    x 1.595160 0.000000 0.000000 
#    y 0.000000 1.653120 0.000000 
#    z 0.000000 0.000000 1.610310 
# 
# From -- ./inp_files/6198.got.cif
#   From: 2010.05.17/outbox.cif.g08.bks.cpg/sg51_4_cif.got.tgz:6198.got - 2010.06.03 11:52:47.
