data_PCOD9406772
_publ_section_title
;
Structure prediction by ZEFSAII (Michael W. Deem and Ramdas Pophale) SiO2 
 PCOD9406772
Probable space group: P M M A
;
_chemical_formula_sum "Si O2"
_cell_formula_units_Z 48
_cell_length_a 14.977053
_cell_length_b 8.564649
_cell_length_c 18.514162
_cell_angle_alpha 90.000000
_cell_angle_beta 90.000000
_cell_angle_gamma 90.000000
_cell_volume 2374.870842
_symmetry_space_group_name_H-M "P M M A"
_symmetry_group_IT_number 51
_symmetry_cell_setting 'orthorhombic'
loop_
_space_group_symop_operation_xyz
x,y,z
1/2-x,-y,z
1/2+x,-y,-z
-x,y,-z
-x,-y,-z
1/2+x,y,-z
1/2-x,y,z
x,-y,z
loop_
_atom_site_type_symbol
_atom_site_label
_atom_site_fract_x
_atom_site_fract_y
_atom_site_fract_z
Si Si1 0.604789 0.682520 0.983592
Si Si2 0.250000 0.817009 0.909931
Si Si3 0.446101 0.809915 0.427677
Si Si4 0.250000 0.684915 0.748580
Si Si5 0.918997 0.314104 0.821938
Si Si6 0.750000 0.823665 0.575592
Si Si7 0.442123 0.812938 0.713699
Si Si8 0.750000 0.823422 0.747199
O O1 0.632738 0.500000 0.985659
O O2 0.610325 0.741632 0.901447
O O3 0.500000 0.689299 0.000000
O O4 0.664635 0.771960 0.041209
O O5 0.250000 0.728410 0.833728
O O6 0.250000 0.000000 0.894088
O O7 0.500000 0.776531 0.500000
O O8 0.345658 0.747967 0.439415
O O9 0.499026 0.758323 0.355605
O O10 0.437987 0.000000 0.420385
O O11 0.250000 0.500000 0.740902
O O12 0.341042 0.752057 0.714345
O O13 0.931643 0.500000 0.826586
O O14 0.837441 0.267668 0.771108
O O15 0.007273 0.241687 0.786479
O O16 0.750000 0.838094 0.661797
O O17 0.750000 0.000000 0.542863
O O18 0.440707 0.000000 0.712406
O O19 0.750000 0.000000 0.777513
#
# Coordination Sequence:
#
# PCOD9406772 Si02
#       8
#     8   4   8   4   8   4   8   4
#     4  10  22  40  60  82 116 161 203 245 302 371
#     4  12  25  41  63  92 122 156 203 259 313 364
#     4   9  18  33  58  93 130 164 201 252 309 366
#     4  12  26  44  64  85 120 167 206 251 312 375
#     4  11  22  36  58  89 122 161 205 249 307 377
#     4   9  16  31  53  84 122 160 195 238 301 353
#     4  11  22  39  63  93 122 155 208 263 308 363
#     4  11  20  34  56  83 116 155 198 254 304 346
#
# _framework density 20.211625000000002
#
# number of rings (size 3 to 8) (size 9 to 14) (size 15 to 20)
#    0.000    1.500    1.667    4.250    0.000    5.667 
#    0.000    2.500    0.000    2.000    0.000    0.000 
#    0.000    0.000    0.000    0.000    0.000    0.000 
#
# Total GULP energy -268076.372059 kJ/mol
# GULP energy per Si atom -5584.924418 kJ/mol
# Density = 2.016562 g / cm^3
# Si number density = 20.211625 Si / 1000 Ang^3
#
#
#
# Elastic Constant Matrix: (Units=GPa)
#
#
# Indices 1 2 3 4 5 6 
#
# 1 160.4489 19.6145 36.8537 0.0000 0.0000 0.0000
# 2 19.6145 48.7705 8.8554 0.0000 0.0000 0.0000
# 3 36.8537 8.8554 70.2984 0.0000 0.0000 0.0000
# 4 0.0000 0.0000 0.0000 29.9399 0.0000 0.0000
# 5 0.0000 0.0000 0.0000 0.0000 52.3918 0.0000
# 6 0.0000 0.0000 0.0000 0.0000 0.0000 34.9459
#
#
#
# Elastic Compliance Matrix: (Units=1/GPa)
#
#
# Indices 1 2 3 4 5 6 
#
# 1 0.007330 -0.002303 -0.003553 0.000000 0.000000 0.000000
# 2 -0.002303 0.021708 -0.001527 0.000000 0.000000 0.000000
# 3 -0.003553 -0.001527 0.016280 0.000000 0.000000 0.000000
# 4 0.000000 0.000000 0.000000 0.033400 0.000000 0.000000
# 5 0.000000 0.000000 0.000000 0.000000 0.019087 0.000000
# 6 0.000000 0.000000 0.000000 0.000000 0.000000 0.028616
#
#
# Mechanical properties :
#
#
# Convention : Reuss Voigt Hill
#
# Bulk Modulus (GPa) = 32.73096 45.57388 39.15242
# Shear Modulus (GPa) = 33.03163 37.73514 35.38338
#
# Velocity S-wave (km/s) = 4.04702 4.32557 4.18861
# Velocity P-wave (km/s) = 6.16985 6.89527 6.54262
#
# Compressibility (1/GPa) = 0.03055211
#
# Stress axis : x y z
#
# Youngs Moduli (GPa) = 136.42469 46.06662 61.42540
#
# Poissons Ratio (x) = 0.10609 0.21822
# Poissons Ratio (y) = 0.31418 0.09381
# Poissons Ratio (z) = 0.48467 0.07035
#
# Static dielectric constant tensor:
#      x y z
#    x 1.761020 0.000000 0.000000 
#    y 0.000000 1.703720 0.000000 
#    z 0.000000 0.000000 1.718090 
# 
# From -- ./inp_files/29718.got.cif
#   From: 2010.05.17/outbox.cif.g08.bks.cpg/sg51_15_cif.got.tgz:29718.got - 2010.06.03 11:52:47.
