data_PCOD9406657
_publ_section_title
;
Structure prediction by ZEFSAII (Michael W. Deem and Ramdas Pophale) SiO2 
 PCOD9406657
Probable space group: P M M A
;
_chemical_formula_sum "Si O2"
_cell_formula_units_Z 64
_cell_length_a 14.395612
_cell_length_b 8.980701
_cell_length_c 27.055896
_cell_angle_alpha 90.000000
_cell_angle_beta 90.000000
_cell_angle_gamma 90.000000
_cell_volume 3497.858936
_symmetry_space_group_name_H-M "P M M A"
_symmetry_group_IT_number 51
_symmetry_cell_setting 'orthorhombic'
loop_
_space_group_symop_operation_xyz
x,y,z
1/2-x,-y,z
1/2+x,-y,-z
-x,y,-z
-x,-y,-z
1/2+x,y,-z
1/2-x,y,z
x,-y,z
loop_
_atom_site_type_symbol
_atom_site_label
_atom_site_fract_x
_atom_site_fract_y
_atom_site_fract_z
Si Si1 0.963185 0.679652 0.077802
Si Si2 0.646233 0.326024 0.728842
Si Si3 0.855149 0.681003 0.977910
Si Si4 0.480884 0.824063 0.556193
Si Si5 0.045604 0.177255 0.731495
Si Si6 0.858504 0.322101 0.363515
Si Si7 0.644249 0.670074 0.609623
Si Si8 0.855926 0.179053 0.167195
O O1 0.962221 0.500000 0.081560
O O2 0.924311 0.749611 0.127441
O O3 0.067261 0.726793 0.062015
O O4 0.895982 0.721111 0.031787
O O5 0.750000 0.277670 0.744726
O O6 0.634995 0.500000 0.742652
O O7 0.557884 0.231845 0.745101
O O8 0.644633 0.319853 0.669000
O O9 0.750000 0.734551 0.970519
O O10 0.853288 0.500000 0.976778
O O11 0.500000 0.775733 0.500000
O O12 0.399235 0.740490 0.585275
O O13 0.573647 0.785271 0.586554
O O14 0.462366 0.000000 0.556456
O O15 0.082375 0.254542 0.681712
O O16 0.112433 0.215644 0.777234
O O17 0.045845 0.000000 0.724063
O O18 0.750000 0.283321 0.357743
O O19 0.868101 0.500000 0.362635
O O20 0.750000 0.692920 0.592691
O O21 0.616025 0.500000 0.597024
O O22 0.750000 0.228476 0.158360
O O23 0.859269 0.000000 0.162588
#
# Coordination Sequence:
#
# PCOD9406657 Si02
#       8
#     8   8   8   8   8   8   8   8
#     4   9  17  30  52  80 106 139 186 233 271 318
#     4   9  18  34  57  84 111 137 169 214 265 315
#     4   8  14  27  49  78 111 143 178 226 282 329
#     4  11  24  39  56  82 114 145 177 217 266 321
#     4  11  22  37  59  84 111 145 184 226 273 327
#     4  11  24  41  61  84 110 143 183 226 273 325
#     4   9  18  34  57  82 107 136 171 214 261 309
#     4  10  22  38  53  74 109 148 181 221 278 332
#
# _framework density 18.296907999999998
#
# number of rings (size 3 to 8) (size 9 to 14) (size 15 to 20)
#    0.000    2.250    1.250    3.375    0.000    5.250 
#    0.000    5.625    0.000    3.375    0.000    0.000 
#    0.000    0.000    0.000    0.000    0.000    0.000 
#
# Total GULP energy -357064.731802 kJ/mol
# GULP energy per Si atom -5579.136434 kJ/mol
# Density = 1.825526 g / cm^3
# Si number density = 18.296908 Si / 1000 Ang^3
#
#
#
# Elastic Constant Matrix: (Units=GPa)
#
#
# Indices 1 2 3 4 5 6 
#
# 1 126.4634 27.2026 33.9343 0.0000 0.0000 0.0000
# 2 27.2026 24.8263 23.7583 0.0000 0.0000 0.0000
# 3 33.9343 23.7583 68.6836 0.0000 0.0000 0.0000
# 4 0.0000 0.0000 0.0000 27.4028 0.0000 0.0000
# 5 0.0000 0.0000 0.0000 0.0000 18.8484 0.0000
# 6 0.0000 0.0000 0.0000 0.0000 0.0000 7.4531
#
#
#
# Elastic Compliance Matrix: (Units=1/GPa)
#
#
# Indices 1 2 3 4 5 6 
#
# 1 0.010493 -0.009771 -0.001805 0.000000 0.000000 0.000000
# 2 -0.009771 0.069310 -0.019147 0.000000 0.000000 0.000000
# 3 -0.001805 -0.019147 0.022074 0.000000 0.000000 0.000000
# 4 0.000000 0.000000 0.000000 0.036493 0.000000 0.000000
# 5 0.000000 0.000000 0.000000 0.000000 0.053055 0.000000
# 6 0.000000 0.000000 0.000000 0.000000 0.000000 0.134172
#
#
# Mechanical properties :
#
#
# Convention : Reuss Voigt Hill
#
# Bulk Modulus (GPa) = 24.73307 43.30708 34.02007
# Shear Modulus (GPa) = 12.48376 19.74606 16.11491
#
# Velocity S-wave (km/s) = 2.61490 3.28868 2.97095
# Velocity P-wave (km/s) = 4.76066 6.17584 5.51384
#
# Compressibility (1/GPa) = 0.04043171
#
# Stress axis : x y z
#
# Youngs Moduli (GPa) = 95.29802 14.42801 45.30138
#
# Poissons Ratio (x) = 0.14097 0.08175
# Poissons Ratio (y) = 0.93114 0.86740
# Poissons Ratio (z) = 0.17198 0.27626
#
# Static dielectric constant tensor:
#      x y z
#    x 1.648370 0.000000 0.000000 
#    y 0.000000 1.616330 0.000000 
#    z 0.000000 0.000000 1.609280 
# 
# From -- ./inp_files/35667.got.cif
#   From: 2010.05.17/outbox.cif.g08.bks.cpg/sg51_18_cif.got.tgz:35667.got - 2010.06.03 11:52:47.
