data_PCOD9406270
_publ_section_title
;
Structure prediction by ZEFSAII (Michael W. Deem and Ramdas Pophale) SiO2 
 PCOD9406270
Probable space group: P M M A
;
_chemical_formula_sum "Si O2"
_cell_formula_units_Z 48
_cell_length_a 15.413823
_cell_length_b 8.736171
_cell_length_c 19.369403
_cell_angle_alpha 90.000000
_cell_angle_beta 90.000000
_cell_angle_gamma 90.000000
_cell_volume 2608.241069
_symmetry_space_group_name_H-M "P M M A"
_symmetry_group_IT_number 51
_symmetry_cell_setting 'orthorhombic'
loop_
_space_group_symop_operation_xyz
x,y,z
1/2-x,-y,z
1/2+x,-y,-z
-x,y,-z
-x,-y,-z
1/2+x,y,-z
1/2-x,y,z
x,-y,z
loop_
_atom_site_type_symbol
_atom_site_label
_atom_site_fract_x
_atom_site_fract_y
_atom_site_fract_z
Si Si1 0.250000 0.184116 0.575097
Si Si2 0.250000 0.680632 0.422461
Si Si3 0.096168 0.815761 0.167686
Si Si4 0.250000 0.183471 0.921791
Si Si5 0.404087 0.683043 0.829961
Si Si6 0.750000 0.316707 0.924355
Si Si7 0.602007 0.817430 0.672191
Si Si8 0.098757 0.815548 0.679513
O O1 0.250000 0.251074 0.499027
O O2 0.334198 0.227979 0.620018
O O3 0.250000 0.000000 0.569551
O O4 0.250000 0.500000 0.427001
O O5 0.333585 0.735864 0.379603
O O6 0.165961 0.743322 0.116848
O O7 0.120429 0.780206 0.247492
O O8 0.000022 0.749726 0.155840
O O9 0.094663 0.000000 0.160813
O O10 0.165880 0.245724 0.881513
O O11 0.250000 0.000000 0.921805
O O12 0.250000 0.247251 0.999223
O O13 0.404466 0.500000 0.835189
O O14 0.381157 0.734424 0.751886
O O15 0.750000 0.500000 0.927150
O O16 0.500776 0.780614 0.660264
O O17 0.612922 0.000000 0.664229
O O18 0.104371 0.000000 0.690581
#
# Coordination Sequence:
#
# PCOD9406270 Si02
#       8
#     4   4   8   4   8   4   8   8
#     4  10  21  38  59  81 111 149 189 230 279 342
#     4  12  25  36  51  79 115 151 189 234 291 342
#     4  10  21  40  64  89 116 154 198 237 283 348
#     4  12  25  42  61  83 117 161 201 236 281 348
#     4  11  22  38  62  92 121 150 188 242 296 340
#     4  12  25  40  59  89 123 153 191 244 299 344
#     4   9  19  37  60  83 110 145 190 234 274 331
#     4   9  19  37  62  88 111 146 191 233 280 343
#
# _framework density 18.403206999999998
#
# number of rings (size 3 to 8) (size 9 to 14) (size 15 to 20)
#    0.000    1.667    0.000    6.250    0.000    8.000 
#    0.000    6.667    0.000    0.000    0.000    0.000 
#    0.000    0.000    0.000    0.000    0.000    0.000 
#
# Total GULP energy -268331.790464 kJ/mol
# GULP energy per Si atom -5590.245635 kJ/mol
# Density = 1.836132 g / cm^3
# Si number density = 18.403207 Si / 1000 Ang^3
#
#
#
# Elastic Constant Matrix: (Units=GPa)
#
#
# Indices 1 2 3 4 5 6 
#
# 1 137.6652 76.4178 135.3253 0.0000 0.0000 0.0000
# 2 76.4178 112.4861 90.9192 0.0000 0.0000 0.0000
# 3 135.3253 90.9192 182.0409 0.0000 0.0000 0.0000
# 4 0.0000 0.0000 0.0000 3.4295 0.0000 0.0000
# 5 0.0000 0.0000 0.0000 0.0000 -27.8008 0.0000
# 6 0.0000 0.0000 0.0000 0.0000 0.0000 1.3884
#
#
#
# Elastic Compliance Matrix: (Units=1/GPa)
#
#
# Indices 1 2 3 4 5 6 
#
# 1 0.027851 -0.003667 -0.018873 0.000000 0.000000 0.000000
# 2 -0.003667 0.015391 -0.004961 0.000000 0.000000 0.000000
# 3 -0.018873 -0.004961 0.022001 0.000000 0.000000 0.000000
# 4 0.000000 0.000000 0.000000 0.291591 0.000000 0.000000
# 5 0.000000 0.000000 0.000000 0.000000 -0.035970 0.000000
# 6 0.000000 0.000000 0.000000 0.000000 0.000000 0.720271
#
#
# Mechanical properties :
#
#
# Convention : Reuss Voigt Hill
#
# Bulk Modulus (GPa) = 97.63958 115.27965 106.45961
# Shear Modulus (GPa) = 4.54731 4.03873 4.29302
#
# Velocity S-wave (km/s) = 1.57363 1.48302 1.52899
# Velocity P-wave (km/s) = 7.51483 8.10614 7.81608
#
# Compressibility (1/GPa) = 0.01024175
#
# Stress axis : x y z
#
# Youngs Moduli (GPa) = 35.90477 64.97344 45.45275
#
# Poissons Ratio (x) = 0.23823 0.85783
# Poissons Ratio (y) = 0.13165 0.22550
# Poissons Ratio (z) = 0.67763 0.32235
#
# Static dielectric constant tensor:
#      x y z
#    x 1.622710 0.000000 0.000000 
#    y 0.000000 1.610350 0.000000 
#    z 0.000000 0.000000 1.600940 
# 
# From -- ./inp_files/29673.got.cif
#   From: 2010.05.17/outbox.cif.g08.bks.cpg/sg51_15_cif.got.tgz:29673.got - 2010.06.03 11:52:47.
