data_PCOD9406071
_publ_section_title
;
Structure prediction by ZEFSAII (Michael W. Deem and Ramdas Pophale) SiO2 
 PCOD9406071
Probable space group: P M M A
;
_chemical_formula_sum "Si O2"
_cell_formula_units_Z 48
_cell_length_a 16.881652
_cell_length_b 28.024944
_cell_length_c 5.088701
_cell_angle_alpha 90.000000
_cell_angle_beta 90.000000
_cell_angle_gamma 90.000000
_cell_volume 2407.501855
_symmetry_space_group_name_H-M "P M M A"
_symmetry_group_IT_number 51
_symmetry_cell_setting 'orthorhombic'
loop_
_space_group_symop_operation_xyz
x,y,z
1/2-x,-y,z
1/2+x,-y,-z
-x,y,-z
-x,-y,-z
1/2+x,y,-z
1/2-x,y,z
x,-y,z
loop_
_atom_site_type_symbol
_atom_site_label
_atom_site_fract_x
_atom_site_fract_y
_atom_site_fract_z
Si Si1 0.844964 0.291716 0.195673
Si Si2 0.055645 0.945621 0.255266
Si Si3 0.089992 0.192568 0.597844
Si Si4 0.655880 0.352313 0.703908
Si Si5 0.157384 0.142650 0.103267
Si Si6 0.943049 0.552886 0.750432
O O1 0.750000 0.281497 0.187340
O O2 0.889154 0.244542 0.289676
O O3 0.858888 0.332415 0.413316
O O4 0.871013 0.312720 0.915893
O O5 0.124297 0.907584 0.208895
O O6 0.000000 0.932113 0.500000
O O7 0.084254 0.000000 0.298843
O O8 0.000000 0.945566 0.000000
O O9 0.141974 0.179624 0.341621
O O10 0.000000 0.189139 0.500000
O O11 0.109800 0.157693 0.841530
O O12 0.750000 0.356965 0.739920
O O13 0.615906 0.402951 0.749450
O O14 0.250000 0.141090 0.040125
O O15 0.904784 0.500000 0.748834
O O16 0.000000 0.556238 0.500000
O O17 0.000000 0.555824 0.000000
#
# Coordination Sequence:
#
# PCOD9406071 Si02
#       6
#     8   8   8   8   8   8
#     4  10  21  38  58  84 117 150 189 238 294 347
#     4  10  21  39  63  89 120 157 196 243 297 351
#     4  12  25  41  62  89 120 159 206 251 298 359
#     4  10  21  37  59  84 113 149 187 234 288 346
#     4  12  24  40  63  90 123 161 201 250 305 358
#     4  10  21  37  57  82 113 148 186 232 283 336
#
# _framework density 19.937678999999999
#
# number of rings (size 3 to 8) (size 9 to 14) (size 15 to 20)
#    0.000    1.333    0.000    6.500    0.000    4.000 
#    0.000    0.000    0.000   11.000    0.000    0.000 
#    0.000    0.000    0.000    0.000    0.000    0.000 
#
# Total GULP energy -268462.469949 kJ/mol
# GULP energy per Si atom -5592.968124 kJ/mol
# Density = 1.989230 g / cm^3
# Si number density = 19.937679 Si / 1000 Ang^3
#
#
#
# Elastic Constant Matrix: (Units=GPa)
#
#
# Indices 1 2 3 4 5 6 
#
# 1 49.1827 36.4212 13.0625 0.0000 0.0000 0.0000
# 2 36.4212 95.2983 -4.1809 0.0000 0.0000 0.0000
# 3 13.0625 -4.1809 102.9729 0.0000 0.0000 0.0000
# 4 0.0000 0.0000 0.0000 28.4229 0.0000 0.0000
# 5 0.0000 0.0000 0.0000 0.0000 19.3312 0.0000
# 6 0.0000 0.0000 0.0000 0.0000 0.0000 -156.9560
#
#
#
# Elastic Compliance Matrix: (Units=1/GPa)
#
#
# Indices 1 2 3 4 5 6 
#
# 1 0.030146 -0.011710 -0.004300 0.000000 0.000000 0.000000
# 2 -0.011710 0.015061 0.002097 0.000000 0.000000 0.000000
# 3 -0.004300 0.002097 0.010342 0.000000 0.000000 0.000000
# 4 0.000000 0.000000 0.000000 0.035183 0.000000 0.000000
# 5 0.000000 0.000000 0.000000 0.000000 0.051730 0.000000
# 6 0.000000 0.000000 0.000000 0.000000 0.000000 -0.006371
#
#
# Mechanical properties :
#
#
# Convention : Reuss Voigt Hill
#
# Bulk Modulus (GPa) = 36.07062 37.56219 36.81641
# Shear Modulus (GPa) = 28.87580 -8.36363 10.25609
#
# Velocity S-wave (km/s) = 3.80979 -2.05036 2.27052
# Velocity P-wave (km/s) = 6.12238 3.64354 5.03781
#
# Compressibility (1/GPa) = 0.02772339
#
# Stress axis : x y z
#
# Youngs Moduli (GPa) = 33.17229 66.39846 96.69456
#
# Poissons Ratio (x) = 0.77751 0.41574
# Poissons Ratio (y) = 0.38844 -0.20276
# Poissons Ratio (z) = 0.14263 -0.13923
#
# Static dielectric constant tensor:
#      x y z
#    x 1.668520 0.000000 0.000000 
#    y 0.000000 1.716770 0.000000 
#    z 0.000000 0.000000 1.698810 
# 
# From -- ./inp_files/1446.got.cif
#   From: 2010.05.17/outbox.cif.g08.bks.cpg/sg51_1_cif.got.tgz:1446.got - 2010.06.03 11:52:47.
