data_PCOD9406335
_publ_section_title
;
Structure prediction by ZEFSAII (Michael W. Deem and Ramdas Pophale) SiO2 
 PCOD9406335
Probable space group: P M M A
;
_chemical_formula_sum "Si O2"
_cell_formula_units_Z 48
_cell_length_a 16.884523
_cell_length_b 15.931837
_cell_length_c 10.307584
_cell_angle_alpha 90.000000
_cell_angle_beta 90.000000
_cell_angle_gamma 90.000000
_cell_volume 2772.755230
_symmetry_space_group_name_H-M "P M M A"
_symmetry_group_IT_number 51
_symmetry_cell_setting 'orthorhombic'
loop_
_space_group_symop_operation_xyz
x,y,z
1/2-x,-y,z
1/2+x,-y,-z
-x,y,-z
-x,-y,-z
1/2+x,y,-z
1/2-x,y,z
x,-y,z
loop_
_atom_site_type_symbol
_atom_site_label
_atom_site_fract_x
_atom_site_fract_y
_atom_site_fract_z
Si Si1 0.443143 0.742153 0.876299
Si Si2 0.844366 0.595343 0.240827
Si Si3 0.844259 0.095321 0.715461
Si Si4 0.945683 0.752915 0.626862
Si Si5 0.844568 0.402955 0.549268
Si Si6 0.095797 0.907902 0.989608
O O1 0.389421 0.662817 0.844234
O O2 0.498964 0.756504 0.752734
O O3 0.500000 0.728387 0.000000
O O4 0.390821 0.825417 0.904174
O O5 0.750000 0.601871 0.223313
O O6 0.868458 0.500000 0.209926
O O7 0.859578 0.608534 0.394788
O O8 0.750000 0.103732 0.704590
O O9 0.888035 0.167067 0.635259
O O10 0.868706 0.103936 0.866970
O O11 0.866720 0.000000 0.676870
O O12 0.894918 0.667015 0.622954
O O13 0.000000 0.755657 0.500000
O O14 0.750000 0.392634 0.570110
O O15 0.864848 0.500000 0.581463
O O16 0.122216 0.000000 0.940958
O O17 0.000000 0.911221 0.000000
#
# Coordination Sequence:
#
# PCOD9406335 Si02
#       6
#     8   8   8   8   8   8
#     4  11  21  36  55  85 115 145 184 231 284 332
#     4   9  19  37  58  79 109 150 188 226 281 342
#     4  10  21  38  60  85 114 152 194 235 281 336
#     4  12  22  35  58  88 118 147 187 234 286 337
#     4   9  19  37  59  81 110 151 194 234 279 338
#     4   9  17  34  58  79 109 148 186 224 270 336
#
# _framework density 17.311301
#
# number of rings (size 3 to 8) (size 9 to 14) (size 15 to 20)
#    0.000    2.000    5.000    1.500    0.000    2.333 
#    0.000    0.000    0.000    2.000    0.000    0.000 
#    0.000    0.000    0.000    0.000    0.000    0.000 
#
# Total GULP energy -267650.663590 kJ/mol
# GULP energy per Si atom -5576.055491 kJ/mol
# Density = 1.727190 g / cm^3
# Si number density = 17.311301 Si / 1000 Ang^3
#
#
#
# Elastic Constant Matrix: (Units=GPa)
#
#
# Indices 1 2 3 4 5 6 
#
# 1 36.1343 43.4326 15.2531 0.0000 0.0000 0.0000
# 2 43.4326 151.1131 28.8586 0.0000 0.0000 0.0000
# 3 15.2531 28.8586 49.7104 0.0000 0.0000 0.0000
# 4 0.0000 0.0000 0.0000 35.3071 0.0000 0.0000
# 5 0.0000 0.0000 0.0000 0.0000 13.8949 0.0000
# 6 0.0000 0.0000 0.0000 0.0000 0.0000 5.4883
#
#
#
# Elastic Compliance Matrix: (Units=1/GPa)
#
#
# Indices 1 2 3 4 5 6 
#
# 1 0.044335 -0.011410 -0.006980 0.000000 0.000000 0.000000
# 2 -0.011410 0.010379 -0.002524 0.000000 0.000000 0.000000
# 3 -0.006980 -0.002524 0.023724 0.000000 0.000000 0.000000
# 4 0.000000 0.000000 0.000000 0.028323 0.000000 0.000000
# 5 0.000000 0.000000 0.000000 0.000000 0.071969 0.000000
# 6 0.000000 0.000000 0.000000 0.000000 0.000000 0.182204
#
#
# Mechanical properties :
#
#
# Convention : Reuss Voigt Hill
#
# Bulk Modulus (GPa) = 27.31521 45.78292 36.54907
# Shear Modulus (GPa) = 12.04919 20.89897 16.47408
#
# Velocity S-wave (km/s) = 2.64110 3.47831 3.08821
# Velocity P-wave (km/s) = 5.01135 6.52961 5.82020
#
# Compressibility (1/GPa) = 0.03660963
#
# Stress axis : x y z
#
# Youngs Moduli (GPa) = 22.55547 96.34828 42.15184
#
# Poissons Ratio (x) = 1.09931 0.29422
# Poissons Ratio (y) = 0.25735 0.10641
# Poissons Ratio (z) = 0.15744 0.24322
#
# Static dielectric constant tensor:
#      x y z
#    x 1.581340 0.000000 0.000000 
#    y 0.000000 1.618750 0.000000 
#    z 0.000000 0.000000 1.557910 
# 
# From -- ./inp_files/9570.got.cif
#   From: 2010.05.17/outbox.cif.g08.bks.cpg/sg51_5_cif.got.tgz:9570.got - 2010.06.03 11:52:47.
