data_PCOD9406541
_publ_section_title
;
Structure prediction by ZEFSAII (Michael W. Deem and Ramdas Pophale) SiO2 
 PCOD9406541
Probable space group: P M M A
;
_chemical_formula_sum "Si O2"
_cell_formula_units_Z 48
_cell_length_a 15.375392
_cell_length_b 7.868014
_cell_length_c 17.511626
_cell_angle_alpha 90.000000
_cell_angle_beta 90.000000
_cell_angle_gamma 90.000000
_cell_volume 2118.447933
_symmetry_space_group_name_H-M "P M M A"
_symmetry_group_IT_number 51
_symmetry_cell_setting 'orthorhombic'
loop_
_space_group_symop_operation_xyz
x,y,z
1/2-x,-y,z
1/2+x,-y,-z
-x,y,-z
-x,-y,-z
1/2+x,y,-z
1/2-x,y,z
x,-y,z
loop_
_atom_site_type_symbol
_atom_site_label
_atom_site_fract_x
_atom_site_fract_y
_atom_site_fract_z
Si Si1 0.152327 0.797358 0.991860
Si Si2 0.655077 0.692347 0.663711
Si Si3 0.516058 0.802131 0.416427
Si Si4 0.650979 0.240143 0.840264
Si Si5 0.350308 0.793149 0.708003
Si Si6 0.534775 0.301379 0.148098
O O1 0.250000 0.776945 0.959479
O O2 0.081470 0.740271 0.931381
O O3 0.141568 0.000000 0.009568
O O4 0.148868 0.696797 0.071732
O O5 0.750000 0.765290 0.643200
O O6 0.649732 0.500000 0.634103
O O7 0.573084 0.790592 0.631334
O O8 0.652526 0.680854 0.755726
O O9 0.500000 0.725294 0.500000
O O10 0.592902 0.730292 0.363938
O O11 0.538862 0.000000 0.428335
O O12 0.750000 0.165557 0.841238
O O13 0.549762 0.184109 0.839038
O O14 0.250000 0.741497 0.704073
O O15 0.396987 0.729616 0.784410
O O16 0.353250 0.000000 0.709690
O O17 0.507452 0.500000 0.150212
#
# Coordination Sequence:
#
# PCOD9406541 Si02
#       6
#     8   8   8   8   8   8
#     4  10  23  42  62  87 122 164 207 250 299 356
#     4  10  21  39  63  91 125 164 201 243 302 364
#     4  10  22  40  64  94 124 157 200 251 304 360
#     4  10  22  39  60  87 120 159 203 250 300 357
#     4  10  22  41  63  86 119 163 204 245 299 361
#     4  12  24  38  61  91 121 158 204 253 304 356
#
# _framework density 22.658096
#
# number of rings (size 3 to 8) (size 9 to 14) (size 15 to 20)
#    0.000    1.667    1.667    2.000    0.000    9.667 
#    0.000    6.667    0.000    0.000    0.000    0.000 
#    0.000    0.000    0.000    0.000    0.000    0.000 
#
# Total GULP energy -267257.133040 kJ/mol
# GULP energy per Si atom -5567.856938 kJ/mol
# Density = 2.260653 g / cm^3
# Si number density = 22.658096 Si / 1000 Ang^3
#
#
#
# Elastic Constant Matrix: (Units=GPa)
#
#
# Indices 1 2 3 4 5 6 
#
# 1 196.6916 20.6572 69.5715 0.0000 0.0000 0.0000
# 2 20.6572 65.6949 16.0860 0.0000 0.0000 0.0000
# 3 69.5715 16.0860 143.4048 0.0000 0.0000 0.0000
# 4 0.0000 0.0000 0.0000 117.4955 0.0000 0.0000
# 5 0.0000 0.0000 0.0000 0.0000 16.2502 0.0000
# 6 0.0000 0.0000 0.0000 0.0000 0.0000 -47.3503
#
#
#
# Elastic Compliance Matrix: (Units=1/GPa)
#
#
# Indices 1 2 3 4 5 6 
#
# 1 0.006236 -0.001255 -0.002885 0.000000 0.000000 0.000000
# 2 -0.001255 0.015904 -0.001175 0.000000 0.000000 0.000000
# 3 -0.002885 -0.001175 0.008505 0.000000 0.000000 0.000000
# 4 0.000000 0.000000 0.000000 0.008511 0.000000 0.000000
# 5 0.000000 0.000000 0.000000 0.000000 0.061538 0.000000
# 6 0.000000 0.000000 0.000000 0.000000 0.000000 -0.021119
#
#
# Mechanical properties :
#
#
# Convention : Reuss Voigt Hill
#
# Bulk Modulus (GPa) = 49.96077 68.71338 59.33708
# Shear Modulus (GPa) = 51.61257 37.24420 44.42838
#
# Velocity S-wave (km/s) = 4.77790 4.05871 4.43292
# Velocity P-wave (km/s) = 7.24814 7.23576 7.24195
#
# Compressibility (1/GPa) = 0.02001571
#
# Stress axis : x y z
#
# Youngs Moduli (GPa) = 160.35396 62.87660 117.58343
#
# Poissons Ratio (x) = 0.07888 0.33919
# Poissons Ratio (y) = 0.20118 0.13820
# Poissons Ratio (z) = 0.46257 0.07390
#
# Static dielectric constant tensor:
#      x y z
#    x 1.820870 0.000000 0.000000 
#    y 0.000000 1.955890 0.000000 
#    z 0.000000 0.000000 1.798390 
# 
# From -- ./inp_files/29411.got.cif
#   From: 2010.05.17/outbox.cif.g08.bks.cpg/sg51_15_cif.got.tgz:29411.got - 2010.06.03 11:52:47.
