data_PCOD9406902
_publ_section_title
;
Structure prediction by ZEFSAII (Michael W. Deem and Ramdas Pophale) SiO2 
 PCOD9406902
Probable space group: P M M A
;
_chemical_formula_sum "Si O2"
_cell_formula_units_Z 34
_cell_length_a 18.836787
_cell_length_b 7.708318
_cell_length_c 9.702082
_cell_angle_alpha 90.000000
_cell_angle_beta 90.000000
_cell_angle_gamma 90.000000
_cell_volume 1408.741766
_symmetry_space_group_name_H-M "P M M A"
_symmetry_group_IT_number 51
_symmetry_cell_setting 'orthorhombic'
loop_
_space_group_symop_operation_xyz
x,y,z
1/2-x,-y,z
1/2+x,-y,-z
-x,y,-z
-x,-y,-z
1/2+x,y,-z
1/2-x,y,z
x,-y,z
loop_
_atom_site_type_symbol
_atom_site_label
_atom_site_fract_x
_atom_site_fract_y
_atom_site_fract_z
Si Si1 0.963620 0.204643 0.222757
Si Si2 0.326700 0.795201 0.941559
Si Si3 0.638935 0.194567 0.456967
Si Si4 0.750000 0.500000 0.393278
Si Si5 0.622109 0.302331 0.765215
O O1 0.897496 0.272848 0.132215
O O2 0.936157 0.217331 0.379411
O O3 0.038442 0.294092 0.201296
O O4 0.974342 0.000000 0.189579
O O5 0.250000 0.718139 0.899740
O O6 0.324913 0.000000 0.910792
O O7 0.336666 0.772608 0.104521
O O8 0.689000 0.346664 0.405502
O O9 0.633469 0.206112 0.621427
O O10 0.663356 0.000000 0.418623
O O11 0.645254 0.500000 0.744537
#
# Coordination Sequence:
#
# PCOD9406902 Si02
#       5
#     8   8   8   2   8
#     4  10  23  44  70  98 130 178 232 279 341 410
#     4  10  23  43  67  95 131 177 230 282 341 410
#     4  11  25  45  72 101 138 180 226 280 339 404
#     4  12  26  44  66 108 144 180 216 282 340 418
#     4  12  25  42  65 100 137 178 231 283 339 406
#
# _framework density 24.135014000000002
#
# number of rings (size 3 to 8) (size 9 to 14) (size 15 to 20)
#    0.000    1.176    1.176    3.882    4.941    7.059 
#    0.000    0.000    0.000    0.000    0.000    0.000 
#    0.000    0.000    0.000    0.000    0.000    0.000 
#
# Total GULP energy -189854.818953 kJ/mol
# GULP energy per Si atom -5583.965263 kJ/mol
# Density = 2.408008 g / cm^3
# Si number density = 24.135014 Si / 1000 Ang^3
#
#
#
# Elastic Constant Matrix: (Units=GPa)
#
#
# Indices 1 2 3 4 5 6 
#
# 1 97.5650 27.5863 10.9341 0.0000 0.0000 0.0000
# 2 27.5863 121.5066 -0.9408 0.0000 0.0000 0.0000
# 3 10.9341 -0.9408 127.1895 0.0000 0.0000 0.0000
# 4 0.0000 0.0000 0.0000 -123.5665 0.0000 0.0000
# 5 0.0000 0.0000 0.0000 0.0000 0.2477 0.0000
# 6 0.0000 0.0000 0.0000 0.0000 0.0000 29.9290
#
#
#
# Elastic Compliance Matrix: (Units=1/GPa)
#
#
# Indices 1 2 3 4 5 6 
#
# 1 0.011071 -0.002521 -0.000970 0.000000 0.000000 0.000000
# 2 -0.002521 0.008805 0.000282 0.000000 0.000000 0.000000
# 3 -0.000970 0.000282 0.007948 0.000000 0.000000 0.000000
# 4 0.000000 0.000000 0.000000 -0.008093 0.000000 0.000000
# 5 0.000000 0.000000 0.000000 0.000000 4.037457 0.000000
# 6 0.000000 0.000000 0.000000 0.000000 0.000000 0.033412
#
#
# Mechanical properties :
#
#
# Convention : Reuss Voigt Hill
#
# Bulk Modulus (GPa) = 46.71958 46.82446 46.77202
# Shear Modulus (GPa) = 1.21828 1.90080 1.55954
#
# Velocity S-wave (km/s) = 0.71125 0.88841 0.80472
# Velocity P-wave (km/s) = 4.48041 4.52720 4.50387
#
# Compressibility (1/GPa) = 0.02140430
#
# Stress axis : x y z
#
# Youngs Moduli (GPa) = 90.32480 113.57753 125.82116
#
# Poissons Ratio (x) = 0.28634 0.12210
# Poissons Ratio (y) = 0.22771 -0.03546
# Poissons Ratio (z) = 0.08765 -0.03201
#
# Static dielectric constant tensor:
#      x y z
#    x 1.911100 0.000000 0.000000 
#    y 0.000000 1.874060 0.000000 
#    z 0.000000 0.000000 1.943920 
# 
# From -- ./inp_files/10402.got.cif
#   From: 2010.05.17/outbox.cif.g08.bks.cpg/sg51_6_cif.got.tgz:10402.got - 2010.06.03 11:52:47.
