data_PCOD9406644
_publ_section_title
;
Structure prediction by ZEFSAII (Michael W. Deem and Ramdas Pophale) SiO2 
 PCOD9406644
Probable space group: P M M A
;
_chemical_formula_sum "Si O2"
_cell_formula_units_Z 40
_cell_length_a 14.910299
_cell_length_b 13.900614
_cell_length_c 9.825346
_cell_angle_alpha 90.000000
_cell_angle_beta 90.000000
_cell_angle_gamma 90.000000
_cell_volume 2036.423919
_symmetry_space_group_name_H-M "P M M A"
_symmetry_group_IT_number 51
_symmetry_cell_setting 'orthorhombic'
loop_
_space_group_symop_operation_xyz
x,y,z
1/2-x,-y,z
1/2+x,-y,-z
-x,y,-z
-x,-y,-z
1/2+x,y,-z
1/2-x,y,z
x,-y,z
loop_
_atom_site_type_symbol
_atom_site_label
_atom_site_fract_x
_atom_site_fract_y
_atom_site_fract_z
Si Si1 0.750000 0.753195 0.014242
Si Si2 0.430368 0.613836 0.608265
Si Si3 0.590965 0.612726 0.085211
Si Si4 0.750000 0.884242 0.282330
Si Si5 0.250000 0.391025 0.440254
Si Si6 0.394342 0.115073 0.488153
Si Si7 0.750000 0.797655 0.712200
O O1 0.664694 0.682448 0.022326
O O2 0.750000 0.823541 0.144534
O O3 0.750000 0.811246 0.873040
O O4 0.500000 0.654916 0.500000
O O5 0.451737 0.500000 0.622251
O O6 0.428976 0.649202 0.761692
O O7 0.334865 0.623035 0.537239
O O8 0.621530 0.500000 0.092193
O O9 0.500000 0.614651 0.000000
O O10 0.836883 0.860413 0.376175
O O11 0.750000 0.000000 0.258108
O O12 0.250000 0.500000 0.388560
O O13 0.250000 0.315883 0.319462
O O14 0.500000 0.137326 0.500000
O O15 0.338105 0.161162 0.364166
O O16 0.387286 0.000000 0.471796
#
# Coordination Sequence:
#
# PCOD9406644 Si02
#       7
#     4   8   8   4   4   8   4
#     4  12  26  40  58  92 129 165 205 246 303 374
#     4   9  19  36  59  82 107 153 212 261 300 342
#     4  10  23  41  60  85 124 170 209 253 305 359
#     4   9  21  42  67  93 122 158 195 246 312 369
#     4  10  22  37  56  85 120 160 209 251 295 348
#     4   9  20  43  72  96 119 152 197 251 313 371
#     4  11  25  37  59  96 121 163 205 249 302 351
#
# _framework density 19.642275999999999
#
# number of rings (size 3 to 8) (size 9 to 14) (size 15 to 20)
#    0.000    2.200    0.000    1.800    8.400    5.600 
#    0.000    0.000    0.000    4.200    0.000    0.000 
#    0.000    0.000    0.000    0.000    0.000    0.000 
#
# Total GULP energy -223426.640574 kJ/mol
# GULP energy per Si atom -5585.666014 kJ/mol
# Density = 1.959757 g / cm^3
# Si number density = 19.642276 Si / 1000 Ang^3
#
#
#
# Elastic Constant Matrix: (Units=GPa)
#
#
# Indices 1 2 3 4 5 6 
#
# 1 140.4381 44.6391 61.5289 0.0000 0.0000 0.0000
# 2 44.6391 96.9883 48.7614 0.0000 0.0000 0.0000
# 3 61.5289 48.7614 138.1935 0.0000 0.0000 0.0000
# 4 0.0000 0.0000 0.0000 25.9943 0.0000 0.0000
# 5 0.0000 0.0000 0.0000 0.0000 30.2649 0.0000
# 6 0.0000 0.0000 0.0000 0.0000 0.0000 64.5008
#
#
#
# Elastic Compliance Matrix: (Units=1/GPa)
#
#
# Indices 1 2 3 4 5 6 
#
# 1 0.009394 -0.002700 -0.003230 0.000000 0.000000 0.000000
# 2 -0.002700 0.013310 -0.003494 0.000000 0.000000 0.000000
# 3 -0.003230 -0.003494 0.009907 0.000000 0.000000 0.000000
# 4 0.000000 0.000000 0.000000 0.038470 0.000000 0.000000
# 5 0.000000 0.000000 0.000000 0.000000 0.033042 0.000000
# 6 0.000000 0.000000 0.000000 0.000000 0.000000 0.015504
#
#
# Mechanical properties :
#
#
# Convention : Reuss Voigt Hill
#
# Bulk Modulus (GPa) = 72.65823 76.16430 74.41127
# Shear Modulus (GPa) = 34.94995 38.86469 36.90732
#
# Velocity S-wave (km/s) = 4.22278 4.45300 4.33942
# Velocity P-wave (km/s) = 7.80044 8.08077 7.94184
#
# Compressibility (1/GPa) = 0.01376307
#
# Stress axis : x y z
#
# Youngs Moduli (GPa) = 106.45368 75.13223 100.93584
#
# Poissons Ratio (x) = 0.20283 0.32601
# Poissons Ratio (y) = 0.28739 0.35271
# Poissons Ratio (z) = 0.34383 0.26254
#
# Static dielectric constant tensor:
#      x y z
#    x 1.661570 0.000000 0.000000 
#    y 0.000000 1.724640 0.000000 
#    z 0.000000 0.000000 1.684820 
# 
# From -- ./inp_files/8047.got.cif
#   From: 2010.05.17/outbox.cif.g08.bks.cpg/sg51_5_cif.got.tgz:8047.got - 2010.06.03 11:52:47.
