data_PCOD9406931
_publ_section_title
;
Structure prediction by ZEFSAII (Michael W. Deem and Ramdas Pophale) SiO2 
 PCOD9406931
Probable space group: P M M A
;
_chemical_formula_sum "Si O2"
_cell_formula_units_Z 56
_cell_length_a 8.575544
_cell_length_b 15.476098
_cell_length_c 20.599560
_cell_angle_alpha 90.000000
_cell_angle_beta 90.000000
_cell_angle_gamma 90.000000
_cell_volume 2733.890368
_symmetry_space_group_name_H-M "P M M A"
_symmetry_group_IT_number 51
_symmetry_cell_setting 'orthorhombic'
loop_
_space_group_symop_operation_xyz
x,y,z
1/2-x,-y,z
1/2+x,-y,-z
-x,y,-z
-x,-y,-z
1/2+x,y,-z
1/2-x,y,z
x,-y,z
loop_
_atom_site_type_symbol
_atom_site_label
_atom_site_fract_x
_atom_site_fract_y
_atom_site_fract_z
Si Si1 0.436138 0.000000 0.927191
Si Si2 0.921514 0.097993 0.719291
Si Si3 0.430286 0.096220 0.588245
Si Si4 0.431263 0.170076 0.141518
Si Si5 0.561702 0.710191 0.432058
Si Si6 0.062998 0.398041 0.308649
Si Si7 0.434875 0.347496 0.832811
Si Si8 0.561730 0.500000 0.072804
O O1 0.498132 0.086041 0.892026
O O2 0.250000 0.000000 0.926481
O O3 0.500000 0.000000 0.000000
O O4 0.750000 0.112932 0.688265
O O5 0.938097 0.157039 0.780806
O O6 0.053568 0.103313 0.665925
O O7 0.920554 0.000000 0.744470
O O8 0.250000 0.093711 0.567966
O O9 0.497304 0.189247 0.568203
O O10 0.499438 0.000000 0.572453
O O11 0.250000 0.178576 0.122881
O O12 0.525201 0.257304 0.132938
O O13 0.500000 0.671512 0.500000
O O14 0.750000 0.711686 0.431530
O O15 0.505006 0.658510 0.368362
O O16 0.250000 0.393148 0.312260
O O17 0.017185 0.500000 0.313675
O O18 0.010470 0.362474 0.238138
O O19 0.250000 0.355262 0.823119
O O20 0.489285 0.419131 0.883808
O O21 0.750000 0.500000 0.069854
O O22 0.500000 0.500000 0.000000
#
# Coordination Sequence:
#
# PCOD9406931 Si02
#       8
#     4   8   8   8   8   8   8   4
#     4  12  26  44  64  88 124 174 223 270 321 382
#     4   9  17  31  52  80 115 152 194 245 302 357
#     4   9  19  35  55  83 119 160 206 254 306 368
#     4  11  22  39  62  91 127 167 212 265 316 378
#     4  11  24  41  62  89 126 169 214 269 327 390
#     4  11  24  43  69  98 127 165 214 269 333 401
#     4  11  23  42  67 100 134 171 216 268 329 392
#     4  10  24  44  68  96 133 170 209 262 320 386
#
# _framework density 20.483629000000001
#
# number of rings (size 3 to 8) (size 9 to 14) (size 15 to 20)
#    0.000    1.571    1.429    3.214    0.000    7.714 
#    0.000    1.429    0.000    0.000    0.000    0.000 
#    0.000    0.000    0.000    0.000    0.000    0.000 
#
# Total GULP energy -312484.513693 kJ/mol
# GULP energy per Si atom -5580.080602 kJ/mol
# Density = 2.043701 g / cm^3
# Si number density = 20.483629 Si / 1000 Ang^3
#
#
#
# Elastic Constant Matrix: (Units=GPa)
#
#
# Indices 1 2 3 4 5 6 
#
# 1 50.8043 26.0687 34.1606 0.0000 0.0000 0.0000
# 2 26.0687 148.5653 66.3216 0.0000 0.0000 0.0000
# 3 34.1606 66.3216 133.1928 0.0000 0.0000 0.0000
# 4 0.0000 0.0000 0.0000 5.1884 0.0000 0.0000
# 5 0.0000 0.0000 0.0000 0.0000 30.7209 0.0000
# 6 0.0000 0.0000 0.0000 0.0000 0.0000 27.2165
#
#
#
# Elastic Compliance Matrix: (Units=1/GPa)
#
#
# Indices 1 2 3 4 5 6 
#
# 1 0.024194 -0.001897 -0.005261 0.000000 0.000000 0.000000
# 2 -0.001897 0.008804 -0.003897 0.000000 0.000000 0.000000
# 3 -0.005261 -0.003897 0.010798 0.000000 0.000000 0.000000
# 4 0.000000 0.000000 0.000000 0.192738 0.000000 0.000000
# 5 0.000000 0.000000 0.000000 0.000000 0.032551 0.000000
# 6 0.000000 0.000000 0.000000 0.000000 0.000000 0.036742
#
#
# Mechanical properties :
#
#
# Convention : Reuss Voigt Hill
#
# Bulk Modulus (GPa) = 46.11288 65.07381 55.59335
# Shear Modulus (GPa) = 14.91804 26.35925 20.63864
#
# Velocity S-wave (km/s) = 2.70161 3.59115 3.17766
# Velocity P-wave (km/s) = 5.68265 7.00235 6.37673
#
# Compressibility (1/GPa) = 0.02168591
#
# Stress axis : x y z
#
# Youngs Moduli (GPa) = 41.33273 113.58949 92.61269
#
# Poissons Ratio (x) = 0.21547 0.48720
# Poissons Ratio (y) = 0.07840 0.36092
# Poissons Ratio (z) = 0.21743 0.44267
#
# Static dielectric constant tensor:
#      x y z
#    x 1.727360 0.000000 0.000000 
#    y 0.000000 1.785860 0.000000 
#    z 0.000000 0.000000 1.706770 
# 
# From -- ./inp_files/32062.got.cif
#   From: 2010.05.17/outbox.cif.g08.bks.cpg/sg51_17_cif.got.tgz:32062.got - 2010.06.03 11:52:47.
