data_PCOD9406794
_publ_section_title
;
Structure prediction by ZEFSAII (Michael W. Deem and Ramdas Pophale) SiO2 
 PCOD9406794
Probable space group: P M M A
;
_chemical_formula_sum "Si O2"
_cell_formula_units_Z 48
_cell_length_a 15.331636
_cell_length_b 16.093490
_cell_length_c 10.150322
_cell_angle_alpha 90.000000
_cell_angle_beta 90.000000
_cell_angle_gamma 90.000000
_cell_volume 2504.485686
_symmetry_space_group_name_H-M "P M M A"
_symmetry_group_IT_number 51
_symmetry_cell_setting 'orthorhombic'
loop_
_space_group_symop_operation_xyz
x,y,z
1/2-x,-y,z
1/2+x,-y,-z
-x,y,-z
-x,-y,-z
1/2+x,y,-z
1/2-x,y,z
x,-y,z
loop_
_atom_site_type_symbol
_atom_site_label
_atom_site_fract_x
_atom_site_fract_y
_atom_site_fract_z
Si Si1 0.851889 0.800851 0.247129
Si Si2 0.922894 0.500000 0.106156
Si Si3 0.849866 0.500000 0.382000
Si Si4 0.104194 0.678828 0.510670
Si Si5 0.147244 0.234844 0.237396
Si Si6 0.510068 0.902539 0.841525
Si Si7 0.852300 0.326470 0.012709
O O1 0.750000 0.826137 0.247808
O O2 0.869470 0.739991 0.370004
O O3 0.921462 0.874403 0.232742
O O4 0.869374 0.744821 0.118313
O O5 0.922459 0.500000 0.265428
O O6 0.877642 0.414015 0.070622
O O7 0.000000 0.500000 0.000000
O O8 0.750000 0.500000 0.326709
O O9 0.861122 0.585596 0.462506
O O10 0.138420 0.720977 0.377514
O O11 0.000000 0.674440 0.500000
O O12 0.250000 0.215722 0.214751
O O13 0.110329 0.299591 0.127832
O O14 0.087895 0.153773 0.216816
O O15 0.526647 0.000000 0.822565
O O16 0.500000 0.888687 0.000000
O O17 0.750000 0.330528 0.991576
#
# Coordination Sequence:
#
# PCOD9406794 Si02
#       7
#     8   4   4   8   8   8   8
#     4  11  22  42  69  96 129 176 219 262 325 398
#     4  12  26  34  62  96 128 169 222 270 319 369
#     4  12  25  44  64  93 134 180 230 271 322 391
#     4  12  25  42  69  95 133 178 222 270 329 389
#     4  11  24  43  66  97 133 172 216 271 335 392
#     4  11  24  42  70 102 133 167 212 275 334 395
#     4  10  22  40  63  88 125 171 217 266 317 376
#
# _framework density 19.165611999999999
#
# number of rings (size 3 to 8) (size 9 to 14) (size 15 to 20)
#    0.000    0.833    5.000    2.500    4.667    1.333 
#    0.000    4.167    0.000    2.000    0.000    0.000 
#    0.000    0.000    0.000    0.000    0.000    0.000 
#
# Total GULP energy -267947.725720 kJ/mol
# GULP energy per Si atom -5582.244286 kJ/mol
# Density = 1.912199 g / cm^3
# Si number density = 19.165612 Si / 1000 Ang^3
#
#
#
# Elastic Constant Matrix: (Units=GPa)
#
#
# Indices 1 2 3 4 5 6 
#
# 1 97.7812 28.5251 0.8138 0.0000 0.0000 0.0000
# 2 28.5251 138.1063 63.5133 0.0000 0.0000 0.0000
# 3 0.8138 63.5133 152.3841 0.0000 0.0000 0.0000
# 4 0.0000 0.0000 0.0000 22.5880 0.0000 0.0000
# 5 0.0000 0.0000 0.0000 0.0000 25.7575 0.0000
# 6 0.0000 0.0000 0.0000 0.0000 0.0000 203.1539
#
#
#
# Elastic Compliance Matrix: (Units=1/GPa)
#
#
# Indices 1 2 3 4 5 6 
#
# 1 0.011030 -0.002785 0.001102 0.000000 0.000000 0.000000
# 2 -0.002785 0.009661 -0.004012 0.000000 0.000000 0.000000
# 3 0.001102 -0.004012 0.008229 0.000000 0.000000 0.000000
# 4 0.000000 0.000000 0.000000 0.044271 0.000000 0.000000
# 5 0.000000 0.000000 0.000000 0.000000 0.038824 0.000000
# 6 0.000000 0.000000 0.000000 0.000000 0.000000 0.004922
#
#
# Mechanical properties :
#
#
# Convention : Reuss Voigt Hill
#
# Bulk Modulus (GPa) = 57.04521 63.77512 60.41017
# Shear Modulus (GPa) = 37.26611 69.99451 53.63031
#
# Velocity S-wave (km/s) = 4.41435 6.04981 5.29559
# Velocity P-wave (km/s) = 7.47067 9.06357 8.30540
#
# Compressibility (1/GPa) = 0.01752995
#
# Stress axis : x y z
#
# Youngs Moduli (GPa) = 90.66037 103.50908 121.52758
#
# Poissons Ratio (x) = 0.28827 -0.13391
# Poissons Ratio (y) = 0.25248 0.48754
# Poissons Ratio (z) = -0.09989 0.41526
#
# Static dielectric constant tensor:
#      x y z
#    x 1.714970 0.000000 0.000000 
#    y 0.000000 1.674700 0.000000 
#    z 0.000000 0.000000 1.691930 
# 
# From -- ./inp_files/8310.got.cif
#   From: 2010.05.17/outbox.cif.g08.bks.cpg/sg51_5_cif.got.tgz:8310.got - 2010.06.03 11:52:47.
