data_PCOD9406350
_publ_section_title
;
Structure prediction by ZEFSAII (Michael W. Deem and Ramdas Pophale) SiO2 
 PCOD9406350
Probable space group: P M M A
;
_chemical_formula_sum "Si O2"
_cell_formula_units_Z 56
_cell_length_a 8.982499
_cell_length_b 13.829468
_cell_length_c 21.464476
_cell_angle_alpha 90.000000
_cell_angle_beta 90.000000
_cell_angle_gamma 90.000000
_cell_volume 2666.385519
_symmetry_space_group_name_H-M "P M M A"
_symmetry_group_IT_number 51
_symmetry_cell_setting 'orthorhombic'
loop_
_space_group_symop_operation_xyz
x,y,z
1/2-x,-y,z
1/2+x,-y,-z
-x,y,-z
-x,-y,-z
1/2+x,y,-z
1/2-x,y,z
x,-y,z
loop_
_atom_site_type_symbol
_atom_site_label
_atom_site_fract_x
_atom_site_fract_y
_atom_site_fract_z
Si Si1 0.574031 0.802546 0.064216
Si Si2 0.920702 0.116560 0.812859
Si Si3 0.426478 0.204319 0.436724
Si Si4 0.073429 0.611327 0.869825
Si Si5 0.578061 0.883171 0.314902
Si Si6 0.425403 0.385933 0.613168
Si Si7 0.918593 0.382804 0.741397
O O1 0.750000 0.819211 0.061793
O O2 0.506631 0.852734 0.125145
O O3 0.546531 0.688127 0.075963
O O4 0.500000 0.834444 0.000000
O O5 0.750000 0.150222 0.815287
O O6 0.999664 0.149680 0.749083
O O7 0.919494 0.000000 0.810790
O O8 0.500000 0.165629 0.500000
O O9 0.250000 0.195729 0.439113
O O10 0.492064 0.152386 0.375805
O O11 0.476807 0.315899 0.429033
O O12 0.250000 0.614590 0.854705
O O13 0.035839 0.500000 0.884958
O O14 0.982598 0.643517 0.808776
O O15 0.750000 0.851257 0.316577
O O16 0.576781 0.000000 0.314730
O O17 0.250000 0.368607 0.603792
O O18 0.454540 0.500000 0.603443
O O19 0.473195 0.360453 0.684025
O O20 0.750000 0.347611 0.730265
O O21 0.912512 0.500000 0.742690
#
# Coordination Sequence:
#
# PCOD9406350 Si02
#       7
#     8   8   8   8   8   8   8
#     4  11  24  40  60  88 123 164 208 257 311 372
#     4  10  22  42  68  96 125 159 201 251 309 372
#     4  12  26  43  64  92 128 169 212 260 311 371
#     4   9  19  36  56  80 115 160 206 252 304 363
#     4  10  22  43  71 100 129 162 203 253 310 373
#     4  10  21  38  60  86 121 165 211 260 312 368
#     4   9  17  30  51  81 113 148 196 251 304 358
#
# _framework density 21.002216000000001
#
# number of rings (size 3 to 8) (size 9 to 14) (size 15 to 20)
#    0.000    1.857    0.000    3.429    2.000    6.571 
#    0.000    0.000    0.000    0.000    0.000    0.000 
#    0.000    0.000    0.000    0.000    0.000    0.000 
#
# Total GULP energy -313180.820214 kJ/mol
# GULP energy per Si atom -5592.514647 kJ/mol
# Density = 2.095441 g / cm^3
# Si number density = 21.002216 Si / 1000 Ang^3
#
#
#
# Elastic Constant Matrix: (Units=GPa)
#
#
# Indices 1 2 3 4 5 6 
#
# 1 151.0210 27.6792 90.7768 0.0000 0.0000 0.0000
# 2 27.6792 46.4256 25.5203 0.0000 0.0000 0.0000
# 3 90.7768 25.5203 173.4190 0.0000 0.0000 0.0000
# 4 0.0000 0.0000 0.0000 13.2133 0.0000 0.0000
# 5 0.0000 0.0000 0.0000 0.0000 37.9867 0.0000
# 6 0.0000 0.0000 0.0000 0.0000 0.0000 28.8073
#
#
#
# Elastic Compliance Matrix: (Units=1/GPa)
#
#
# Indices 1 2 3 4 5 6 
#
# 1 0.010132 -0.003400 -0.004803 0.000000 0.000000 0.000000
# 2 -0.003400 0.024577 -0.001837 0.000000 0.000000 0.000000
# 3 -0.004803 -0.001837 0.008551 0.000000 0.000000 0.000000
# 4 0.000000 0.000000 0.000000 0.075682 0.000000 0.000000
# 5 0.000000 0.000000 0.000000 0.000000 0.026325 0.000000
# 6 0.000000 0.000000 0.000000 0.000000 0.000000 0.034713
#
#
# Mechanical properties :
#
#
# Convention : Reuss Voigt Hill
#
# Bulk Modulus (GPa) = 43.14249 73.20202 58.17226
# Shear Modulus (GPa) = 24.06311 31.12740 27.59526
#
# Velocity S-wave (km/s) = 3.38855 3.85398 3.62874
# Velocity P-wave (km/s) = 5.99134 7.39827 6.73166
#
# Compressibility (1/GPa) = 0.02317900
#
# Stress axis : x y z
#
# Youngs Moduli (GPa) = 98.69737 40.68865 116.94614
#
# Poissons Ratio (x) = 0.13836 0.56172
# Poissons Ratio (y) = 0.33561 0.21480
# Poissons Ratio (z) = 0.47407 0.07474
#
# Static dielectric constant tensor:
#      x y z
#    x 1.703470 0.000000 0.000000 
#    y 0.000000 1.815500 0.000000 
#    z 0.000000 0.000000 1.712360 
# 
# From -- ./inp_files/31900.got.cif
#   From: 2010.05.17/outbox.cif.g08.bks.cpg/sg51_16_cif.got.tgz:31900.got - 2010.06.03 11:52:47.
