data_PCOD9406438
_publ_section_title
;
Structure prediction by ZEFSAII (Michael W. Deem and Ramdas Pophale) SiO2 
 PCOD9406438
Probable space group: P M M A
;
_chemical_formula_sum "Si O2"
_cell_formula_units_Z 52
_cell_length_a 8.646208
_cell_length_b 16.268870
_cell_length_c 18.226273
_cell_angle_alpha 90.000000
_cell_angle_beta 90.000000
_cell_angle_gamma 90.000000
_cell_volume 2563.781084
_symmetry_space_group_name_H-M "P M M A"
_symmetry_group_IT_number 51
_symmetry_cell_setting 'orthorhombic'
loop_
_space_group_symop_operation_xyz
x,y,z
1/2-x,-y,z
1/2+x,-y,-z
-x,y,-z
-x,-y,-z
1/2+x,y,-z
1/2-x,y,z
x,-y,z
loop_
_atom_site_type_symbol
_atom_site_label
_atom_site_fract_x
_atom_site_fract_y
_atom_site_fract_z
Si Si1 0.067424 0.158175 0.579339
Si Si2 0.567363 0.590639 0.571890
Si Si3 0.567559 0.000000 0.655399
Si Si4 0.566887 0.716638 0.693838
Si Si5 0.936326 0.853239 0.920400
Si Si6 0.563334 0.324735 0.860509
Si Si7 0.935034 0.000000 0.179953
Si Si8 0.435250 0.500000 0.917337
O O1 0.250000 0.146334 0.572297
O O2 0.000000 0.182128 0.500000
O O3 0.983218 0.076903 0.607113
O O4 0.030333 0.220738 0.645302
O O5 0.500000 0.633776 0.500000
O O6 0.750000 0.586371 0.559919
O O7 0.497401 0.500000 0.575023
O O8 0.545929 0.633147 0.648899
O O9 0.750000 0.000000 0.668428
O O10 0.485895 0.000000 0.734970
O O11 0.750000 0.740155 0.691394
O O12 0.523639 0.701464 0.777360
O O13 0.750000 0.857230 0.918590
O O14 0.981305 0.757302 0.906263
O O15 0.000189 0.918090 0.860634
O O16 0.000000 0.877761 0.000000
O O17 0.750000 0.333619 0.865501
O O18 0.492376 0.413291 0.881730
O O19 0.750000 0.000000 0.174897
O O20 0.250000 0.500000 0.917548
O O21 0.500000 0.500000 0.000000
#
# Coordination Sequence:
#
# PCOD9406438 Si02
#       8
#     8   8   4   8   8   8   4   4
#     4  12  25  42  64  92 128 169 216 265 317 374
#     4   9  18  32  52  79 111 152 198 245 297 354
#     4  12  25  44  67  92 126 164 210 262 317 378
#     4  10  21  38  62  90 122 161 208 257 313 371
#     4  11  23  41  65  95 129 171 218 267 323 387
#     4  10  23  42  67  95 128 168 213 267 328 388
#     4  12  25  42  67 100 136 172 210 262 323 388
#     4  12  26  44  68  96 129 168 215 268 326 392
#
# _framework density 20.282544000000001
#
# number of rings (size 3 to 8) (size 9 to 14) (size 15 to 20)
#    0.000    1.231    0.000    6.231    1.077    6.154 
#    0.000    0.000    0.000    0.000    0.000    0.000 
#    0.000    0.000    0.000    0.000    0.000    0.000 
#
# Total GULP energy -290423.175517 kJ/mol
# GULP energy per Si atom -5585.061068 kJ/mol
# Density = 2.023638 g / cm^3
# Si number density = 20.282544 Si / 1000 Ang^3
#
#
#
# Elastic Constant Matrix: (Units=GPa)
#
#
# Indices 1 2 3 4 5 6 
#
# 1 81.2190 41.7631 26.4628 0.0000 0.0000 0.0000
# 2 41.7631 119.6001 33.9259 0.0000 0.0000 0.0000
# 3 26.4628 33.9259 104.1284 0.0000 0.0000 0.0000
# 4 0.0000 0.0000 0.0000 42.1696 0.0000 0.0000
# 5 0.0000 0.0000 0.0000 0.0000 29.5344 0.0000
# 6 0.0000 0.0000 0.0000 0.0000 0.0000 29.7987
#
#
#
# Elastic Compliance Matrix: (Units=1/GPa)
#
#
# Indices 1 2 3 4 5 6 
#
# 1 0.015534 -0.004743 -0.002402 0.000000 0.000000 0.000000
# 2 -0.004743 0.010661 -0.002268 0.000000 0.000000 0.000000
# 3 -0.002402 -0.002268 0.010953 0.000000 0.000000 0.000000
# 4 0.000000 0.000000 0.000000 0.023714 0.000000 0.000000
# 5 0.000000 0.000000 0.000000 0.000000 0.033859 0.000000
# 6 0.000000 0.000000 0.000000 0.000000 0.000000 0.033558
#
#
# Mechanical properties :
#
#
# Convention : Reuss Voigt Hill
#
# Bulk Modulus (GPa) = 54.58210 56.58346 55.58278
# Shear Modulus (GPa) = 32.63445 33.82026 33.22736
#
# Velocity S-wave (km/s) = 4.01558 4.08788 4.05189
# Velocity P-wave (km/s) = 6.96197 7.08796 7.02525
#
# Compressibility (1/GPa) = 0.01832103
#
# Stress axis : x y z
#
# Youngs Moduli (GPa) = 64.37520 93.80264 91.29892
#
# Poissons Ratio (x) = 0.44489 0.21934
# Poissons Ratio (y) = 0.30532 0.20707
# Poissons Ratio (z) = 0.15466 0.21275
#
# Static dielectric constant tensor:
#      x y z
#    x 1.685210 0.000000 0.000000 
#    y 0.000000 2.097720 0.000000 
#    z 0.000000 0.000000 1.718780 
# 
# From -- ./inp_files/28017.got.cif
#   From: 2010.05.17/outbox.cif.g08.bks.cpg/sg51_15_cif.got.tgz:28017.got - 2010.06.03 11:52:47.
