data_PCOD9406894
_publ_section_title
;
Structure prediction by ZEFSAII (Michael W. Deem and Ramdas Pophale) SiO2 
 PCOD9406894
Probable space group: P M M A
;
_chemical_formula_sum "Si O2"
_cell_formula_units_Z 56
_cell_length_a 15.363790
_cell_length_b 15.805638
_cell_length_c 10.206818
_cell_angle_alpha 90.000000
_cell_angle_beta 90.000000
_cell_angle_gamma 90.000000
_cell_volume 2478.567577
_symmetry_space_group_name_H-M "P M M A"
_symmetry_group_IT_number 51
_symmetry_cell_setting 'orthorhombic'
loop_
_space_group_symop_operation_xyz
x,y,z
1/2-x,-y,z
1/2+x,-y,-z
-x,y,-z
-x,-y,-z
1/2+x,y,-z
1/2-x,y,z
x,-y,z
loop_
_atom_site_type_symbol
_atom_site_label
_atom_site_fract_x
_atom_site_fract_y
_atom_site_fract_z
Si Si1 0.348149 0.098148 0.511959
Si Si2 0.344670 0.776111 0.970105
Si Si3 0.035720 0.176429 0.729197
Si Si4 0.461877 0.647569 0.321511
Si Si5 0.647508 0.601064 0.419816
Si Si6 0.623815 0.094615 0.791846
Si Si7 0.901010 0.407633 0.949282
O O1 0.250000 0.105932 0.562681
O O2 0.409044 0.156910 0.599874
O O3 0.345065 0.114499 0.356151
O O4 0.376371 0.000000 0.525718
O O5 0.250000 0.792232 0.913985
O O6 0.354873 0.836322 0.097347
O O7 0.353703 0.677253 0.005551
O O8 0.411612 0.797108 0.856740
O O9 0.969597 0.252754 0.700625
O O10 0.979710 0.096531 0.771765
O O11 0.565595 0.621341 0.322111
O O12 0.402090 0.631328 0.448298
O O13 0.412576 0.600151 0.206057
O O14 0.750000 0.631818 0.402819
O O15 0.653870 0.500000 0.423127
O O16 0.652691 0.000000 0.827893
O O17 0.864599 0.500000 0.986797
O O18 0.000000 0.402719 0.000000
#
# Coordination Sequence:
#
# PCOD9406894 Si02
#       7
#     8   8   8   8   8   8   8
#     4  10  23  43  67 101 139 177 227 286 350 419
#     4  12  26  45  67 100 139 176 232 293 354 422
#     4  12  24  42  66  98 137 183 227 282 341 424
#     4  11  22  41  68  98 136 178 230 285 347 416
#     4  10  23  42  65  99 138 179 232 288 350 422
#     4  11  24  45  72  99 134 181 231 281 342 420
#     4  11  22  43  69  92 127 176 229 282 342 408
#
# _framework density 22.593693999999999
#
# number of rings (size 3 to 8) (size 9 to 14) (size 15 to 20)
#    0.000    1.000    2.857    3.857    4.000    5.714 
#    0.000    0.000    0.000    0.000    0.000    0.000 
#    0.000    0.000    0.000    0.000    0.000    0.000 
#
# Total GULP energy -312596.413892 kJ/mol
# GULP energy per Si atom -5582.078819 kJ/mol
# Density = 2.254227 g / cm^3
# Si number density = 22.593694 Si / 1000 Ang^3
#
#
#
# Elastic Constant Matrix: (Units=GPa)
#
#
# Indices 1 2 3 4 5 6 
#
# 1 98.9222 29.8790 5.1289 0.0000 0.0000 0.0000
# 2 29.8790 137.4573 30.3788 0.0000 0.0000 0.0000
# 3 5.1289 30.3788 64.6410 0.0000 0.0000 0.0000
# 4 0.0000 0.0000 0.0000 51.8435 0.0000 0.0000
# 5 0.0000 0.0000 0.0000 0.0000 3.5583 0.0000
# 6 0.0000 0.0000 0.0000 0.0000 0.0000 419.3797
#
#
#
# Elastic Compliance Matrix: (Units=1/GPa)
#
#
# Indices 1 2 3 4 5 6 
#
# 1 0.010824 -0.002414 0.000276 0.000000 0.000000 0.000000
# 2 -0.002414 0.008656 -0.003877 0.000000 0.000000 0.000000
# 3 0.000276 -0.003877 0.017270 0.000000 0.000000 0.000000
# 4 0.000000 0.000000 0.000000 0.019289 0.000000 0.000000
# 5 0.000000 0.000000 0.000000 0.000000 0.281032 0.000000
# 6 0.000000 0.000000 0.000000 0.000000 0.000000 0.002384
#
#
# Mechanical properties :
#
#
# Convention : Reuss Voigt Hill
#
# Bulk Modulus (GPa) = 40.45209 47.97710 44.21459
# Shear Modulus (GPa) = 13.89950 110.66522 62.28236
#
# Velocity S-wave (km/s) = 2.48300 7.00621 5.25605
# Velocity P-wave (km/s) = 5.11502 9.31290 7.51310
#
# Compressibility (1/GPa) = 0.02472060
#
# Stress axis : x y z
#
# Youngs Moduli (GPa) = 92.38995 115.52145 57.90359
#
# Poissons Ratio (x) = 0.27883 -0.01595
# Poissons Ratio (y) = 0.22299 0.22447
# Poissons Ratio (z) = -0.02545 0.44784
#
# Static dielectric constant tensor:
#      x y z
#    x 1.745150 0.000000 0.000000 
#    y 0.000000 1.868550 0.000000 
#    z 0.000000 0.000000 1.935630 
# 
# From -- ./inp_files/16647.got.cif
#   From: 2010.05.17/outbox.cif.g08.bks.cpg/sg51_9_cif.got.tgz:16647.got - 2010.06.03 11:52:47.
