data_PCOD9406073
_publ_section_title
;
Structure prediction by ZEFSAII (Michael W. Deem and Ramdas Pophale) SiO2 
 PCOD9406073
Probable space group: P M M A
;
_chemical_formula_sum "Si O2"
_cell_formula_units_Z 40
_cell_length_a 16.212264
_cell_length_b 7.592194
_cell_length_c 14.314932
_cell_angle_alpha 90.000000
_cell_angle_beta 90.000000
_cell_angle_gamma 90.000000
_cell_volume 1761.977074
_symmetry_space_group_name_H-M "P M M A"
_symmetry_group_IT_number 51
_symmetry_cell_setting 'orthorhombic'
loop_
_space_group_symop_operation_xyz
x,y,z
1/2-x,-y,z
1/2+x,-y,-z
-x,y,-z
-x,-y,-z
1/2+x,y,-z
1/2-x,y,z
x,-y,z
loop_
_atom_site_type_symbol
_atom_site_label
_atom_site_fract_x
_atom_site_fract_y
_atom_site_fract_z
Si Si1 0.250000 0.215004 0.745422
Si Si2 0.077688 0.291191 0.060203
Si Si3 0.750000 0.211279 0.039800
Si Si4 0.082658 0.793691 0.647296
Si Si5 0.412415 0.299511 0.268194
Si Si6 0.157969 0.286629 0.457875
O O1 0.250000 0.271152 0.852803
O O2 0.332876 0.273120 0.693889
O O3 0.250000 0.000000 0.742521
O O4 0.061091 0.500000 0.071376
O O5 0.085285 0.217139 0.165416
O O6 0.165331 0.269634 0.009376
O O7 0.000000 0.220218 0.000000
O O8 0.750000 0.000000 0.039207
O O9 0.094559 0.773431 0.536613
O O10 0.004586 0.698486 0.690686
O O11 0.072850 0.000000 0.669286
O O12 0.380974 0.500000 0.256582
O O13 0.360956 0.219674 0.353772
O O14 0.250000 0.231727 0.486089
O O15 0.154573 0.500000 0.455755
#
# Coordination Sequence:
#
# PCOD9406073 Si02
#       6
#     4   8   4   8   8   8
#     4   9  20  37  56  81 114 152 189 233 292 349
#     4  10  22  41  64  91 122 158 204 257 304 351
#     4  11  23  39  62  89 120 160 201 247 306 369
#     4  11  21  37  59  84 116 152 191 240 291 342
#     4  10  22  38  59  84 117 154 193 238 291 349
#     4  10  21  37  57  82 113 153 194 233 284 349
#
# _framework density 22.701771000000001
#
# number of rings (size 3 to 8) (size 9 to 14) (size 15 to 20)
#    0.000    1.800    1.000    2.700    1.400    4.400 
#    0.000    3.000    0.000    0.000    0.000    0.000 
#    0.000    0.000    0.000    0.000    0.000    0.000 
#
# Total GULP energy -223579.807976 kJ/mol
# GULP energy per Si atom -5589.495199 kJ/mol
# Density = 2.265010 g / cm^3
# Si number density = 22.701771 Si / 1000 Ang^3
#
#
#
# Elastic Constant Matrix: (Units=GPa)
#
#
# Indices 1 2 3 4 5 6 
#
# 1 101.2296 -19.2516 40.6601 0.0000 0.0000 0.0000
# 2 -19.2516 54.5716 -8.6942 0.0000 0.0000 0.0000
# 3 40.6601 -8.6942 176.0183 0.0000 0.0000 0.0000
# 4 0.0000 0.0000 0.0000 14.6699 0.0000 0.0000
# 5 0.0000 0.0000 0.0000 0.0000 145.0922 0.0000
# 6 0.0000 0.0000 0.0000 0.0000 0.0000 183.5524
#
#
#
# Elastic Compliance Matrix: (Units=1/GPa)
#
#
# Indices 1 2 3 4 5 6 
#
# 1 0.011581 0.003688 -0.002493 0.000000 0.000000 0.000000
# 2 0.003688 0.019645 0.000118 0.000000 0.000000 0.000000
# 3 -0.002493 0.000118 0.006263 0.000000 0.000000 0.000000
# 4 0.000000 0.000000 0.000000 0.068167 0.000000 0.000000
# 5 0.000000 0.000000 0.000000 0.000000 0.006892 0.000000
# 6 0.000000 0.000000 0.000000 0.000000 0.000000 0.005448
#
#
# Mechanical properties :
#
#
# Convention : Reuss Voigt Hill
#
# Bulk Modulus (GPa) = 24.92761 39.69426 32.31093
# Shear Modulus (GPa) = 38.83769 89.93656 64.38713
#
# Velocity S-wave (km/s) = 4.14064 6.30100 5.33139
# Velocity P-wave (km/s) = 5.81930 8.39403 7.22233
#
# Compressibility (1/GPa) = 0.04011617
#
# Stress axis : x y z
#
# Youngs Moduli (GPa) = 86.34554 50.90464 159.66855
#
# Poissons Ratio (x) = -0.18776 0.39807
# Poissons Ratio (y) = -0.31848 -0.01889
# Poissons Ratio (z) = 0.21527 -0.00602
#
# Static dielectric constant tensor:
#      x y z
#    x 1.808510 0.000000 0.000000 
#    y 0.000000 1.884130 0.000000 
#    z 0.000000 0.000000 1.835160 
# 
# From -- ./inp_files/23730.got.cif
#   From: 2010.05.17/outbox.cif.g08.bks.cpg/sg51_12_cif.got.tgz:23730.got - 2010.06.03 11:52:47.
