data_PCOD9406422
_publ_section_title
;
Structure prediction by ZEFSAII (Michael W. Deem and Ramdas Pophale) SiO2 
 PCOD9406422
Probable space group: P M M A
;
_chemical_formula_sum "Si O2"
_cell_formula_units_Z 48
_cell_length_a 28.413649
_cell_length_b 8.949844
_cell_length_c 9.980184
_cell_angle_alpha 90.000000
_cell_angle_beta 90.000000
_cell_angle_gamma 90.000000
_cell_volume 2537.938096
_symmetry_space_group_name_H-M "P M M A"
_symmetry_group_IT_number 51
_symmetry_cell_setting 'orthorhombic'
loop_
_space_group_symop_operation_xyz
x,y,z
1/2-x,-y,z
1/2+x,-y,-z
-x,y,-z
-x,-y,-z
1/2+x,y,-z
1/2-x,y,z
x,-y,z
loop_
_atom_site_type_symbol
_atom_site_label
_atom_site_fract_x
_atom_site_fract_y
_atom_site_fract_z
Si Si1 0.542351 0.678611 0.897583
Si Si2 0.542492 0.821067 0.601860
Si Si3 0.304825 0.180440 0.730737
Si Si4 0.137310 0.175644 0.994749
Si Si5 0.361146 0.673324 0.489200
Si Si6 0.194863 0.668819 0.211777
O O1 0.544523 0.500000 0.880509
O O2 0.536546 0.751217 0.750309
O O3 0.590406 0.736456 0.964991
O O4 0.500000 0.714702 0.000000
O O5 0.500000 0.785161 0.500000
O O6 0.590222 0.758859 0.536151
O O7 0.545282 0.000000 0.615835
O O8 0.250000 0.225628 0.746800
O O9 0.328826 0.252215 0.601581
O O10 0.305477 0.000000 0.719959
O O11 0.337214 0.221854 0.857497
O O12 0.174641 0.210512 0.110829
O O13 0.126435 0.000000 0.987893
O O14 0.370464 0.500000 0.522617
O O15 0.332902 0.678047 0.350074
O O16 0.250000 0.688161 0.234772
O O17 0.187244 0.500000 0.156707
#
# Coordination Sequence:
#
# PCOD9406422 Si02
#       6
#     8   8   8   8   8   8
#     4  11  25  44  66  95 128 164 209 257 314 378
#     4  11  25  44  67  96 127 163 209 257 313 376
#     4  10  23  42  62  90 129 170 213 259 310 371
#     4  11  23  40  64  92 125 165 212 260 313 371
#     4  11  23  40  64  93 127 165 210 258 312 372
#     4  10  21  38  61  90 124 161 203 255 312 372
#
# _framework density 18.912990000000001
#
# number of rings (size 3 to 8) (size 9 to 14) (size 15 to 20)
#    0.000    1.333    1.667    3.000    2.333    6.667 
#    0.000    0.000    0.000    0.000    0.000    0.000 
#    0.000    0.000    0.000    0.000    0.000    0.000 
#
# Total GULP energy -268262.218747 kJ/mol
# GULP energy per Si atom -5588.796224 kJ/mol
# Density = 1.886994 g / cm^3
# Si number density = 18.912990 Si / 1000 Ang^3
#
#
#
# Elastic Constant Matrix: (Units=GPa)
#
#
# Indices 1 2 3 4 5 6 
#
# 1 88.0471 21.2243 -6.2596 0.0000 0.0000 0.0000
# 2 21.2243 32.1782 15.3070 0.0000 0.0000 0.0000
# 3 -6.2596 15.3070 43.4972 0.0000 0.0000 0.0000
# 4 0.0000 0.0000 0.0000 54.0697 0.0000 0.0000
# 5 0.0000 0.0000 0.0000 0.0000 36.4577 0.0000
# 6 0.0000 0.0000 0.0000 0.0000 0.0000 31.1850
#
#
#
# Elastic Compliance Matrix: (Units=1/GPa)
#
#
# Indices 1 2 3 4 5 6 
#
# 1 0.015001 -0.013117 0.006775 0.000000 0.000000 0.000000
# 2 -0.013117 0.048795 -0.019059 0.000000 0.000000 0.000000
# 3 0.006775 -0.019059 0.030672 0.000000 0.000000 0.000000
# 4 0.000000 0.000000 0.000000 0.018495 0.000000 0.000000
# 5 0.000000 0.000000 0.000000 0.000000 0.027429 0.000000
# 6 0.000000 0.000000 0.000000 0.000000 0.000000 0.032067
#
#
# Mechanical properties :
#
#
# Convention : Reuss Voigt Hill
#
# Bulk Modulus (GPa) = 22.90147 24.91843 23.90995
# Shear Modulus (GPa) = 21.02455 33.23920 27.13188
#
# Velocity S-wave (km/s) = 3.33775 4.19678 3.79167
# Velocity P-wave (km/s) = 5.19512 6.05705 5.64257
#
# Compressibility (1/GPa) = 0.04366532
#
# Stress axis : x y z
#
# Youngs Moduli (GPa) = 66.66122 20.49379 32.60303
#
# Poissons Ratio (x) = 0.26882 -0.22088
# Poissons Ratio (y) = 0.87442 0.62138
# Poissons Ratio (z) = -0.45162 0.39059
#
# Static dielectric constant tensor:
#      x y z
#    x 1.641240 0.000000 0.000000 
#    y 0.000000 1.665040 0.000000 
#    z 0.000000 0.000000 1.635800 
# 
# From -- ./inp_files/12838.got.cif
#   From: 2010.05.17/outbox.cif.g08.bks.cpg/sg51_7_cif.got.tgz:12838.got - 2010.06.03 11:52:47.
