data_PCOD9406253
_publ_section_title
;
Structure prediction by ZEFSAII (Michael W. Deem and Ramdas Pophale) SiO2 
 PCOD9406253
Probable space group: P M M A
;
_chemical_formula_sum "Si O2"
_cell_formula_units_Z 34
_cell_length_a 9.903536
_cell_length_b 19.903745
_cell_length_c 7.071797
_cell_angle_alpha 90.000000
_cell_angle_beta 90.000000
_cell_angle_gamma 90.000000
_cell_volume 1393.974628
_symmetry_space_group_name_H-M "P M M A"
_symmetry_group_IT_number 51
_symmetry_cell_setting 'orthorhombic'
loop_
_space_group_symop_operation_xyz
x,y,z
1/2-x,-y,z
1/2+x,-y,-z
-x,y,-z
-x,-y,-z
1/2+x,y,-z
1/2-x,y,z
x,-y,z
loop_
_atom_site_type_symbol
_atom_site_label
_atom_site_fract_x
_atom_site_fract_y
_atom_site_fract_z
Si Si1 0.250000 0.000000 0.172867
Si Si2 0.750000 0.638573 0.741874
Si Si3 0.472887 0.893254 0.298064
Si Si4 0.750000 0.790010 0.708012
Si Si5 0.477283 0.574296 0.772223
Si Si6 0.250000 0.828826 0.849164
Si Si7 0.250000 0.675679 0.803401
O O1 0.129535 0.058523 0.184662
O O2 0.750000 0.712605 0.656559
O O3 0.621600 0.594298 0.693673
O O4 0.750000 0.658480 0.968372
O O5 0.500000 0.927269 0.500000
O O6 0.384697 0.827967 0.354051
O O7 0.614075 0.870348 0.203210
O O8 0.750000 0.805485 0.933403
O O9 0.430100 0.500000 0.716577
O O10 0.378915 0.635568 0.731158
O O11 0.500000 0.572149 0.000000
O O12 0.250000 0.754403 0.757186
#
# Coordination Sequence:
#
# PCOD9406253 Si02
#       7
#     2   4   8   4   8   4   4
#     4  10  24  44  64  86 114 150 184 226 282 336
#     4   9  16  27  44  67 103 145 182 221 277 334
#     4  11  23  41  63  88 115 147 190 231 276 336
#     4  10  21  38  58  87 122 153 186 233 290 338
#     4   9  15  23  37  62 100 144 185 224 270 326
#     4  11  21  37  62  88 119 154 187 230 286 341
#     4   9  17  27  43  70 104 144 179 220 280 330
#
# _framework density 24.390688000000001
#
# number of rings (size 3 to 8) (size 9 to 14) (size 15 to 20)
#    0.000    2.118    0.000    4.588    0.000    7.059 
#    0.000    9.412    0.000    1.412    0.000    0.000 
#    0.000   65.882    0.000    0.000    0.000    0.000 
#
# Total GULP energy -189517.357013 kJ/mol
# GULP energy per Si atom -5574.039912 kJ/mol
# Density = 2.433517 g / cm^3
# Si number density = 24.390688 Si / 1000 Ang^3
#
#
#
# Elastic Constant Matrix: (Units=GPa)
#
#
# Indices 1 2 3 4 5 6 
#
# 1 208.3477 83.3322 5.6317 0.0000 0.0000 0.0000
# 2 83.3322 196.2930 6.0034 0.0000 0.0000 0.0000
# 3 5.6317 6.0034 94.0385 0.0000 0.0000 0.0000
# 4 0.0000 0.0000 0.0000 184.0336 0.0000 0.0000
# 5 0.0000 0.0000 0.0000 0.0000 10.8746 0.0000
# 6 0.0000 0.0000 0.0000 0.0000 0.0000 32.1307
#
#
#
# Elastic Compliance Matrix: (Units=1/GPa)
#
#
# Indices 1 2 3 4 5 6 
#
# 1 0.005785 -0.002450 -0.000190 0.000000 0.000000 0.000000
# 2 -0.002450 0.006142 -0.000245 0.000000 0.000000 0.000000
# 3 -0.000190 -0.000245 0.010661 0.000000 0.000000 0.000000
# 4 0.000000 0.000000 0.000000 0.005434 0.000000 0.000000
# 5 0.000000 0.000000 0.000000 0.000000 0.091957 0.000000
# 6 0.000000 0.000000 0.000000 0.000000 0.000000 0.031123
#
#
# Mechanical properties :
#
#
# Convention : Reuss Voigt Hill
#
# Bulk Modulus (GPa) = 59.46379 76.51265 67.98822
# Shear Modulus (GPa) = 30.77341 72.32192 51.54766
#
# Velocity S-wave (km/s) = 3.55588 5.45122 4.60218
# Velocity P-wave (km/s) = 6.42586 8.42964 7.49501
#
# Compressibility (1/GPa) = 0.01681696
#
# Stress axis : x y z
#
# Youngs Moduli (GPa) = 172.86953 162.81311 93.79996
#
# Poissons Ratio (x) = 0.39889 0.01782
# Poissons Ratio (y) = 0.42352 0.02302
# Poissons Ratio (z) = 0.03285 0.03995
#
# Static dielectric constant tensor:
#      x y z
#    x 1.913740 0.000000 0.000000 
#    y 0.000000 1.878500 0.000000 
#    z 0.000000 0.000000 2.132860 
# 
# From -- ./inp_files/5106.got.cif
#   From: 2010.05.17/outbox.cif.g08.bks.cpg/sg51_3_cif.got.tgz:5106.got - 2010.06.03 11:52:47.
