data_PCOD9406115
_publ_section_title
;
Structure prediction by ZEFSAII (Michael W. Deem and Ramdas Pophale) SiO2 
 PCOD9406115
Probable space group: P M M A
;
_chemical_formula_sum "Si O2"
_cell_formula_units_Z 56
_cell_length_a 8.541257
_cell_length_b 23.918966
_cell_length_c 14.509357
_cell_angle_alpha 90.000000
_cell_angle_beta 90.000000
_cell_angle_gamma 90.000000
_cell_volume 2964.233136
_symmetry_space_group_name_H-M "P M M A"
_symmetry_group_IT_number 51
_symmetry_cell_setting 'orthorhombic'
loop_
_space_group_symop_operation_xyz
x,y,z
1/2-x,-y,z
1/2+x,-y,-z
-x,y,-z
-x,-y,-z
1/2+x,y,-z
1/2-x,y,z
x,-y,z
loop_
_atom_site_type_symbol
_atom_site_label
_atom_site_fract_x
_atom_site_fract_y
_atom_site_fract_z
Si Si1 0.938439 0.435154 0.099263
Si Si2 0.061004 0.123595 0.896490
Si Si3 0.937301 0.500000 0.603699
Si Si4 0.939866 0.826597 0.288832
Si Si5 0.561613 0.390379 0.292936
Si Si6 0.936209 0.718885 0.604187
Si Si7 0.560836 0.938329 0.395610
Si Si8 0.061184 0.000000 0.895367
O O1 0.750000 0.435437 0.096864
O O2 0.989680 0.500000 0.113570
O O3 0.987831 0.398150 0.186262
O O4 0.000000 0.416616 0.000000
O O5 0.250000 0.123557 0.900868
O O6 0.013215 0.167580 0.818406
O O7 0.011852 0.061273 0.861159
O O8 0.000000 0.132505 0.000000
O O9 0.750000 0.500000 0.604350
O O10 0.000000 0.500000 0.500000
O O11 0.000971 0.554966 0.654273
O O12 0.750000 0.823479 0.292608
O O13 0.989359 0.884204 0.338794
O O14 0.008297 0.773967 0.341786
O O15 0.750000 0.389708 0.296336
O O16 0.497942 0.335304 0.341703
O O17 0.750000 0.717263 0.600414
O O18 0.000000 0.719359 0.500000
O O19 0.500000 0.933845 0.500000
O O20 0.750000 0.937861 0.396195
O O21 0.512580 0.000000 0.359529
O O22 0.250000 0.000000 0.891347
O O23 0.000000 0.000000 0.000000
#
# Coordination Sequence:
#
# PCOD9406115 Si02
#       8
#     8   8   4   8   8   8   8   4
#     4   9  18  34  58  90 126 163 198 238 288 340
#     4   9  18  32  53  80 113 149 190 235 289 348
#     4  12  24  38  59  90 125 160 197 244 300 354
#     4  10  21  37  58  83 111 151 195 239 292 350
#     4  11  22  41  64  90 124 160 201 247 295 348
#     4  12  26  44  64  87 115 153 199 246 297 354
#     4   9  18  32  52  78 108 140 179 230 288 349
#     4   8  14  26  46  74 107 144 181 226 281 344
#
# _framework density 18.891901000000001
#
# number of rings (size 3 to 8) (size 9 to 14) (size 15 to 20)
#    0.000    2.000    0.714    3.214    1.000    3.429 
#    0.000    0.714    0.000    0.000    0.000    0.000 
#    0.000    0.000    0.000    0.000    0.000    0.000 
#
# Total GULP energy -312572.070545 kJ/mol
# GULP energy per Si atom -5581.644117 kJ/mol
# Density = 1.884890 g / cm^3
# Si number density = 18.891901 Si / 1000 Ang^3
#
#
#
# Elastic Constant Matrix: (Units=GPa)
#
#
# Indices 1 2 3 4 5 6 
#
# 1 56.8126 47.2019 48.3216 0.0000 0.0000 0.0000
# 2 47.2019 158.0086 108.0221 0.0000 0.0000 0.0000
# 3 48.3216 108.0221 179.9700 0.0000 0.0000 0.0000
# 4 0.0000 0.0000 0.0000 36.1398 0.0000 0.0000
# 5 0.0000 0.0000 0.0000 0.0000 27.3221 0.0000
# 6 0.0000 0.0000 0.0000 0.0000 0.0000 21.4110
#
#
#
# Elastic Compliance Matrix: (Units=1/GPa)
#
#
# Indices 1 2 3 4 5 6 
#
# 1 0.024824 -0.004849 -0.003755 0.000000 0.000000 0.000000
# 2 -0.004849 0.011680 -0.005709 0.000000 0.000000 0.000000
# 3 -0.003755 -0.005709 0.009991 0.000000 0.000000 0.000000
# 4 0.000000 0.000000 0.000000 0.027670 0.000000 0.000000
# 5 0.000000 0.000000 0.000000 0.000000 0.036600 0.000000
# 6 0.000000 0.000000 0.000000 0.000000 0.000000 0.046705
#
#
# Mechanical properties :
#
#
# Convention : Reuss Voigt Hill
#
# Bulk Modulus (GPa) = 55.95823 89.09805 72.52814
# Shear Modulus (GPa) = 26.03461 29.72428 27.87944
#
# Velocity S-wave (km/s) = 3.71628 3.97090 3.84570
# Velocity P-wave (km/s) = 6.93533 8.26368 7.62848
#
# Compressibility (1/GPa) = 0.01787047
#
# Stress axis : x y z
#
# Youngs Moduli (GPa) = 40.28392 85.61680 100.08816
#
# Poissons Ratio (x) = 0.41512 0.37582
# Poissons Ratio (y) = 0.19532 0.57138
# Poissons Ratio (z) = 0.15126 0.48876
#
# Static dielectric constant tensor:
#      x y z
#    x 1.645630 0.000000 0.000000 
#    y 0.000000 1.647500 0.000000 
#    z 0.000000 0.000000 1.650310 
# 
# From -- ./inp_files/21921.got.cif
#   From: 2010.05.17/outbox.cif.g08.bks.cpg/sg51_11_cif.got.tgz:21921.got - 2010.06.03 11:52:47.
