data_PCOD9406241
_publ_section_title
;
Structure prediction by ZEFSAII (Michael W. Deem and Ramdas Pophale) SiO2 
 PCOD9406241
Probable space group: P M M A
;
_chemical_formula_sum "Si O2"
_cell_formula_units_Z 40
_cell_length_a 8.266678
_cell_length_b 16.693848
_cell_length_c 15.130117
_cell_angle_alpha 90.000000
_cell_angle_beta 90.000000
_cell_angle_gamma 90.000000
_cell_volume 2087.996483
_symmetry_space_group_name_H-M "P M M A"
_symmetry_group_IT_number 51
_symmetry_cell_setting 'orthorhombic'
loop_
_space_group_symop_operation_xyz
x,y,z
1/2-x,-y,z
1/2+x,-y,-z
-x,y,-z
-x,-y,-z
1/2+x,y,-z
1/2-x,y,z
x,-y,z
loop_
_atom_site_type_symbol
_atom_site_label
_atom_site_fract_x
_atom_site_fract_y
_atom_site_fract_z
Si Si1 0.551953 0.000000 0.168626
Si Si2 0.945336 0.407186 0.599591
Si Si3 0.561633 0.828153 0.406758
Si Si4 0.935993 0.721139 0.740967
Si Si5 0.058055 0.824973 0.902037
Si Si6 0.941824 0.000000 0.630570
O O1 0.502225 0.915964 0.122696
O O2 0.750000 0.000000 0.177105
O O3 0.471810 0.000000 0.264539
O O4 0.750000 0.401587 0.599962
O O5 0.992267 0.500000 0.612853
O O6 0.005795 0.352095 0.681146
O O7 0.000000 0.384848 0.500000
O O8 0.500000 0.795984 0.500000
O O9 0.750000 0.809888 0.392232
O O10 0.454010 0.793111 0.328767
O O11 0.531109 0.922240 0.405518
O O12 0.750000 0.702026 0.759835
O O13 0.009497 0.757729 0.830237
O O14 0.250000 0.829021 0.901423
O O15 0.000000 0.804764 0.000000
O O16 0.750000 0.000000 0.610680
#
# Coordination Sequence:
#
# PCOD9406241 Si02
#       6
#     4   8   8   8   8   4
#     4  10  21  38  58  81 110 148 189 238 289 340
#     4   9  19  36  59  88 121 154 188 229 277 335
#     4  12  24  38  54  76 110 149 191 233 281 335
#     4  11  22  37  58  85 115 148 189 233 285 341
#     4  11  23  39  60  84 114 149 192 240 293 343
#     4  12  23  36  55  77 106 146 190 234 281 334
#
# _framework density 19.157119999999999
#
# number of rings (size 3 to 8) (size 9 to 14) (size 15 to 20)
#    0.000    1.200    2.000    5.100    0.000    4.000 
#    0.000    0.000    0.000    0.600    0.000    0.000 
#    0.000    0.000    0.000    0.000    0.000    0.000 
#
# Total GULP energy -223291.098195 kJ/mol
# GULP energy per Si atom -5582.277455 kJ/mol
# Density = 1.911352 g / cm^3
# Si number density = 19.157120 Si / 1000 Ang^3
#
#
#
# Elastic Constant Matrix: (Units=GPa)
#
#
# Indices 1 2 3 4 5 6 
#
# 1 39.0174 6.9470 16.4876 0.0000 0.0000 0.0000
# 2 6.9470 127.3426 59.8183 0.0000 0.0000 0.0000
# 3 16.4876 59.8183 167.5827 0.0000 0.0000 0.0000
# 4 0.0000 0.0000 0.0000 -10.5438 0.0000 0.0000
# 5 0.0000 0.0000 0.0000 0.0000 32.6712 0.0000
# 6 0.0000 0.0000 0.0000 0.0000 0.0000 25.1101
#
#
#
# Elastic Compliance Matrix: (Units=1/GPa)
#
#
# Indices 1 2 3 4 5 6 
#
# 1 0.026749 -0.000268 -0.002536 0.000000 0.000000 0.000000
# 2 -0.000268 0.009437 -0.003342 0.000000 0.000000 0.000000
# 3 -0.002536 -0.003342 0.007410 0.000000 0.000000 0.000000
# 4 0.000000 0.000000 0.000000 -0.094843 0.000000 0.000000
# 5 0.000000 0.000000 0.000000 0.000000 0.030608 0.000000
# 6 0.000000 0.000000 0.000000 0.000000 0.000000 0.039825
#
#
# Mechanical properties :
#
#
# Convention : Reuss Voigt Hill
#
# Bulk Modulus (GPa) = 31.94530 55.60538 43.77534
# Shear Modulus (GPa) = 119.29407 26.16016 72.72712
#
# Velocity S-wave (km/s) = 7.89978 3.69935 6.16814
# Velocity P-wave (km/s) = 9.99602 6.88011 8.58069
#
# Compressibility (1/GPa) = 0.03130351
#
# Stress axis : x y z
#
# Youngs Moduli (GPa) = 37.38466 105.96046 134.95740
#
# Poissons Ratio (x) = 0.02839 0.34226
# Poissons Ratio (y) = 0.01002 0.45107
# Poissons Ratio (z) = 0.09481 0.35415
#
# Static dielectric constant tensor:
#      x y z
#    x 1.659240 0.000000 0.000000 
#    y 0.000000 1.725640 0.000000 
#    z 0.000000 0.000000 1.756980 
# 
# From -- ./inp_files/20530.got.cif
#   From: 2010.05.17/outbox.cif.g08.bks.cpg/sg51_11_cif.got.tgz:20530.got - 2010.06.03 11:52:47.
