data_PCOD9406317
_publ_section_title
;
Structure prediction by ZEFSAII (Michael W. Deem and Ramdas Pophale) SiO2 
 PCOD9406317
Probable space group: P M M A
;
_chemical_formula_sum "Si O2"
_cell_formula_units_Z 36
_cell_length_a 8.254982
_cell_length_b 24.515447
_cell_length_c 9.584379
_cell_angle_alpha 90.000000
_cell_angle_beta 90.000000
_cell_angle_gamma 90.000000
_cell_volume 1939.634614
_symmetry_space_group_name_H-M "P M M A"
_symmetry_group_IT_number 51
_symmetry_cell_setting 'orthorhombic'
loop_
_space_group_symop_operation_xyz
x,y,z
1/2-x,-y,z
1/2+x,-y,-z
-x,y,-z
-x,-y,-z
1/2+x,y,-z
1/2-x,y,z
x,-y,z
loop_
_atom_site_type_symbol
_atom_site_label
_atom_site_fract_x
_atom_site_fract_y
_atom_site_fract_z
Si Si1 0.946074 0.500000 0.162369
Si Si2 0.943746 0.062017 0.844087
Si Si3 0.053809 0.736432 0.839301
Si Si4 0.556681 0.161408 0.341480
Si Si5 0.554394 0.382764 0.161657
O O1 0.750000 0.500000 0.166045
O O2 0.001850 0.558682 0.222221
O O3 0.000000 0.500000 0.000000
O O4 0.750000 0.061598 0.842169
O O5 0.004185 0.105998 0.734353
O O6 0.001971 0.000000 0.816317
O O7 0.000000 0.077116 0.000000
O O8 0.250000 0.736946 0.838349
O O9 0.993900 0.786536 0.746267
O O10 0.999697 0.676499 0.784518
O O11 0.000000 0.742517 0.000000
O O12 0.500000 0.163136 0.500000
O O13 0.750000 0.163786 0.339219
O O14 0.750000 0.382953 0.166688
O O15 0.500000 0.382891 0.000000
#
# Coordination Sequence:
#
# PCOD9406317 Si02
#       5
#     4   8   8   8   8
#     4   8  12  18  32  54  83 116 146 182 230 282
#     4  10  21  38  60  84 108 134 164 199 240 288
#     4   9  18  31  48  70  96 126 161 201 244 292
#     4  11  23  37  53  74 101 134 170 209 252 296
#     4   8  13  22  36  58  87 117 150 188 233 284
#
# _framework density 18.560196999999999
#
# number of rings (size 3 to 8) (size 9 to 14) (size 15 to 20)
#    0.000    2.667    0.000    2.000    0.000    5.333 
#    0.000    0.000    0.000    0.000    0.000    0.778 
#    0.000    0.000    0.000    0.000    0.000    0.000 
#
# Total GULP energy -200510.661836 kJ/mol
# GULP energy per Si atom -5569.740607 kJ/mol
# Density = 1.851795 g / cm^3
# Si number density = 18.560197 Si / 1000 Ang^3
#
#
#
# Elastic Constant Matrix: (Units=GPa)
#
#
# Indices 1 2 3 4 5 6 
#
# 1 20.4651 19.5432 10.7167 0.0000 0.0000 0.0000
# 2 19.5432 176.1637 93.5152 0.0000 0.0000 0.0000
# 3 10.7167 93.5152 83.0640 0.0000 0.0000 0.0000
# 4 0.0000 0.0000 0.0000 -3.4076 0.0000 0.0000
# 5 0.0000 0.0000 0.0000 0.0000 22.2422 0.0000
# 6 0.0000 0.0000 0.0000 0.0000 0.0000 13.4069
#
#
#
# Elastic Compliance Matrix: (Units=1/GPa)
#
#
# Indices 1 2 3 4 5 6 
#
# 1 0.054664 -0.005767 -0.000560 0.000000 0.000000 0.000000
# 2 -0.005767 0.014716 -0.015824 0.000000 0.000000 0.000000
# 3 -0.000560 -0.015824 0.029926 0.000000 0.000000 0.000000
# 4 0.000000 0.000000 0.000000 -0.293463 0.000000 0.000000
# 5 0.000000 0.000000 0.000000 0.000000 0.044960 0.000000
# 6 0.000000 0.000000 0.000000 0.000000 0.000000 0.074588
#
#
# Mechanical properties :
#
#
# Convention : Reuss Voigt Hill
#
# Bulk Modulus (GPa) = 18.18022 58.58255 38.38139
# Shear Modulus (GPa) = -417.66470 16.84282 -200.41094
#
# Velocity S-wave (km/s) = -15.01736 3.01569 -10.40256
# Velocity P-wave (km/s) = 17.05515 6.61498 11.11576
#
# Compressibility (1/GPa) = 0.05500483
#
# Stress axis : x y z
#
# Youngs Moduli (GPa) = 18.29348 67.95175 33.41572
#
# Poissons Ratio (x) = 0.39189 0.01871
# Poissons Ratio (y) = 0.10550 0.52877
# Poissons Ratio (z) = 0.01024 1.07526
#
# Static dielectric constant tensor:
#      x y z
#    x 1.643640 0.000000 0.000000 
#    y 0.000000 1.731920 0.000000 
#    z 0.000000 0.000000 1.575220 
# 
# From -- ./inp_files/5272.got.cif
#   From: 2010.05.17/outbox.cif.g08.bks.cpg/sg51_3_cif.got.tgz:5272.got - 2010.06.03 11:52:47.
