data_PCOD9406912
_publ_section_title
;
Structure prediction by ZEFSAII (Michael W. Deem and Ramdas Pophale) SiO2 
 PCOD9406912
Probable space group: P M M A
;
_chemical_formula_sum "Si O2"
_cell_formula_units_Z 30
_cell_length_a 14.207418
_cell_length_b 11.422474
_cell_length_c 9.131914
_cell_angle_alpha 90.000000
_cell_angle_beta 90.000000
_cell_angle_gamma 90.000000
_cell_volume 1481.962278
_symmetry_space_group_name_H-M "P M M A"
_symmetry_group_IT_number 51
_symmetry_cell_setting 'orthorhombic'
loop_
_space_group_symop_operation_xyz
x,y,z
1/2-x,-y,z
1/2+x,-y,-z
-x,y,-z
-x,-y,-z
1/2+x,y,-z
1/2-x,y,z
x,-y,z
loop_
_atom_site_type_symbol
_atom_site_label
_atom_site_fract_x
_atom_site_fract_y
_atom_site_fract_z
Si Si1 0.250000 0.247426 0.308295
Si Si2 0.857029 0.500000 0.296174
Si Si3 0.435901 0.868605 0.357816
Si Si4 0.250000 0.500000 0.412497
Si Si5 0.936541 0.273183 0.138087
Si Si6 0.750000 0.857339 0.018717
O O1 0.157015 0.204619 0.389041
O O2 0.250000 0.386631 0.311643
O O3 0.250000 0.187421 0.149295
O O4 0.750000 0.500000 0.234161
O O5 0.837799 0.500000 0.471792
O O6 0.907243 0.384086 0.236631
O O7 0.500000 0.871925 0.500000
O O8 0.495590 0.810992 0.229708
O O9 0.407648 0.000000 0.316383
O O10 0.843553 0.200550 0.090304
O O11 0.000000 0.312353 0.000000
O O12 0.750000 0.000000 0.028709
#
# Coordination Sequence:
#
# PCOD9406912 Si02
#       6
#     4   4   8   2   8   4
#     4  12  24  43  67  97 139 179 231 290 348 401
#     4  10  23  45  68  95 135 175 230 288 332 416
#     4  11  25  43  68 102 141 184 237 289 346 418
#     4  10  24  44  70  92 132 186 230 276 346 418
#     4  12  24  43  71 102 138 184 229 284 356 414
#     4  12  25  43  70 102 142 182 227 289 347 417
#
# _framework density 20.24343
#
# number of rings (size 3 to 8) (size 9 to 14) (size 15 to 20)
#    0.400    0.267    4.000    4.000    0.000    4.267 
#    0.000    4.000    0.000    0.000    0.000    0.000 
#    0.000    0.000    0.000    0.000    0.000    0.000 
#
# Total GULP energy -167678.673558 kJ/mol
# GULP energy per Si atom -5589.289119 kJ/mol
# Density = 2.019736 g / cm^3
# Si number density = 20.243430 Si / 1000 Ang^3
#
#
#
# Elastic Constant Matrix: (Units=GPa)
#
#
# Indices 1 2 3 4 5 6 
#
# 1 115.1337 32.7815 -2.5348 0.0000 0.0000 0.0000
# 2 32.7815 148.5757 -0.9765 0.0000 0.0000 0.0000
# 3 -2.5348 -0.9765 34.2747 0.0000 0.0000 0.0000
# 4 0.0000 0.0000 0.0000 24.0661 0.0000 0.0000
# 5 0.0000 0.0000 0.0000 0.0000 -218.3023 0.0000
# 6 0.0000 0.0000 0.0000 0.0000 0.0000 16.1615
#
#
#
# Elastic Compliance Matrix: (Units=1/GPa)
#
#
# Indices 1 2 3 4 5 6 
#
# 1 0.009281 -0.002044 0.000628 0.000000 0.000000 0.000000
# 2 -0.002044 0.007182 0.000053 0.000000 0.000000 0.000000
# 3 0.000628 0.000053 0.029224 0.000000 0.000000 0.000000
# 4 0.000000 0.000000 0.000000 0.041552 0.000000 0.000000
# 5 0.000000 0.000000 0.000000 0.000000 -0.004581 0.000000
# 6 0.000000 0.000000 0.000000 0.000000 0.000000 0.061876
#
#
# Mechanical properties :
#
#
# Convention : Reuss Voigt Hill
#
# Bulk Modulus (GPa) = 23.27582 39.61384 31.44483
# Shear Modulus (GPa) = 30.94456 -17.70070 6.62193
#
# Velocity S-wave (km/s) = 3.91400 -2.96022 1.81059
# Velocity P-wave (km/s) = 5.65233 2.81555 4.46521
#
# Compressibility (1/GPa) = 0.04296305
#
# Stress axis : x y z
#
# Youngs Moduli (GPa) = 107.74383 139.24012 34.21845
#
# Poissons Ratio (x) = 0.28456 -0.02149
# Poissons Ratio (y) = 0.22019 -0.00183
# Poissons Ratio (z) = -0.06768 -0.00745
#
# Static dielectric constant tensor:
#      x y z
#    x 1.710370 0.000000 0.000000 
#    y 0.000000 1.694080 0.000000 
#    z 0.000000 0.000000 1.721260 
# 
# From -- ./inp_files/7536.got.cif
#   From: 2010.05.17/outbox.cif.g08.bks.cpg/sg51_4_cif.got.tgz:7536.got - 2010.06.03 11:52:47.
