data_PCOD9406594
_publ_section_title
;
Structure prediction by ZEFSAII (Michael W. Deem and Ramdas Pophale) SiO2 
 PCOD9406594
Probable space group: P M M A
;
_chemical_formula_sum "Si O2"
_cell_formula_units_Z 48
_cell_length_a 14.683915
_cell_length_b 14.094966
_cell_length_c 11.611884
_cell_angle_alpha 90.000000
_cell_angle_beta 90.000000
_cell_angle_gamma 90.000000
_cell_volume 2403.303302
_symmetry_space_group_name_H-M "P M M A"
_symmetry_group_IT_number 51
_symmetry_cell_setting 'orthorhombic'
loop_
_space_group_symop_operation_xyz
x,y,z
1/2-x,-y,z
1/2+x,-y,-z
-x,y,-z
-x,-y,-z
1/2+x,y,-z
1/2-x,y,z
x,-y,z
loop_
_atom_site_type_symbol
_atom_site_label
_atom_site_fract_x
_atom_site_fract_y
_atom_site_fract_z
Si Si1 0.852560 0.393720 0.772985
Si Si2 0.353898 0.109471 0.274831
Si Si3 0.986833 0.270846 0.635486
Si Si4 0.355399 0.608595 0.744119
Si Si5 0.109911 0.102158 0.002999
Si Si6 0.391167 0.691323 0.983157
O O1 0.750000 0.394561 0.729896
O O2 0.881384 0.500000 0.803874
O O3 0.916712 0.351220 0.676800
O O4 0.855125 0.334407 0.890889
O O5 0.250000 0.141497 0.305340
O O6 0.435921 0.175828 0.318959
O O7 0.364189 0.000000 0.313751
O O8 0.360560 0.107621 0.136145
O O9 0.000000 0.264228 0.500000
O O10 0.080354 0.309044 0.692384
O O11 0.250000 0.620477 0.710451
O O12 0.383252 0.500000 0.713539
O O13 0.362939 0.620949 0.882381
O O14 0.137859 0.201900 0.948495
O O15 0.140829 0.000000 0.955433
O O16 0.000000 0.101131 0.000000
O O17 0.500000 0.689235 0.000000
#
# Coordination Sequence:
#
# PCOD9406594 Si02
#       6
#     8   8   8   8   8   8
#     4  11  23  38  60  91 123 158 205 260 314 375
#     4  10  21  40  67  96 126 163 206 253 308 374
#     4  12  25  42  65  89 121 164 210 265 319 368
#     4  11  25  43  62  88 124 169 217 263 316 376
#     4   9  17  31  55  89 127 161 195 239 298 368
#     4  11  19  34  62  91 125 165 203 254 316 378
#
# _framework density 19.97251
#
# number of rings (size 3 to 8) (size 9 to 14) (size 15 to 20)
#    0.000    1.333    3.333    3.000    0.000    5.667 
#    0.000    1.667    0.000    1.500    0.000    0.000 
#    0.000    0.000    0.000    0.000    0.000    0.000 
#
# Total GULP energy -267828.691720 kJ/mol
# GULP energy per Si atom -5579.764411 kJ/mol
# Density = 1.992705 g / cm^3
# Si number density = 19.972510 Si / 1000 Ang^3
#
#
#
# Elastic Constant Matrix: (Units=GPa)
#
#
# Indices 1 2 3 4 5 6 
#
# 1 127.6750 43.7178 24.8405 0.0000 0.0000 0.0000
# 2 43.7178 133.4220 7.7479 0.0000 0.0000 0.0000
# 3 24.8405 7.7479 48.6174 0.0000 0.0000 0.0000
# 4 0.0000 0.0000 0.0000 11.7593 0.0000 0.0000
# 5 0.0000 0.0000 0.0000 0.0000 -41.9723 0.0000
# 6 0.0000 0.0000 0.0000 0.0000 0.0000 20.8335
#
#
#
# Elastic Compliance Matrix: (Units=1/GPa)
#
#
# Indices 1 2 3 4 5 6 
#
# 1 0.009706 -0.002919 -0.004494 0.000000 0.000000 0.000000
# 2 -0.002919 0.008443 0.000146 0.000000 0.000000 0.000000
# 3 -0.004494 0.000146 0.022842 0.000000 0.000000 0.000000
# 4 0.000000 0.000000 0.000000 0.085039 0.000000 0.000000
# 5 0.000000 0.000000 0.000000 0.000000 -0.023825 0.000000
# 6 0.000000 0.000000 0.000000 0.000000 0.000000 0.048000
#
#
# Mechanical properties :
#
#
# Convention : Reuss Voigt Hill
#
# Bulk Modulus (GPa) = 37.79814 51.36965 44.58390
# Shear Modulus (GPa) = 28.80872 13.68464 21.24668
#
# Velocity S-wave (km/s) = 3.80204 2.62042 3.26513
# Velocity P-wave (km/s) = 6.18386 5.91029 6.04862
#
# Compressibility (1/GPa) = 0.02645633
#
# Stress axis : x y z
#
# Youngs Moduli (GPa) = 103.02443 118.43923 43.77958
#
# Poissons Ratio (x) = 0.34578 0.19675
# Poissons Ratio (y) = 0.30078 -0.00640
# Poissons Ratio (z) = 0.46300 -0.01731
#
# Static dielectric constant tensor:
#      x y z
#    x 1.747990 0.000000 0.000000 
#    y 0.000000 1.761850 0.000000 
#    z 0.000000 0.000000 1.642980 
# 
# From -- ./inp_files/16429.got.cif
#   From: 2010.05.17/outbox.cif.g08.bks.cpg/sg51_9_cif.got.tgz:16429.got - 2010.06.03 11:52:47.
