data_PCOD9406009
_publ_section_title
;
Structure prediction by ZEFSAII (Michael W. Deem and Ramdas Pophale) SiO2 
 PCOD9406009
Probable space group: P M M A
;
_chemical_formula_sum "Si O2"
_cell_formula_units_Z 48
_cell_length_a 9.622197
_cell_length_b 7.829658
_cell_length_c 31.933252
_cell_angle_alpha 90.000000
_cell_angle_beta 90.000000
_cell_angle_gamma 90.000000
_cell_volume 2405.803680
_symmetry_space_group_name_H-M "P M M A"
_symmetry_group_IT_number 51
_symmetry_cell_setting 'orthorhombic'
loop_
_space_group_symop_operation_xyz
x,y,z
1/2-x,-y,z
1/2+x,-y,-z
-x,y,-z
-x,-y,-z
1/2+x,y,-z
1/2-x,y,z
x,-y,z
loop_
_atom_site_type_symbol
_atom_site_label
_atom_site_fract_x
_atom_site_fract_y
_atom_site_fract_z
Si Si1 0.907836 0.202419 0.287661
Si Si2 0.409275 0.294637 0.868293
Si Si3 0.908726 0.793988 0.038720
Si Si4 0.910739 0.291688 0.539083
Si Si5 0.589720 0.706414 0.632771
Si Si6 0.092897 0.296208 0.208431
O O1 0.750000 0.272100 0.286856
O O2 0.985398 0.237850 0.331263
O O3 0.002556 0.269536 0.249965
O O4 0.899496 0.000000 0.282298
O O5 0.250000 0.230020 0.864114
O O6 0.403142 0.500000 0.864591
O O7 0.460416 0.253367 0.915015
O O8 0.508494 0.227800 0.831667
O O9 0.750000 0.731306 0.035403
O O10 0.905988 0.000000 0.036586
O O11 0.000000 0.730780 0.000000
O O12 0.750000 0.244881 0.533559
O O13 0.917550 0.500000 0.538971
O O14 0.952940 0.237049 0.585926
O O15 0.000000 0.229427 0.500000
O O16 0.750000 0.762540 0.640450
O O17 0.592165 0.500000 0.632762
O O18 0.250000 0.227749 0.212253
O O19 0.104293 0.500000 0.202648
#
# Coordination Sequence:
#
# PCOD9406009 Si02
#       6
#     8   8   8   8   8   8
#     4  11  24  38  52  74 103 134 170 211 253 300
#     4   9  18  33  52  74 101 132 164 201 248 298
#     4   9  18  32  49  70  98 132 168 205 245 290
#     4   8  14  25  43  70 102 131 161 201 247 294
#     4   9  18  33  53  77 104 134 169 209 253 301
#     4  10  21  37  57  80 104 131 166 208 254 306
#
# _framework density 19.951753
#
# number of rings (size 3 to 8) (size 9 to 14) (size 15 to 20)
#    0.000    2.667    0.000    2.500    0.000    7.000 
#    0.000    3.333    0.000    0.500    0.000    0.000 
#    0.000    0.000    0.000    0.000    0.000    0.000 
#
# Total GULP energy -267812.258886 kJ/mol
# GULP energy per Si atom -5579.422060 kJ/mol
# Density = 1.990634 g / cm^3
# Si number density = 19.951753 Si / 1000 Ang^3
#
#
#
# Elastic Constant Matrix: (Units=GPa)
#
#
# Indices 1 2 3 4 5 6 
#
# 1 135.1909 5.6010 122.5259 0.0000 0.0000 0.0000
# 2 5.6010 21.5030 -2.4525 0.0000 0.0000 0.0000
# 3 122.5259 -2.4525 201.8104 0.0000 0.0000 0.0000
# 4 0.0000 0.0000 0.0000 47.3147 0.0000 0.0000
# 5 0.0000 0.0000 0.0000 0.0000 42.1703 0.0000
# 6 0.0000 0.0000 0.0000 0.0000 0.0000 1.2183
#
#
#
# Elastic Compliance Matrix: (Units=1/GPa)
#
#
# Indices 1 2 3 4 5 6 
#
# 1 0.017106 -0.005648 -0.010454 0.000000 0.000000 0.000000
# 2 -0.005648 0.048434 0.004018 0.000000 0.000000 0.000000
# 3 -0.010454 0.004018 0.011351 0.000000 0.000000 0.000000
# 4 0.000000 0.000000 0.000000 0.021135 0.000000 0.000000
# 5 0.000000 0.000000 0.000000 0.000000 0.023713 0.000000
# 6 0.000000 0.000000 0.000000 0.000000 0.000000 0.820842
#
#
# Mechanical properties :
#
#
# Convention : Reuss Voigt Hill
#
# Bulk Modulus (GPa) = 18.96726 67.76148 43.36437
# Shear Modulus (GPa) = 5.07963 33.66262 19.37112
#
# Velocity S-wave (km/s) = 1.59734 4.11201 3.11930
# Velocity P-wave (km/s) = 3.59572 7.52205 5.89536
#
# Compressibility (1/GPa) = 0.05272242
#
# Stress axis : x y z
#
# Youngs Moduli (GPa) = 58.46026 20.64645 88.09814
#
# Poissons Ratio (x) = 0.11661 0.92098
# Poissons Ratio (y) = 0.33018 -0.35395
# Poissons Ratio (z) = 0.61115 -0.08295
#
# Static dielectric constant tensor:
#      x y z
#    x 1.703910 0.000000 0.000000 
#    y 0.000000 1.731030 0.000000 
#    z 0.000000 0.000000 1.685570 
# 
# From -- ./inp_files/37010.got.cif
#   From: 2010.05.17/outbox.cif.g08.bks.cpg/sg51_19_cif.got.tgz:37010.got - 2010.06.03 11:52:47.
