data_PCOD9406297
_publ_section_title
;
Structure prediction by ZEFSAII (Michael W. Deem and Ramdas Pophale) SiO2 
 PCOD9406297
Probable space group: P M M A
;
_chemical_formula_sum "Si O2"
_cell_formula_units_Z 48
_cell_length_a 8.596412
_cell_length_b 31.364234
_cell_length_c 9.516130
_cell_angle_alpha 90.000000
_cell_angle_beta 90.000000
_cell_angle_gamma 90.000000
_cell_volume 2565.737805
_symmetry_space_group_name_H-M "P M M A"
_symmetry_group_IT_number 51
_symmetry_cell_setting 'orthorhombic'
loop_
_space_group_symop_operation_xyz
x,y,z
1/2-x,-y,z
1/2+x,-y,-z
-x,y,-z
-x,-y,-z
1/2+x,y,-z
1/2-x,y,z
x,-y,z
loop_
_atom_site_type_symbol
_atom_site_label
_atom_site_fract_x
_atom_site_fract_y
_atom_site_fract_z
Si Si1 0.063845 0.716360 0.841301
Si Si2 0.437535 0.951421 0.654394
Si Si3 0.936423 0.451924 0.341860
Si Si4 0.437310 0.127752 0.842293
Si Si5 0.936134 0.793995 0.658328
Si Si6 0.064541 0.624403 0.156404
O O1 0.250000 0.718382 0.844582
O O2 0.996733 0.752032 0.738452
O O3 0.008725 0.669307 0.795275
O O4 0.000000 0.723029 0.000000
O O5 0.500000 0.939734 0.500000
O O6 0.250000 0.951250 0.648339
O O7 0.485252 0.916898 0.769768
O O8 0.488879 0.000000 0.685178
O O9 0.750000 0.446981 0.341831
O O10 0.972554 0.500000 0.289770
O O11 0.000000 0.449089 0.500000
O O12 0.013372 0.415010 0.251146
O O13 0.250000 0.130140 0.844113
O O14 0.502451 0.165702 0.746495
O O15 0.500000 0.131136 0.000000
O O16 0.750000 0.794200 0.655903
O O17 0.000000 0.795527 0.500000
O O18 0.250000 0.628611 0.152569
O O19 0.000000 0.617176 0.000000
#
# Coordination Sequence:
#
# PCOD9406297 Si02
#       6
#     8   8   8   8   8   8
#     4  11  22  40  63  88 118 152 190 233 285 341
#     4   9  19  36  58  84 115 151 192 238 288 342
#     4  10  21  38  59  84 115 152 194 240 290 343
#     4  11  23  39  59  85 117 154 195 239 289 342
#     4  12  25  42  62  87 117 150 191 237 287 341
#     4  11  22  38  60  87 118 153 193 237 287 341
#
# _framework density 18.708068000000001
#
# number of rings (size 3 to 8) (size 9 to 14) (size 15 to 20)
#    0.000    1.333    0.000    7.500    0.000    5.000 
#    0.000    3.333    0.000    0.000    0.000    0.000 
#    0.000    0.000    0.000    0.000    0.000    0.000 
#
# Total GULP energy -268388.530960 kJ/mol
# GULP energy per Si atom -5591.427728 kJ/mol
# Density = 1.866549 g / cm^3
# Si number density = 18.708068 Si / 1000 Ang^3
#
#
#
# Elastic Constant Matrix: (Units=GPa)
#
#
# Indices 1 2 3 4 5 6 
#
# 1 138.4723 66.6479 58.9818 0.0000 0.0000 0.0000
# 2 66.6479 157.0608 112.0778 0.0000 0.0000 0.0000
# 3 58.9818 112.0778 131.7406 0.0000 0.0000 0.0000
# 4 0.0000 0.0000 0.0000 47.2220 0.0000 0.0000
# 5 0.0000 0.0000 0.0000 0.0000 36.9719 0.0000
# 6 0.0000 0.0000 0.0000 0.0000 0.0000 46.1043
#
#
#
# Elastic Compliance Matrix: (Units=1/GPa)
#
#
# Indices 1 2 3 4 5 6 
#
# 1 0.009288 -0.002479 -0.002049 0.000000 0.000000 0.000000
# 2 -0.002479 0.016866 -0.013239 0.000000 0.000000 0.000000
# 3 -0.002049 -0.013239 0.019771 0.000000 0.000000 0.000000
# 4 0.000000 0.000000 0.000000 0.021177 0.000000 0.000000
# 5 0.000000 0.000000 0.000000 0.000000 0.027048 0.000000
# 6 0.000000 0.000000 0.000000 0.000000 0.000000 0.021690
#
#
# Mechanical properties :
#
#
# Convention : Reuss Voigt Hill
#
# Bulk Modulus (GPa) = 96.23998 100.29874 98.26936
# Shear Modulus (GPa) = 32.29206 38.69740 35.49473
#
# Velocity S-wave (km/s) = 4.15915 4.55300 4.36052
# Velocity P-wave (km/s) = 8.63825 9.02046 8.83142
#
# Compressibility (1/GPa) = 0.01039069
#
# Stress axis : x y z
#
# Youngs Moduli (GPa) = 107.67010 59.29065 50.57845
#
# Poissons Ratio (x) = 0.14696 0.10366
# Poissons Ratio (y) = 0.26688 0.66961
# Poissons Ratio (z) = 0.22066 0.78495
#
# Static dielectric constant tensor:
#      x y z
#    x 1.626150 0.000000 0.000000 
#    y 0.000000 1.646880 0.000000 
#    z 0.000000 0.000000 1.594650 
# 
# From -- ./inp_files/6033.got.cif
#   From: 2010.05.17/outbox.cif.g08.bks.cpg/sg51_4_cif.got.tgz:6033.got - 2010.06.03 11:52:47.
