data_PCOD9406024
_publ_section_title
;
Structure prediction by ZEFSAII (Michael W. Deem and Ramdas Pophale) SiO2 
 PCOD9406024
Probable space group: P M M A
;
_chemical_formula_sum "Si O2"
_cell_formula_units_Z 56
_cell_length_a 8.782221
_cell_length_b 24.339864
_cell_length_c 14.697104
_cell_angle_alpha 90.000000
_cell_angle_beta 90.000000
_cell_angle_gamma 90.000000
_cell_volume 3141.624509
_symmetry_space_group_name_H-M "P M M A"
_symmetry_group_IT_number 51
_symmetry_cell_setting 'orthorhombic'
loop_
_space_group_symop_operation_xyz
x,y,z
1/2-x,-y,z
1/2+x,-y,-z
-x,y,-z
-x,-y,-z
1/2+x,y,-z
1/2-x,y,z
x,-y,z
loop_
_atom_site_type_symbol
_atom_site_label
_atom_site_fract_x
_atom_site_fract_y
_atom_site_fract_z
Si Si1 0.433059 0.645747 0.601266
Si Si2 0.066669 0.938292 0.400294
Si Si3 0.933040 0.643412 0.101298
Si Si4 0.067609 0.435359 0.251651
Si Si5 0.067750 0.061344 0.899267
Si Si6 0.067501 0.735116 0.751749
Si Si7 0.567551 0.143978 0.756069
O O1 0.500000 0.647745 0.500000
O O2 0.250000 0.641892 0.597489
O O3 0.497999 0.595183 0.660471
O O4 0.472742 0.699427 0.662153
O O5 0.250000 0.937300 0.404887
O O6 0.016844 0.890818 0.332140
O O7 0.000000 0.929843 0.500000
O O8 0.021327 0.000000 0.369793
O O9 0.750000 0.639329 0.097638
O O10 0.972296 0.697902 0.160280
O O11 0.998469 0.593713 0.162247
O O12 0.000000 0.644526 0.000000
O O13 0.250000 0.428017 0.251639
O O14 0.033634 0.500000 0.252834
O O15 0.250000 0.065533 0.902192
O O16 0.998754 0.109700 0.839812
O O17 0.027966 0.000000 0.863258
O O18 0.000000 0.064595 0.000000
O O19 0.250000 0.742023 0.751896
O O20 0.989955 0.793976 0.753505
O O21 0.750000 0.143300 0.760077
#
# Coordination Sequence:
#
# PCOD9406024 Si02
#       7
#     8   8   8   8   8   8   8
#     4  10  21  38  60  83 111 149 188 229 276 325
#     4   9  19  35  53  75 104 137 174 216 263 317
#     4  10  21  38  60  83 110 147 186 227 275 324
#     4  10  21  37  58  86 118 149 184 227 272 322
#     4  10  21  37  57  80 107 140 177 220 271 327
#     4   9  21  39  55  77 109 143 184 230 271 318
#     4  11  22  35  55  81 109 142 178 222 274 325
#
# _framework density 17.825174000000001
#
# number of rings (size 3 to 8) (size 9 to 14) (size 15 to 20)
#    0.000    2.143    0.000    3.429    0.000    8.857 
#    0.000    5.714    0.000    0.000    0.000    0.000 
#    0.000    0.000    0.000    0.000    0.000    0.000 
#
# Total GULP energy -312620.276075 kJ/mol
# GULP energy per Si atom -5582.504930 kJ/mol
# Density = 1.778460 g / cm^3
# Si number density = 17.825174 Si / 1000 Ang^3
#
#
#
# Elastic Constant Matrix: (Units=GPa)
#
#
# Indices 1 2 3 4 5 6 
#
# 1 58.0710 76.3395 59.8121 0.0000 0.0000 0.0000
# 2 76.3395 186.5665 103.9782 0.0000 0.0000 0.0000
# 3 59.8121 103.9782 168.2415 0.0000 0.0000 0.0000
# 4 0.0000 0.0000 0.0000 14.1519 0.0000 0.0000
# 5 0.0000 0.0000 0.0000 0.0000 32.6540 0.0000
# 6 0.0000 0.0000 0.0000 0.0000 0.0000 38.2481
#
#
#
# Elastic Compliance Matrix: (Units=1/GPa)
#
#
# Indices 1 2 3 4 5 6 
#
# 1 0.041440 -0.013341 -0.006487 0.000000 0.000000 0.000000
# 2 -0.013341 0.012471 -0.002965 0.000000 0.000000 0.000000
# 3 -0.006487 -0.002965 0.010082 0.000000 0.000000 0.000000
# 4 0.000000 0.000000 0.000000 0.070662 0.000000 0.000000
# 5 0.000000 0.000000 0.000000 0.000000 0.030624 0.000000
# 6 0.000000 0.000000 0.000000 0.000000 0.000000 0.026145
#
#
# Mechanical properties :
#
#
# Convention : Reuss Voigt Hill
#
# Bulk Modulus (GPa) = 54.32528 99.23763 76.78146
# Shear Modulus (GPa) = 20.56374 28.52742 24.54558
#
# Velocity S-wave (km/s) = 3.40020 4.00484 3.71484
# Velocity P-wave (km/s) = 6.77924 8.78514 7.84655
#
# Compressibility (1/GPa) = 0.01840764
#
# Stress axis : x y z
#
# Youngs Moduli (GPa) = 24.13132 80.18522 99.18218
#
# Poissons Ratio (x) = 1.06974 0.64344
# Poissons Ratio (y) = 0.32193 0.29404
# Poissons Ratio (z) = 0.15655 0.23772
#
# Static dielectric constant tensor:
#      x y z
#    x 1.595210 0.000000 0.000000 
#    y 0.000000 1.592330 0.000000 
#    z 0.000000 0.000000 1.600090 
# 
# From -- ./inp_files/21858.got.cif
#   From: 2010.05.17/outbox.cif.g08.bks.cpg/sg51_11_cif.got.tgz:21858.got - 2010.06.03 11:52:47.
