data_PCOD9406876
_publ_section_title
;
Structure prediction by ZEFSAII (Michael W. Deem and Ramdas Pophale) SiO2 
 PCOD9406876
Probable space group: P M M A
;
_chemical_formula_sum "Si O2"
_cell_formula_units_Z 44
_cell_length_a 13.902355
_cell_length_b 18.858591
_cell_length_c 7.251650
_cell_angle_alpha 90.000000
_cell_angle_beta 90.000000
_cell_angle_gamma 90.000000
_cell_volume 1901.229090
_symmetry_space_group_name_H-M "P M M A"
_symmetry_group_IT_number 51
_symmetry_cell_setting 'orthorhombic'
loop_
_space_group_symop_operation_xyz
x,y,z
1/2-x,-y,z
1/2+x,-y,-z
-x,y,-z
-x,-y,-z
1/2+x,y,-z
1/2-x,y,z
x,-y,z
loop_
_atom_site_type_symbol
_atom_site_label
_atom_site_fract_x
_atom_site_fract_y
_atom_site_fract_z
Si Si1 0.928000 0.916678 0.249096
Si Si2 0.250000 0.302578 0.095892
Si Si3 0.388919 0.422324 0.055112
Si Si4 0.361029 0.916505 0.320888
Si Si5 0.250000 0.699659 0.540935
Si Si6 0.750000 0.175297 0.161827
Si Si7 0.113251 0.422524 0.491805
O O1 0.891245 0.912695 0.462648
O O2 0.845110 0.872457 0.151522
O O3 0.038439 0.889399 0.229383
O O4 0.926166 0.000000 0.198786
O O5 0.337511 0.349044 0.013423
O O6 0.250000 0.291983 0.317623
O O7 0.250000 0.227192 0.007746
O O8 0.356949 0.500000 0.984297
O O9 0.367205 0.424950 0.273915
O O10 0.500000 0.417703 0.000000
O O11 0.250000 0.890420 0.298524
O O12 0.357430 0.000000 0.273167
O O13 0.250000 0.771698 0.657908
O O14 0.338700 0.646150 0.578608
O O15 0.141166 0.500000 0.567606
O O16 0.000000 0.416614 0.500000
#
# Coordination Sequence:
#
# PCOD9406876 Si02
#       7
#     8   4   8   8   4   4   8
#     4   9  17  31  53  86 124 159 210 266 309 379
#     4  10  23  41  57  83 125 159 201 259 310 371
#     4   9  18  35  60  85 114 157 202 252 309 364
#     4   8  13  26  51  83 119 150 191 259 314 363
#     4  10  23  41  55  85 123 161 203 251 306 371
#     4  12  23  36  59  90 120 174 208 250 323 380
#     4   9  18  35  59  85 115 153 200 254 306 360
#
# _framework density 23.142925000000002
#
# number of rings (size 3 to 8) (size 9 to 14) (size 15 to 20)
#    0.000    2.727    0.909    1.909    2.545    2.182 
#    3.273    0.909    0.000    2.182    0.000    0.000 
#    0.000   20.364    0.000    2.545    0.000    0.000 
#
# Total GULP energy -245331.306962 kJ/mol
# GULP energy per Si atom -5575.711522 kJ/mol
# Density = 2.309025 g / cm^3
# Si number density = 23.142925 Si / 1000 Ang^3
#
#
#
# Elastic Constant Matrix: (Units=GPa)
#
#
# Indices 1 2 3 4 5 6 
#
# 1 228.0266 76.9379 24.8807 0.0000 0.0000 0.0000
# 2 76.9379 114.9335 34.0365 0.0000 0.0000 0.0000
# 3 24.8807 34.0365 93.2285 0.0000 0.0000 0.0000
# 4 0.0000 0.0000 0.0000 36.1983 0.0000 0.0000
# 5 0.0000 0.0000 0.0000 0.0000 13.7548 0.0000
# 6 0.0000 0.0000 0.0000 0.0000 0.0000 14.3805
#
#
#
# Elastic Compliance Matrix: (Units=1/GPa)
#
#
# Indices 1 2 3 4 5 6 
#
# 1 0.005667 -0.003751 -0.000143 0.000000 0.000000 0.000000
# 2 -0.003751 0.012238 -0.003467 0.000000 0.000000 0.000000
# 3 -0.000143 -0.003467 0.012030 0.000000 0.000000 0.000000
# 4 0.000000 0.000000 0.000000 0.027626 0.000000 0.000000
# 5 0.000000 0.000000 0.000000 0.000000 0.072702 0.000000
# 6 0.000000 0.000000 0.000000 0.000000 0.000000 0.069539
#
#
# Mechanical properties :
#
#
# Convention : Reuss Voigt Hill
#
# Bulk Modulus (GPa) = 65.73116 78.65543 72.19329
# Shear Modulus (GPa) = 22.76926 32.88894 27.82910
#
# Velocity S-wave (km/s) = 3.14005 3.77387 3.47145
# Velocity P-wave (km/s) = 6.45062 7.28355 6.87970
#
# Compressibility (1/GPa) = 0.01521349
#
# Stress axis : x y z
#
# Youngs Moduli (GPa) = 176.47058 81.71002 83.12394
#
# Poissons Ratio (x) = 0.30650 0.01188
# Poissons Ratio (y) = 0.66195 0.28819
# Poissons Ratio (z) = 0.02521 0.28329
#
# Static dielectric constant tensor:
#      x y z
#    x 1.875500 0.000000 0.000000 
#    y 0.000000 1.869220 0.000000 
#    z 0.000000 0.000000 1.960580 
# 
# From -- ./inp_files/8166.got.cif
#   From: 2010.05.17/outbox.cif.g08.bks.cpg/sg51_5_cif.got.tgz:8166.got - 2010.06.03 11:52:47.
