data_PCOD9406860
_publ_section_title
;
Structure prediction by ZEFSAII (Michael W. Deem and Ramdas Pophale) SiO2 
 PCOD9406860
Probable space group: P M M A
;
_chemical_formula_sum "Si O2"
_cell_formula_units_Z 64
_cell_length_a 15.012773
_cell_length_b 23.060405
_cell_length_c 9.129990
_cell_angle_alpha 90.000000
_cell_angle_beta 90.000000
_cell_angle_gamma 90.000000
_cell_volume 3160.808249
_symmetry_space_group_name_H-M "P M M A"
_symmetry_group_IT_number 51
_symmetry_cell_setting 'orthorhombic'
loop_
_space_group_symop_operation_xyz
x,y,z
1/2-x,-y,z
1/2+x,-y,-z
-x,y,-z
-x,-y,-z
1/2+x,y,-z
1/2-x,y,z
x,-y,z
loop_
_atom_site_type_symbol
_atom_site_label
_atom_site_fract_x
_atom_site_fract_y
_atom_site_fract_z
Si Si1 0.519307 0.434155 0.333641
Si Si2 0.101305 0.724699 0.442872
Si Si3 0.849241 0.760925 0.247383
Si Si4 0.646146 0.359654 0.121173
Si Si5 0.353500 0.618860 0.222363
Si Si6 0.020697 0.134978 0.830385
Si Si7 0.354586 0.065560 0.646172
Si Si8 0.353804 0.144600 0.361850
O O1 0.500000 0.414141 0.500000
O O2 0.553963 0.500000 0.337419
O O3 0.582645 0.393747 0.234379
O O4 0.421360 0.431115 0.265480
O O5 0.152280 0.727304 0.597523
O O6 0.122765 0.674598 0.325558
O O7 0.126613 0.787041 0.376490
O O8 0.000000 0.722346 0.500000
O O9 0.750000 0.786736 0.225480
O O10 0.866367 0.709264 0.135215
O O11 0.926447 0.808310 0.231280
O O12 0.750000 0.372670 0.155451
O O13 0.631147 0.372255 0.950451
O O14 0.250000 0.605821 0.246297
O O15 0.086441 0.083359 0.784180
O O16 0.927040 0.123713 0.751657
O O17 0.000000 0.142181 0.000000
O O18 0.250000 0.068646 0.681124
O O19 0.370758 0.111359 0.515056
O O20 0.374594 0.000000 0.597050
O O21 0.250000 0.135633 0.323950
#
# Coordination Sequence:
#
# PCOD9406860 Si02
#       8
#     8   8   8   8   8   8   8   8
#     4  11  25  44  67  94 126 171 223 273 318 381
#     4  12  21  37  63  92 129 167 214 272 325 384
#     4  11  22  39  61  88 128 170 213 267 328 393
#     4  10  24  43  64  94 132 172 213 266 332 399
#     4  11  24  40  63  96 130 169 212 267 336 398
#     4  12  26  39  60  96 135 177 218 271 332 402
#     4  10  22  45  73  96 125 169 223 280 334 396
#     4  11  23  41  63  93 128 171 223 273 327 388
#
# _framework density 20.247986000000001
#
# number of rings (size 3 to 8) (size 9 to 14) (size 15 to 20)
#    0.000    1.000    2.500    4.125    1.750    5.250 
#    0.000    2.500    0.000    1.500    0.000    0.000 
#    0.000    0.000    0.000    0.000    0.000    0.000 
#
# Total GULP energy -357338.752364 kJ/mol
# GULP energy per Si atom -5583.418006 kJ/mol
# Density = 2.020190 g / cm^3
# Si number density = 20.247986 Si / 1000 Ang^3
#
#
#
# Elastic Constant Matrix: (Units=GPa)
#
#
# Indices 1 2 3 4 5 6 
#
# 1 131.7509 33.6998 67.4154 0.0000 0.0000 0.0000
# 2 33.6998 77.3098 23.1614 0.0000 0.0000 0.0000
# 3 67.4154 23.1614 97.7521 0.0000 0.0000 0.0000
# 4 0.0000 0.0000 0.0000 8.1154 0.0000 0.0000
# 5 0.0000 0.0000 0.0000 0.0000 15.4438 0.0000
# 6 0.0000 0.0000 0.0000 0.0000 0.0000 24.6399
#
#
#
# Elastic Compliance Matrix: (Units=1/GPa)
#
#
# Indices 1 2 3 4 5 6 
#
# 1 0.012364 -0.003051 -0.007804 0.000000 0.000000 0.000000
# 2 -0.003051 0.014676 -0.001373 0.000000 0.000000 0.000000
# 3 -0.007804 -0.001373 0.015937 0.000000 0.000000 0.000000
# 4 0.000000 0.000000 0.000000 0.123223 0.000000 0.000000
# 5 0.000000 0.000000 0.000000 0.000000 0.064751 0.000000
# 6 0.000000 0.000000 0.000000 0.000000 0.000000 0.040585
#
#
# Mechanical properties :
#
#
# Convention : Reuss Voigt Hill
#
# Bulk Modulus (GPa) = 53.99271 61.70734 57.85003
# Shear Modulus (GPa) = 16.54722 21.80890 19.17806
#
# Velocity S-wave (km/s) = 2.86182 3.28547 3.08093
# Velocity P-wave (km/s) = 6.13544 6.70331 6.42565
#
# Compressibility (1/GPa) = 0.01852102
#
# Stress axis : x y z
#
# Youngs Moduli (GPa) = 80.88226 68.13633 62.74662
#
# Poissons Ratio (x) = 0.20792 0.48965
# Poissons Ratio (y) = 0.24681 0.08615
# Poissons Ratio (z) = 0.63118 0.09355
#
# Static dielectric constant tensor:
#      x y z
#    x 1.759440 0.000000 0.000000 
#    y 0.000000 1.735080 0.000000 
#    z 0.000000 0.000000 1.745610 
# 
# From -- ./inp_files/8689.got.cif
#   From: 2010.05.17/outbox.cif.g08.bks.cpg/sg51_5_cif.got.tgz:8689.got - 2010.06.03 11:52:47.
