data_PCOD9406093
_publ_section_title
;
Structure prediction by ZEFSAII (Michael W. Deem and Ramdas Pophale) SiO2 
 PCOD9406093
Probable space group: P M M A
;
_chemical_formula_sum "Si O2"
_cell_formula_units_Z 56
_cell_length_a 18.752572
_cell_length_b 9.142813
_cell_length_c 16.772298
_cell_angle_alpha 90.000000
_cell_angle_beta 90.000000
_cell_angle_gamma 90.000000
_cell_volume 2875.631610
_symmetry_space_group_name_H-M "P M M A"
_symmetry_group_IT_number 51
_symmetry_cell_setting 'orthorhombic'
loop_
_space_group_symop_operation_xyz
x,y,z
1/2-x,-y,z
1/2+x,-y,-z
-x,y,-z
-x,-y,-z
1/2+x,y,-z
1/2-x,y,z
x,-y,z
loop_
_atom_site_type_symbol
_atom_site_label
_atom_site_fract_x
_atom_site_fract_y
_atom_site_fract_z
Si Si1 0.164224 0.666895 0.179833
Si Si2 0.833755 0.176213 0.358489
Si Si3 0.085117 0.674634 0.494399
Si Si4 0.096954 0.171667 0.329336
Si Si5 0.950076 0.325642 0.075014
Si Si6 0.164656 0.169956 0.016669
Si Si7 0.047397 0.829234 0.762592
O O1 0.250000 0.661526 0.180886
O O2 0.136895 0.500000 0.178211
O O3 0.138576 0.752682 0.257176
O O4 0.143881 0.751659 0.099388
O O5 0.750000 0.212118 0.353732
O O6 0.872139 0.255106 0.432313
O O7 0.878281 0.214071 0.278758
O O8 0.840389 0.000000 0.368557
O O9 0.095164 0.500000 0.493331
O O10 0.110378 0.746885 0.411940
O O11 0.000000 0.703674 0.500000
O O12 0.013893 0.184388 0.304186
O O13 0.114421 0.000000 0.335218
O O14 0.946229 0.500000 0.077320
O O15 0.972964 0.263996 0.160350
O O16 0.874293 0.253743 0.054095
O O17 0.000000 0.283576 0.000000
O O18 0.250000 0.177902 0.009293
O O19 0.143729 0.000000 0.018361
O O20 0.050862 0.000000 0.786089
#
# Coordination Sequence:
#
# PCOD9406093 Si02
#       7
#     8   8   8   8   8   8   8
#     4  10  21  37  57  84 120 156 193 244 301 357
#     4  10  22  42  66  91 122 160 202 250 304 362
#     4  11  23  39  62  90 121 158 198 245 300 356
#     4  11  22  37  62  89 118 156 199 245 293 353
#     4  11  24  39  58  87 122 159 201 250 302 359
#     4  10  21  38  60  84 113 153 200 247 297 356
#     4  10  22  39  60  88 119 155 199 249 300 355
#
# _framework density 19.473983
#
# number of rings (size 3 to 8) (size 9 to 14) (size 15 to 20)
#    0.000    1.571    1.429    3.000    0.000    8.857 
#    0.000    1.429    0.000    0.000    0.000    0.000 
#    0.000    0.000    0.000    0.000    0.000    0.000 
#
# Total GULP energy -313004.527106 kJ/mol
# GULP energy per Si atom -5589.366555 kJ/mol
# Density = 1.942966 g / cm^3
# Si number density = 19.473983 Si / 1000 Ang^3
#
#
#
# Elastic Constant Matrix: (Units=GPa)
#
#
# Indices 1 2 3 4 5 6 
#
# 1 60.6634 35.4529 20.7452 0.0000 0.0000 0.0000
# 2 35.4529 69.9951 39.8840 0.0000 0.0000 0.0000
# 3 20.7452 39.8840 83.1960 0.0000 0.0000 0.0000
# 4 0.0000 0.0000 0.0000 44.1159 0.0000 0.0000
# 5 0.0000 0.0000 0.0000 0.0000 31.4845 0.0000
# 6 0.0000 0.0000 0.0000 0.0000 0.0000 17.0873
#
#
#
# Elastic Compliance Matrix: (Units=1/GPa)
#
#
# Indices 1 2 3 4 5 6 
#
# 1 0.023418 -0.011742 -0.000211 0.000000 0.000000 0.000000
# 2 -0.011742 0.025543 -0.009318 0.000000 0.000000 0.000000
# 3 -0.000211 -0.009318 0.016539 0.000000 0.000000 0.000000
# 4 0.000000 0.000000 0.000000 0.022668 0.000000 0.000000
# 5 0.000000 0.000000 0.000000 0.000000 0.031762 0.000000
# 6 0.000000 0.000000 0.000000 0.000000 0.000000 0.058523
#
#
# Mechanical properties :
#
#
# Convention : Reuss Voigt Hill
#
# Bulk Modulus (GPa) = 43.55148 45.11317 44.33233
# Shear Modulus (GPa) = 21.86788 26.38905 24.12846
#
# Velocity S-wave (km/s) = 3.35465 3.68515 3.52378
# Velocity P-wave (km/s) = 6.11697 6.42832 6.27458
#
# Compressibility (1/GPa) = 0.02296133
#
# Stress axis : x y z
#
# Youngs Moduli (GPa) = 42.70146 39.14948 60.46270
#
# Poissons Ratio (x) = 0.45968 0.01273
# Poissons Ratio (y) = 0.50138 0.56336
# Poissons Ratio (z) = 0.00899 0.36478
#
# Static dielectric constant tensor:
#      x y z
#    x 1.710950 0.000000 0.000000 
#    y 0.000000 1.651060 0.000000 
#    z 0.000000 0.000000 1.645890 
# 
# From -- ./inp_files/25634.got.cif
#   From: 2010.05.17/outbox.cif.g08.bks.cpg/sg51_13_cif.got.tgz:25634.got - 2010.06.03 11:52:47.
