data_PCOD9406088
_publ_section_title
;
Structure prediction by ZEFSAII (Michael W. Deem and Ramdas Pophale) SiO2 
 PCOD9406088
Probable space group: P M M A
;
_chemical_formula_sum "Si O2"
_cell_formula_units_Z 48
_cell_length_a 9.940526
_cell_length_b 8.952597
_cell_length_c 29.234617
_cell_angle_alpha 90.000000
_cell_angle_beta 90.000000
_cell_angle_gamma 90.000000
_cell_volume 2601.691568
_symmetry_space_group_name_H-M "P M M A"
_symmetry_group_IT_number 51
_symmetry_cell_setting 'orthorhombic'
loop_
_space_group_symop_operation_xyz
x,y,z
1/2-x,-y,z
1/2+x,-y,-z
-x,y,-z
-x,-y,-z
1/2+x,y,-z
1/2-x,y,z
x,-y,z
loop_
_atom_site_type_symbol
_atom_site_label
_atom_site_fract_x
_atom_site_fract_y
_atom_site_fract_z
Si Si1 0.750000 0.822591 0.969822
Si Si2 0.593779 0.821175 0.640380
Si Si3 0.979544 0.178054 0.896127
Si Si4 0.750000 0.677392 0.068893
Si Si5 0.906989 0.680490 0.282310
Si Si6 0.098555 0.321367 0.199208
Si Si7 0.407337 0.322057 0.457635
O O1 0.621512 0.790564 0.938078
O O2 0.750000 0.000000 0.980827
O O3 0.750000 0.731945 0.016426
O O4 0.750000 0.777677 0.650403
O O5 0.490710 0.749828 0.676066
O O6 0.563093 0.763322 0.589321
O O7 0.585602 0.000000 0.642115
O O8 0.920941 0.239172 0.848764
O O9 0.119282 0.256762 0.906709
O O10 0.995641 0.000000 0.893425
O O11 0.750000 0.500000 0.071168
O O12 0.750000 0.724803 0.281897
O O13 0.912292 0.500000 0.285728
O O14 0.985680 0.723014 0.235857
O O15 0.250000 0.291303 0.216863
O O16 0.087593 0.500000 0.191786
O O17 0.500000 0.275877 0.500000
O O18 0.250000 0.298484 0.468708
O O19 0.427089 0.500000 0.450104
#
# Coordination Sequence:
#
# PCOD9406088 Si02
#       7
#     4   8   8   4   8   8   8
#     4  10  22  42  64  88 120 156 196 238 285 350
#     4  10  21  37  57  83 116 155 199 244 291 346
#     4  11  23  41  63  89 120 157 195 235 290 351
#     4  12  26  40  60  90 122 156 196 244 291 336
#     4  10  22  39  60  87 118 152 192 239 292 346
#     4  10  21  38  61  88 118 152 193 240 288 344
#     4   9  18  33  54  80 111 150 195 241 289 344
#
# _framework density 18.449535000000001
#
# number of rings (size 3 to 8) (size 9 to 14) (size 15 to 20)
#    0.000    1.833    0.833    2.750    1.167    7.000 
#    0.000    1.667    0.000    0.000    0.000    0.000 
#    0.000    0.000    0.000    0.000    0.000    0.000 
#
# Total GULP energy -268177.269627 kJ/mol
# GULP energy per Si atom -5587.026451 kJ/mol
# Density = 1.840754 g / cm^3
# Si number density = 18.449535 Si / 1000 Ang^3
#
#
#
# Elastic Constant Matrix: (Units=GPa)
#
#
# Indices 1 2 3 4 5 6 
#
# 1 130.6522 46.8194 61.0175 0.0000 0.0000 0.0000
# 2 46.8194 29.5703 34.3153 0.0000 0.0000 0.0000
# 3 61.0175 34.3153 101.1605 0.0000 0.0000 0.0000
# 4 0.0000 0.0000 0.0000 57.6557 0.0000 0.0000
# 5 0.0000 0.0000 0.0000 0.0000 121.1617 0.0000
# 6 0.0000 0.0000 0.0000 0.0000 0.0000 22.3368
#
#
#
# Elastic Compliance Matrix: (Units=1/GPa)
#
#
# Indices 1 2 3 4 5 6 
#
# 1 0.017923 -0.026111 -0.001953 0.000000 0.000000 0.000000
# 2 -0.026111 0.093813 -0.016073 0.000000 0.000000 0.000000
# 3 -0.001953 -0.016073 0.016516 0.000000 0.000000 0.000000
# 4 0.000000 0.000000 0.000000 0.017344 0.000000 0.000000
# 5 0.000000 0.000000 0.000000 0.000000 0.008253 0.000000
# 6 0.000000 0.000000 0.000000 0.000000 0.000000 0.044769
#
#
# Mechanical properties :
#
#
# Convention : Reuss Voigt Hill
#
# Bulk Modulus (GPa) = 25.01502 60.63195 42.82348
# Shear Modulus (GPa) = 16.65443 48.17956 32.41700
#
# Velocity S-wave (km/s) = 3.00776 5.11575 4.19628
# Velocity P-wave (km/s) = 5.06460 8.23587 6.83666
#
# Compressibility (1/GPa) = 0.03997598
#
# Stress axis : x y z
#
# Youngs Moduli (GPa) = 55.79339 10.65951 60.54801
#
# Poissons Ratio (x) = 0.27834 0.11828
# Poissons Ratio (y) = 1.45685 0.97320
# Poissons Ratio (z) = 0.10899 0.17133
#
# Static dielectric constant tensor:
#      x y z
#    x 1.633520 0.000000 0.000000 
#    y 0.000000 1.613330 0.000000 
#    z 0.000000 0.000000 1.596620 
# 
# From -- ./inp_files/37133.got.cif
#   From: 2010.05.17/outbox.cif.g08.bks.cpg/sg51_19_cif.got.tgz:37133.got - 2010.06.03 11:52:47.
