data_PCOD9406640
_publ_section_title
;
Structure prediction by ZEFSAII (Michael W. Deem and Ramdas Pophale) SiO2 
 PCOD9406640
Probable space group: P M M A
;
_chemical_formula_sum "Si O2"
_cell_formula_units_Z 48
_cell_length_a 8.555273
_cell_length_b 31.567766
_cell_length_c 9.330177
_cell_angle_alpha 90.000000
_cell_angle_beta 90.000000
_cell_angle_gamma 90.000000
_cell_volume 2519.808890
_symmetry_space_group_name_H-M "P M M A"
_symmetry_group_IT_number 51
_symmetry_cell_setting 'orthorhombic'
loop_
_space_group_symop_operation_xyz
x,y,z
1/2-x,-y,z
1/2+x,-y,-z
-x,y,-z
-x,-y,-z
1/2+x,y,-z
1/2-x,y,z
x,-y,z
loop_
_atom_site_type_symbol
_atom_site_label
_atom_site_fract_x
_atom_site_fract_y
_atom_site_fract_z
Si Si1 0.061394 0.628421 0.660238
Si Si2 0.061407 0.047933 0.659357
Si Si3 0.438039 0.128808 0.839299
Si Si4 0.436734 0.208429 0.338426
Si Si5 0.938032 0.288534 0.161649
Si Si6 0.438877 0.547850 0.839843
O O1 0.250000 0.627944 0.656045
O O2 0.014061 0.668063 0.758907
O O3 0.007601 0.584468 0.732439
O O4 0.000000 0.633225 0.500000
O O5 0.250000 0.048194 0.654674
O O6 0.011514 0.083990 0.770113
O O7 0.000000 0.057575 0.500000
O O8 0.010273 0.000000 0.696650
O O9 0.250000 0.130559 0.840279
O O10 0.501653 0.166549 0.740947
O O11 0.500000 0.133297 0.000000
O O12 0.500000 0.210007 0.500000
O O13 0.250000 0.208172 0.340605
O O14 0.496657 0.248962 0.250380
O O15 0.750000 0.286344 0.159911
O O16 0.000000 0.287726 0.000000
O O17 0.250000 0.548660 0.843719
O O18 0.487877 0.500000 0.799222
O O19 0.500000 0.556229 0.000000
#
# Coordination Sequence:
#
# PCOD9406640 Si02
#       6
#     8   8   8   8   8   8
#     4  10  22  37  55  81 113 148 186 230 278 331
#     4   9  19  36  58  84 114 149 190 235 283 336
#     4  11  23  39  59  85 118 154 193 236 284 336
#     4  12  25  42  63  87 116 149 188 233 283 337
#     4  11  23  40  61  86 115 148 188 232 282 336
#     4   9  18  34  55  80 110 144 184 229 277 330
#
# _framework density 19.049064000000001
#
# number of rings (size 3 to 8) (size 9 to 14) (size 15 to 20)
#    0.000    1.667    0.000    4.500    0.000    6.667 
#    0.000    0.000    0.000    0.000    0.000    0.000 
#    0.000    0.000    0.000    0.000    0.000    0.000 
#
# Total GULP energy -268301.102274 kJ/mol
# GULP energy per Si atom -5589.606297 kJ/mol
# Density = 1.900571 g / cm^3
# Si number density = 19.049064 Si / 1000 Ang^3
#
#
#
# Elastic Constant Matrix: (Units=GPa)
#
#
# Indices 1 2 3 4 5 6 
#
# 1 56.3313 47.3665 45.9927 0.0000 0.0000 0.0000
# 2 47.3665 160.4785 123.2627 0.0000 0.0000 0.0000
# 3 45.9927 123.2627 193.4802 0.0000 0.0000 0.0000
# 4 0.0000 0.0000 0.0000 41.9341 0.0000 0.0000
# 5 0.0000 0.0000 0.0000 0.0000 38.3242 0.0000
# 6 0.0000 0.0000 0.0000 0.0000 0.0000 -27.0148
#
#
#
# Elastic Compliance Matrix: (Units=1/GPa)
#
#
# Indices 1 2 3 4 5 6 
#
# 1 0.024145 -0.005323 -0.002349 0.000000 0.000000 0.000000
# 2 -0.005323 0.013376 -0.007256 0.000000 0.000000 0.000000
# 3 -0.002349 -0.007256 0.010350 0.000000 0.000000 0.000000
# 4 0.000000 0.000000 0.000000 0.023847 0.000000 0.000000
# 5 0.000000 0.000000 0.000000 0.000000 0.026093 0.000000
# 6 0.000000 0.000000 0.000000 0.000000 0.000000 -0.037017
#
#
# Mechanical properties :
#
#
# Convention : Reuss Voigt Hill
#
# Bulk Modulus (GPa) = 55.50734 93.72599 74.61666
# Shear Modulus (GPa) = 51.73046 23.55989 37.64518
#
# Velocity S-wave (km/s) = 5.21684 3.52063 4.45029
# Velocity P-wave (km/s) = 8.09256 8.11392 8.10325
#
# Compressibility (1/GPa) = 0.01801564
#
# Stress axis : x y z
#
# Youngs Moduli (GPa) = 41.41579 74.76127 96.62174
#
# Poissons Ratio (x) = 0.39793 0.22693
# Poissons Ratio (y) = 0.22044 0.70111
# Poissons Ratio (z) = 0.09727 0.54249
#
# Static dielectric constant tensor:
#      x y z
#    x 1.643210 0.000000 0.000000 
#    y 0.000000 1.666960 0.000000 
#    z 0.000000 0.000000 1.605590 
# 
# From -- ./inp_files/6000.got.cif
#   From: 2010.05.17/outbox.cif.g08.bks.cpg/sg51_3_cif.got.tgz:6000.got - 2010.06.03 11:52:47.
