data_PCOD9406102
_publ_section_title
;
Structure prediction by ZEFSAII (Michael W. Deem and Ramdas Pophale) SiO2 
 PCOD9406102
Probable space group: P M M A
;
_chemical_formula_sum "Si O2"
_cell_formula_units_Z 40
_cell_length_a 19.856786
_cell_length_b 11.919578
_cell_length_c 9.023342
_cell_angle_alpha 90.000000
_cell_angle_beta 90.000000
_cell_angle_gamma 90.000000
_cell_volume 2135.685276
_symmetry_space_group_name_H-M "P M M A"
_symmetry_group_IT_number 51
_symmetry_cell_setting 'orthorhombic'
loop_
_space_group_symop_operation_xyz
x,y,z
1/2-x,-y,z
1/2+x,-y,-z
-x,y,-z
-x,-y,-z
1/2+x,y,-z
1/2-x,y,z
x,-y,z
loop_
_atom_site_type_symbol
_atom_site_label
_atom_site_fract_x
_atom_site_fract_y
_atom_site_fract_z
Si Si1 0.548453 0.775125 0.879903
Si Si2 0.116003 0.000000 0.499777
Si Si3 0.827129 0.227536 0.398663
Si Si4 0.329355 0.865620 0.929952
Si Si5 0.929409 0.629358 0.586016
Si Si6 0.496940 0.000000 0.258408
O O1 0.563469 0.701735 0.735367
O O2 0.505935 0.885814 0.833012
O O3 0.500000 0.715547 0.000000
O O4 0.618274 0.816099 0.952659
O O5 0.159912 0.110548 0.516529
O O6 0.072307 0.000000 0.351769
O O7 0.059391 0.000000 0.629446
O O8 0.750000 0.262310 0.411606
O O9 0.840629 0.196982 0.226862
O O10 0.875561 0.316679 0.474496
O O11 0.250000 0.851585 0.969067
O O12 0.340713 0.000000 0.912174
O O13 0.913684 0.500000 0.619594
O O14 0.000000 0.635061 0.500000
#
# Coordination Sequence:
#
# PCOD9406102 Si02
#       6
#     8   4   8   8   8   4
#     4  12  23  37  59  92 125 160 198 248 308 372
#     4  11  19  34  57  91 127 157 197 248 302 362
#     4  11  22  39  64  91 123 162 203 249 302 365
#     4  10  21  37  57  89 130 164 193 236 302 375
#     4  11  25  45  65  86 115 159 214 265 304 349
#     4  11  21  32  57  91 129 161 196 244 306 365
#
# _framework density 18.729351999999999
#
# number of rings (size 3 to 8) (size 9 to 14) (size 15 to 20)
#    0.000    1.000    4.000    4.200    0.000    1.600 
#    0.000    1.000    0.000    1.200    0.000    0.000 
#    0.000    0.000    0.000    0.000    0.000    0.000 
#
# Total GULP energy -223623.524046 kJ/mol
# GULP energy per Si atom -5590.588101 kJ/mol
# Density = 1.868672 g / cm^3
# Si number density = 18.729352 Si / 1000 Ang^3
#
#
#
# Elastic Constant Matrix: (Units=GPa)
#
#
# Indices 1 2 3 4 5 6 
#
# 1 90.1891 49.5715 48.8332 0.0000 0.0000 0.0000
# 2 49.5715 113.5827 50.7384 0.0000 0.0000 0.0000
# 3 48.8332 50.7384 93.4001 0.0000 0.0000 0.0000
# 4 0.0000 0.0000 0.0000 -165.7289 0.0000 0.0000
# 5 0.0000 0.0000 0.0000 0.0000 36.2334 0.0000
# 6 0.0000 0.0000 0.0000 0.0000 0.0000 67.1796
#
#
#
# Elastic Compliance Matrix: (Units=1/GPa)
#
#
# Indices 1 2 3 4 5 6 
#
# 1 0.017099 -0.004580 -0.006452 0.000000 0.000000 0.000000
# 2 -0.004580 0.012852 -0.004587 0.000000 0.000000 0.000000
# 3 -0.006452 -0.004587 0.016572 0.000000 0.000000 0.000000
# 4 0.000000 0.000000 0.000000 -0.006034 0.000000 0.000000
# 5 0.000000 0.000000 0.000000 0.000000 0.027599 0.000000
# 6 0.000000 0.000000 0.000000 0.000000 0.000000 0.014885
#
#
# Mechanical properties :
#
#
# Convention : Reuss Voigt Hill
#
# Bulk Modulus (GPa) = 65.42588 66.16199 65.79394
# Shear Modulus (GPa) = 41.90916 -2.59457 19.65729
#
# Velocity S-wave (km/s) = 4.73548 -1.17826 3.24318
# Velocity P-wave (km/s) = 8.05654 5.79231 7.01636
#
# Compressibility (1/GPa) = 0.01528447
#
# Stress axis : x y z
#
# Youngs Moduli (GPa) = 58.48420 77.80719 60.34434
#
# Poissons Ratio (x) = 0.35639 0.38931
# Poissons Ratio (y) = 0.26789 0.27680
# Poissons Ratio (z) = 0.37731 0.35690
#
# Static dielectric constant tensor:
#      x y z
#    x 1.647980 0.000000 0.000000 
#    y 0.000000 1.628240 0.000000 
#    z 0.000000 0.000000 1.665130 
# 
# From -- ./inp_files/10684.got.cif
#   From: 2010.05.17/outbox.cif.g08.bks.cpg/sg51_6_cif.got.tgz:10684.got - 2010.06.03 11:52:47.
