data_PCOD9406846
_publ_section_title
;
Structure prediction by ZEFSAII (Michael W. Deem and Ramdas Pophale) SiO2 
 PCOD9406846
Probable space group: P M M A
;
_chemical_formula_sum "Si O2"
_cell_formula_units_Z 48
_cell_length_a 28.687692
_cell_length_b 8.806648
_cell_length_c 10.081675
_cell_angle_alpha 90.000000
_cell_angle_beta 90.000000
_cell_angle_gamma 90.000000
_cell_volume 2547.058622
_symmetry_space_group_name_H-M "P M M A"
_symmetry_group_IT_number 51
_symmetry_cell_setting 'orthorhombic'
loop_
_space_group_symop_operation_xyz
x,y,z
1/2-x,-y,z
1/2+x,-y,-z
-x,y,-z
-x,-y,-z
1/2+x,y,-z
1/2-x,y,z
x,-y,z
loop_
_atom_site_type_symbol
_atom_site_label
_atom_site_fract_x
_atom_site_fract_y
_atom_site_fract_z
Si Si1 0.521319 0.819897 0.145776
Si Si2 0.305823 0.322888 0.284133
Si Si3 0.129259 0.819999 0.500635
Si Si4 0.622078 0.318375 0.207270
Si Si5 0.805047 0.818229 0.000951
Si Si6 0.037463 0.675920 0.381262
O O1 0.572287 0.746605 0.159750
O O2 0.487258 0.743657 0.252502
O O3 0.524991 0.000000 0.172487
O O4 0.500000 0.798775 0.000000
O O5 0.250000 0.314345 0.296201
O O6 0.319532 0.500000 0.283802
O O7 0.329735 0.237464 0.405457
O O8 0.318360 0.246809 0.143527
O O9 0.130186 0.738951 0.643022
O O10 0.081746 0.771763 0.427015
O O11 0.131139 0.000000 0.519303
O O12 0.620917 0.500000 0.204701
O O13 0.662573 0.256064 0.111944
O O14 0.750000 0.784343 0.022429
O O15 0.810725 0.000000 0.001914
O O16 0.050875 0.500000 0.360184
O O17 0.000000 0.680323 0.500000
#
# Coordination Sequence:
#
# PCOD9406846 Si02
#       6
#     8   8   8   8   8   8
#     4  11  25  43  64  92 126 164 210 258 309 371
#     4  10  22  42  67  95 127 163 206 256 310 370
#     4  12  25  41  65  93 126 166 209 258 312 371
#     4  12  25  42  64  92 127 165 210 260 312 370
#     4  10  22  42  67  94 126 164 207 256 311 371
#     4  11  23  41  65  92 125 164 208 254 308 370
#
# _framework density 18.845267
#
# number of rings (size 3 to 8) (size 9 to 14) (size 15 to 20)
#    0.000    1.000    1.667    5.000    2.333    4.667 
#    0.000    0.000    0.000    0.000    0.000    0.000 
#    0.000    0.000    0.000    0.000    0.000    0.000 
#
# Total GULP energy -268564.373367 kJ/mol
# GULP energy per Si atom -5595.091112 kJ/mol
# Density = 1.880237 g / cm^3
# Si number density = 18.845267 Si / 1000 Ang^3
#
#
#
# Elastic Constant Matrix: (Units=GPa)
#
#
# Indices 1 2 3 4 5 6 
#
# 1 63.2722 40.7896 57.6380 0.0000 0.0000 0.0000
# 2 40.7896 127.5450 64.5962 0.0000 0.0000 0.0000
# 3 57.6380 64.5962 121.8628 0.0000 0.0000 0.0000
# 4 0.0000 0.0000 0.0000 36.5588 0.0000 0.0000
# 5 0.0000 0.0000 0.0000 0.0000 33.1688 0.0000
# 6 0.0000 0.0000 0.0000 0.0000 0.0000 20.4957
#
#
#
# Elastic Compliance Matrix: (Units=1/GPa)
#
#
# Indices 1 2 3 4 5 6 
#
# 1 0.028663 -0.003145 -0.011890 0.000000 0.000000 0.000000
# 2 -0.003145 0.011063 -0.004377 0.000000 0.000000 0.000000
# 3 -0.011890 -0.004377 0.016150 0.000000 0.000000 0.000000
# 4 0.000000 0.000000 0.000000 0.027353 0.000000 0.000000
# 5 0.000000 0.000000 0.000000 0.000000 0.030149 0.000000
# 6 0.000000 0.000000 0.000000 0.000000 0.000000 0.048791
#
#
# Mechanical properties :
#
#
# Convention : Reuss Voigt Hill
#
# Bulk Modulus (GPa) = 58.64208 70.96972 64.80590
# Shear Modulus (GPa) = 24.19251 28.02173 26.10712
#
# Velocity S-wave (km/s) = 3.58682 3.86027 3.72605
# Velocity P-wave (km/s) = 6.95262 7.59011 7.27835
#
# Compressibility (1/GPa) = 0.01705260
#
# Stress axis : x y z
#
# Youngs Moduli (GPa) = 34.88769 90.39399 61.92139
#
# Poissons Ratio (x) = 0.28428 0.73625
# Poissons Ratio (y) = 0.10972 0.27100
# Poissons Ratio (z) = 0.41481 0.39561
#
# Static dielectric constant tensor:
#      x y z
#    x 1.632340 0.000000 0.000000 
#    y 0.000000 1.632580 0.000000 
#    z 0.000000 0.000000 1.614680 
# 
# From -- ./inp_files/12746.got.cif
#   From: 2010.05.17/outbox.cif.g08.bks.cpg/sg51_7_cif.got.tgz:12746.got - 2010.06.03 11:52:47.
