data_PCOD9406984
_publ_section_title
;
Structure prediction by ZEFSAII (Michael W. Deem and Ramdas Pophale) SiO2 
 PCOD9406984
Probable space group: P M M A
;
_chemical_formula_sum "Si O2"
_cell_formula_units_Z 64
_cell_length_a 29.227949
_cell_length_b 8.912762
_cell_length_c 14.268951
_cell_angle_alpha 90.000000
_cell_angle_beta 90.000000
_cell_angle_gamma 90.000000
_cell_volume 3717.086752
_symmetry_space_group_name_H-M "P M M A"
_symmetry_group_IT_number 51
_symmetry_cell_setting 'orthorhombic'
loop_
_space_group_symop_operation_xyz
x,y,z
1/2-x,-y,z
1/2+x,-y,-z
-x,y,-z
-x,-y,-z
1/2+x,y,-z
1/2-x,y,z
x,-y,z
loop_
_atom_site_type_symbol
_atom_site_label
_atom_site_fract_x
_atom_site_fract_y
_atom_site_fract_z
Si Si1 0.566037 0.317933 0.277049
Si Si2 0.698158 0.180478 0.756807
Si Si3 0.019032 0.317902 0.397461
Si Si4 0.801553 0.179988 0.977667
Si Si5 0.198310 0.667199 0.709761
Si Si6 0.638249 0.824814 0.421622
Si Si7 0.628809 0.327911 0.116981
Si Si8 0.124112 0.320010 0.380366
O O1 0.570365 0.500000 0.279630
O O2 0.515786 0.276915 0.314010
O O3 0.599477 0.249142 0.355625
O O4 0.583635 0.270785 0.173349
O O5 0.750000 0.224950 0.727135
O O6 0.694036 0.215488 0.867387
O O7 0.657972 0.255673 0.697870
O O8 0.695155 0.000000 0.746924
O O9 0.019389 0.500000 0.402534
O O10 0.070777 0.270220 0.375671
O O11 0.000000 0.266737 0.500000
O O12 0.750000 0.232507 0.007734
O O13 0.801532 0.000000 0.987432
O O14 0.844719 0.242826 0.034816
O O15 0.250000 0.683143 0.740615
O O16 0.192320 0.500000 0.667113
O O17 0.184183 0.792109 0.636057
O O18 0.165623 0.673367 0.798777
O O19 0.640257 0.740413 0.519388
O O20 0.629707 0.000000 0.434371
O O21 0.620467 0.500000 0.087762
O O22 0.125086 0.500000 0.377766
#
# Coordination Sequence:
#
# PCOD9406984 Si02
#       8
#     8   8   8   8   8   8   8   8
#     4   9  17  33  51  71 102 136 169 205 250 299
#     4   9  20  39  57  74 101 135 169 209 258 305
#     4   9  16  30  55  78  99 133 173 212 252 296
#     4   9  18  33  53  74  98 132 170 207 252 308
#     4   9  18  32  47  65  94 132 170 207 248 297
#     4  11  21  31  45  68  99 133 167 205 250 299
#     4   9  17  28  48  75 101 127 159 205 255 298
#     4  11  21  34  55  79 100 129 171 214 257 302
#
# _framework density 17.217784000000002
#
# number of rings (size 3 to 8) (size 9 to 14) (size 15 to 20)
#    0.000    2.500    1.250    3.375    0.000    4.250 
#    0.000    3.125    0.000    0.750    0.000    5.250 
#    0.000    0.000    0.000    0.000    0.000    0.000 
#
# Total GULP energy -356374.547687 kJ/mol
# GULP energy per Si atom -5568.352308 kJ/mol
# Density = 1.717860 g / cm^3
# Si number density = 17.217784 Si / 1000 Ang^3
#
#
#
# Elastic Constant Matrix: (Units=GPa)
#
#
# Indices 1 2 3 4 5 6 
#
# 1 90.8322 25.0052 45.8469 0.0000 0.0000 0.0000
# 2 25.0052 31.2786 30.1337 0.0000 0.0000 0.0000
# 3 45.8469 30.1337 74.2343 0.0000 0.0000 0.0000
# 4 0.0000 0.0000 0.0000 30.2761 0.0000 0.0000
# 5 0.0000 0.0000 0.0000 0.0000 27.6433 0.0000
# 6 0.0000 0.0000 0.0000 0.0000 0.0000 10.6702
#
#
#
# Elastic Compliance Matrix: (Units=1/GPa)
#
#
# Indices 1 2 3 4 5 6 
#
# 1 0.016564 -0.005561 -0.007973 0.000000 0.000000 0.000000
# 2 -0.005561 0.054370 -0.018636 0.000000 0.000000 0.000000
# 3 -0.007973 -0.018636 0.025959 0.000000 0.000000 0.000000
# 4 0.000000 0.000000 0.000000 0.033029 0.000000 0.000000
# 5 0.000000 0.000000 0.000000 0.000000 0.036175 0.000000
# 6 0.000000 0.000000 0.000000 0.000000 0.000000 0.093719
#
#
# Mechanical properties :
#
#
# Convention : Reuss Voigt Hill
#
# Bulk Modulus (GPa) = 30.71745 44.25742 37.48744
# Shear Modulus (GPa) = 14.92502 20.07522 17.50012
#
# Velocity S-wave (km/s) = 2.94740 3.41832 3.19156
# Velocity P-wave (km/s) = 5.42791 6.42963 5.94989
#
# Compressibility (1/GPa) = 0.03255479
#
# Stress axis : x y z
#
# Youngs Moduli (GPa) = 60.37032 18.39244 38.52168
#
# Poissons Ratio (x) = 0.10229 0.30712
# Poissons Ratio (y) = 0.33574 0.71787
# Poissons Ratio (z) = 0.48131 0.34275
#
# Static dielectric constant tensor:
#      x y z
#    x 1.621530 0.000000 0.000000 
#    y 0.000000 1.593750 0.000000 
#    z 0.000000 0.000000 1.573080 
# 
# From -- ./inp_files/26605.got.cif
#   From: 2010.05.17/outbox.cif.g08.bks.cpg/sg51_14_cif.got.tgz:26605.got - 2010.06.03 11:52:47.
