data_PCOD9406983
_publ_section_title
;
Structure prediction by ZEFSAII (Michael W. Deem and Ramdas Pophale) SiO2 
 PCOD9406983
Probable space group: P M M A
;
_chemical_formula_sum "Si O2"
_cell_formula_units_Z 64
_cell_length_a 15.002239
_cell_length_b 8.985605
_cell_length_c 27.048751
_cell_angle_alpha 90.000000
_cell_angle_beta 90.000000
_cell_angle_gamma 90.000000
_cell_volume 3646.285071
_symmetry_space_group_name_H-M "P M M A"
_symmetry_group_IT_number 51
_symmetry_cell_setting 'orthorhombic'
loop_
_space_group_symop_operation_xyz
x,y,z
1/2-x,-y,z
1/2+x,-y,-z
-x,y,-z
-x,-y,-z
1/2+x,y,-z
1/2-x,y,z
x,-y,z
loop_
_atom_site_type_symbol
_atom_site_label
_atom_site_fract_x
_atom_site_fract_y
_atom_site_fract_z
Si Si1 0.644738 0.322227 0.760893
Si Si2 1.000000 0.178287 0.691822
Si Si3 0.647450 0.181399 0.500000
Si Si4 0.500000 0.181092 0.421694
Si Si5 0.644878 0.677884 0.873922
Si Si6 0.644881 0.677889 0.126081
Si Si7 0.644735 0.677769 0.239110
Si Si8 0.000000 0.177974 0.942883
O O1 0.750000 0.294471 0.754346
O O2 0.630377 0.500000 0.756711
O O3 0.585259 0.238468 0.721363
O O4 0.620964 0.279717 0.817418
O O5 0.999999 0.230401 0.634892
O O6 0.085265 0.238454 0.721361
O O7 0.999994 0.000000 0.692096
O O8 0.750000 0.232832 0.500000
O O9 0.587968 0.226594 0.452553
O O10 0.587968 0.226594 0.547447
O O11 0.649761 0.000000 0.500000
O O12 0.500000 0.000000 0.421791
O O13 0.750000 0.706534 0.880530
O O14 0.631130 0.500000 0.878018
O O15 0.585207 0.760390 0.913605
O O16 0.750000 0.706571 0.119470
O O17 0.631154 0.500000 0.121988
O O18 0.620965 0.720284 0.182585
O O19 0.585199 0.760369 0.086398
O O20 0.750000 0.705499 0.245655
O O21 0.630358 0.500000 0.243293
O O22 0.000008 0.000000 0.941591
O O23 0.000000 0.226702 0.000000
#
# Coordination Sequence:
#
# PCOD9406983 Si02
#       8
#     8   8   8   8   8   8   8   8
#     4   9  19  36  55  74  99 134 173 207 243 294
#     4  11  21  30  46  77 113 137 157 201 258 304
#     4   8  13  25  44  59  81 126 172 204 240 288
#     4   8  16  27  38  63  98 126 159 201 246 295
#     4   9  19  37  59  78  96 126 172 218 250 283
#     4   9  19  37  59  78  96 126 172 218 250 283
#     4   9  19  36  55  74  99 134 173 207 243 294
#     4  11  24  37  50  75 109 138 162 196 251 312
#
# _framework density 17.552112000000001
#
# number of rings (size 3 to 8) (size 9 to 14) (size 15 to 20)
#    0.000    2.750    0.000    3.750    0.000    7.500 
#    0.000    7.500    0.000    0.000    0.000    7.000 
#    0.000   12.000    0.000    0.000    0.000    0.000 
#
# Total GULP energy -356964.776202 kJ/mol
# GULP energy per Si atom -5577.574628 kJ/mol
# Density = 1.751216 g / cm^3
# Si number density = 17.552112 Si / 1000 Ang^3
#
#
#
# Elastic Constant Matrix: (Units=GPa)
#
#
# Indices 1 2 3 4 5 6 
#
# 1 121.0143 38.2383 104.4688 0.0000 0.0000 0.0000
# 2 38.2383 22.9086 53.1693 0.0000 0.0000 0.0000
# 3 104.4688 53.1693 196.1172 0.0000 0.0000 0.0000
# 4 0.0000 0.0000 0.0000 119.3394 0.0000 0.0000
# 5 0.0000 0.0000 0.0000 0.0000 65.1297 0.0000
# 6 0.0000 0.0000 0.0000 0.0000 0.0000 71.2889
#
#
#
# Elastic Compliance Matrix: (Units=1/GPa)
#
#
# Indices 1 2 3 4 5 6 
#
# 1 0.018591 -0.021703 -0.004019 0.000000 0.000000 0.000000
# 2 -0.021703 0.143068 -0.027226 0.000000 0.000000 0.000000
# 3 -0.004019 -0.027226 0.014621 0.000000 0.000000 0.000000
# 4 0.000000 0.000000 0.000000 0.008379 0.000000 0.000000
# 5 0.000000 0.000000 0.000000 0.000000 0.015354 0.000000
# 6 0.000000 0.000000 0.000000 0.000000 0.000000 0.014027
#
#
# Mechanical properties :
#
#
# Convention : Reuss Voigt Hill
#
# Bulk Modulus (GPa) = 14.20798 81.31034 47.75916
# Shear Modulus (GPa) = 14.56033 60.76250 37.66141
#
# Velocity S-wave (km/s) = 2.88331 5.89012 4.63719
# Velocity P-wave (km/s) = 4.38143 9.62724 7.47933
#
# Compressibility (1/GPa) = 0.07038300
#
# Stress axis : x y z
#
# Youngs Moduli (GPa) = 53.78948 6.98969 68.39367
#
# Poissons Ratio (x) = 0.15170 0.27489
# Poissons Ratio (y) = 1.16740 1.86209
# Poissons Ratio (z) = 0.21619 0.19030
#
# Static dielectric constant tensor:
#      x y z
#    x 1.595320 0.000000 0.000000 
#    y 0.000000 1.583370 0.000000 
#    z 0.000000 0.000000 1.585080 
# 
# From -- ./inp_files/35620.got.cif
#   From: 2010.05.17/outbox.cif.g08.bks.cpg/sg51_18_cif.got.tgz:35620.got - 2010.06.03 11:52:47.
