data_PCOD9406917
_publ_section_title
;
Structure prediction by ZEFSAII (Michael W. Deem and Ramdas Pophale) SiO2 
 PCOD9406917
Probable space group: P M M A
;
_chemical_formula_sum "Si O2"
_cell_formula_units_Z 48
_cell_length_a 17.869507
_cell_length_b 14.445158
_cell_length_c 10.094955
_cell_angle_alpha 90.000000
_cell_angle_beta 90.000000
_cell_angle_gamma 90.000000
_cell_volume 2605.789050
_symmetry_space_group_name_H-M "P M M A"
_symmetry_group_IT_number 51
_symmetry_cell_setting 'orthorhombic'
loop_
_space_group_symop_operation_xyz
x,y,z
1/2-x,-y,z
1/2+x,-y,-z
-x,y,-z
-x,-y,-z
1/2+x,y,-z
1/2-x,y,z
x,-y,z
loop_
_atom_site_type_symbol
_atom_site_label
_atom_site_fract_x
_atom_site_fract_y
_atom_site_fract_z
Si Si1 0.088654 0.808009 0.524602
Si Si2 0.577694 0.500000 0.084049
Si Si3 0.336363 0.800425 0.004612
Si Si4 0.567042 0.303671 0.212238
Si Si5 0.659946 0.000000 0.069559
Si Si6 0.840406 0.000000 0.378954
Si Si7 0.391020 0.701779 0.257359
Si Si8 0.338810 0.500000 0.190164
O O1 0.095595 0.738856 0.649746
O O2 0.118556 0.754146 0.395947
O O3 0.000000 0.824889 0.500000
O O4 0.128144 0.905809 0.555556
O O5 0.581434 0.410488 0.177110
O O6 0.500000 0.500000 0.000000
O O7 0.638462 0.500000 0.965841
O O8 0.250000 0.795430 0.958127
O O9 0.391067 0.750408 0.903401
O O10 0.361495 0.907013 0.005682
O O11 0.342800 0.751790 0.145305
O O12 0.477776 0.289772 0.213934
O O13 0.750000 0.000000 0.074126
O O14 0.635545 0.000000 0.223291
O O15 0.750000 0.000000 0.384818
O O16 0.371259 0.593208 0.255827
O O17 0.250000 0.500000 0.201987
#
# Coordination Sequence:
#
# PCOD9406917 Si02
#       8
#     8   4   8   8   4   4   8   4
#     4  10  24  41  64  91 127 165 210 258 307 371
#     4  12  20  37  65  94 123 158 213 254 298 372
#     4  11  21  37  61  88 121 158 206 254 306 367
#     4  11  21  39  64  90 120 163 206 251 301 368
#     4   9  20  36  58  88 119 156 201 255 306 359
#     4  11  21  40  65  87 122 171 209 253 316 369
#     4  11  23  40  60  91 125 162 203 256 312 363
#     4  12  24  39  61  89 127 164 197 252 317 363
#
# _framework density 18.420524
#
# number of rings (size 3 to 8) (size 9 to 14) (size 15 to 20)
#    0.000    1.167    5.000    1.250    0.000    2.667 
#    0.000    5.833    0.000    1.000    0.000    0.000 
#    0.000    0.000    0.000    0.000    0.000    0.000 
#
# Total GULP energy -267998.677443 kJ/mol
# GULP energy per Si atom -5583.305780 kJ/mol
# Density = 1.837860 g / cm^3
# Si number density = 18.420524 Si / 1000 Ang^3
#
#
#
# Elastic Constant Matrix: (Units=GPa)
#
#
# Indices 1 2 3 4 5 6 
#
# 1 63.6734 37.3438 26.2842 0.0000 0.0000 0.0000
# 2 37.3438 188.1625 60.6943 0.0000 0.0000 0.0000
# 3 26.2842 60.6943 89.3747 0.0000 0.0000 0.0000
# 4 0.0000 0.0000 0.0000 22.0784 0.0000 0.0000
# 5 0.0000 0.0000 0.0000 0.0000 5.9111 0.0000
# 6 0.0000 0.0000 0.0000 0.0000 0.0000 19.2991
#
#
#
# Elastic Compliance Matrix: (Units=1/GPa)
#
#
# Indices 1 2 3 4 5 6 
#
# 1 0.018742 -0.002486 -0.003823 0.000000 0.000000 0.000000
# 2 -0.002486 0.007135 -0.004114 0.000000 0.000000 0.000000
# 3 -0.003823 -0.004114 0.015107 0.000000 0.000000 0.000000
# 4 0.000000 0.000000 0.000000 0.045293 0.000000 0.000000
# 5 0.000000 0.000000 0.000000 0.000000 0.169174 0.000000
# 6 0.000000 0.000000 0.000000 0.000000 0.000000 0.051816
#
#
# Mechanical properties :
#
#
# Convention : Reuss Voigt Hill
#
# Bulk Modulus (GPa) = 49.66166 65.53947 57.60056
# Shear Modulus (GPa) = 14.93311 23.91693 19.42502
#
# Velocity S-wave (km/s) = 2.85033 3.60722 3.25088
# Velocity P-wave (km/s) = 6.15232 7.28054 6.74007
#
# Compressibility (1/GPa) = 0.02013626
#
# Stress axis : x y z
#
# Youngs Moduli (GPa) = 53.35731 140.15212 66.19358
#
# Poissons Ratio (x) = 0.34846 0.25308
# Poissons Ratio (y) = 0.13266 0.27234
# Poissons Ratio (z) = 0.20400 0.57662
#
# Static dielectric constant tensor:
#      x y z
#    x 1.636980 0.000000 0.000000 
#    y 0.000000 1.697930 0.000000 
#    z 0.000000 0.000000 1.618970 
# 
# From -- ./inp_files/9732.got.cif
#   From: 2010.05.17/outbox.cif.g08.bks.cpg/sg51_5_cif.got.tgz:9732.got - 2010.06.03 11:52:47.
