data_PCOD9406717
_publ_section_title
;
Structure prediction by ZEFSAII (Michael W. Deem and Ramdas Pophale) SiO2 
 PCOD9406717
Probable space group: P M M A
;
_chemical_formula_sum "Si O2"
_cell_formula_units_Z 64
_cell_length_a 19.528434
_cell_length_b 8.762057
_cell_length_c 19.852870
_cell_angle_alpha 90.000000
_cell_angle_beta 90.000000
_cell_angle_gamma 90.000000
_cell_volume 3397.009732
_symmetry_space_group_name_H-M "P M M A"
_symmetry_group_IT_number 51
_symmetry_cell_setting 'orthorhombic'
loop_
_space_group_symop_operation_xyz
x,y,z
1/2-x,-y,z
1/2+x,-y,-z
-x,y,-z
-x,-y,-z
1/2+x,y,-z
1/2-x,y,z
x,-y,z
loop_
_atom_site_type_symbol
_atom_site_label
_atom_site_fract_x
_atom_site_fract_y
_atom_site_fract_z
Si Si1 0.581285 0.318397 0.221617
Si Si2 0.451248 0.817784 0.291020
Si Si3 0.411006 0.315593 0.071717
Si Si4 0.046386 0.318871 0.437109
Si Si5 0.927081 0.684414 0.075822
Si Si6 0.667853 0.822894 0.337796
Si Si7 0.328879 0.815538 0.197777
Si Si8 0.669257 0.182660 0.490464
O O1 0.571211 0.500000 0.220203
O O2 0.509755 0.240889 0.240932
O O3 0.604353 0.267217 0.147012
O O4 0.633762 0.274523 0.279872
O O5 0.467853 0.754120 0.364867
O O6 0.377970 0.768616 0.260057
O O7 0.452274 0.000000 0.294106
O O8 0.404873 0.500000 0.076080
O O9 0.491852 0.278304 0.079809
O O10 0.364577 0.243528 0.129453
O O11 0.395428 0.263080 0.994952
O O12 0.037644 0.500000 0.431819
O O13 0.123122 0.273401 0.457856
O O14 0.000000 0.263094 0.500000
O O15 0.923870 0.500000 0.072394
O O16 0.750000 0.817431 0.333747
O O17 0.649430 0.774093 0.413752
O O18 0.646630 0.000000 0.329930
O O19 0.250000 0.764261 0.203625
O O20 0.328964 0.000000 0.196253
O O21 0.750000 0.210185 0.498717
O O22 0.658302 0.000000 0.497468
#
# Coordination Sequence:
#
# PCOD9406717 Si02
#       8
#     8   8   8   8   8   8   8   8
#     4  11  20  33  55  83 113 143 179 231 280 323
#     4  11  23  38  57  80 109 148 190 228 275 338
#     4   9  16  33  57  79 104 140 184 224 268 325
#     4  11  24  39  56  83 115 143 177 231 287 332
#     4   8  16  30  53  81 109 139 175 224 273 319
#     4   9  19  36  56  79 109 145 183 220 265 331
#     4  10  22  39  56  79 114 150 186 234 285 328
#     4   9  19  37  59  79 102 139 184 224 268 329
#
# _framework density 18.840098999999999
#
# number of rings (size 3 to 8) (size 9 to 14) (size 15 to 20)
#    0.000    2.250    1.250    3.375    0.000    5.250 
#    0.000    5.625    0.000    3.750    0.000    0.000 
#    0.000    0.000    0.000    0.000    0.000    0.000 
#
# Total GULP energy -357041.208002 kJ/mol
# GULP energy per Si atom -5578.768875 kJ/mol
# Density = 1.879722 g / cm^3
# Si number density = 18.840099 Si / 1000 Ang^3
#
#
#
# Elastic Constant Matrix: (Units=GPa)
#
#
# Indices 1 2 3 4 5 6 
#
# 1 37.3756 6.9979 19.1667 0.0000 0.0000 0.0000
# 2 6.9979 20.1043 25.3654 0.0000 0.0000 0.0000
# 3 19.1667 25.3654 111.2386 0.0000 0.0000 0.0000
# 4 0.0000 0.0000 0.0000 6.4798 0.0000 0.0000
# 5 0.0000 0.0000 0.0000 0.0000 28.5308 0.0000
# 6 0.0000 0.0000 0.0000 0.0000 0.0000 -59.4052
#
#
#
# Elastic Compliance Matrix: (Units=1/GPa)
#
#
# Indices 1 2 3 4 5 6 
#
# 1 0.029770 -0.005462 -0.003884 0.000000 0.000000 0.000000
# 2 -0.005462 0.070833 -0.015211 0.000000 0.000000 0.000000
# 3 -0.003884 -0.015211 0.013127 0.000000 0.000000 0.000000
# 4 0.000000 0.000000 0.000000 0.154326 0.000000 0.000000
# 5 0.000000 0.000000 0.000000 0.000000 0.035050 0.000000
# 6 0.000000 0.000000 0.000000 0.000000 0.000000 -0.016834
#
#
# Mechanical properties :
#
#
# Convention : Reuss Voigt Hill
#
# Bulk Modulus (GPa) = 15.47579 30.19760 22.83670
# Shear Modulus (GPa) = 14.00857 2.93365 8.47111
#
# Velocity S-wave (km/s) = 2.72977 1.24920 2.12275
# Velocity P-wave (km/s) = 4.26235 4.25956 4.26096
#
# Compressibility (1/GPa) = 0.06461704
#
# Stress axis : x y z
#
# Youngs Moduli (GPa) = 33.59110 14.11771 76.17675
#
# Poissons Ratio (x) = 0.07711 0.29587
# Poissons Ratio (y) = 0.18347 1.15870
# Poissons Ratio (z) = 0.13047 0.21474
#
# Static dielectric constant tensor:
#      x y z
#    x 1.656640 0.000000 0.000000 
#    y 0.000000 1.641650 0.000000 
#    z 0.000000 0.000000 1.671890 
# 
# From -- ./inp_files/30510.got.cif
#   From: 2010.05.17/outbox.cif.g08.bks.cpg/sg51_16_cif.got.tgz:30510.got - 2010.06.03 11:52:47.
