data_PCOD9406733
_publ_section_title
;
Structure prediction by ZEFSAII (Michael W. Deem and Ramdas Pophale) SiO2 
 PCOD9406733
Probable space group: P M M A
;
_chemical_formula_sum "Si O2"
_cell_formula_units_Z 34
_cell_length_a 9.731856
_cell_length_b 10.194180
_cell_length_c 19.620098
_cell_angle_alpha 90.000000
_cell_angle_beta 90.000000
_cell_angle_gamma 90.000000
_cell_volume 1946.476407
_symmetry_space_group_name_H-M "P M M A"
_symmetry_group_IT_number 51
_symmetry_cell_setting 'orthorhombic'
loop_
_space_group_symop_operation_xyz
x,y,z
1/2-x,-y,z
1/2+x,-y,-z
-x,y,-z
-x,-y,-z
1/2+x,y,-z
1/2-x,y,z
x,-y,z
loop_
_atom_site_type_symbol
_atom_site_label
_atom_site_fract_x
_atom_site_fract_y
_atom_site_fract_z
Si Si1 0.520738 0.500000 0.393535
Si Si2 0.087119 0.152434 0.190881
Si Si3 0.913335 0.772273 0.323189
Si Si4 0.912251 0.000000 0.431636
Si Si5 0.250000 0.500000 0.485226
Si Si6 0.413101 0.347168 0.067717
O O1 0.545283 0.371108 0.348384
O O2 0.371135 0.500000 0.426845
O O3 0.631609 0.500000 0.454270
O O4 0.250000 0.169490 0.205607
O O5 0.051199 0.249727 0.129134
O O6 0.998583 0.185337 0.257306
O O7 0.065696 0.000000 0.172076
O O8 0.750000 0.778342 0.309415
O O9 0.941284 0.873448 0.385058
O O10 0.000000 0.000000 0.500000
O O11 0.750000 0.000000 0.448583
O O12 0.250000 0.332998 0.053800
O O13 0.437492 0.500000 0.086621
O O14 0.500000 0.319096 0.000000
#
# Coordination Sequence:
#
# PCOD9406733 Si02
#       6
#     4   8   8   4   2   8
#     4  11  24  40  62  86 113 152 194 246 300 360
#     4  10  22  39  59  85 121 158 197 240 287 348
#     4  11  23  41  57  85 117 153 194 244 294 350
#     4  10  24  38  58  82 113 148 191 240 293 344
#     4  10  24  42  60  84 120 146 190 252 304 352
#     4   9  19  37  60  88 120 153 193 238 284 342
#
# _framework density 17.467461
#
# number of rings (size 3 to 8) (size 9 to 14) (size 15 to 20)
#    0.000    1.882    2.353    0.000    6.588    2.353 
#    0.000    0.000    0.000    0.000    0.000    0.000 
#    0.000    0.000    0.000    0.000    0.000    0.000 
#
# Total GULP energy -189287.651944 kJ/mol
# GULP energy per Si atom -5567.283881 kJ/mol
# Density = 1.742770 g / cm^3
# Si number density = 17.467461 Si / 1000 Ang^3
#
#
#
# Elastic Constant Matrix: (Units=GPa)
#
#
# Indices 1 2 3 4 5 6 
#
# 1 107.9437 62.6178 92.0608 0.0000 0.0000 0.0000
# 2 62.6178 144.6853 98.2653 0.0000 0.0000 0.0000
# 3 92.0608 98.2653 163.6758 0.0000 0.0000 0.0000
# 4 0.0000 0.0000 0.0000 -128.3193 0.0000 0.0000
# 5 0.0000 0.0000 0.0000 0.0000 41.7801 0.0000
# 6 0.0000 0.0000 0.0000 0.0000 0.0000 1.8798
#
#
#
# Elastic Compliance Matrix: (Units=1/GPa)
#
#
# Indices 1 2 3 4 5 6 
#
# 1 0.018007 -0.001544 -0.009201 0.000000 0.000000 0.000000
# 2 -0.001544 0.011802 -0.006217 0.000000 0.000000 0.000000
# 3 -0.009201 -0.006217 0.015018 0.000000 0.000000 0.000000
# 4 0.000000 0.000000 0.000000 -0.007793 0.000000 0.000000
# 5 0.000000 0.000000 0.000000 0.000000 0.023935 0.000000
# 6 0.000000 0.000000 0.000000 0.000000 0.000000 0.531979
#
#
# Mechanical properties :
#
#
# Convention : Reuss Voigt Hill
#
# Bulk Modulus (GPa) = 91.72683 102.46583 97.09633
# Shear Modulus (GPa) = 7.93012 -6.04115 0.94449
#
# Velocity S-wave (km/s) = 2.13303 -1.86173 0.73613
# Velocity P-wave (km/s) = 7.66116 7.35982 7.51200
#
# Compressibility (1/GPa) = 0.01090194
#
# Stress axis : x y z
#
# Youngs Moduli (GPa) = 55.53334 84.72895 66.58855
#
# Poissons Ratio (x) = 0.13083 0.61270
# Poissons Ratio (y) = 0.08575 0.41400
# Poissons Ratio (z) = 0.51098 0.52678
#
# Static dielectric constant tensor:
#      x y z
#    x 1.578630 0.000000 0.000000 
#    y 0.000000 1.592290 0.000000 
#    z 0.000000 0.000000 1.544150 
# 
# From -- ./inp_files/31218.got.cif
#   From: 2010.05.17/outbox.cif.g08.bks.cpg/sg51_16_cif.got.tgz:31218.got - 2010.06.03 11:52:47.
