data_PCOD9406427
_publ_section_title
;
Structure prediction by ZEFSAII (Michael W. Deem and Ramdas Pophale) SiO2 
 PCOD9406427
Probable space group: P M M A
;
_chemical_formula_sum "Si O2"
_cell_formula_units_Z 44
_cell_length_a 8.759024
_cell_length_b 13.500774
_cell_length_c 19.361475
_cell_angle_alpha 90.000000
_cell_angle_beta 90.000000
_cell_angle_gamma 90.000000
_cell_volume 2289.564188
_symmetry_space_group_name_H-M "P M M A"
_symmetry_group_IT_number 51
_symmetry_cell_setting 'orthorhombic'
loop_
_space_group_symop_operation_xyz
x,y,z
1/2-x,-y,z
1/2+x,-y,-z
-x,y,-z
-x,-y,-z
1/2+x,y,-z
1/2-x,y,z
x,-y,z
loop_
_atom_site_type_symbol
_atom_site_label
_atom_site_fract_x
_atom_site_fract_y
_atom_site_fract_z
Si Si1 0.567443 0.106407 0.077527
Si Si2 0.934058 0.500000 0.577355
Si Si3 0.933466 0.886753 0.577371
Si Si4 0.073842 0.611518 0.796031
Si Si5 0.065609 0.695423 0.652898
Si Si6 0.070925 0.308887 0.075694
O O1 0.750000 0.116258 0.074194
O O2 0.494100 0.205330 0.105967
O O3 0.531066 0.000000 0.110712
O O4 0.500000 0.102877 0.000000
O O5 0.750000 0.500000 0.577189
O O6 0.000000 0.500000 0.500000
O O7 0.994376 0.600438 0.613859
O O8 0.750000 0.876534 0.575409
O O9 0.000000 0.877062 0.500000
O O10 0.004323 0.798416 0.622386
O O11 0.968963 0.000000 0.600877
O O12 0.250000 0.633169 0.815073
O O13 0.069218 0.500000 0.767297
O O14 0.026239 0.682843 0.733937
O O15 0.975991 0.615629 0.865206
O O16 0.250000 0.690830 0.646803
O O17 0.250000 0.301863 0.066407
O O18 0.000000 0.327791 0.000000
#
# Coordination Sequence:
#
# PCOD9406427 Si02
#       6
#     8   4   8   8   8   8
#     4   9  16  28  49  76 106 139 175 220 277 337
#     4  12  24  38  60  90 125 160 199 244 292 346
#     4  10  21  38  61  91 127 167 209 252 299 352
#     4  10  22  42  63  82 111 151 193 241 300 362
#     4  11  22  40  63  89 121 158 202 248 303 361
#     4  11  22  36  57  84 113 147 191 242 296 355
#
# _framework density 19.217631999999998
#
# number of rings (size 3 to 8) (size 9 to 14) (size 15 to 20)
#    0.000    1.636    0.909    5.727    0.000    4.364 
#    0.000    0.909    0.000    1.091    0.000    0.000 
#    0.000    0.000    0.000    0.000    0.000    0.000 
#
# Total GULP energy -245509.818555 kJ/mol
# GULP energy per Si atom -5579.768604 kJ/mol
# Density = 1.917389 g / cm^3
# Si number density = 19.217632 Si / 1000 Ang^3
#
#
#
# Elastic Constant Matrix: (Units=GPa)
#
#
# Indices 1 2 3 4 5 6 
#
# 1 111.5912 50.7597 51.6098 0.0000 0.0000 0.0000
# 2 50.7597 129.3410 57.2972 0.0000 0.0000 0.0000
# 3 51.6098 57.2972 96.3881 0.0000 0.0000 0.0000
# 4 0.0000 0.0000 0.0000 29.3788 0.0000 0.0000
# 5 0.0000 0.0000 0.0000 0.0000 26.1106 0.0000
# 6 0.0000 0.0000 0.0000 0.0000 0.0000 32.3740
#
#
#
# Elastic Compliance Matrix: (Units=1/GPa)
#
#
# Indices 1 2 3 4 5 6 
#
# 1 0.012543 -0.002643 -0.005145 0.000000 0.000000 0.000000
# 2 -0.002643 0.011052 -0.005155 0.000000 0.000000 0.000000
# 3 -0.005145 -0.005155 0.016193 0.000000 0.000000 0.000000
# 4 0.000000 0.000000 0.000000 0.034038 0.000000 0.000000
# 5 0.000000 0.000000 0.000000 0.000000 0.038299 0.000000
# 6 0.000000 0.000000 0.000000 0.000000 0.000000 0.030889
#
#
# Mechanical properties :
#
#
# Convention : Reuss Voigt Hill
#
# Bulk Modulus (GPa) = 71.92430 72.96154 72.44292
# Shear Modulus (GPa) = 28.81268 29.41623 29.11446
#
# Velocity S-wave (km/s) = 3.87626 3.91665 3.89651
# Velocity P-wave (km/s) = 7.58560 7.64865 7.61719
#
# Compressibility (1/GPa) = 0.01390351
#
# Stress axis : x y z
#
# Youngs Moduli (GPa) = 79.72531 90.47826 61.75328
#
# Poissons Ratio (x) = 0.23918 0.31770
# Poissons Ratio (y) = 0.21075 0.31831
# Poissons Ratio (z) = 0.41016 0.46638
#
# Static dielectric constant tensor:
#      x y z
#    x 1.655820 0.000000 0.000000 
#    y 0.000000 1.745940 0.000000 
#    z 0.000000 0.000000 1.374750 
# 
# From -- ./inp_files/27413.got.cif
#   From: 2010.05.17/outbox.cif.g08.bks.cpg/sg51_14_cif.got.tgz:27413.got - 2010.06.03 11:52:47.
