data_PCOD9406227
_publ_section_title
;
Structure prediction by ZEFSAII (Michael W. Deem and Ramdas Pophale) SiO2 
 PCOD9406227
Probable space group: P M M A
;
_chemical_formula_sum "Si O2"
_cell_formula_units_Z 64
_cell_length_a 9.103400
_cell_length_b 21.521607
_cell_length_c 19.393024
_cell_angle_alpha 90.000000
_cell_angle_beta 90.000000
_cell_angle_gamma 90.000000
_cell_volume 3799.477328
_symmetry_space_group_name_H-M "P M M A"
_symmetry_group_IT_number 51
_symmetry_cell_setting 'orthorhombic'
loop_
_space_group_symop_operation_xyz
x,y,z
1/2-x,-y,z
1/2+x,-y,-z
-x,y,-z
-x,-y,-z
1/2+x,y,-z
1/2-x,y,z
x,-y,z
loop_
_atom_site_type_symbol
_atom_site_label
_atom_site_fract_x
_atom_site_fract_y
_atom_site_fract_z
Si Si1 0.421789 0.567005 0.176206
Si Si2 0.073873 0.071325 0.927536
Si Si3 0.922743 0.569154 0.656329
Si Si4 0.919997 0.694617 0.341289
Si Si5 0.926311 0.822691 0.666188
Si Si6 0.574720 0.928860 0.425063
Si Si7 0.581787 0.310305 0.173230
Si Si8 0.928302 0.825553 0.184132
O O1 0.250000 0.567974 0.159889
O O2 0.484356 0.500000 0.153811
O O3 0.433129 0.568347 0.259925
O O4 0.494320 0.629605 0.149471
O O5 0.250000 0.073572 0.935560
O O6 0.034914 0.118779 0.867096
O O7 0.032712 0.000000 0.910832
O O8 0.000000 0.087841 0.000000
O O9 0.750000 0.576283 0.639755
O O10 0.971186 0.500000 0.632853
O O11 0.012900 0.629409 0.632809
O O12 0.750000 0.701751 0.361627
O O13 0.923602 0.691465 0.257272
O O14 0.013604 0.755606 0.359644
O O15 0.750000 0.823652 0.664824
O O16 0.996331 0.877999 0.621933
O O17 0.988282 0.830873 0.743656
O O18 0.500000 0.925773 0.500000
O O19 0.750000 0.917386 0.429437
O O20 0.554922 0.000000 0.399333
O O21 0.750000 0.318004 0.152733
O O22 0.531456 0.241632 0.152060
O O23 0.750000 0.824771 0.196202
#
# Coordination Sequence:
#
# PCOD9406227 Si02
#       8
#     8   8   8   8   8   8   8   8
#     4   8  13  20  30  46  71 104 140 177 218 266
#     4   9  18  33  52  71  93 122 154 190 233 280
#     4   8  13  21  33  51  78 113 152 192 234 280
#     4   9  16  26  39  57  85 120 157 195 236 282
#     4  11  21  32  49  73 100 129 162 200 241 285
#     4  10  21  38  58  77  99 127 158 194 237 285
#     4   8  14  23  35  52  77 110 146 184 223 266
#     4   9  18  32  47  67  96 127 159 195 237 282
#
# _framework density 16.844422000000002
#
# number of rings (size 3 to 8) (size 9 to 14) (size 15 to 20)
#    0.000    3.000    0.000    3.375    0.000    5.250 
#    0.000    3.750    0.000    0.000    0.000    0.000 
#    0.000    1.000    0.000    3.000    0.000    8.875 
#
# Total GULP energy -356290.477575 kJ/mol
# GULP energy per Si atom -5567.038712 kJ/mol
# Density = 1.680608 g / cm^3
# Si number density = 16.844422 Si / 1000 Ang^3
#
#
#
# Elastic Constant Matrix: (Units=GPa)
#
#
# Indices 1 2 3 4 5 6 
#
# 1 85.6043 85.4851 30.2203 0.0000 0.0000 0.0000
# 2 85.4851 176.7096 54.7704 0.0000 0.0000 0.0000
# 3 30.2203 54.7704 25.5540 0.0000 0.0000 0.0000
# 4 0.0000 0.0000 0.0000 -6.2580 0.0000 0.0000
# 5 0.0000 0.0000 0.0000 0.0000 16.3002 0.0000
# 6 0.0000 0.0000 0.0000 0.0000 0.0000 30.2876
#
#
#
# Elastic Compliance Matrix: (Units=1/GPa)
#
#
# Indices 1 2 3 4 5 6 
#
# 1 0.023456 -0.008191 -0.010184 0.000000 0.000000 0.000000
# 2 -0.008191 0.019718 -0.032576 0.000000 0.000000 0.000000
# 3 -0.010184 -0.032576 0.120997 0.000000 0.000000 0.000000
# 4 0.000000 0.000000 0.000000 -0.159795 0.000000 0.000000
# 5 0.000000 0.000000 0.000000 0.000000 0.061349 0.000000
# 6 0.000000 0.000000 0.000000 0.000000 0.000000 0.033017
#
#
# Mechanical properties :
#
#
# Convention : Reuss Voigt Hill
#
# Bulk Modulus (GPa) = 16.05917 69.86883 42.96400
# Shear Modulus (GPa) = 22.58364 15.89208 19.23786
#
# Velocity S-wave (km/s) = 3.66556 3.07492 3.38315
# Velocity P-wave (km/s) = 5.24114 7.36042 6.38926
#
# Compressibility (1/GPa) = 0.06226971
#
# Stress axis : x y z
#
# Youngs Moduli (GPa) = 42.63279 50.71520 8.26469
#
# Poissons Ratio (x) = 0.41539 0.08417
# Poissons Ratio (y) = 0.34919 0.26923
# Poissons Ratio (z) = 0.43419 1.65208
#
# Static dielectric constant tensor:
#      x y z
#    x 1.564880 0.000000 0.000000 
#    y 0.000000 1.606320 0.000000 
#    z 0.000000 0.000000 1.538660 
# 
# From -- ./inp_files/32576.got.cif
#   From: 2010.05.17/outbox.cif.g08.bks.cpg/sg51_17_cif.got.tgz:32576.got - 2010.06.03 11:52:47.
