data_PCOD9406750
_publ_section_title
;
Structure prediction by ZEFSAII (Michael W. Deem and Ramdas Pophale) SiO2 
 PCOD9406750
Probable space group: P M M A
;
_chemical_formula_sum "Si O2"
_cell_formula_units_Z 48
_cell_length_a 28.769064
_cell_length_b 8.673703
_cell_length_c 10.369308
_cell_angle_alpha 90.000000
_cell_angle_beta 90.000000
_cell_angle_gamma 90.000000
_cell_volume 2587.498187
_symmetry_space_group_name_H-M "P M M A"
_symmetry_group_IT_number 51
_symmetry_cell_setting 'orthorhombic'
loop_
_space_group_symop_operation_xyz
x,y,z
1/2-x,-y,z
1/2+x,-y,-z
-x,y,-z
-x,-y,-z
1/2+x,y,-z
1/2-x,y,z
x,-y,z
loop_
_atom_site_type_symbol
_atom_site_label
_atom_site_fract_x
_atom_site_fract_y
_atom_site_fract_z
Si Si1 0.250000 0.687483 0.415347
Si Si2 0.994782 0.314868 0.151139
Si Si3 0.156011 0.815137 0.006337
Si Si4 0.750000 0.683750 0.882679
Si Si5 0.909592 0.185034 0.753860
Si Si6 0.646949 0.314410 0.510313
Si Si7 0.602865 0.814544 0.249745
O O1 0.250000 0.500000 0.415564
O O2 0.250000 0.739656 0.265992
O O3 0.201214 0.735745 0.479214
O O4 0.993341 0.500000 0.155449
O O5 0.947868 0.247252 0.211628
O O6 0.039202 0.253862 0.229409
O O7 0.000000 0.267805 0.000000
O O8 0.204394 0.741306 0.045378
O O9 0.118471 0.774592 0.115882
O O10 0.161022 0.000000 0.007235
O O11 0.136940 0.768201 0.867338
O O12 0.750000 0.500000 0.878501
O O13 0.881083 0.252319 0.633920
O O14 0.912060 0.000000 0.743045
O O15 0.645831 0.500000 0.511613
O O16 0.622392 0.252146 0.382409
O O17 0.601259 0.000000 0.256362
#
# Coordination Sequence:
#
# PCOD9406750 Si02
#       7
#     4   8   8   4   8   8   8
#     4   9  20  38  61  88 122 162 201 249 308 365
#     4  11  23  39  64  95 125 161 206 257 314 370
#     4  10  22  39  61  90 125 160 201 252 306 363
#     4  11  21  36  63  94 122 158 207 257 308 363
#     4  11  22  39  64  93 123 163 207 250 306 369
#     4  11  23  42  64  92 129 164 207 259 312 366
#     4  11  24  43  63  90 127 166 207 252 310 373
#
# _framework density 18.550737999999999
#
# number of rings (size 3 to 8) (size 9 to 14) (size 15 to 20)
#    0.000    1.333    3.333    2.250    0.000    4.000 
#    0.000    6.667    0.000    0.000    0.000    0.000 
#    0.000    0.000    0.000    0.000    0.000    0.000 
#
# Total GULP energy -268294.449542 kJ/mol
# GULP energy per Si atom -5589.467699 kJ/mol
# Density = 1.850852 g / cm^3
# Si number density = 18.550738 Si / 1000 Ang^3
#
#
#
# Elastic Constant Matrix: (Units=GPa)
#
#
# Indices 1 2 3 4 5 6 
#
# 1 146.5617 33.1519 49.8744 0.0000 0.0000 0.0000
# 2 33.1519 38.7096 34.9142 0.0000 0.0000 0.0000
# 3 49.8744 34.9142 120.4716 0.0000 0.0000 0.0000
# 4 0.0000 0.0000 0.0000 23.4117 0.0000 0.0000
# 5 0.0000 0.0000 0.0000 0.0000 30.4973 0.0000
# 6 0.0000 0.0000 0.0000 0.0000 0.0000 21.9000
#
#
#
# Elastic Compliance Matrix: (Units=1/GPa)
#
#
# Indices 1 2 3 4 5 6 
#
# 1 0.008796 -0.005752 -0.001974 0.000000 0.000000 0.000000
# 2 -0.005752 0.038738 -0.008845 0.000000 0.000000 0.000000
# 3 -0.001974 -0.008845 0.011682 0.000000 0.000000 0.000000
# 4 0.000000 0.000000 0.000000 0.042714 0.000000 0.000000
# 5 0.000000 0.000000 0.000000 0.000000 0.032790 0.000000
# 6 0.000000 0.000000 0.000000 0.000000 0.000000 0.045662
#
#
# Mechanical properties :
#
#
# Convention : Reuss Voigt Hill
#
# Bulk Modulus (GPa) = 38.35619 60.18043 49.26831
# Shear Modulus (GPa) = 22.50064 27.68197 25.09131
#
# Velocity S-wave (km/s) = 3.48648 3.86713 3.68173
# Velocity P-wave (km/s) = 6.07690 7.24231 6.68505
#
# Compressibility (1/GPa) = 0.02607141
#
# Stress axis : x y z
#
# Youngs Moduli (GPa) = 113.68635 25.81451 85.60489
#
# Poissons Ratio (x) = 0.14850 0.16902
# Poissons Ratio (y) = 0.65397 0.75720
# Poissons Ratio (z) = 0.22446 0.22834
#
# Static dielectric constant tensor:
#      x y z
#    x 1.620500 0.000000 0.000000 
#    y 0.000000 1.623200 0.000000 
#    z 0.000000 0.000000 1.613530 
# 
# From -- ./inp_files/12983.got.cif
#   From: 2010.05.17/outbox.cif.g08.bks.cpg/sg51_7_cif.got.tgz:12983.got - 2010.06.03 11:52:47.
