data_PCOD9406774
_publ_section_title
;
Structure prediction by ZEFSAII (Michael W. Deem and Ramdas Pophale) SiO2 
 PCOD9406774
Probable space group: P M M A
;
_chemical_formula_sum "Si O2"
_cell_formula_units_Z 48
_cell_length_a 18.161862
_cell_length_b 8.868658
_cell_length_c 15.715700
_cell_angle_alpha 90.000000
_cell_angle_beta 90.000000
_cell_angle_gamma 90.000000
_cell_volume 2531.348901
_symmetry_space_group_name_H-M "P M M A"
_symmetry_group_IT_number 51
_symmetry_cell_setting 'orthorhombic'
loop_
_space_group_symop_operation_xyz
x,y,z
1/2-x,-y,z
1/2+x,-y,-z
-x,y,-z
-x,-y,-z
1/2+x,y,-z
1/2-x,y,z
x,-y,z
loop_
_atom_site_type_symbol
_atom_site_label
_atom_site_fract_x
_atom_site_fract_y
_atom_site_fract_z
Si Si1 0.663449 0.319450 0.159032
Si Si2 0.413588 0.819552 0.005897
Si Si3 0.583280 0.819312 0.322218
Si Si4 0.835937 0.181226 0.498539
Si Si5 0.921864 0.680381 0.656870
Si Si6 0.336050 0.318770 0.169782
O O1 0.750000 0.281859 0.163960
O O2 0.655901 0.500000 0.159192
O O3 0.629232 0.254027 0.072771
O O4 0.621018 0.250971 0.239401
O O5 0.406871 0.000000 0.001423
O O6 0.500000 0.780326 0.000000
O O7 0.379281 0.760252 0.093557
O O8 0.630187 0.781626 0.406542
O O9 0.501353 0.756003 0.333575
O O10 0.581001 0.000000 0.313716
O O11 0.750000 0.222885 0.502418
O O12 0.881405 0.260601 0.572820
O O13 0.841640 0.000000 0.509253
O O14 0.930037 0.500000 0.652951
O O15 0.872883 0.717804 0.739753
O O16 0.250000 0.276639 0.168868
O O17 0.340637 0.500000 0.158310
#
# Coordination Sequence:
#
# PCOD9406774 Si02
#       6
#     8   8   8   8   8   8
#     4  11  24  41  62  89 120 155 196 243 296 353
#     4  11  24  40  60  88 119 153 195 241 290 348
#     4  11  23  40  62  88 120 158 200 245 294 350
#     4  10  22  40  61  86 118 157 199 244 296 352
#     4  11  23  39  61  89 121 157 197 244 298 353
#     4  10  22  40  60  84 116 153 193 239 292 348
#
# _framework density 18.962221
#
# number of rings (size 3 to 8) (size 9 to 14) (size 15 to 20)
#    0.000    1.333    0.000    5.000    0.000   14.000 
#    0.000    0.000    0.000    0.000    0.000    0.000 
#    0.000    0.000    0.000    0.000    0.000    0.000 
#
# Total GULP energy -268558.862897 kJ/mol
# GULP energy per Si atom -5594.976310 kJ/mol
# Density = 1.891906 g / cm^3
# Si number density = 18.962221 Si / 1000 Ang^3
#
#
#
# Elastic Constant Matrix: (Units=GPa)
#
#
# Indices 1 2 3 4 5 6 
#
# 1 68.5562 20.5181 -21.1919 0.0000 0.0000 0.0000
# 2 20.5181 27.4076 14.9500 0.0000 0.0000 0.0000
# 3 -21.1919 14.9500 53.7302 0.0000 0.0000 0.0000
# 4 0.0000 0.0000 0.0000 39.3985 0.0000 0.0000
# 5 0.0000 0.0000 0.0000 0.0000 45.1159 0.0000
# 6 0.0000 0.0000 0.0000 0.0000 0.0000 38.1862
#
#
#
# Elastic Compliance Matrix: (Units=1/GPa)
#
#
# Indices 1 2 3 4 5 6 
#
# 1 0.033129 -0.037641 0.023540 0.000000 0.000000 0.000000
# 2 -0.037641 0.085783 -0.038715 0.000000 0.000000 0.000000
# 3 0.023540 -0.038715 0.038668 0.000000 0.000000 0.000000
# 4 0.000000 0.000000 0.000000 0.025382 0.000000 0.000000
# 5 0.000000 0.000000 0.000000 0.000000 0.022165 0.000000
# 6 0.000000 0.000000 0.000000 0.000000 0.000000 0.026187
#
#
# Mechanical properties :
#
#
# Convention : Reuss Voigt Hill
#
# Bulk Modulus (GPa) = 19.25020 19.80514 19.52767
# Shear Modulus (GPa) = 14.11386 33.56797 23.84092
#
# Velocity S-wave (km/s) = 2.73117 4.21200 3.54967
# Velocity P-wave (km/s) = 4.48549 5.84139 5.20776
#
# Compressibility (1/GPa) = 0.05194751
#
# Stress axis : x y z
#
# Youngs Moduli (GPa) = 30.18530 11.65734 25.86125
#
# Poissons Ratio (x) = 0.43880 -0.60877
# Poissons Ratio (y) = 1.13621 1.00121
# Poissons Ratio (z) = -0.71055 0.45131
#
# Static dielectric constant tensor:
#      x y z
#    x 1.629550 0.000000 0.000000 
#    y 0.000000 1.635780 0.000000 
#    z 0.000000 0.000000 1.610850 
# 
# From -- ./inp_files/24752.got.cif
#   From: 2010.05.17/outbox.cif.g08.bks.cpg/sg51_13_cif.got.tgz:24752.got - 2010.06.03 11:52:47.
