data_PCOD9406784
_publ_section_title
;
Structure prediction by ZEFSAII (Michael W. Deem and Ramdas Pophale) SiO2 
 PCOD9406784
Probable space group: P M M A
;
_chemical_formula_sum "Si O2"
_cell_formula_units_Z 48
_cell_length_a 16.837421
_cell_length_b 19.351440
_cell_length_c 7.624184
_cell_angle_alpha 90.000000
_cell_angle_beta 90.000000
_cell_angle_gamma 90.000000
_cell_volume 2484.175234
_symmetry_space_group_name_H-M "P M M A"
_symmetry_group_IT_number 51
_symmetry_cell_setting 'orthorhombic'
loop_
_space_group_symop_operation_xyz
x,y,z
1/2-x,-y,z
1/2+x,-y,-z
-x,y,-z
-x,-y,-z
1/2+x,y,-z
1/2-x,y,z
x,-y,z
loop_
_atom_site_type_symbol
_atom_site_label
_atom_site_fract_x
_atom_site_fract_y
_atom_site_fract_z
Si Si1 0.345951 0.079250 0.246057
Si Si2 0.092105 0.313405 0.969274
Si Si3 0.656255 0.165401 0.089957
Si Si4 0.845951 0.579250 0.746057
Si Si5 0.843745 0.334599 0.410044
Si Si6 0.092105 0.186595 0.530726
O O1 0.250000 0.081688 0.257733
O O2 0.380404 0.129181 0.393908
O O3 0.371399 0.000000 0.266768
O O4 0.367249 0.109724 0.055450
O O5 0.140397 0.241886 0.987317
O O6 0.108385 0.338631 0.771014
O O7 0.119596 0.370819 0.106092
O O8 0.000000 0.297782 0.000000
O O9 0.750000 0.158428 0.129043
O O10 0.608385 0.161369 0.271015
O O11 0.750000 0.581688 0.757733
O O12 0.871400 0.500000 0.766768
O O13 0.867249 0.609724 0.555451
O O14 0.750000 0.341572 0.370958
O O15 0.859603 0.258114 0.487317
O O16 0.000000 0.202218 0.500000
#
# Coordination Sequence:
#
# PCOD9406784 Si02
#       6
#     8   8   8   8   8   8
#     4  10  22  40  62  87 119 161 203 244 294 357
#     4  11  23  36  62  89 122 153 198 250 306 350
#     4  10  22  40  62  88 118 159 206 249 292 352
#     4  10  22  40  62  87 119 161 203 244 294 357
#     4  10  22  40  62  88 118 159 206 249 292 352
#     4  11  23  36  62  89 122 153 198 250 306 350
#
# _framework density 19.322310000000002
#
# number of rings (size 3 to 8) (size 9 to 14) (size 15 to 20)
#    0.000    1.667    0.000    5.000    9.333    4.667 
#    0.000    5.000    0.000    0.000    0.000    0.000 
#    0.000    0.000    0.000    0.000    0.000    0.000 
#
# Total GULP energy -268309.387719 kJ/mol
# GULP energy per Si atom -5589.778911 kJ/mol
# Density = 1.927833 g / cm^3
# Si number density = 19.322310 Si / 1000 Ang^3
#
#
#
# Elastic Constant Matrix: (Units=GPa)
#
#
# Indices 1 2 3 4 5 6 
#
# 1 38.1079 3.3051 30.7753 0.0000 0.0000 0.0000
# 2 3.3051 30.9917 26.0696 0.0000 0.0000 0.0000
# 3 30.7753 26.0696 79.2376 0.0000 0.0000 0.0000
# 4 0.0000 0.0000 0.0000 6.6927 0.0000 0.0000
# 5 0.0000 0.0000 0.0000 0.0000 -2.3971 0.0000
# 6 0.0000 0.0000 0.0000 0.0000 0.0000 -17.4649
#
#
#
# Elastic Compliance Matrix: (Units=1/GPa)
#
#
# Indices 1 2 3 4 5 6 
#
# 1 0.041529 0.012636 -0.020287 0.000000 0.000000 0.000000
# 2 0.012636 0.048459 -0.020851 0.000000 0.000000 0.000000
# 3 -0.020287 -0.020851 0.027360 0.000000 0.000000 0.000000
# 4 0.000000 0.000000 0.000000 0.149416 0.000000 0.000000
# 5 0.000000 0.000000 0.000000 0.000000 -0.417167 0.000000
# 6 0.000000 0.000000 0.000000 0.000000 0.000000 -0.057258
#
#
# Mechanical properties :
#
#
# Convention : Reuss Voigt Hill
#
# Bulk Modulus (GPa) = 16.57181 29.84857 23.21019
# Shear Modulus (GPa) = -38.30117 3.24528 -17.52795
#
# Velocity S-wave (km/s) = -4.45705 1.29738 -3.01514
# Velocity P-wave (km/s) = 4.22988 4.21017 0.28844
#
# Compressibility (1/GPa) = 0.06034344
#
# Stress axis : x y z
#
# Youngs Moduli (GPa) = 24.07983 20.63621 36.55037
#
# Poissons Ratio (x) = -0.26076 0.74149
# Poissons Ratio (y) = -0.30427 0.76211
# Poissons Ratio (z) = 0.48850 0.43028
#
# Static dielectric constant tensor:
#      x y z
#    x 1.656140 0.000000 0.000000 
#    y 0.000000 1.648950 0.000000 
#    z 0.000000 0.000000 1.663000 
# 
# From -- ./inp_files/8283.got.cif
#   From: 2010.05.17/outbox.cif.g08.bks.cpg/sg51_5_cif.got.tgz:8283.got - 2010.06.03 11:52:47.
