data_PCOD9406437
_publ_section_title
;
Structure prediction by ZEFSAII (Michael W. Deem and Ramdas Pophale) SiO2 
 PCOD9406437
Probable space group: P M M A
;
_chemical_formula_sum "Si O2"
_cell_formula_units_Z 56
_cell_length_a 14.427030
_cell_length_b 15.244675
_cell_length_c 12.152857
_cell_angle_alpha 90.000000
_cell_angle_beta 90.000000
_cell_angle_gamma 90.000000
_cell_volume 2672.843266
_symmetry_space_group_name_H-M "P M M A"
_symmetry_group_IT_number 51
_symmetry_cell_setting 'orthorhombic'
loop_
_space_group_symop_operation_xyz
x,y,z
1/2-x,-y,z
1/2+x,-y,-z
-x,y,-z
-x,-y,-z
1/2+x,y,-z
1/2-x,y,z
x,-y,z
loop_
_atom_site_type_symbol
_atom_site_label
_atom_site_fract_x
_atom_site_fract_y
_atom_site_fract_z
Si Si1 0.642118 0.103214 0.699944
Si Si2 0.646862 0.348294 0.325493
Si Si3 0.641101 0.753740 0.528854
Si Si4 0.054409 0.404498 0.338509
Si Si5 0.855143 0.735329 0.091600
Si Si6 0.020290 0.098246 0.870841
Si Si7 0.362011 0.600977 0.096910
O O1 0.750000 0.124051 0.728746
O O2 0.612500 0.158941 0.593055
O O3 0.571631 0.119961 0.800112
O O4 0.638669 0.000000 0.675546
O O5 0.750000 0.381742 0.355997
O O6 0.630629 0.259791 0.398393
O O7 0.556458 0.405015 0.346126
O O8 0.647836 0.327520 0.197106
O O9 0.750000 0.745401 0.550584
O O10 0.591545 0.672146 0.585500
O O11 0.091850 0.500000 0.370028
O O12 0.087366 0.386704 0.213466
O O13 0.750000 0.762435 0.063937
O O14 0.910357 0.820382 0.131223
O O15 0.889858 0.676394 0.989468
O O16 0.052451 0.000000 0.834647
O O17 0.000000 0.091204 0.000000
O O18 0.250000 0.606810 0.111877
O O19 0.381138 0.500000 0.059395
#
# Coordination Sequence:
#
# PCOD9406437 Si02
#       7
#     8   8   8   8   8   8   8
#     4   9  19  38  64  91 118 154 201 249 299 350
#     4  10  23  40  56  83 120 159 201 243 290 353
#     4  10  21  38  62  90 121 153 196 254 302 345
#     4  11  23  38  60  87 116 155 200 246 300 355
#     4  10  22  39  61  84 115 160 199 237 298 359
#     4  10  22  37  56  87 124 155 190 238 289 351
#     4   9  20  39  62  90 118 147 197 258 305 351
#
# _framework density 20.951473
#
# number of rings (size 3 to 8) (size 9 to 14) (size 15 to 20)
#    0.000    2.143    0.000    1.714    4.000    3.714 
#    0.000    6.429    0.000    6.000    0.000    0.000 
#    0.000    0.000    0.000    0.000    0.000    0.000 
#
# Total GULP energy -312426.759450 kJ/mol
# GULP energy per Si atom -5579.049276 kJ/mol
# Density = 2.090379 g / cm^3
# Si number density = 20.951473 Si / 1000 Ang^3
#
#
#
# Elastic Constant Matrix: (Units=GPa)
#
#
# Indices 1 2 3 4 5 6 
#
# 1 49.6025 27.6837 26.2439 0.0000 0.0000 0.0000
# 2 27.6837 60.7845 23.7180 0.0000 0.0000 0.0000
# 3 26.2439 23.7180 75.8988 0.0000 0.0000 0.0000
# 4 0.0000 0.0000 0.0000 -504.7866 0.0000 0.0000
# 5 0.0000 0.0000 0.0000 0.0000 21.6183 0.0000
# 6 0.0000 0.0000 0.0000 0.0000 0.0000 19.7159
#
#
#
# Elastic Compliance Matrix: (Units=1/GPa)
#
#
# Indices 1 2 3 4 5 6 
#
# 1 0.029926 -0.010924 -0.006934 0.000000 0.000000 0.000000
# 2 -0.010924 0.022724 -0.003324 0.000000 0.000000 0.000000
# 3 -0.006934 -0.003324 0.016612 0.000000 0.000000 0.000000
# 4 0.000000 0.000000 0.000000 -0.001981 0.000000 0.000000
# 5 0.000000 0.000000 0.000000 0.000000 0.046257 0.000000
# 6 0.000000 0.000000 0.000000 0.000000 0.000000 0.050720
#
#
# Mechanical properties :
#
#
# Convention : Reuss Voigt Hill
#
# Bulk Modulus (GPa) = 37.17762 37.95301 37.56532
# Shear Modulus (GPa) = 23.19258 -85.44779 -31.12761
#
# Velocity S-wave (km/s) = 3.33072 -6.39314 -3.85866
# Velocity P-wave (km/s) = 5.70743 6.02845 1.37249
#
# Compressibility (1/GPa) = 0.02689790
#
# Stress axis : x y z
#
# Youngs Moduli (GPa) = 33.41627 44.00707 60.19857
#
# Poissons Ratio (x) = 0.48072 0.41741
# Poissons Ratio (y) = 0.36503 0.20009
# Poissons Ratio (z) = 0.23171 0.14627
#
# Static dielectric constant tensor:
#      x y z
#    x 1.783700 0.000000 0.000000 
#    y 0.000000 1.779330 0.000000 
#    z 0.000000 0.000000 1.743050 
# 
# From -- ./inp_files/16614.got.cif
#   From: 2010.05.17/outbox.cif.g08.bks.cpg/sg51_9_cif.got.tgz:16614.got - 2010.06.03 11:52:47.
