data_PCOD9406452
_publ_section_title
;
Structure prediction by ZEFSAII (Michael W. Deem and Ramdas Pophale) SiO2 
 PCOD9406452
Probable space group: P M M A
;
_chemical_formula_sum "Si O2"
_cell_formula_units_Z 32
_cell_length_a 13.636886
_cell_length_b 8.625930
_cell_length_c 13.579957
_cell_angle_alpha 90.000000
_cell_angle_beta 90.000000
_cell_angle_gamma 90.000000
_cell_volume 1597.421533
_symmetry_space_group_name_H-M "P M M A"
_symmetry_group_IT_number 51
_symmetry_cell_setting 'orthorhombic'
loop_
_space_group_symop_operation_xyz
x,y,z
1/2-x,-y,z
1/2+x,-y,-z
-x,y,-z
-x,-y,-z
1/2+x,y,-z
1/2-x,y,z
x,-y,z
loop_
_atom_site_type_symbol
_atom_site_label
_atom_site_fract_x
_atom_site_fract_y
_atom_site_fract_z
Si Si1 0.250000 0.319077 0.834537
Si Si2 0.250000 0.176370 0.624685
Si Si3 0.612104 0.677842 0.528555
Si Si4 0.537358 0.812862 0.108387
Si Si5 0.139489 0.812690 0.253538
O O1 0.250000 0.500000 0.856834
O O2 0.250000 0.287974 0.717616
O O3 0.147195 0.247842 0.872511
O O4 0.160959 0.213075 0.552481
O O5 0.250000 0.000000 0.660224
O O6 0.500000 0.676497 0.500000
O O7 0.646791 0.500000 0.521651
O O8 0.629835 0.740811 0.637976
O O9 0.452920 0.762581 0.186347
O O10 0.541649 0.000000 0.113171
O O11 0.500000 0.768270 0.000000
O O12 0.250000 0.774321 0.215168
O O13 0.135102 0.000000 0.260915
#
# Coordination Sequence:
#
# PCOD9406452 Si02
#       5
#     4   4   8   8   8
#     4  12  26  44  65  94 135 172 215 268 322 388
#     4  12  24  40  63  90 123 166 213 258 308 368
#     4  11  23  38  59  90 127 167 208 254 312 376
#     4  10  23  43  71  99 127 168 218 271 326 383
#     4  10  21  38  62  96 130 165 210 263 320 384
#
# _framework density 20.032284000000001
#
# number of rings (size 3 to 8) (size 9 to 14) (size 15 to 20)
#    0.000    1.250    1.250    4.500    1.750    7.500 
#    0.000    0.000    0.000    0.000    0.000    0.000 
#    0.000    0.000    0.000    0.000    0.000    0.000 
#
# Total GULP energy -178713.449473 kJ/mol
# GULP energy per Si atom -5584.795296 kJ/mol
# Density = 1.998669 g / cm^3
# Si number density = 20.032284 Si / 1000 Ang^3
#
#
#
# Elastic Constant Matrix: (Units=GPa)
#
#
# Indices 1 2 3 4 5 6 
#
# 1 202.6322 27.3636 62.4444 0.0000 0.0000 0.0000
# 2 27.3636 32.8975 4.6812 0.0000 0.0000 0.0000
# 3 62.4444 4.6812 103.9877 0.0000 0.0000 0.0000
# 4 0.0000 0.0000 0.0000 -537.4189 0.0000 0.0000
# 5 0.0000 0.0000 0.0000 0.0000 25.5235 0.0000
# 6 0.0000 0.0000 0.0000 0.0000 0.0000 103.8721
#
#
#
# Elastic Compliance Matrix: (Units=1/GPa)
#
#
# Indices 1 2 3 4 5 6 
#
# 1 0.006817 -0.005121 -0.003863 0.000000 0.000000 0.000000
# 2 -0.005121 0.034440 0.001525 0.000000 0.000000 0.000000
# 3 -0.003863 0.001525 0.011868 0.000000 0.000000 0.000000
# 4 0.000000 0.000000 0.000000 -0.001861 0.000000 0.000000
# 5 0.000000 0.000000 0.000000 0.000000 0.039180 0.000000
# 6 0.000000 0.000000 0.000000 0.000000 0.000000 0.009627
#
#
# Mechanical properties :
#
#
# Convention : Reuss Voigt Hill
#
# Bulk Modulus (GPa) = 26.17382 58.72176 42.44779
# Shear Modulus (GPa) = 39.14691 -65.26943 -13.06126
#
# Velocity S-wave (km/s) = 4.42542 -5.71427 -2.55622
# Velocity P-wave (km/s) = 6.26152 3.76297 3.53883
#
# Compressibility (1/GPa) = 0.03820612
#
# Stress axis : x y z
#
# Youngs Moduli (GPa) = 146.69180 29.03626 84.26252
#
# Poissons Ratio (x) = 0.14868 0.32551
# Poissons Ratio (y) = 0.75115 -0.12846
# Poissons Ratio (z) = 0.56668 -0.04427
#
# Static dielectric constant tensor:
#      x y z
#    x 1.718600 0.000000 0.000000 
#    y 0.000000 1.685940 0.000000 
#    z 0.000000 0.000000 1.663380 
# 
# From -- ./inp_files/15931.got.cif
#   From: 2010.05.17/outbox.cif.g08.bks.cpg/sg51_8_cif.got.tgz:15931.got - 2010.06.03 11:52:47.
