data_PCOD9406625
_publ_section_title
;
Structure prediction by ZEFSAII (Michael W. Deem and Ramdas Pophale) SiO2 
 PCOD9406625
Probable space group: P M M A
;
_chemical_formula_sum "Si O2"
_cell_formula_units_Z 48
_cell_length_a 18.653826
_cell_length_b 7.648424
_cell_length_c 17.667168
_cell_angle_alpha 90.000000
_cell_angle_beta 90.000000
_cell_angle_gamma 90.000000
_cell_volume 2520.616738
_symmetry_space_group_name_H-M "P M M A"
_symmetry_group_IT_number 51
_symmetry_cell_setting 'orthorhombic'
loop_
_space_group_symop_operation_xyz
x,y,z
1/2-x,-y,z
1/2+x,-y,-z
-x,y,-z
-x,-y,-z
1/2+x,y,-z
1/2-x,y,z
x,-y,z
loop_
_atom_site_type_symbol
_atom_site_label
_atom_site_fract_x
_atom_site_fract_y
_atom_site_fract_z
Si Si1 0.834210 0.711288 0.083669
Si Si2 0.836819 0.500000 0.502976
Si Si3 0.912643 0.797935 0.234850
Si Si4 0.331074 0.290296 0.085812
Si Si5 0.336184 0.500000 0.670765
Si Si6 0.076510 0.791169 0.231871
Si Si7 0.664290 0.206841 0.621056
O O1 0.750000 0.752271 0.095498
O O2 0.841014 0.500000 0.087841
O O3 0.881872 0.788990 0.149836
O O4 0.852997 0.769749 0.998336
O O5 0.750000 0.500000 0.500248
O O6 0.861228 0.500000 0.416468
O O7 0.857564 0.671650 0.550789
O O8 0.865600 0.670287 0.286295
O O9 0.994545 0.731210 0.234811
O O10 0.910243 0.000000 0.260584
O O11 0.250000 0.225420 0.101910
O O12 0.326750 0.500000 0.080673
O O13 0.384500 0.249309 0.153273
O O14 0.250000 0.500000 0.673674
O O15 0.123214 0.731647 0.303588
O O16 0.074001 0.000000 0.237370
O O17 0.750000 0.226200 0.632725
O O18 0.650495 0.000000 0.608048
#
# Coordination Sequence:
#
# PCOD9406625 Si02
#       7
#     8   4   8   8   4   8   8
#     4   9  18  36  57  79 112 150 194 246 292 335
#     4   9  20  37  61  90 111 138 185 235 286 341
#     4  11  24  39  58  86 117 153 194 236 287 341
#     4   9  19  33  55  86 114 150 198 241 282 331
#     4  11  24  43  65  87 112 143 185 240 293 343
#     4  10  22  37  53  81 121 157 191 233 280 337
#     4   9  18  35  59  85 116 152 187 228 278 334
#
# _framework density 19.042957999999999
#
# number of rings (size 3 to 8) (size 9 to 14) (size 15 to 20)
#    0.000    2.333    0.833    2.000    2.333    4.333 
#    0.000    8.333    0.000    3.000    0.000    0.000 
#    0.000    0.000    0.000    0.000    0.000    0.000 
#
# Total GULP energy -267901.237781 kJ/mol
# GULP energy per Si atom -5581.275787 kJ/mol
# Density = 1.899961 g / cm^3
# Si number density = 19.042958 Si / 1000 Ang^3
#
#
#
# Elastic Constant Matrix: (Units=GPa)
#
#
# Indices 1 2 3 4 5 6 
#
# 1 86.3010 43.1539 78.3081 0.0000 0.0000 0.0000
# 2 43.1539 74.8820 50.6863 0.0000 0.0000 0.0000
# 3 78.3081 50.6863 161.8672 0.0000 0.0000 0.0000
# 4 0.0000 0.0000 0.0000 808.3198 0.0000 0.0000
# 5 0.0000 0.0000 0.0000 0.0000 26.2090 0.0000
# 6 0.0000 0.0000 0.0000 0.0000 0.0000 24.9717
#
#
#
# Elastic Compliance Matrix: (Units=1/GPa)
#
#
# Indices 1 2 3 4 5 6 
#
# 1 0.023511 -0.007424 -0.009049 0.000000 0.000000 0.000000
# 2 -0.007424 0.019290 -0.002449 0.000000 0.000000 0.000000
# 3 -0.009049 -0.002449 0.011323 0.000000 0.000000 0.000000
# 4 0.000000 0.000000 0.000000 0.001237 0.000000 0.000000
# 5 0.000000 0.000000 0.000000 0.000000 0.038155 0.000000
# 6 0.000000 0.000000 0.000000 0.000000 0.000000 0.040045
#
#
# Mechanical properties :
#
#
# Convention : Reuss Voigt Hill
#
# Bulk Modulus (GPa) = 61.42708 74.14967 67.78837
# Shear Modulus (GPa) = 28.27544 181.96022 105.11783
#
# Velocity S-wave (km/s) = 3.85752 9.78570 7.43776
# Velocity P-wave (km/s) = 7.22273 12.91133 10.46113
#
# Compressibility (1/GPa) = 0.01627947
#
# Stress axis : x y z
#
# Youngs Moduli (GPa) = 42.53366 51.83965 88.31800
#
# Poissons Ratio (x) = 0.38484 0.79923
# Poissons Ratio (y) = 0.31576 0.21629
# Poissons Ratio (z) = 0.38491 0.12696
#
# Static dielectric constant tensor:
#      x y z
#    x 1.654290 0.000000 0.000000 
#    y 0.000000 1.686860 0.000000 
#    z 0.000000 0.000000 1.647270 
# 
# From -- ./inp_files/24990.got.cif
#   From: 2010.05.17/outbox.cif.g08.bks.cpg/sg51_13_cif.got.tgz:24990.got - 2010.06.03 11:52:47.
