data_PCOD9406459
_publ_section_title
;
Structure prediction by ZEFSAII (Michael W. Deem and Ramdas Pophale) SiO2 
 PCOD9406459
Probable space group: P M M A
;
_chemical_formula_sum "Si O2"
_cell_formula_units_Z 56
_cell_length_a 16.506639
_cell_length_b 8.699442
_cell_length_c 19.313340
_cell_angle_alpha 90.000000
_cell_angle_beta 90.000000
_cell_angle_gamma 90.000000
_cell_volume 2773.367593
_symmetry_space_group_name_H-M "P M M A"
_symmetry_group_IT_number 51
_symmetry_cell_setting 'orthorhombic'
loop_
_space_group_symop_operation_xyz
x,y,z
1/2-x,-y,z
1/2+x,-y,-z
-x,y,-z
-x,-y,-z
1/2+x,y,-z
1/2-x,y,z
x,-y,z
loop_
_atom_site_type_symbol
_atom_site_label
_atom_site_fract_x
_atom_site_fract_y
_atom_site_fract_z
Si Si1 0.922280 0.676943 0.211163
Si Si2 0.414729 0.681369 0.039877
Si Si3 0.499067 0.185437 0.419658
Si Si4 0.913191 0.180046 0.807486
Si Si5 0.656535 0.172168 0.085185
Si Si6 0.840057 0.187485 0.665417
Si Si7 0.660629 0.316983 0.350719
O O1 0.949606 0.500000 0.216589
O O2 0.889245 0.710870 0.135063
O O3 0.853983 0.703471 0.268512
O O4 0.997387 0.789138 0.223176
O O5 0.399779 0.500000 0.035909
O O6 0.411928 0.733372 0.119332
O O7 0.500000 0.712106 0.000000
O O8 0.351981 0.775687 0.993633
O O9 0.500000 0.231940 0.500000
O O10 0.417115 0.239721 0.380301
O O11 0.582424 0.243565 0.386121
O O12 0.498680 0.000000 0.416371
O O13 0.854012 0.231920 0.745832
O O14 0.900414 0.000000 0.820316
O O15 0.750000 0.170459 0.105124
O O16 0.622475 0.000000 0.094142
O O17 0.750000 0.236137 0.642040
O O18 0.841585 0.000000 0.663925
O O19 0.750000 0.257961 0.370687
O O20 0.659003 0.500000 0.364020
#
# Coordination Sequence:
#
# PCOD9406459 Si02
#       7
#     8   8   8   8   8   8   8
#     4  11  21  36  59  85 116 155 198 243 300 360
#     4  11  23  38  57  82 112 151 195 244 304 364
#     4  10  21  38  63  95 126 159 201 247 297 353
#     4  11  21  35  60  86 112 151 202 254 305 358
#     4  11  24  39  57  84 115 149 193 244 297 356
#     4   9  19  37  60  87 121 159 199 246 302 359
#     4  10  22  39  60  88 124 164 202 242 296 361
#
# _framework density 20.192060000000001
#
# number of rings (size 3 to 8) (size 9 to 14) (size 15 to 20)
#    0.000    1.571    2.857    2.143    0.000    4.571 
#    0.000    2.857    0.000    3.429    0.000    0.000 
#    0.000    0.000    0.000    0.000    0.000    0.000 
#
# Total GULP energy -312577.517117 kJ/mol
# GULP energy per Si atom -5581.741377 kJ/mol
# Density = 2.014610 g / cm^3
# Si number density = 20.192060 Si / 1000 Ang^3
#
#
#
# Elastic Constant Matrix: (Units=GPa)
#
#
# Indices 1 2 3 4 5 6 
#
# 1 118.2874 7.5228 51.7073 0.0000 0.0000 0.0000
# 2 7.5228 20.2476 18.1949 0.0000 0.0000 0.0000
# 3 51.7073 18.1949 114.3903 0.0000 0.0000 0.0000
# 4 0.0000 0.0000 0.0000 15.7030 0.0000 0.0000
# 5 0.0000 0.0000 0.0000 0.0000 15.9282 0.0000
# 6 0.0000 0.0000 0.0000 0.0000 0.0000 17.8426
#
#
#
# Elastic Compliance Matrix: (Units=1/GPa)
#
#
# Indices 1 2 3 4 5 6 
#
# 1 0.010539 0.000426 -0.004832 0.000000 0.000000 0.000000
# 2 0.000426 0.057642 -0.009361 0.000000 0.000000 0.000000
# 3 -0.004832 -0.009361 0.012415 0.000000 0.000000 0.000000
# 4 0.000000 0.000000 0.000000 0.063682 0.000000 0.000000
# 5 0.000000 0.000000 0.000000 0.000000 0.062782 0.000000
# 6 0.000000 0.000000 0.000000 0.000000 0.000000 0.056046
#
#
# Mechanical properties :
#
#
# Convention : Reuss Voigt Hill
#
# Bulk Modulus (GPa) = 18.84552 45.30836 32.07694
# Shear Modulus (GPa) = 16.21655 21.59479 18.90567
#
# Velocity S-wave (km/s) = 2.83700 3.27382 3.06321
# Velocity P-wave (km/s) = 4.48161 6.06448 5.33211
#
# Compressibility (1/GPa) = 0.05306300
#
# Stress axis : x y z
#
# Youngs Moduli (GPa) = 94.88611 17.34833 80.54760
#
# Poissons Ratio (x) = -0.00739 0.38918
# Poissons Ratio (y) = -0.04044 0.75403
# Poissons Ratio (z) = 0.45846 0.16240
#
# Static dielectric constant tensor:
#      x y z
#    x 1.749950 0.000000 0.000000 
#    y 0.000000 1.686670 0.000000 
#    z 0.000000 0.000000 1.730960 
# 
# From -- ./inp_files/33405.got.cif
#   From: 2010.05.17/outbox.cif.g08.bks.cpg/sg51_17_cif.got.tgz:33405.got - 2010.06.03 11:52:47.
