data_PCOD9406463
_publ_section_title
;
Structure prediction by ZEFSAII (Michael W. Deem and Ramdas Pophale) SiO2 
 PCOD9406463
Probable space group: P M M A
;
_chemical_formula_sum "Si O2"
_cell_formula_units_Z 30
_cell_length_a 22.961752
_cell_length_b 5.157932
_cell_length_c 12.878412
_cell_angle_alpha 90.000000
_cell_angle_beta 90.000000
_cell_angle_gamma 90.000000
_cell_volume 1525.256727
_symmetry_space_group_name_H-M "P M M A"
_symmetry_group_IT_number 51
_symmetry_cell_setting 'orthorhombic'
loop_
_space_group_symop_operation_xyz
x,y,z
1/2-x,-y,z
1/2+x,-y,-z
-x,y,-z
-x,-y,-z
1/2+x,y,-z
1/2-x,y,z
x,-y,z
loop_
_atom_site_type_symbol
_atom_site_label
_atom_site_fract_x
_atom_site_fract_y
_atom_site_fract_z
Si Si1 0.180909 0.500000 0.020524
Si Si2 0.905800 0.500000 0.170581
Si Si3 0.577609 0.000000 0.701701
Si Si4 0.661024 0.500000 0.389639
Si Si5 0.250000 0.000000 0.605084
Si Si6 0.181244 0.000000 0.159217
Si Si7 0.516410 0.000000 0.121386
Si Si8 0.560341 0.500000 0.561876
O O1 0.250000 0.500000 0.997665
O O2 0.167412 0.749843 0.089964
O O3 0.144824 0.500000 0.915714
O O4 0.876008 0.500000 0.282823
O O5 0.945634 0.749932 0.150850
O O6 0.563116 0.749891 0.634816
O O7 0.644686 0.000000 0.736266
O O8 0.540963 0.000000 0.807862
O O9 0.699530 0.235780 0.393556
O O10 0.614943 0.500000 0.483880
O O11 0.250000 0.000000 0.180940
O O12 0.500000 0.000000 0.000000
O O13 0.500000 0.500000 0.500000
#
# Coordination Sequence:
#
# PCOD9406463 Si02
#       8
#     4   4   4   4   2   4   4   4
#     4  10  21  38  64  90 129 174 217 265 325 391
#     4  12  24  41  65  98 133 181 223 273 337 404
#     4  12  24  43  70  98 129 175 222 269 337 396
#     4  11  24  46  68 100 135 178 222 286 335 396
#     4  10  24  44  68  94 138 168 220 284 340 392
#     4  10  22  43  63  93 130 166 218 273 316 388
#     4  12  25  41  65 101 139 175 221 282 333 399
#     4  12  26  46  71  97 132 174 225 274 332 402
#
# _framework density 19.66882
#
# number of rings (size 3 to 8) (size 9 to 14) (size 15 to 20)
#    0.000    0.800    0.000    8.000    1.867    0.000 
#    9.600    0.000    0.000    0.000    0.000    0.000 
#    0.000    0.000    0.000    0.000    0.000    0.000 
#
# Total GULP energy -167340.122360 kJ/mol
# GULP energy per Si atom -5578.004079 kJ/mol
# Density = 1.962405 g / cm^3
# Si number density = 19.668820 Si / 1000 Ang^3
#
#
#
# Elastic Constant Matrix: (Units=GPa)
#
#
# Indices 1 2 3 4 5 6 
#
# 1 96.8408 65.2675 76.9033 0.0000 0.0000 0.0000
# 2 65.2675 219.6636 68.3825 0.0000 0.0000 0.0000
# 3 76.9033 68.3825 140.9822 0.0000 0.0000 0.0000
# 4 0.0000 0.0000 0.0000 48.5617 0.0000 0.0000
# 5 0.0000 0.0000 0.0000 0.0000 13.3713 0.0000
# 6 0.0000 0.0000 0.0000 0.0000 0.0000 67.5668
#
#
#
# Elastic Compliance Matrix: (Units=1/GPa)
#
#
# Indices 1 2 3 4 5 6 
#
# 1 0.019725 -0.002958 -0.009325 0.000000 0.000000 0.000000
# 2 -0.002958 0.005806 -0.001203 0.000000 0.000000 0.000000
# 3 -0.009325 -0.001203 0.012763 0.000000 0.000000 0.000000
# 4 0.000000 0.000000 0.000000 0.020592 0.000000 0.000000
# 5 0.000000 0.000000 0.000000 0.000000 0.074787 0.000000
# 6 0.000000 0.000000 0.000000 0.000000 0.000000 0.014800
#
#
# Mechanical properties :
#
#
# Convention : Reuss Voigt Hill
#
# Bulk Modulus (GPa) = 88.31675 97.62149 92.96912
# Shear Modulus (GPa) = 27.89904 42.36217 35.13061
#
# Velocity S-wave (km/s) = 3.77030 4.64591 4.23082
# Velocity P-wave (km/s) = 7.99706 8.86113 8.44016
#
# Compressibility (1/GPa) = 0.01132288
#
# Stress axis : x y z
#
# Youngs Moduli (GPa) = 50.69775 172.24690 78.35213
#
# Poissons Ratio (x) = 0.50948 0.73062
# Poissons Ratio (y) = 0.14996 0.09422
# Poissons Ratio (z) = 0.47275 0.20713
#
# Static dielectric constant tensor:
#      x y z
#    x 1.665200 0.000000 0.000000 
#    y 0.000000 -1.067500 0.000000 
#    z 0.000000 0.000000 1.800280 
# 
# From -- ./inp_files/17757.got.cif
#   From: 2010.05.17/outbox.cif.g08.bks.cpg/sg51_9_cif.got.tgz:17757.got - 2010.06.03 11:52:47.
