data_PCOD9406217
_publ_section_title
;
Structure prediction by ZEFSAII (Michael W. Deem and Ramdas Pophale) SiO2 
 PCOD9406217
Probable space group: P M M A
;
_chemical_formula_sum "Si O2"
_cell_formula_units_Z 32
_cell_length_a 14.261407
_cell_length_b 21.102330
_cell_length_c 5.135274
_cell_angle_alpha 90.000000
_cell_angle_beta 90.000000
_cell_angle_gamma 90.000000
_cell_volume 1545.455148
_symmetry_space_group_name_H-M "P M M A"
_symmetry_group_IT_number 51
_symmetry_cell_setting 'orthorhombic'
loop_
_space_group_symop_operation_xyz
x,y,z
1/2-x,-y,z
1/2+x,-y,-z
-x,y,-z
-x,-y,-z
1/2+x,y,-z
1/2-x,y,z
x,-y,z
loop_
_atom_site_type_symbol
_atom_site_label
_atom_site_fract_x
_atom_site_fract_y
_atom_site_fract_z
Si Si1 0.112410 0.647121 0.012682
Si Si2 0.936449 0.926547 0.242947
Si Si3 0.250000 0.756966 0.138692
Si Si4 0.386578 0.571323 0.509525
Si Si5 0.250000 0.154003 0.645887
O O1 0.160816 0.710320 0.119065
O O2 0.139408 0.593546 0.221957
O O3 0.141836 0.622094 0.728367
O O4 0.000000 0.654874 0.000000
O O5 0.842873 0.888115 0.310061
O O6 0.000000 0.925446 0.500000
O O7 0.911774 0.000000 0.182568
O O8 0.000000 0.902711 0.000000
O O9 0.250000 0.806172 0.377392
O O10 0.250000 0.795822 0.875265
O O11 0.500000 0.570741 0.500000
O O12 0.356374 0.500000 0.571408
#
# Coordination Sequence:
#
# PCOD9406217 Si02
#       5
#     8   8   4   8   4
#     4  10  21  38  56  79 115 154 196 252 307 361
#     4  10  22  42  69 100 130 161 203 256 313 366
#     4  12  26  40  58  86 122 168 214 244 292 368
#     4   9  17  33  59  84 107 143 193 252 318 375
#     4  12  25  42  64  92 129 170 210 256 300 360
#
# _framework density 20.705873
#
# number of rings (size 3 to 8) (size 9 to 14) (size 15 to 20)
#    0.000    1.750    0.000    4.125    0.000    6.000 
#    0.000    8.750    0.000    0.000    0.000    0.000 
#    0.000    0.000    0.000    0.000    0.000    0.000 
#
# Total GULP energy -178734.613886 kJ/mol
# GULP energy per Si atom -5585.456684 kJ/mol
# Density = 2.065875 g / cm^3
# Si number density = 20.705873 Si / 1000 Ang^3
#
#
#
# Elastic Constant Matrix: (Units=GPa)
#
#
# Indices 1 2 3 4 5 6 
#
# 1 165.4381 101.2327 76.6416 0.0000 0.0000 0.0000
# 2 101.2327 191.4662 123.7879 0.0000 0.0000 0.0000
# 3 76.6416 123.7879 225.6302 0.0000 0.0000 0.0000
# 4 0.0000 0.0000 0.0000 39.5801 0.0000 0.0000
# 5 0.0000 0.0000 0.0000 0.0000 15.4837 0.0000
# 6 0.0000 0.0000 0.0000 0.0000 0.0000 25.9426
#
#
#
# Elastic Compliance Matrix: (Units=1/GPa)
#
#
# Indices 1 2 3 4 5 6 
#
# 1 0.009005 -0.004313 -0.000692 0.000000 0.000000 0.000000
# 2 -0.004313 0.010160 -0.004109 0.000000 0.000000 0.000000
# 3 -0.000692 -0.004109 0.006921 0.000000 0.000000 0.000000
# 4 0.000000 0.000000 0.000000 0.025265 0.000000 0.000000
# 5 0.000000 0.000000 0.000000 0.000000 0.064584 0.000000
# 6 0.000000 0.000000 0.000000 0.000000 0.000000 0.038547
#
#
# Mechanical properties :
#
#
# Convention : Reuss Voigt Hill
#
# Bulk Modulus (GPa) = 127.27539 131.76210 129.51875
# Shear Modulus (GPa) = 28.51762 34.92609 31.72186
#
# Velocity S-wave (km/s) = 3.71519 4.11149 3.91835
# Velocity P-wave (km/s) = 8.94456 9.29045 9.11914
#
# Compressibility (1/GPa) = 0.00785698
#
# Stress axis : x y z
#
# Youngs Moduli (GPa) = 111.05367 98.42516 144.47882
#
# Poissons Ratio (x) = 0.42455 0.10001
# Poissons Ratio (y) = 0.47903 0.59365
# Poissons Ratio (z) = 0.07687 0.40442
#
# Static dielectric constant tensor:
#      x y z
#    x 1.801190 0.000000 0.000000 
#    y 0.000000 1.675320 0.000000 
#    z 0.000000 0.000000 1.693310 
# 
# From -- ./inp_files/1327.got.cif
#   From: 2010.05.17/outbox.cif.g08.bks.cpg/sg51_1_cif.got.tgz:1327.got - 2010.06.03 11:52:47.
