data_PCOD9406173
_publ_section_title
;
Structure prediction by ZEFSAII (Michael W. Deem and Ramdas Pophale) SiO2 
 PCOD9406173
Probable space group: P M M A
;
_chemical_formula_sum "Si O2"
_cell_formula_units_Z 48
_cell_length_a 18.427622
_cell_length_b 8.502495
_cell_length_c 16.550463
_cell_angle_alpha 90.000000
_cell_angle_beta 90.000000
_cell_angle_gamma 90.000000
_cell_volume 2593.139186
_symmetry_space_group_name_H-M "P M M A"
_symmetry_group_IT_number 51
_symmetry_cell_setting 'orthorhombic'
loop_
_space_group_symop_operation_xyz
x,y,z
1/2-x,-y,z
1/2+x,-y,-z
-x,y,-z
-x,-y,-z
1/2+x,y,-z
1/2-x,y,z
x,-y,z
loop_
_atom_site_type_symbol
_atom_site_label
_atom_site_fract_x
_atom_site_fract_y
_atom_site_fract_z
Si Si1 0.250000 0.689499 0.295629
Si Si2 0.665332 0.311221 0.431896
Si Si3 0.031750 0.808705 0.869321
Si Si4 0.612174 0.810938 0.604569
Si Si5 0.250000 0.313070 0.110650
Si Si6 0.458685 0.809257 0.684005
Si Si7 0.108029 0.810313 0.026807
O O1 0.250000 0.500000 0.299707
O O2 0.322414 0.750982 0.339159
O O3 0.250000 0.744555 0.203009
O O4 0.750000 0.259135 0.425826
O O5 0.665401 0.500000 0.432969
O O6 0.630259 0.250257 0.515258
O O7 0.612856 0.251770 0.360918
O O8 0.038679 0.754937 0.777400
O O9 0.957073 0.761792 0.913212
O O10 0.032176 0.000000 0.866539
O O11 0.092058 0.759600 0.934775
O O12 0.533109 0.760714 0.638129
O O13 0.612934 0.000000 0.603693
O O14 0.250000 0.500000 0.114132
O O15 0.319309 0.254046 0.063177
O O16 0.457151 0.000000 0.682918
O O17 0.108884 0.000000 0.026733
#
# Coordination Sequence:
#
# PCOD9406173 Si02
#       7
#     4   8   8   8   4   8   8
#     4  11  23  37  55  82 119 156 187 227 282 341
#     4  11  24  41  58  79 114 157 194 230 280 337
#     4   8  16  34  59  85 109 139 184 237 282 323
#     4  11  22  37  61  89 114 144 186 236 289 337
#     4  11  23  35  49  80 119 150 181 223 274 329
#     4  10  21  37  59  88 115 143 189 241 284 334
#     4   9  17  34  60  82 108 146 186 228 278 333
#
# _framework density 18.510383000000001
#
# number of rings (size 3 to 8) (size 9 to 14) (size 15 to 20)
#    0.000    2.000    0.833    4.000    0.000    7.000 
#    1.500    3.333    0.000    0.000    0.000    0.000 
#    0.000    0.000    0.000    0.000    0.000    0.000 
#
# Total GULP energy -267936.224013 kJ/mol
# GULP energy per Si atom -5582.004667 kJ/mol
# Density = 1.846825 g / cm^3
# Si number density = 18.510383 Si / 1000 Ang^3
#
#
#
# Elastic Constant Matrix: (Units=GPa)
#
#
# Indices 1 2 3 4 5 6 
#
# 1 109.2854 23.8482 114.0063 0.0000 0.0000 0.0000
# 2 23.8482 22.8538 28.4685 0.0000 0.0000 0.0000
# 3 114.0063 28.4685 187.3042 0.0000 0.0000 0.0000
# 4 0.0000 0.0000 0.0000 18.9588 0.0000 0.0000
# 5 0.0000 0.0000 0.0000 0.0000 26.2402 0.0000
# 6 0.0000 0.0000 0.0000 0.0000 0.0000 1264.2272
#
#
#
# Elastic Compliance Matrix: (Units=1/GPa)
#
#
# Indices 1 2 3 4 5 6 
#
# 1 0.026597 -0.009360 -0.014766 0.000000 0.000000 0.000000
# 2 -0.009360 0.057270 -0.003007 0.000000 0.000000 0.000000
# 3 -0.014766 -0.003007 0.014784 0.000000 0.000000 0.000000
# 4 0.000000 0.000000 0.000000 0.052746 0.000000 0.000000
# 5 0.000000 0.000000 0.000000 0.000000 0.038109 0.000000
# 6 0.000000 0.000000 0.000000 0.000000 0.000000 0.000791
#
#
# Mechanical properties :
#
#
# Convention : Reuss Voigt Hill
#
# Bulk Modulus (GPa) = 22.53099 72.45437 47.49268
# Shear Modulus (GPa) = 19.27839 272.09328 145.68583
#
# Velocity S-wave (km/s) = 3.23071 12.13730 8.88120
# Velocity P-wave (km/s) = 5.11030 15.35077 11.44031
#
# Compressibility (1/GPa) = 0.04438331
#
# Stress axis : x y z
#
# Youngs Moduli (GPa) = 37.59856 17.46120 67.64279
#
# Poissons Ratio (x) = 0.16344 0.99881
# Poissons Ratio (y) = 0.35193 0.20341
# Poissons Ratio (z) = 0.55518 0.05251
#
# Static dielectric constant tensor:
#      x y z
#    x 1.613780 0.000000 0.000000 
#    y 0.000000 1.634180 0.000000 
#    z 0.000000 0.000000 1.635790 
# 
# From -- ./inp_files/24867.got.cif
#   From: 2010.05.17/outbox.cif.g08.bks.cpg/sg51_13_cif.got.tgz:24867.got - 2010.06.03 11:52:47.
