data_PCOD9406584
_publ_section_title
;
Structure prediction by ZEFSAII (Michael W. Deem and Ramdas Pophale) SiO2 
 PCOD9406584
Probable space group: P M M A
;
_chemical_formula_sum "Si O2"
_cell_formula_units_Z 56
_cell_length_a 14.791481
_cell_length_b 8.938304
_cell_length_c 22.926577
_cell_angle_alpha 90.000000
_cell_angle_beta 90.000000
_cell_angle_gamma 90.000000
_cell_volume 3031.140027
_symmetry_space_group_name_H-M "P M M A"
_symmetry_group_IT_number 51
_symmetry_cell_setting 'orthorhombic'
loop_
_space_group_symop_operation_xyz
x,y,z
1/2-x,-y,z
1/2+x,-y,-z
-x,y,-z
-x,-y,-z
1/2+x,y,-z
1/2-x,y,z
x,-y,z
loop_
_atom_site_type_symbol
_atom_site_label
_atom_site_fract_x
_atom_site_fract_y
_atom_site_fract_z
Si Si1 0.642073 0.679403 0.886112
Si Si2 0.639962 0.672100 0.015710
Si Si3 0.938260 0.320406 0.444670
Si Si4 0.646898 0.820492 0.135742
Si Si5 0.980872 0.179542 0.787305
Si Si6 0.250000 0.821590 0.523516
Si Si7 0.066890 0.320611 0.336419
Si Si8 0.250000 0.179408 0.385565
O O1 0.750000 0.703434 0.881472
O O2 0.626925 0.500000 0.881413
O O3 0.611615 0.725922 0.951514
O O4 0.590612 0.765562 0.835591
O O5 0.750000 0.673464 0.014059
O O6 0.611237 0.500000 0.022469
O O7 0.613705 0.762298 0.072943
O O8 0.927100 0.500000 0.447995
O O9 0.840919 0.244908 0.449028
O O10 0.000000 0.274310 0.500000
O O11 0.992361 0.284495 0.385762
O O12 0.750000 0.767220 0.144851
O O13 0.578430 0.775708 0.186456
O O14 0.648327 0.000000 0.133680
O O15 0.961172 0.256077 0.725903
O O16 0.977190 0.000000 0.781503
O O17 0.250000 0.783799 0.454476
O O18 0.250000 0.000000 0.529072
O O19 0.076326 0.500000 0.333748
O O20 0.161094 0.248609 0.356563
O O21 0.250000 0.000000 0.379241
#
# Coordination Sequence:
#
# PCOD9406584 Si02
#       8
#     8   8   8   8   8   4   8   4
#     4   9  19  36  56  80 113 150 188 232 287 350
#     4   8  15  30  54  82 108 138 182 238 292 342
#     4  10  21  40  65  91 123 160 201 247 291 345
#     4   9  19  37  58  78 106 147 190 235 293 356
#     4  11  24  39  56  81 115 152 194 242 290 346
#     4  11  23  37  63  99 129 159 192 239 300 351
#     4  11  24  42  64  88 118 160 201 241 289 343
#     4  11  23  39  63  95 127 157 192 233 284 349
#
# _framework density 18.474895
#
# number of rings (size 3 to 8) (size 9 to 14) (size 15 to 20)
#    0.000    2.143    1.429    2.143    1.000    4.571 
#    1.286    4.286    0.000    0.000    0.000    0.000 
#    0.000    0.000    0.000    0.000    0.000    0.000 
#
# Total GULP energy -312734.648590 kJ/mol
# GULP energy per Si atom -5584.547296 kJ/mol
# Density = 1.843285 g / cm^3
# Si number density = 18.474895 Si / 1000 Ang^3
#
#
#
# Elastic Constant Matrix: (Units=GPa)
#
#
# Indices 1 2 3 4 5 6 
#
# 1 140.4820 55.4095 92.7186 0.0000 0.0000 0.0000
# 2 55.4095 43.3429 65.8612 0.0000 0.0000 0.0000
# 3 92.7186 65.8612 170.5519 0.0000 0.0000 0.0000
# 4 0.0000 0.0000 0.0000 27.7654 0.0000 0.0000
# 5 0.0000 0.0000 0.0000 0.0000 27.8398 0.0000
# 6 0.0000 0.0000 0.0000 0.0000 0.0000 16.4231
#
#
#
# Elastic Compliance Matrix: (Units=1/GPa)
#
#
# Indices 1 2 3 4 5 6 
#
# 1 0.014574 -0.015953 -0.001762 0.000000 0.000000 0.000000
# 2 -0.015953 0.073299 -0.019633 0.000000 0.000000 0.000000
# 3 -0.001762 -0.019633 0.014403 0.000000 0.000000 0.000000
# 4 0.000000 0.000000 0.000000 0.036016 0.000000 0.000000
# 5 0.000000 0.000000 0.000000 0.000000 0.035920 0.000000
# 6 0.000000 0.000000 0.000000 0.000000 0.000000 0.060890
#
#
# Mechanical properties :
#
#
# Convention : Reuss Voigt Hill
#
# Bulk Modulus (GPa) = 36.25912 86.92839 61.59376
# Shear Modulus (GPa) = 15.67438 23.76483 19.71961
#
# Velocity S-wave (km/s) = 2.91592 3.59044 3.27061
# Velocity P-wave (km/s) = 5.56826 8.02139 6.90464
#
# Compressibility (1/GPa) = 0.02757926
#
# Stress axis : x y z
#
# Youngs Moduli (GPa) = 68.61599 13.64266 69.43057
#
# Poissons Ratio (x) = 0.21765 0.12236
# Poissons Ratio (y) = 1.09466 1.36312
# Poissons Ratio (z) = 0.12092 0.26784
#
# Static dielectric constant tensor:
#      x y z
#    x 1.645590 0.000000 0.000000 
#    y 0.000000 1.616770 0.000000 
#    z 0.000000 0.000000 1.612460 
# 
# From -- ./inp_files/33587.got.cif
#   From: 2010.05.17/outbox.cif.g08.bks.cpg/sg51_17_cif.got.tgz:33587.got - 2010.06.03 11:52:47.
