data_PCOD9406233
_publ_section_title
;
Structure prediction by ZEFSAII (Michael W. Deem and Ramdas Pophale) SiO2 
 PCOD9406233
Probable space group: P M M A
;
_chemical_formula_sum "Si O2"
_cell_formula_units_Z 64
_cell_length_a 8.606238
_cell_length_b 15.454188
_cell_length_c 24.453641
_cell_angle_alpha 90.000000
_cell_angle_beta 90.000000
_cell_angle_gamma 90.000000
_cell_volume 3252.393431
_symmetry_space_group_name_H-M "P M M A"
_symmetry_group_IT_number 51
_symmetry_cell_setting 'orthorhombic'
loop_
_space_group_symop_operation_xyz
x,y,z
1/2-x,-y,z
1/2+x,-y,-z
-x,y,-z
-x,-y,-z
1/2+x,y,-z
1/2-x,y,z
x,-y,z
loop_
_atom_site_type_symbol
_atom_site_label
_atom_site_fract_x
_atom_site_fract_y
_atom_site_fract_z
Si Si1 0.936388 0.169208 0.677394
Si Si2 0.936041 0.598718 0.939044
Si Si3 0.572401 0.645872 0.329480
Si Si4 0.926161 0.395430 0.556890
Si Si5 0.437471 0.902196 0.788139
Si Si6 0.926909 0.596495 0.774405
Si Si7 0.936185 0.900331 0.556465
Si Si8 0.069204 0.730261 0.850618
O O1 0.750000 0.185419 0.679448
O O2 0.974891 0.136945 0.616126
O O3 0.035687 0.255463 0.684653
O O4 0.983149 0.109937 0.728743
O O5 0.750000 0.598034 0.939608
O O6 0.987343 0.500000 0.922987
O O7 0.989490 0.676304 0.899462
O O8 0.000000 0.613002 0.000000
O O9 0.750000 0.621837 0.319279
O O10 0.528961 0.631776 0.392146
O O11 0.457704 0.594309 0.289991
O O12 0.750000 0.362634 0.563282
O O13 0.921163 0.500000 0.555928
O O14 0.000000 0.366317 0.500000
O O15 0.250000 0.893642 0.781394
O O16 0.487733 0.824334 0.829094
O O17 0.469309 0.000000 0.808048
O O18 0.750000 0.623822 0.785907
O O19 0.948141 0.500000 0.796527
O O20 0.043317 0.664732 0.800165
O O21 0.750000 0.899043 0.552622
O O22 0.000000 0.859947 0.500000
O O23 0.990958 0.000000 0.557436
O O24 0.250000 0.739414 0.864038
#
# Coordination Sequence:
#
# PCOD9406233 Si02
#       8
#     8   8   8   8   8   8   8   8
#     4  11  22  37  57  80 110 145 189 245 302 364
#     4  10  21  38  62  94 133 175 215 255 300 352
#     4  12  24  37  54  78 109 144 185 235 292 354
#     4  10  21  38  58  78 101 134 180 233 289 352
#     4  10  22  40  61  87 120 159 204 254 310 369
#     4  11  23  38  57  83 117 156 195 241 296 352
#     4   9  19  35  54  77 102 131 172 224 287 358
#     4  11  22  37  60  91 126 164 206 252 300 353
#
# _framework density 19.677814999999999
#
# number of rings (size 3 to 8) (size 9 to 14) (size 15 to 20)
#    0.000    1.500    1.250    4.125    0.000    8.250 
#    0.000    2.500    0.000    0.375    0.000    0.000 
#    0.000    0.000    0.000    0.000    0.000    0.000 
#
# Total GULP energy -357280.690078 kJ/mol
# GULP energy per Si atom -5582.510782 kJ/mol
# Density = 1.963303 g / cm^3
# Si number density = 19.677815 Si / 1000 Ang^3
#
#
#
# Elastic Constant Matrix: (Units=GPa)
#
#
# Indices 1 2 3 4 5 6 
#
# 1 45.8024 20.5509 19.5916 0.0000 0.0000 0.0000
# 2 20.5509 94.9457 45.7805 0.0000 0.0000 0.0000
# 3 19.5916 45.7805 126.9653 0.0000 0.0000 0.0000
# 4 0.0000 0.0000 0.0000 21.0913 0.0000 0.0000
# 5 0.0000 0.0000 0.0000 0.0000 35.0178 0.0000
# 6 0.0000 0.0000 0.0000 0.0000 0.0000 19.1411
#
#
#
# Elastic Compliance Matrix: (Units=1/GPa)
#
#
# Indices 1 2 3 4 5 6 
#
# 1 0.024716 -0.004250 -0.002281 0.000000 0.000000 0.000000
# 2 -0.004250 0.013480 -0.004205 0.000000 0.000000 0.000000
# 3 -0.002281 -0.004205 0.009744 0.000000 0.000000 0.000000
# 4 0.000000 0.000000 0.000000 0.047413 0.000000 0.000000
# 5 0.000000 0.000000 0.000000 0.000000 0.028557 0.000000
# 6 0.000000 0.000000 0.000000 0.000000 0.000000 0.052244
#
#
# Mechanical properties :
#
#
# Convention : Reuss Voigt Hill
#
# Bulk Modulus (GPa) = 37.78153 48.83993 43.31073
# Shear Modulus (GPa) = 24.21929 27.16939 25.69434
#
# Velocity S-wave (km/s) = 3.51207 3.71982 3.61744
# Velocity P-wave (km/s) = 5.97394 6.58203 6.28534
#
# Compressibility (1/GPa) = 0.02646796
#
# Stress axis : x y z
#
# Youngs Moduli (GPa) = 40.46036 74.18660 102.62404
#
# Poissons Ratio (x) = 0.31526 0.23414
# Poissons Ratio (y) = 0.17194 0.43150
# Poissons Ratio (z) = 0.09231 0.31193
#
# Static dielectric constant tensor:
#      x y z
#    x 1.657760 0.000000 0.000000 
#    y 0.000000 1.738340 0.000000 
#    z 0.000000 0.000000 1.709540 
# 
# From -- ./inp_files/34859.got.cif
#   From: 2010.05.17/outbox.cif.g08.bks.cpg/sg51_18_cif.got.tgz:34859.got - 2010.06.03 11:52:47.
