data_PCOD9406630
_publ_section_title
;
Structure prediction by ZEFSAII (Michael W. Deem and Ramdas Pophale) SiO2 
 PCOD9406630
Probable space group: P M M A
;
_chemical_formula_sum "Si O2"
_cell_formula_units_Z 48
_cell_length_a 8.517497
_cell_length_b 32.082022
_cell_length_c 9.180746
_cell_angle_alpha 90.000000
_cell_angle_beta 90.000000
_cell_angle_gamma 90.000000
_cell_volume 2508.717121
_symmetry_space_group_name_H-M "P M M A"
_symmetry_group_IT_number 51
_symmetry_cell_setting 'orthorhombic'
loop_
_space_group_symop_operation_xyz
x,y,z
1/2-x,-y,z
1/2+x,-y,-z
-x,y,-z
-x,-y,-z
1/2+x,y,-z
1/2-x,y,z
x,-y,z
loop_
_atom_site_type_symbol
_atom_site_label
_atom_site_fract_x
_atom_site_fract_y
_atom_site_fract_z
Si Si1 0.560582 0.000000 0.664443
Si Si2 0.561282 0.755797 0.835617
Si Si3 0.559879 0.590862 0.834209
Si Si4 0.562632 0.163807 0.335525
Si Si5 0.560675 0.500000 0.834039
Si Si6 0.939649 0.327222 0.663612
Si Si7 0.061162 0.083245 0.164647
O O1 0.500000 0.000000 0.500000
O O2 0.509963 0.958513 0.750264
O O3 0.750000 0.000000 0.660930
O O4 0.750000 0.757447 0.836545
O O5 0.497514 0.794724 0.744440
O O6 0.511280 0.712630 0.759058
O O7 0.500000 0.757605 0.000000
O O8 0.750000 0.591680 0.838327
O O9 0.510130 0.545154 0.774085
O O10 0.505700 0.629790 0.738320
O O11 0.500000 0.594924 0.000000
O O12 0.500000 0.162630 0.500000
O O13 0.750000 0.163652 0.337051
O O14 0.501664 0.123674 0.248108
O O15 0.750000 0.500000 0.834081
O O16 0.500000 0.500000 0.000000
O O17 0.750000 0.327700 0.661120
O O18 0.000000 0.323492 0.500000
O O19 0.250000 0.084532 0.163263
O O20 0.000000 0.082562 0.000000
#
# Coordination Sequence:
#
# PCOD9406630 Si02
#       7
#     4   8   8   8   4   8   8
#     4  10  23  40  62  90 122 158 199 244 293 344
#     4  11  23  40  61  86 113 146 186 232 282 336
#     4   9  17  31  51  77 104 136 176 221 269 323
#     4  12  25  42  63  89 120 155 192 236 285 339
#     4   8  14  26  47  72 102 134 170 216 267 318
#     4  10  22  37  54  77 108 143 182 224 274 329
#     4  11  23  41  63  91 123 159 200 243 289 340
#
# _framework density 19.133285999999998
#
# number of rings (size 3 to 8) (size 9 to 14) (size 15 to 20)
#    0.000    1.667    0.000    4.750    0.000    6.000 
#    0.000    0.417    0.000    0.000    0.000    0.000 
#    0.000    0.000    0.000    0.000    0.000    0.000 
#
# Total GULP energy -268206.403072 kJ/mol
# GULP energy per Si atom -5587.633397 kJ/mol
# Density = 1.908974 g / cm^3
# Si number density = 19.133286 Si / 1000 Ang^3
#
#
#
# Elastic Constant Matrix: (Units=GPa)
#
#
# Indices 1 2 3 4 5 6 
#
# 1 54.7235 50.0104 38.6386 0.0000 0.0000 0.0000
# 2 50.0104 225.6876 116.5556 0.0000 0.0000 0.0000
# 3 38.6386 116.5556 177.2507 0.0000 0.0000 0.0000
# 4 0.0000 0.0000 0.0000 3.9131 0.0000 0.0000
# 5 0.0000 0.0000 0.0000 0.0000 37.1334 0.0000
# 6 0.0000 0.0000 0.0000 0.0000 0.0000 -16.1241
#
#
#
# Elastic Compliance Matrix: (Units=1/GPa)
#
#
# Indices 1 2 3 4 5 6 
#
# 1 0.023674 -0.003908 -0.002591 0.000000 0.000000 0.000000
# 2 -0.003908 0.007355 -0.003984 0.000000 0.000000 0.000000
# 3 -0.002591 -0.003984 0.008826 0.000000 0.000000 0.000000
# 4 0.000000 0.000000 0.000000 0.255552 0.000000 0.000000
# 5 0.000000 0.000000 0.000000 0.000000 0.026930 0.000000
# 6 0.000000 0.000000 0.000000 0.000000 0.000000 -0.062019
#
#
# Mechanical properties :
#
#
# Convention : Reuss Voigt Hill
#
# Bulk Modulus (GPa) = 52.94062 96.45232 74.69647
# Shear Modulus (GPa) = 17.38637 21.81494 19.60066
#
# Velocity S-wave (km/s) = 3.01773 3.38028 3.20414
# Velocity P-wave (km/s) = 6.31441 8.10896 7.26729
#
# Compressibility (1/GPa) = 0.01888909
#
# Stress axis : x y z
#
# Youngs Moduli (GPa) = 42.23954 135.97060 113.29527
#
# Poissons Ratio (x) = 0.53136 0.29355
# Poissons Ratio (y) = 0.16507 0.45140
# Poissons Ratio (z) = 0.10944 0.54174
#
# Static dielectric constant tensor:
#      x y z
#    x 1.646950 0.000000 0.000000 
#    y 0.000000 1.680770 0.000000 
#    z 0.000000 0.000000 1.603250 
# 
# From -- ./inp_files/6160.got.cif
#   From: 2010.05.17/outbox.cif.g08.bks.cpg/sg51_4_cif.got.tgz:6160.got - 2010.06.03 11:52:47.
