data_PCOD9406430
_publ_section_title
;
Structure prediction by ZEFSAII (Michael W. Deem and Ramdas Pophale) SiO2 
 PCOD9406430
Probable space group: P M M A
;
_chemical_formula_sum "Si O2"
_cell_formula_units_Z 34
_cell_length_a 14.628296
_cell_length_b 11.937210
_cell_length_c 7.519764
_cell_angle_alpha 90.000000
_cell_angle_beta 90.000000
_cell_angle_gamma 90.000000
_cell_volume 1313.109020
_symmetry_space_group_name_H-M "P M M A"
_symmetry_group_IT_number 51
_symmetry_cell_setting 'orthorhombic'
loop_
_space_group_symop_operation_xyz
x,y,z
1/2-x,-y,z
1/2+x,-y,-z
-x,y,-z
-x,-y,-z
1/2+x,y,-z
1/2-x,y,z
x,-y,z
loop_
_atom_site_type_symbol
_atom_site_label
_atom_site_fract_x
_atom_site_fract_y
_atom_site_fract_z
Si Si1 0.109923 0.121711 0.970649
Si Si2 0.395431 0.374352 0.065374
Si Si3 0.900253 0.145722 0.435777
Si Si4 0.859628 0.617167 0.516769
Si Si5 0.250000 0.000000 0.391310
O O1 0.126646 0.110333 0.761043
O O2 0.144472 0.000000 0.050785
O O3 0.142587 0.248100 0.020140
O O4 0.000000 0.122087 0.000000
O O5 0.358537 0.500000 0.007817
O O6 0.387201 0.377188 0.278003
O O7 0.500000 0.372309 0.000000
O O8 0.900270 0.278551 0.419787
O O9 0.829201 0.097753 0.576647
O O10 0.000000 0.113635 0.500000
O O11 0.750000 0.622807 0.507316
O O12 0.890913 0.500000 0.437775
#
# Coordination Sequence:
#
# PCOD9406430 Si02
#       5
#     8   8   8   8   2
#     4  10  21  38  61  92 128 169 222 270 333 395
#     4   9  18  37  62  90 127 172 220 268 324 395
#     4  12  24  44  72  97 137 180 225 280 338 405
#     4  10  22  43  68 101 138 174 225 285 338 402
#     4  12  26  44  60 104 138 180 220 280 334 406
#
# _framework density 25.892745999999999
#
# number of rings (size 3 to 8) (size 9 to 14) (size 15 to 20)
#    0.000    1.647    2.353    3.176    0.000    1.412 
#    4.235    0.000    0.000    1.412    0.000    0.000 
#    0.000    0.000    0.000    0.000    0.000    0.000 
#
# Total GULP energy -189408.541458 kJ/mol
# GULP energy per Si atom -5570.839455 kJ/mol
# Density = 2.583381 g / cm^3
# Si number density = 25.892746 Si / 1000 Ang^3
#
#
#
# Elastic Constant Matrix: (Units=GPa)
#
#
# Indices 1 2 3 4 5 6 
#
# 1 132.0899 11.2356 -32.6059 0.0000 0.0000 0.0000
# 2 11.2356 343.9626 34.7254 0.0000 0.0000 0.0000
# 3 -32.6059 34.7254 59.6602 0.0000 0.0000 0.0000
# 4 0.0000 0.0000 0.0000 43.8605 0.0000 0.0000
# 5 0.0000 0.0000 0.0000 0.0000 -21.2684 0.0000
# 6 0.0000 0.0000 0.0000 0.0000 0.0000 15.2898
#
#
#
# Elastic Compliance Matrix: (Units=1/GPa)
#
#
# Indices 1 2 3 4 5 6 
#
# 1 0.008973 -0.000837 0.005391 0.000000 0.000000 0.000000
# 2 -0.000837 0.003167 -0.002301 0.000000 0.000000 0.000000
# 3 0.005391 -0.002301 0.021047 0.000000 0.000000 0.000000
# 4 0.000000 0.000000 0.000000 0.022800 0.000000 0.000000
# 5 0.000000 0.000000 0.000000 0.000000 -0.047018 0.000000
# 6 0.000000 0.000000 0.000000 0.000000 0.000000 0.065403
#
#
# Mechanical properties :
#
#
# Convention : Reuss Voigt Hill
#
# Bulk Modulus (GPa) = 26.53047 62.49144 44.51095
# Shear Modulus (GPa) = 60.65771 42.40023 51.52897
#
# Velocity S-wave (km/s) = 4.84535 4.05103 4.46589
# Velocity P-wave (km/s) = 6.44761 6.78736 6.61967
#
# Compressibility (1/GPa) = 0.03769251
#
# Stress axis : x y z
#
# Youngs Moduli (GPa) = 111.45019 315.76179 47.51205
#
# Poissons Ratio (x) = 0.26441 -0.25615
# Poissons Ratio (y) = 0.09332 0.10932
# Poissons Ratio (z) = -0.60085 0.72656
#
# Static dielectric constant tensor:
#      x y z
#    x 1.954950 0.000000 0.000000 
#    y 0.000000 2.136720 0.000000 
#    z 0.000000 0.000000 2.017470 
# 
# From -- ./inp_files/7610.got.cif
#   From: 2010.05.17/outbox.cif.g08.bks.cpg/sg51_4_cif.got.tgz:7610.got - 2010.06.03 11:52:47.
