data_PCOD9406289
_publ_section_title
;
Structure prediction by ZEFSAII (Michael W. Deem and Ramdas Pophale) SiO2 
 PCOD9406289
Probable space group: P M M A
;
_chemical_formula_sum "Si O2"
_cell_formula_units_Z 48
_cell_length_a 9.139941
_cell_length_b 9.809138
_cell_length_c 30.223973
_cell_angle_alpha 90.000000
_cell_angle_beta 90.000000
_cell_angle_gamma 90.000000
_cell_volume 2709.728564
_symmetry_space_group_name_H-M "P M M A"
_symmetry_group_IT_number 51
_symmetry_cell_setting 'orthorhombic'
loop_
_space_group_symop_operation_xyz
x,y,z
1/2-x,-y,z
1/2+x,-y,-z
-x,y,-z
-x,-y,-z
1/2+x,y,-z
1/2-x,y,z
x,-y,z
loop_
_atom_site_type_symbol
_atom_site_label
_atom_site_fract_x
_atom_site_fract_y
_atom_site_fract_z
Si Si1 0.427456 0.659736 0.857523
Si Si2 0.075719 0.269569 0.603664
Si Si3 0.074463 0.160215 0.217881
Si Si4 0.075179 0.338229 0.305311
Si Si5 0.423663 0.500000 0.452734
Si Si6 0.082443 0.334234 0.956320
Si Si7 0.421270 0.000000 0.547365
O O1 0.250000 0.665456 0.856636
O O2 0.467550 0.500000 0.849396
O O3 0.495151 0.760978 0.821882
O O4 0.475999 0.699284 0.907438
O O5 0.250000 0.299519 0.602591
O O6 0.049687 0.128163 0.578760
O O7 0.016305 0.281867 0.653363
O O8 0.982108 0.373982 0.575087
O O9 0.250000 0.165437 0.211183
O O10 0.043238 0.246534 0.262379
O O11 0.033087 0.000000 0.221385
O O12 0.250000 0.328182 0.314474
O O13 0.043154 0.500000 0.298550
O O14 0.250000 0.500000 0.457270
O O15 0.500000 0.500000 0.500000
O O16 0.250000 0.288860 0.958721
O O17 0.082409 0.500000 0.957428
O O18 0.000000 0.285670 0.000000
O O19 0.500000 0.000000 0.500000
O O20 0.250000 0.000000 0.536585
#
# Coordination Sequence:
#
# PCOD9406289 Si02
#       7
#     8   8   8   8   4   8   4
#     4   9  18  33  53  79 111 146 186 231 280 332
#     4  11  23  40  61  88 119 150 187 231 276 327
#     4  10  22  38  56  81 112 146 186 231 279 334
#     4  10  21  38  59  84 113 145 185 228 277 334
#     4  12  24  40  62  90 120 152 190 230 275 326
#     4   8  14  25  43  71 106 140 177 224 275 329
#     4  10  24  42  60  86 118 152 190 228 269 322
#
# _framework density 17.713951000000002
#
# number of rings (size 3 to 8) (size 9 to 14) (size 15 to 20)
#    0.000    2.167    0.833    3.250    1.167    5.333 
#    0.000    1.667    0.000    0.500    0.000    0.000 
#    0.000    0.000    0.000    0.000    0.000    0.000 
#
# Total GULP energy -267672.945845 kJ/mol
# GULP energy per Si atom -5576.519705 kJ/mol
# Density = 1.767363 g / cm^3
# Si number density = 17.713951 Si / 1000 Ang^3
#
#
#
# Elastic Constant Matrix: (Units=GPa)
#
#
# Indices 1 2 3 4 5 6 
#
# 1 69.5870 63.3639 81.2444 0.0000 0.0000 0.0000
# 2 63.3639 124.6298 85.8245 0.0000 0.0000 0.0000
# 3 81.2444 85.8245 183.8694 0.0000 0.0000 0.0000
# 4 0.0000 0.0000 0.0000 26.6845 0.0000 0.0000
# 5 0.0000 0.0000 0.0000 0.0000 40.2054 0.0000
# 6 0.0000 0.0000 0.0000 0.0000 0.0000 27.0156
#
#
#
# Elastic Compliance Matrix: (Units=1/GPa)
#
#
# Indices 1 2 3 4 5 6 
#
# 1 0.038410 -0.011555 -0.011578 0.000000 0.000000 0.000000
# 2 -0.011555 0.015301 -0.002036 0.000000 0.000000 0.000000
# 3 -0.011578 -0.002036 0.011505 0.000000 0.000000 0.000000
# 4 0.000000 0.000000 0.000000 0.037475 0.000000 0.000000
# 5 0.000000 0.000000 0.000000 0.000000 0.024872 0.000000
# 6 0.000000 0.000000 0.000000 0.000000 0.000000 0.037016
#
#
# Mechanical properties :
#
#
# Convention : Reuss Voigt Hill
#
# Bulk Modulus (GPa) = 67.21899 93.21688 80.21794
# Shear Modulus (GPa) = 22.73997 28.62466 25.68232
#
# Velocity S-wave (km/s) = 3.58681 4.02423 3.81180
# Velocity P-wave (km/s) = 7.42852 8.62150 8.04715
#
# Compressibility (1/GPa) = 0.01487675
#
# Stress axis : x y z
#
# Youngs Moduli (GPa) = 26.03475 65.35622 86.91828
#
# Poissons Ratio (x) = 0.75520 1.00637
# Poissons Ratio (y) = 0.30083 0.17698
# Poissons Ratio (z) = 0.30144 0.13308
#
# Static dielectric constant tensor:
#      x y z
#    x 1.597510 0.000000 0.000000 
#    y 0.000000 1.722280 0.000000 
#    z 0.000000 0.000000 1.613890 
# 
# From -- ./inp_files/37181.got.cif
#   From: 2010.05.17/outbox.cif.g08.bks.cpg/sg51_19_cif.got.tgz:37181.got - 2010.06.03 11:52:47.
