data_PCOD9406470
_publ_section_title
;
Structure prediction by ZEFSAII (Michael W. Deem and Ramdas Pophale) SiO2 
 PCOD9406470
Probable space group: P M M A
;
_chemical_formula_sum "Si O2"
_cell_formula_units_Z 20
_cell_length_a 13.733723
_cell_length_b 5.521491
_cell_length_c 10.570266
_cell_angle_alpha 90.000000
_cell_angle_beta 90.000000
_cell_angle_gamma 90.000000
_cell_volume 801.549908
_symmetry_space_group_name_H-M "P M M A"
_symmetry_group_IT_number 51
_symmetry_cell_setting 'orthorhombic'
loop_
_space_group_symop_operation_xyz
x,y,z
1/2-x,-y,z
1/2+x,-y,-z
-x,y,-z
-x,-y,-z
1/2+x,y,-z
1/2-x,y,z
x,-y,z
loop_
_atom_site_type_symbol
_atom_site_label
_atom_site_fract_x
_atom_site_fract_y
_atom_site_fract_z
Si Si1 0.750000 0.500000 0.817768
Si Si2 0.890950 0.000000 0.456216
Si Si3 0.851550 0.500000 0.422353
Si Si4 0.472923 0.500000 0.223984
Si Si5 0.933770 0.000000 0.161910
Si Si6 0.750000 0.000000 0.976967
O O1 0.857513 0.500000 0.754424
O O2 0.750000 0.249223 0.897912
O O3 0.000000 0.000000 0.500000
O O4 0.849606 0.253204 0.499211
O O5 0.886327 0.000000 0.303475
O O6 0.750000 0.500000 0.342983
O O7 0.952702 0.500000 0.344612
O O8 0.503454 0.247637 0.155784
O O9 0.846394 0.000000 0.063731
#
# Coordination Sequence:
#
# PCOD9406470 Si02
#       6
#     2   4   4   4   4   2
#     4  12  26  44  62  96 138 176 228 260 314 402
#     4  10  21  38  66  93 133 158 210 265 320 394
#     4  10  21  38  70 100 131 172 215 273 327 369
#     4  10  23  40  67  91 134 176 215 270 322 380
#     4  10  23  40  67  92 131 168 215 272 328 376
#     4  12  26  40  68 100 126 172 220 272 338 368
#
# _framework density 24.951661999999999
#
# number of rings (size 3 to 8) (size 9 to 14) (size 15 to 20)
#    0.000    1.600    0.000    3.600   11.200    4.800 
#    0.000    0.000   52.800    0.000    0.000    0.000 
#    0.000    0.000    0.000    0.000    0.000    0.000 
#
# Total GULP energy -111744.666519 kJ/mol
# GULP energy per Si atom -5587.233326 kJ/mol
# Density = 2.489487 g / cm^3
# Si number density = 24.951662 Si / 1000 Ang^3
#
#
#
# Elastic Constant Matrix: (Units=GPa)
#
#
# Indices 1 2 3 4 5 6 
#
# 1 267.5489 95.6306 50.8566 0.0000 0.0000 0.0000
# 2 95.6306 308.0733 49.3953 0.0000 0.0000 0.0000
# 3 50.8566 49.3953 90.7495 0.0000 0.0000 0.0000
# 4 0.0000 0.0000 0.0000 10.2963 0.0000 0.0000
# 5 0.0000 0.0000 0.0000 0.0000 37.4128 0.0000
# 6 0.0000 0.0000 0.0000 0.0000 0.0000 135.0487
#
#
#
# Elastic Compliance Matrix: (Units=1/GPa)
#
#
# Indices 1 2 3 4 5 6 
#
# 1 0.004492 -0.001085 -0.001926 0.000000 0.000000 0.000000
# 2 -0.001085 0.003819 -0.001470 0.000000 0.000000 0.000000
# 3 -0.001926 -0.001470 0.012899 0.000000 0.000000 0.000000
# 4 0.000000 0.000000 0.000000 0.097123 0.000000 0.000000
# 5 0.000000 0.000000 0.000000 0.000000 0.026729 0.000000
# 6 0.000000 0.000000 0.000000 0.000000 0.000000 0.007405
#
#
# Mechanical properties :
#
#
# Convention : Reuss Voigt Hill
#
# Bulk Modulus (GPa) = 81.66297 117.57073 99.61685
# Shear Modulus (GPa) = 30.20932 67.91749 49.06341
#
# Velocity S-wave (km/s) = 3.48331 5.22290 4.43915
# Velocity P-wave (km/s) = 6.99839 9.14294 8.14158
#
# Compressibility (1/GPa) = 0.01224545
#
# Stress axis : x y z
#
# Youngs Moduli (GPa) = 222.62859 261.87283 77.52442
#
# Poissons Ratio (x) = 0.28425 0.14934
# Poissons Ratio (y) = 0.24165 0.11398
# Poissons Ratio (z) = 0.42887 0.38501
#
# Static dielectric constant tensor:
#      x y z
#    x 2.408690 0.000000 0.000000 
#    y 0.000000 1.789890 0.000000 
#    z 0.000000 0.000000 2.011870 
# 
# From -- ./inp_files/22639.got.cif
#   From: 2010.05.17/outbox.cif.g08.bks.cpg/sg51_12_cif.got.tgz:22639.got - 2010.06.03 11:52:47.
