data_PCOD9406705
_publ_section_title
;
Structure prediction by ZEFSAII (Michael W. Deem and Ramdas Pophale) SiO2 
 PCOD9406705
Probable space group: P M M A
;
_chemical_formula_sum "Si O2"
_cell_formula_units_Z 56
_cell_length_a 20.460375
_cell_length_b 9.626973
_cell_length_c 15.753211
_cell_angle_alpha 90.000000
_cell_angle_beta 90.000000
_cell_angle_gamma 90.000000
_cell_volume 3102.933249
_symmetry_space_group_name_H-M "P M M A"
_symmetry_group_IT_number 51
_symmetry_cell_setting 'orthorhombic'
loop_
_space_group_symop_operation_xyz
x,y,z
1/2-x,-y,z
1/2+x,-y,-z
-x,y,-z
-x,-y,-z
1/2+x,y,-z
1/2-x,y,z
x,-y,z
loop_
_atom_site_type_symbol
_atom_site_label
_atom_site_fract_x
_atom_site_fract_y
_atom_site_fract_z
Si Si1 0.374529 0.835977 0.135428
Si Si2 0.422241 0.648308 0.992910
Si Si3 0.750000 0.667342 0.889919
Si Si4 0.002314 0.155840 0.257093
Si Si5 0.629745 0.240258 0.173028
Si Si6 0.461449 0.667602 0.585030
Si Si7 0.250000 0.847704 0.939604
Si Si8 0.177687 0.665833 0.643272
O O1 0.312967 0.737822 0.154000
O O2 0.436050 0.812756 0.197229
O O3 0.359237 0.000000 0.135671
O O4 0.396512 0.781417 0.043006
O O5 0.399304 0.500000 0.030790
O O6 0.398664 0.654036 0.896479
O O7 0.500000 0.651158 0.000000
O O8 0.750000 0.500000 0.888921
O O9 0.750000 0.728747 0.987512
O O10 0.934877 0.159360 0.203483
O O11 0.994573 0.264585 0.332773
O O12 0.010629 0.000000 0.291336
O O13 0.687221 0.164782 0.121577
O O14 0.660673 0.302918 0.258461
O O15 0.500000 0.706642 0.500000
O O16 0.462824 0.500000 0.592200
O O17 0.385140 0.713650 0.588983
O O18 0.250000 0.000000 0.981322
O O19 0.250000 0.722886 0.622906
O O20 0.180605 0.500000 0.633389
#
# Coordination Sequence:
#
# PCOD9406705 Si02
#       8
#     8   8   4   8   8   8   4   8
#     4  11  23  39  57  78 107 145 191 241 290 340
#     4  11  22  34  51  78 111 150 195 242 285 326
#     4  12  26  40  56  78 105 146 197 248 295 342
#     4  10  22  38  59  85 111 147 188 230 282 342
#     4  11  20  34  51  79 114 151 192 235 276 336
#     4   9  19  36  60  87 113 143 180 228 284 343
#     4  12  24  34  50  76 113 156 191 234 285 334
#     4   9  17  30  51  80 113 146 179 222 277 337
#
# _framework density 18.047440000000002
#
# number of rings (size 3 to 8) (size 9 to 14) (size 15 to 20)
#    0.000    1.571    3.571    1.929    0.000    3.429 
#    0.000    0.000    1.571    0.000    0.000    0.000 
#    0.000    0.000    0.000    0.000    0.000    0.000 
#
# Total GULP energy -312133.595627 kJ/mol
# GULP energy per Si atom -5573.814208 kJ/mol
# Density = 1.800636 g / cm^3
# Si number density = 18.047440 Si / 1000 Ang^3
#
#
#
# Elastic Constant Matrix: (Units=GPa)
#
#
# Indices 1 2 3 4 5 6 
#
# 1 151.2325 44.5751 62.0462 0.0000 0.0000 0.0000
# 2 44.5751 85.7900 30.9346 0.0000 0.0000 0.0000
# 3 62.0462 30.9346 75.9775 0.0000 0.0000 0.0000
# 4 0.0000 0.0000 0.0000 17.3832 0.0000 0.0000
# 5 0.0000 0.0000 0.0000 0.0000 25.9302 0.0000
# 6 0.0000 0.0000 0.0000 0.0000 0.0000 -16.9427
#
#
#
# Elastic Compliance Matrix: (Units=1/GPa)
#
#
# Indices 1 2 3 4 5 6 
#
# 1 0.010475 -0.002764 -0.007429 0.000000 0.000000 0.000000
# 2 -0.002764 0.014391 -0.003602 0.000000 0.000000 0.000000
# 3 -0.007429 -0.003602 0.020695 0.000000 0.000000 0.000000
# 4 0.000000 0.000000 0.000000 0.057527 0.000000 0.000000
# 5 0.000000 0.000000 0.000000 0.000000 0.038565 0.000000
# 6 0.000000 0.000000 0.000000 0.000000 0.000000 -0.059022
#
#
# Mechanical properties :
#
#
# Convention : Reuss Voigt Hill
#
# Bulk Modulus (GPa) = 55.64468 65.34577 60.49522
# Shear Modulus (GPa) = 43.02498 16.97040 29.99769
#
# Velocity S-wave (km/s) = 4.88791 3.06979 4.08138
# Velocity P-wave (km/s) = 7.92180 6.98937 7.47015
#
# Compressibility (1/GPa) = 0.01797117
#
# Stress axis : x y z
#
# Youngs Moduli (GPa) = 95.46734 69.48586 48.32032
#
# Poissons Ratio (x) = 0.19205 0.35896
# Poissons Ratio (y) = 0.26385 0.17407
# Poissons Ratio (z) = 0.70921 0.25032
#
# Static dielectric constant tensor:
#      x y z
#    x 1.675590 0.000000 0.000000 
#    y 0.000000 1.631070 0.000000 
#    z 0.000000 0.000000 1.587020 
# 
# From -- ./inp_files/25812.got.cif
#   From: 2010.05.17/outbox.cif.g08.bks.cpg/sg51_13_cif.got.tgz:25812.got - 2010.06.03 11:52:47.
