data_PCOD9406157
_publ_section_title
;
Structure prediction by ZEFSAII (Michael W. Deem and Ramdas Pophale) SiO2 
 PCOD9406157
Probable space group: P M M A
;
_chemical_formula_sum "Si O2"
_cell_formula_units_Z 44
_cell_length_a 10.115291
_cell_length_b 7.660217
_cell_length_c 27.996576
_cell_angle_alpha 90.000000
_cell_angle_beta 90.000000
_cell_angle_gamma 90.000000
_cell_volume 2169.323764
_symmetry_space_group_name_H-M "P M M A"
_symmetry_group_IT_number 51
_symmetry_cell_setting 'orthorhombic'
loop_
_space_group_symop_operation_xyz
x,y,z
1/2-x,-y,z
1/2+x,-y,-z
-x,y,-z
-x,-y,-z
1/2+x,y,-z
1/2-x,y,z
x,-y,z
loop_
_atom_site_type_symbol
_atom_site_label
_atom_site_fract_x
_atom_site_fract_y
_atom_site_fract_z
Si Si1 0.900172 0.792187 0.208664
Si Si2 0.903588 0.208772 0.875719
Si Si3 0.596164 0.500000 0.955164
Si Si4 0.750000 0.698648 0.420641
Si Si5 0.464988 0.287783 0.395878
Si Si6 0.250000 0.802192 0.473772
Si Si7 0.605804 0.710318 0.710454
O O1 0.750000 0.721335 0.209380
O O2 0.993427 0.732658 0.165005
O O3 0.983274 0.761147 0.256710
O O4 0.889810 0.000000 0.202917
O O5 0.750000 0.235216 0.860381
O O6 0.924407 0.329187 0.921970
O O7 0.919620 0.000000 0.884667
O O8 0.250000 0.500000 0.029752
O O9 0.500000 0.500000 0.000000
O O10 0.750000 0.500000 0.401980
O O11 0.613446 0.778124 0.403138
O O12 0.750000 0.692955 0.478010
O O13 0.463330 0.500000 0.396771
O O14 0.374750 0.230439 0.439772
O O15 0.411730 0.231845 0.344334
O O16 0.250000 0.000000 0.490626
O O17 0.750000 0.771987 0.728432
O O18 0.608373 0.500000 0.710005
#
# Coordination Sequence:
#
# PCOD9406157 Si02
#       7
#     8   8   4   4   8   4   8
#     4  10  22  38  57  86 121 156 194 239 298 361
#     4   9  19  38  61  85 121 167 211 256 304 363
#     4  10  22  38  60  92 126 164 212 262 307 364
#     4  10  22  38  62  84 106 144 182 230 286 341
#     4  10  21  40  61  82 109 143 186 231 281 344
#     4  12  24  38  58  84 112 144 184 228 280 343
#     4  10  21  37  59  84 111 146 190 239 285 343
#
# _framework density 20.282817999999999
#
# number of rings (size 3 to 8) (size 9 to 14) (size 15 to 20)
#    0.000    2.000    0.909    1.909    2.545    6.182 
#    0.000    0.000    0.000    0.000    0.000    0.000 
#    0.000    0.000    0.000    0.000    0.000    0.000 
#
# Total GULP energy -245694.395099 kJ/mol
# GULP energy per Si atom -5583.963525 kJ/mol
# Density = 2.023665 g / cm^3
# Si number density = 20.282818 Si / 1000 Ang^3
#
#
#
# Elastic Constant Matrix: (Units=GPa)
#
#
# Indices 1 2 3 4 5 6 
#
# 1 167.4765 16.2895 60.1217 0.0000 0.0000 0.0000
# 2 16.2895 51.7478 7.9515 0.0000 0.0000 0.0000
# 3 60.1217 7.9515 87.4471 0.0000 0.0000 0.0000
# 4 0.0000 0.0000 0.0000 45.3606 0.0000 0.0000
# 5 0.0000 0.0000 0.0000 0.0000 34.2098 0.0000
# 6 0.0000 0.0000 0.0000 0.0000 0.0000 11.4710
#
#
#
# Elastic Compliance Matrix: (Units=1/GPa)
#
#
# Indices 1 2 3 4 5 6 
#
# 1 0.008075 -0.001713 -0.005396 0.000000 0.000000 0.000000
# 2 -0.001713 0.019962 -0.000638 0.000000 0.000000 0.000000
# 3 -0.005396 -0.000638 0.015203 0.000000 0.000000 0.000000
# 4 0.000000 0.000000 0.000000 0.022046 0.000000 0.000000
# 5 0.000000 0.000000 0.000000 0.000000 0.029231 0.000000
# 6 0.000000 0.000000 0.000000 0.000000 0.000000 0.087177
#
#
# Mechanical properties :
#
#
# Convention : Reuss Voigt Hill
#
# Bulk Modulus (GPa) = 36.03948 52.82187 44.43067
# Shear Modulus (GPa) = 24.22085 33.02886 28.62486
#
# Velocity S-wave (km/s) = 3.45941 4.03974 3.76078
# Velocity P-wave (km/s) = 5.81065 6.91799 6.38836
#
# Compressibility (1/GPa) = 0.02774735
#
# Stress axis : x y z
#
# Youngs Moduli (GPa) = 123.84604 50.09623 65.77608
#
# Poissons Ratio (x) = 0.08580 0.35491
# Poissons Ratio (y) = 0.21211 0.04194
# Poissons Ratio (z) = 0.66823 0.03194
#
# Static dielectric constant tensor:
#      x y z
#    x 1.748970 0.000000 0.000000 
#    y 0.000000 1.750500 0.000000 
#    z 0.000000 0.000000 1.667470 
# 
# From -- ./inp_files/36849.got.cif
#   From: 2010.05.17/outbox.cif.g08.bks.cpg/sg51_19_cif.got.tgz:36849.got - 2010.06.03 11:52:47.
