data_PCOD9406315
_publ_section_title
;
Structure prediction by ZEFSAII (Michael W. Deem and Ramdas Pophale) SiO2 
 PCOD9406315
Probable space group: P M M A
;
_chemical_formula_sum "Si O2"
_cell_formula_units_Z 48
_cell_length_a 8.012701
_cell_length_b 9.395248
_cell_length_c 35.679336
_cell_angle_alpha 90.000000
_cell_angle_beta 90.000000
_cell_angle_gamma 90.000000
_cell_volume 2685.987263
_symmetry_space_group_name_H-M "P M M A"
_symmetry_group_IT_number 51
_symmetry_cell_setting 'orthorhombic'
loop_
_space_group_symop_operation_xyz
x,y,z
1/2-x,-y,z
1/2+x,-y,-z
-x,y,-z
-x,-y,-z
1/2+x,y,-z
1/2-x,y,z
x,-y,z
loop_
_atom_site_type_symbol
_atom_site_label
_atom_site_fract_x
_atom_site_fract_y
_atom_site_fract_z
Si Si1 0.551481 0.659627 0.113088
Si Si2 0.750000 0.826289 0.320366
Si Si3 0.442687 0.826451 0.268690
Si Si4 0.950468 0.838729 0.814896
Si Si5 0.559071 0.173358 0.541765
Si Si6 0.051261 0.838012 0.040892
Si Si7 0.750000 0.826231 0.406742
O O1 0.750000 0.651070 0.113872
O O2 0.480670 0.500000 0.112343
O O3 0.497795 0.741896 0.150392
O O4 0.503789 0.744621 0.075789
O O5 0.581937 0.781316 0.298521
O O6 0.750000 0.780867 0.363569
O O7 0.750000 0.000000 0.319989
O O8 0.250000 0.780799 0.275695
O O9 0.498324 0.785199 0.226544
O O10 0.439258 0.000000 0.268475
O O11 0.750000 0.847381 0.813721
O O12 0.015747 0.000000 0.820206
O O13 0.500000 0.214492 0.500000
O O14 0.750000 0.220047 0.548962
O O15 0.417456 0.219028 0.571235
O O16 0.561142 0.000000 0.542434
O O17 0.250000 0.845608 0.041760
O O18 0.983550 0.000000 0.044207
O O19 0.000000 0.781864 0.000000
O O20 0.750000 0.000000 0.407255
#
# Coordination Sequence:
#
# PCOD9406315 Si02
#       7
#     8   4   8   8   8   8   4
#     4  11  24  37  50  75 108 136 164 200 243 290
#     4   9  16  24  36  54  77 103 133 171 233 297
#     4   8  15  27  42  61  84 107 138 183 230 284
#     4   9  18  33  53  75  95 121 161 202 242 291
#     4   9  14  20  29  38  53  81 120 166 213 266
#     4  10  21  38  60  82 103 131 168 205 241 286
#     4   9  16  22  28  44  64  87 123 167 217 279
#
# _framework density 17.870524
#
# number of rings (size 3 to 8) (size 9 to 14) (size 15 to 20)
#    0.000    2.667    0.833    2.500    1.167    5.667 
#    0.000    3.333    0.000    0.000    0.000    0.000 
#    0.000    0.000    0.000    0.000    0.000    0.000 
#
# Total GULP energy -267498.008395 kJ/mol
# GULP energy per Si atom -5572.875175 kJ/mol
# Density = 1.782985 g / cm^3
# Si number density = 17.870524 Si / 1000 Ang^3
#
#
#
# Elastic Constant Matrix: (Units=GPa)
#
#
# Indices 1 2 3 4 5 6 
#
# 1 103.9869 20.2953 85.5343 0.0000 0.0000 0.0000
# 2 20.2953 29.2394 46.3816 0.0000 0.0000 0.0000
# 3 85.5343 46.3816 199.8905 0.0000 0.0000 0.0000
# 4 0.0000 0.0000 0.0000 -4.8775 0.0000 0.0000
# 5 0.0000 0.0000 0.0000 0.0000 36.4452 0.0000
# 6 0.0000 0.0000 0.0000 0.0000 0.0000 10.0341
#
#
#
# Elastic Compliance Matrix: (Units=1/GPa)
#
#
# Indices 1 2 3 4 5 6 
#
# 1 0.014842 -0.000360 -0.006268 0.000000 0.000000 0.000000
# 2 -0.000360 0.054129 -0.012406 0.000000 0.000000 0.000000
# 3 -0.006268 -0.012406 0.010563 0.000000 0.000000 0.000000
# 4 0.000000 0.000000 0.000000 -0.205022 0.000000 0.000000
# 5 0.000000 0.000000 0.000000 0.000000 0.027438 0.000000
# 6 0.000000 0.000000 0.000000 0.000000 0.000000 0.099661
#
#
# Mechanical properties :
#
#
# Convention : Reuss Voigt Hill
#
# Bulk Modulus (GPa) = 24.11505 70.83769 47.47637
# Shear Modulus (GPa) = 93.45531 20.38072 56.91802
#
# Velocity S-wave (km/s) = 7.23943 3.38074 5.64972
# Velocity P-wave (km/s) = 9.13251 7.41382 8.31767
#
# Compressibility (1/GPa) = 0.04146788
#
# Stress axis : x y z
#
# Youngs Moduli (GPa) = 67.37539 18.47429 94.66808
#
# Poissons Ratio (x) = 0.00665 0.59333
# Poissons Ratio (y) = 0.02426 1.17443
# Poissons Ratio (z) = 0.42228 0.22919
#
# Static dielectric constant tensor:
#      x y z
#    x 1.621090 0.000000 0.000000 
#    y 0.000000 1.597050 0.000000 
#    z 0.000000 0.000000 1.750590 
# 
# From -- ./inp_files/37115.got.cif
#   From: 2010.05.17/outbox.cif.g08.bks.cpg/sg51_19_cif.got.tgz:37115.got - 2010.06.03 11:52:47.
