data_PCOD9406313
_publ_section_title
;
Structure prediction by ZEFSAII (Michael W. Deem and Ramdas Pophale) SiO2 
 PCOD9406313
Probable space group: P M M A
;
_chemical_formula_sum "Si O2"
_cell_formula_units_Z 48
_cell_length_a 15.183861
_cell_length_b 18.936579
_cell_length_c 8.838354
_cell_angle_alpha 90.000000
_cell_angle_beta 90.000000
_cell_angle_gamma 90.000000
_cell_volume 2541.295314
_symmetry_space_group_name_H-M "P M M A"
_symmetry_group_IT_number 51
_symmetry_cell_setting 'orthorhombic'
loop_
_space_group_symop_operation_xyz
x,y,z
1/2-x,-y,z
1/2+x,-y,-z
-x,y,-z
-x,-y,-z
1/2+x,y,-z
1/2-x,y,z
x,-y,z
loop_
_atom_site_type_symbol
_atom_site_label
_atom_site_fract_x
_atom_site_fract_y
_atom_site_fract_z
Si Si1 0.595427 0.920610 0.420122
Si Si2 0.250000 0.579215 0.400342
Si Si3 0.586858 0.668477 0.094798
Si Si4 0.522453 0.175832 0.160101
Si Si5 0.849445 0.802279 0.630119
Si Si6 0.098490 0.333910 0.552742
Si Si7 0.750000 0.416653 0.960306
O O1 0.500000 0.925229 0.500000
O O2 0.578180 0.874380 0.270053
O O3 0.650579 0.876442 0.541965
O O4 0.627086 0.000000 0.390112
O O5 0.250000 0.500000 0.455533
O O6 0.335183 0.617172 0.463902
O O7 0.250000 0.581157 0.220390
O O8 0.576470 0.753817 0.111309
O O9 0.597830 0.649366 0.270530
O O10 0.666808 0.629558 0.013229
O O11 0.500000 0.647091 0.000000
O O12 0.431298 0.197541 0.249903
O O13 0.500000 0.139885 0.000000
O O14 0.750000 0.787529 0.689999
O O15 0.873284 0.744712 0.500706
O O16 0.000000 0.343792 0.500000
O O17 0.750000 0.500000 0.011993
#
# Coordination Sequence:
#
# PCOD9406313 Si02
#       7
#     8   4   8   8   8   8   4
#     4   9  18  36  60  88 127 168 207 254 312 372
#     4  11  27  45  65  97 127 162 212 261 318 389
#     4  11  23  40  65  95 129 167 209 265 318 387
#     4  10  21  38  59  95 130 167 217 259 321 388
#     4  11  21  37  63  92 123 166 216 270 315 376
#     4  12  21  39  67  91 123 164 215 262 311 375
#     4  11  27  47  65  93 131 168 208 259 336 397
#
# _framework density 18.888003999999999
#
# number of rings (size 3 to 8) (size 9 to 14) (size 15 to 20)
#    0.000    1.333    4.167    2.000    2.333    2.667 
#    0.000    0.000    0.000    0.000    0.000    0.000 
#    0.000    0.000    0.000    0.000    0.000    0.000 
#
# Total GULP energy -267552.297960 kJ/mol
# GULP energy per Si atom -5574.006208 kJ/mol
# Density = 1.884501 g / cm^3
# Si number density = 18.888004 Si / 1000 Ang^3
#
#
#
# Elastic Constant Matrix: (Units=GPa)
#
#
# Indices 1 2 3 4 5 6 
#
# 1 106.6689 65.1026 17.9948 0.0000 0.0000 0.0000
# 2 65.1026 120.6707 38.9865 0.0000 0.0000 0.0000
# 3 17.9948 38.9865 92.1504 0.0000 0.0000 0.0000
# 4 0.0000 0.0000 0.0000 36.9718 0.0000 0.0000
# 5 0.0000 0.0000 0.0000 0.0000 40.9533 0.0000
# 6 0.0000 0.0000 0.0000 0.0000 0.0000 21.8519
#
#
#
# Elastic Compliance Matrix: (Units=1/GPa)
#
#
# Indices 1 2 3 4 5 6 
#
# 1 0.014000 -0.007726 0.000535 0.000000 0.000000 0.000000
# 2 -0.007726 0.013863 -0.004356 0.000000 0.000000 0.000000
# 3 0.000535 -0.004356 0.012590 0.000000 0.000000 0.000000
# 4 0.000000 0.000000 0.000000 0.027048 0.000000 0.000000
# 5 0.000000 0.000000 0.000000 0.000000 0.024418 0.000000
# 6 0.000000 0.000000 0.000000 0.000000 0.000000 0.045763
#
#
# Mechanical properties :
#
#
# Convention : Reuss Voigt Hill
#
# Bulk Modulus (GPa) = 57.60943 62.62863 60.11903
# Shear Modulus (GPa) = 30.01894 33.11582 31.56738
#
# Velocity S-wave (km/s) = 3.99094 4.19175 4.09258
# Velocity P-wave (km/s) = 7.19747 7.52712 7.36414
#
# Compressibility (1/GPa) = 0.01735827
#
# Stress axis : x y z
#
# Youngs Moduli (GPa) = 71.42962 72.13704 79.42549
#
# Poissons Ratio (x) = 0.55731 -0.04247
# Poissons Ratio (y) = 0.55185 0.34599
# Poissons Ratio (z) = -0.03820 0.31424
#
# Static dielectric constant tensor:
#      x y z
#    x 1.656770 0.000000 0.000000 
#    y 0.000000 1.679340 0.000000 
#    z 0.000000 0.000000 1.526550 
# 
# From -- ./inp_files/8323.got.cif
#   From: 2010.05.17/outbox.cif.g08.bks.cpg/sg51_5_cif.got.tgz:8323.got - 2010.06.03 11:52:47.
