data_PCOD9406453
_publ_section_title
;
Structure prediction by ZEFSAII (Michael W. Deem and Ramdas Pophale) SiO2 
 PCOD9406453
Probable space group: P M M A
;
_chemical_formula_sum "Si O2"
_cell_formula_units_Z 56
_cell_length_a 14.831298
_cell_length_b 14.694015
_cell_length_c 11.996045
_cell_angle_alpha 90.000000
_cell_angle_beta 90.000000
_cell_angle_gamma 90.000000
_cell_volume 2614.313865
_symmetry_space_group_name_H-M "P M M A"
_symmetry_group_IT_number 51
_symmetry_cell_setting 'orthorhombic'
loop_
_space_group_symop_operation_xyz
x,y,z
1/2-x,-y,z
1/2+x,-y,-z
-x,y,-z
-x,-y,-z
1/2+x,y,-z
1/2-x,y,z
x,-y,z
loop_
_atom_site_type_symbol
_atom_site_label
_atom_site_fract_x
_atom_site_fract_y
_atom_site_fract_z
Si Si1 0.653510 0.108943 0.723820
Si Si2 0.651419 0.350041 0.336451
Si Si3 0.602573 0.776211 0.518835
Si Si4 0.053878 0.399321 0.342931
Si Si5 0.851964 0.731949 0.099202
Si Si6 0.019485 0.103172 0.868634
Si Si7 0.358193 0.605210 0.103096
O O1 0.750000 0.136514 0.774683
O O2 0.647014 0.153028 0.602103
O O3 0.568694 0.133930 0.799980
O O4 0.651827 0.000000 0.715095
O O5 0.750000 0.390071 0.366795
O O6 0.645412 0.253161 0.401965
O O7 0.554370 0.395357 0.359669
O O8 0.650705 0.335413 0.204225
O O9 0.500000 0.807045 0.500000
O O10 0.597238 0.680746 0.585706
O O11 0.086123 0.500000 0.374465
O O12 0.084020 0.383324 0.215325
O O13 0.750000 0.760672 0.073504
O O14 0.906869 0.819022 0.138854
O O15 0.885861 0.676957 0.991455
O O16 0.044132 0.000000 0.831519
O O17 0.000000 0.097427 0.000000
O O18 0.250000 0.615921 0.125730
O O19 0.370325 0.500000 0.065233
#
# Coordination Sequence:
#
# PCOD9406453 Si02
#       7
#     8   8   8   8   8   8   8
#     4  10  22  41  65  93 123 161 210 257 306 367
#     4  10  22  38  56  85 122 162 203 244 295 360
#     4  10  21  38  63  90 123 160 202 260 311 360
#     4  10  22  39  60  87 118 156 202 251 304 362
#     4  10  22  39  61  86 118 161 203 245 306 371
#     4  10  22  38  59  89 124 157 195 245 301 364
#     4   9  20  39  62  90 120 153 203 263 314 364
#
# _framework density 21.420534
#
# number of rings (size 3 to 8) (size 9 to 14) (size 15 to 20)
#    0.000    2.143    0.000    2.143    4.000    5.714 
#    0.000    5.000    0.000    0.857    0.000    0.000 
#    0.000    0.000    0.000    0.000    0.000    0.000 
#
# Total GULP energy -312617.972215 kJ/mol
# GULP energy per Si atom -5582.463790 kJ/mol
# Density = 2.137178 g / cm^3
# Si number density = 21.420534 Si / 1000 Ang^3
#
#
#
# Elastic Constant Matrix: (Units=GPa)
#
#
# Indices 1 2 3 4 5 6 
#
# 1 89.3104 33.7285 25.1174 0.0000 0.0000 0.0000
# 2 33.7285 48.7085 13.6381 0.0000 0.0000 0.0000
# 3 25.1174 13.6381 82.6266 0.0000 0.0000 0.0000
# 4 0.0000 0.0000 0.0000 12.7797 0.0000 0.0000
# 5 0.0000 0.0000 0.0000 0.0000 5.9850 0.0000
# 6 0.0000 0.0000 0.0000 0.0000 0.0000 9.5620
#
#
#
# Elastic Compliance Matrix: (Units=1/GPa)
#
#
# Indices 1 2 3 4 5 6 
#
# 1 0.015914 -0.010134 -0.003165 0.000000 0.000000 0.000000
# 2 -0.010134 0.027978 -0.001537 0.000000 0.000000 0.000000
# 3 -0.003165 -0.001537 0.013319 0.000000 0.000000 0.000000
# 4 0.000000 0.000000 0.000000 0.078249 0.000000 0.000000
# 5 0.000000 0.000000 0.000000 0.000000 0.167084 0.000000
# 6 0.000000 0.000000 0.000000 0.000000 0.000000 0.104580
#
#
# Mechanical properties :
#
#
# Convention : Reuss Voigt Hill
#
# Bulk Modulus (GPa) = 36.31311 40.62370 38.46841
# Shear Modulus (GPa) = 11.21139 15.54279 13.37709
#
# Velocity S-wave (km/s) = 2.29026 2.69662 2.50171
# Velocity P-wave (km/s) = 4.89725 5.35740 5.13248
#
# Compressibility (1/GPa) = 0.02753826
#
# Stress axis : x y z
#
# Youngs Moduli (GPa) = 62.83775 35.74259 75.08337
#
# Poissons Ratio (x) = 0.36220 0.23764
# Poissons Ratio (y) = 0.63677 0.11544
# Poissons Ratio (z) = 0.19888 0.05495
#
# Static dielectric constant tensor:
#      x y z
#    x 1.812160 0.000000 0.000000 
#    y 0.000000 1.777460 0.000000 
#    z 0.000000 0.000000 1.769820 
# 
# From -- ./inp_files/16606.got.cif
#   From: 2010.05.17/outbox.cif.g08.bks.cpg/sg51_9_cif.got.tgz:16606.got - 2010.06.03 11:52:47.
