data_PCOD9406365
_publ_section_title
;
Structure prediction by ZEFSAII (Michael W. Deem and Ramdas Pophale) SiO2 
 PCOD9406365
Probable space group: P M M A
;
_chemical_formula_sum "Si O2"
_cell_formula_units_Z 40
_cell_length_a 13.744927
_cell_length_b 8.661594
_cell_length_c 16.355988
_cell_angle_alpha 90.000000
_cell_angle_beta 90.000000
_cell_angle_gamma 90.000000
_cell_volume 1947.229067
_symmetry_space_group_name_H-M "P M M A"
_symmetry_group_IT_number 51
_symmetry_cell_setting 'orthorhombic'
loop_
_space_group_symop_operation_xyz
x,y,z
1/2-x,-y,z
1/2+x,-y,-z
-x,y,-z
-x,-y,-z
1/2+x,y,-z
1/2-x,y,z
x,-y,z
loop_
_atom_site_type_symbol
_atom_site_label
_atom_site_fract_x
_atom_site_fract_y
_atom_site_fract_z
Si Si1 0.633138 0.823424 0.450008
Si Si2 0.860313 0.814040 0.631297
Si Si3 0.542002 0.682929 0.290785
Si Si4 0.062021 0.684357 0.888249
Si Si5 0.639283 0.815874 0.946953
O O1 0.750000 0.828402 0.453177
O O2 0.604842 0.763886 0.540281
O O3 0.601073 0.730914 0.370966
O O4 0.597275 0.000000 0.440710
O O5 0.750000 0.760123 0.645050
O O6 0.936192 0.757421 0.697367
O O7 0.858509 0.000000 0.629368
O O8 0.531304 0.500000 0.288432
O O9 0.588156 0.729863 0.204297
O O10 0.074600 0.500000 0.899151
O O11 0.948219 0.727396 0.901714
O O12 0.121682 0.772529 0.957936
O O13 0.750000 0.774973 0.923123
O O14 0.626816 0.000000 0.935896
#
# Coordination Sequence:
#
# PCOD9406365 Si02
#       5
#     8   8   8   8   8
#     4   9  19  36  56  77 103 140 185 226 265 312
#     4   9  19  36  56  77 103 140 185 226 265 312
#     4  11  23  35  51  80 113 142 175 217 264 313
#     4  10  22  38  55  79 111 144 176 210 255 318
#     4  10  21  38  61  85 106 132 171 219 266 311
#
# _framework density 20.542012
#
# number of rings (size 3 to 8) (size 9 to 14) (size 15 to 20)
#    0.000    2.200    0.000    4.800    0.000   10.400 
#    0.000   10.000    0.000    0.000    0.000    0.000 
#    0.000    0.000    0.000    0.000    0.000    0.000 
#
# Total GULP energy -223357.588840 kJ/mol
# GULP energy per Si atom -5583.939721 kJ/mol
# Density = 2.049526 g / cm^3
# Si number density = 20.542012 Si / 1000 Ang^3
#
#
#
# Elastic Constant Matrix: (Units=GPa)
#
#
# Indices 1 2 3 4 5 6 
#
# 1 32.0358 -9.0037 -24.9702 0.0000 0.0000 0.0000
# 2 -9.0037 15.5916 -0.6321 0.0000 0.0000 0.0000
# 3 -24.9702 -0.6321 59.2132 0.0000 0.0000 0.0000
# 4 0.0000 0.0000 0.0000 30.1214 0.0000 0.0000
# 5 0.0000 0.0000 0.0000 0.0000 8.6196 0.0000
# 6 0.0000 0.0000 0.0000 0.0000 0.0000 68.2209
#
#
#
# Elastic Compliance Matrix: (Units=1/GPa)
#
#
# Indices 1 2 3 4 5 6 
#
# 1 0.062532 0.037196 0.026767 0.000000 0.000000 0.000000
# 2 0.037196 0.086290 0.016607 0.000000 0.000000 0.000000
# 3 0.026767 0.016607 0.028353 0.000000 0.000000 0.000000
# 4 0.000000 0.000000 0.000000 0.033199 0.000000 0.000000
# 5 0.000000 0.000000 0.000000 0.000000 0.116014 0.000000
# 6 0.000000 0.000000 0.000000 0.000000 0.000000 0.014658
#
#
# Mechanical properties :
#
#
# Convention : Reuss Voigt Hill
#
# Bulk Modulus (GPa) = 2.95584 4.18097 3.56841
# Shear Modulus (GPa) = 17.08355 30.82216 23.95286
#
# Velocity S-wave (km/s) = 2.88694 3.87776 3.41844
# Velocity P-wave (km/s) = 3.54325 4.69991 4.16196
#
# Compressibility (1/GPa) = 0.33831286
#
# Stress axis : x y z
#
# Youngs Moduli (GPa) = 15.99175 11.58888 35.26968
#
# Poissons Ratio (x) = -0.43106 -0.94406
# Poissons Ratio (y) = -0.59482 -0.58571
# Poissons Ratio (z) = -0.42805 -0.19245
#
# Static dielectric constant tensor:
#      x y z
#    x 1.747460 0.000000 0.000000 
#    y 0.000000 1.691590 0.000000 
#    z 0.000000 0.000000 1.746470 
# 
# From -- ./inp_files/23712.got.cif
#   From: 2010.05.17/outbox.cif.g08.bks.cpg/sg51_12_cif.got.tgz:23712.got - 2010.06.03 11:52:47.
