data_PCOD9406372
_publ_section_title
;
Structure prediction by ZEFSAII (Michael W. Deem and Ramdas Pophale) SiO2 
 PCOD9406372
Probable space group: P M M A
;
_chemical_formula_sum "Si O2"
_cell_formula_units_Z 32
_cell_length_a 9.487538
_cell_length_b 7.876027
_cell_length_c 21.277060
_cell_angle_alpha 90.000000
_cell_angle_beta 90.000000
_cell_angle_gamma 90.000000
_cell_volume 1589.909275
_symmetry_space_group_name_H-M "P M M A"
_symmetry_group_IT_number 51
_symmetry_cell_setting 'orthorhombic'
loop_
_space_group_symop_operation_xyz
x,y,z
1/2-x,-y,z
1/2+x,-y,-z
-x,y,-z
-x,-y,-z
1/2+x,y,-z
1/2-x,y,z
x,-y,z
loop_
_atom_site_type_symbol
_atom_site_label
_atom_site_fract_x
_atom_site_fract_y
_atom_site_fract_z
Si Si1 0.089896 0.798658 0.821162
Si Si2 0.090387 0.297412 0.058453
Si Si3 0.413138 0.705305 0.300163
Si Si4 0.413530 0.706990 0.440192
O O1 0.250000 0.730228 0.823173
O O2 0.993603 0.729411 0.877201
O O3 0.014967 0.763148 0.754928
O O4 0.096919 0.000000 0.829677
O O5 0.250000 0.228809 0.061009
O O6 0.101851 0.500000 0.049256
O O7 0.000000 0.227712 0.000000
O O8 0.250000 0.759961 0.289930
O O9 0.411933 0.500000 0.299909
O O10 0.458814 0.761418 0.370210
O O11 0.500000 0.769447 0.500000
O O12 0.250000 0.752442 0.447087
O O13 0.421337 0.500000 0.440437
#
# Coordination Sequence:
#
# PCOD9406372 Si02
#       4
#     8   8   8   8
#     4  11  24  38  52  75 107 141 177 216 257 303
#     4  10  21  38  61  86 109 135 169 209 254 305
#     4   9  18  33  53  77 104 135 173 216 261 310
#     4   8  14  25  43  70 102 131 162 205 256 308
#
# _framework density 20.126935
#
# number of rings (size 3 to 8) (size 9 to 14) (size 15 to 20)
#    0.000    2.500    0.000    3.750    0.000    8.500 
#    0.000    2.500    0.000    0.750    0.000    0.000 
#    0.000    0.000    0.000    0.000    0.000    0.000 
#
# Total GULP energy -178595.827258 kJ/mol
# GULP energy per Si atom -5581.119602 kJ/mol
# Density = 2.008113 g / cm^3
# Si number density = 20.126935 Si / 1000 Ang^3
#
#
#
# Elastic Constant Matrix: (Units=GPa)
#
#
# Indices 1 2 3 4 5 6 
#
# 1 163.7318 7.6648 118.9829 0.0000 0.0000 0.0000
# 2 7.6648 19.8333 -4.1770 0.0000 0.0000 0.0000
# 3 118.9829 -4.1770 186.5807 0.0000 0.0000 0.0000
# 4 0.0000 0.0000 0.0000 -124.5329 0.0000 0.0000
# 5 0.0000 0.0000 0.0000 0.0000 42.7469 0.0000
# 6 0.0000 0.0000 0.0000 0.0000 0.0000 8.5627
#
#
#
# Elastic Compliance Matrix: (Units=1/GPa)
#
#
# Indices 1 2 3 4 5 6 
#
# 1 0.012128 -0.006346 -0.007876 0.000000 0.000000 0.000000
# 2 -0.006346 0.053980 0.005255 0.000000 0.000000 0.000000
# 3 -0.007876 0.005255 0.010500 0.000000 0.000000 0.000000
# 4 0.000000 0.000000 0.000000 -0.008030 0.000000 0.000000
# 5 0.000000 0.000000 0.000000 0.000000 0.023393 0.000000
# 6 0.000000 0.000000 0.000000 0.000000 0.000000 0.116785
#
#
# Mechanical properties :
#
#
# Convention : Reuss Voigt Hill
#
# Bulk Modulus (GPa) = 17.04336 68.34304 42.69320
# Shear Modulus (GPa) = 20.30470 1.86701 11.08586
#
# Velocity S-wave (km/s) = 3.17966 0.96418 2.34945
# Velocity P-wave (km/s) = 4.68686 5.93879 5.34957
#
# Compressibility (1/GPa) = 0.05867389
#
# Stress axis : x y z
#
# Youngs Moduli (GPa) = 82.45192 18.52553 95.23818
#
# Poissons Ratio (x) = 0.11756 0.75012
# Poissons Ratio (y) = 0.52323 -0.50050
# Poissons Ratio (z) = 0.64942 -0.09736
#
# Static dielectric constant tensor:
#      x y z
#    x 1.702590 0.000000 0.000000 
#    y 0.000000 1.731470 0.000000 
#    z 0.000000 0.000000 1.693660 
# 
# From -- ./inp_files/31076.got.cif
#   From: 2010.05.17/outbox.cif.g08.bks.cpg/sg51_16_cif.got.tgz:31076.got - 2010.06.03 11:52:47.
