data_PCOD9406152
_publ_section_title
;
Structure prediction by ZEFSAII (Michael W. Deem and Ramdas Pophale) SiO2 
 PCOD9406152
Probable space group: P M M A
;
_chemical_formula_sum "Si O2"
_cell_formula_units_Z 64
_cell_length_a 8.670537
_cell_length_b 24.292730
_cell_length_c 15.845566
_cell_angle_alpha 90.000000
_cell_angle_beta 90.000000
_cell_angle_gamma 90.000000
_cell_volume 3337.567639
_symmetry_space_group_name_H-M "P M M A"
_symmetry_group_IT_number 51
_symmetry_cell_setting 'orthorhombic'
loop_
_space_group_symop_operation_xyz
x,y,z
1/2-x,-y,z
1/2+x,-y,-z
-x,y,-z
-x,-y,-z
1/2+x,y,-z
1/2-x,y,z
x,-y,z
loop_
_atom_site_type_symbol
_atom_site_label
_atom_site_fract_x
_atom_site_fract_y
_atom_site_fract_z
Si Si1 0.564826 0.747279 0.843087
Si Si2 0.065430 0.373510 0.090978
Si Si3 0.435853 0.132732 0.590547
Si Si4 0.934094 0.564839 0.253417
Si Si5 0.564672 0.861230 0.089911
Si Si6 0.561910 0.063098 0.247363
Si Si7 0.433649 0.632328 0.410828
Si Si8 0.064470 0.253782 0.653138
O O1 0.750000 0.751222 0.838005
O O2 0.525168 0.690308 0.889683
O O3 0.498071 0.800411 0.889831
O O4 0.495123 0.745425 0.749164
O O5 0.250000 0.378332 0.091199
O O6 0.997232 0.409283 0.167012
O O7 0.000000 0.389525 0.000000
O O8 0.500000 0.116149 0.500000
O O9 0.250000 0.131085 0.588227
O O10 0.488041 0.093858 0.667294
O O11 0.481143 0.195623 0.611827
O O12 0.750000 0.572690 0.256818
O O13 0.967915 0.500000 0.256764
O O14 0.008712 0.595922 0.332651
O O15 0.750000 0.859517 0.087648
O O16 0.515639 0.901472 0.165905
O O17 0.500000 0.879722 0.000000
O O18 0.750000 0.062969 0.247992
O O19 0.510136 0.000000 0.243715
O O20 0.500000 0.612219 0.500000
O O21 0.250000 0.632609 0.413333
O O22 0.494490 0.694130 0.394605
O O23 0.250000 0.257585 0.652942
#
# Coordination Sequence:
#
# PCOD9406152 Si02
#       8
#     8   8   8   8   8   8   8   8
#     4  11  22  37  61  93 125 160 199 246 303 365
#     4  11  24  41  64  94 126 163 205 250 306 366
#     4  10  21  37  58  88 118 156 198 241 299 356
#     4  11  25  45  68  93 123 163 210 260 311 362
#     4  11  22  38  60  88 119 157 200 248 305 364
#     4   9  19  38  60  81 113 158 204 249 303 364
#     4  12  25  42  65  95 128 166 207 252 307 367
#     4  11  21  37  62  91 125 162 200 247 304 368
#
# _framework density 19.175643000000001
#
# number of rings (size 3 to 8) (size 9 to 14) (size 15 to 20)
#    0.000    1.250    2.500    3.750    0.000    6.500 
#    0.000    0.000    0.000    2.625    0.000    0.000 
#    0.000    0.000    0.000    0.000    0.000    0.000 
#
# Total GULP energy -357941.200045 kJ/mol
# GULP energy per Si atom -5592.831251 kJ/mol
# Density = 1.913200 g / cm^3
# Si number density = 19.175643 Si / 1000 Ang^3
#
#
#
# Elastic Constant Matrix: (Units=GPa)
#
#
# Indices 1 2 3 4 5 6 
#
# 1 57.8977 53.5651 46.9737 0.0000 0.0000 0.0000
# 2 53.5651 117.5864 67.8405 0.0000 0.0000 0.0000
# 3 46.9737 67.8405 184.8238 0.0000 0.0000 0.0000
# 4 0.0000 0.0000 0.0000 -4.2123 0.0000 0.0000
# 5 0.0000 0.0000 0.0000 0.0000 38.6787 0.0000
# 6 0.0000 0.0000 0.0000 0.0000 0.0000 -21.5497
#
#
#
# Elastic Compliance Matrix: (Units=1/GPa)
#
#
# Indices 1 2 3 4 5 6 
#
# 1 0.031522 -0.012353 -0.003477 0.000000 0.000000 0.000000
# 2 -0.012353 0.015630 -0.002598 0.000000 0.000000 0.000000
# 3 -0.003477 -0.002598 0.007248 0.000000 0.000000 0.000000
# 4 0.000000 0.000000 0.000000 -0.237400 0.000000 0.000000
# 5 0.000000 0.000000 0.000000 0.000000 0.025854 0.000000
# 6 0.000000 0.000000 0.000000 0.000000 0.000000 -0.046404
#
#
# Mechanical properties :
#
#
# Convention : Reuss Voigt Hill
#
# Bulk Modulus (GPa) = 56.99944 77.45182 67.22563
# Shear Modulus (GPa) = -31.08544 15.37860 -7.85342
#
# Velocity S-wave (km/s) = -4.03064 2.83501 -2.02593
# Velocity P-wave (km/s) = 2.85096 7.15505 5.44623
#
# Compressibility (1/GPa) = 0.01754403
#
# Stress axis : x y z
#
# Youngs Moduli (GPa) = 31.72420 63.97773 137.97454
#
# Poissons Ratio (x) = 0.79034 0.47974
# Poissons Ratio (y) = 0.39190 0.35840
# Poissons Ratio (z) = 0.11031 0.16619
#
# Static dielectric constant tensor:
#      x y z
#    x 1.645800 0.000000 0.000000 
#    y 0.000000 1.652180 0.000000 
#    z 0.000000 0.000000 1.662090 
# 
# From -- ./inp_files/22240.got.cif
#   From: 2010.05.17/outbox.cif.g08.bks.cpg/sg51_12_cif.got.tgz:22240.got - 2010.06.03 11:52:47.
