data_PCOD9406967
_publ_section_title
;
Structure prediction by ZEFSAII (Michael W. Deem and Ramdas Pophale) SiO2 
 PCOD9406967
Probable space group: P M M A
;
_chemical_formula_sum "Si O2"
_cell_formula_units_Z 56
_cell_length_a 8.391789
_cell_length_b 22.106319
_cell_length_c 15.146294
_cell_angle_alpha 90.000000
_cell_angle_beta 90.000000
_cell_angle_gamma 90.000000
_cell_volume 2809.812698
_symmetry_space_group_name_H-M "P M M A"
_symmetry_group_IT_number 51
_symmetry_cell_setting 'orthorhombic'
loop_
_space_group_symop_operation_xyz
x,y,z
1/2-x,-y,z
1/2+x,-y,-z
-x,y,-z
-x,-y,-z
1/2+x,y,-z
1/2-x,y,z
x,-y,z
loop_
_atom_site_type_symbol
_atom_site_label
_atom_site_fract_x
_atom_site_fract_y
_atom_site_fract_z
Si Si1 0.435552 0.169161 0.236680
Si Si2 0.067266 0.250624 0.908082
Si Si3 0.064583 0.628102 0.137757
Si Si4 0.557565 0.930065 0.901627
Si Si5 0.935474 0.500000 0.139958
Si Si6 0.060999 0.236772 0.595360
Si Si7 0.434464 0.500000 0.643895
Si Si8 0.054262 0.368928 0.661056
O O1 0.250000 0.158126 0.252729
O O2 0.461538 0.225357 0.170880
O O3 0.500215 0.113212 0.177688
O O4 0.511665 0.190291 0.328020
O O5 0.250000 0.233367 0.894751
O O6 0.047642 0.322540 0.907016
O O7 0.000000 0.227092 0.000000
O O8 0.250000 0.641840 0.122687
O O9 0.022218 0.560445 0.109680
O O10 0.021141 0.632198 0.241602
O O11 0.750000 0.926495 0.902485
O O12 0.510793 0.000000 0.887041
O O13 0.500000 0.913040 0.000000
O O14 0.750000 0.500000 0.115460
O O15 0.939981 0.500000 0.248289
O O16 0.250000 0.239668 0.594458
O O17 0.005701 0.306037 0.615311
O O18 0.000000 0.217808 0.500000
O O19 0.250000 0.500000 0.616188
O O20 0.498547 0.566610 0.618332
O O21 0.250000 0.370257 0.668874
#
# Coordination Sequence:
#
# PCOD9406967 Si02
#       8
#     8   8   8   8   4   8   4   8
#     4  11  22  38  61  88 119 156 196 239 289 345
#     4  12  24  38  55  80 114 151 191 235 288 344
#     4  11  20  32  52  78 106 139 184 236 288 347
#     4   9  19  36  60  93 131 166 198 234 280 337
#     4   9  17  31  50  71 100 140 183 229 286 348
#     4  11  23  38  58  83 115 154 200 250 302 354
#     4   7  12  25  48  73  97 130 178 225 282 351
#     4   9  17  32  53  76 104 144 186 235 296 360
#
# _framework density 19.930156
#
# number of rings (size 3 to 8) (size 9 to 14) (size 15 to 20)
#    0.000    1.857    1.429    4.929    0.000    2.857 
#    0.000    0.714    0.000    0.429    0.000    0.000 
#    0.000    0.000    0.000    0.000    0.000    0.000 
#
# Total GULP energy -312609.182368 kJ/mol
# GULP energy per Si atom -5582.306828 kJ/mol
# Density = 1.988479 g / cm^3
# Si number density = 19.930156 Si / 1000 Ang^3
#
#
#
# Elastic Constant Matrix: (Units=GPa)
#
#
# Indices 1 2 3 4 5 6 
#
# 1 40.9773 10.6744 10.7544 0.0000 0.0000 0.0000
# 2 10.6744 129.8983 52.4355 0.0000 0.0000 0.0000
# 3 10.7544 52.4355 121.6684 0.0000 0.0000 0.0000
# 4 0.0000 0.0000 0.0000 45.1158 0.0000 0.0000
# 5 0.0000 0.0000 0.0000 0.0000 23.3513 0.0000
# 6 0.0000 0.0000 0.0000 0.0000 0.0000 15.7052
#
#
#
# Elastic Compliance Matrix: (Units=1/GPa)
#
#
# Indices 1 2 3 4 5 6 
#
# 1 0.025197 -0.001418 -0.001616 0.000000 0.000000 0.000000
# 2 -0.001418 0.009399 -0.003926 0.000000 0.000000 0.000000
# 3 -0.001616 -0.003926 0.010054 0.000000 0.000000 0.000000
# 4 0.000000 0.000000 0.000000 0.022165 0.000000 0.000000
# 5 0.000000 0.000000 0.000000 0.000000 0.042824 0.000000
# 6 0.000000 0.000000 0.000000 0.000000 0.000000 0.063673
#
#
# Mechanical properties :
#
#
# Convention : Reuss Voigt Hill
#
# Bulk Modulus (GPa) = 32.54051 48.91916 40.72984
# Shear Modulus (GPa) = 25.31949 31.41311 28.36630
#
# Velocity S-wave (km/s) = 3.56815 3.97439 3.77674
# Velocity P-wave (km/s) = 5.77393 6.75719 6.28482
#
# Compressibility (1/GPa) = 0.03073093
#
# Stress axis : x y z
#
# Youngs Moduli (GPa) = 39.68674 106.38881 99.46595
#
# Poissons Ratio (x) = 0.15089 0.16073
# Poissons Ratio (y) = 0.05629 0.39046
# Poissons Ratio (z) = 0.06413 0.41763
#
# Static dielectric constant tensor:
#      x y z
#    x 1.674610 0.000000 0.000000 
#    y 0.000000 1.753060 0.000000 
#    z 0.000000 0.000000 1.716310 
# 
# From -- ./inp_files/21869.got.cif
#   From: 2010.05.17/outbox.cif.g08.bks.cpg/sg51_11_cif.got.tgz:21869.got - 2010.06.03 11:52:47.
