data_PCOD9406710
_publ_section_title
;
Structure prediction by ZEFSAII (Michael W. Deem and Ramdas Pophale) SiO2 
 PCOD9406710
Probable space group: P M M A
;
_chemical_formula_sum "Si O2"
_cell_formula_units_Z 32
_cell_length_a 8.892596
_cell_length_b 12.286852
_cell_length_c 15.150672
_cell_angle_alpha 90.000000
_cell_angle_beta 90.000000
_cell_angle_gamma 90.000000
_cell_volume 1655.392890
_symmetry_space_group_name_H-M "P M M A"
_symmetry_group_IT_number 51
_symmetry_cell_setting 'orthorhombic'
loop_
_space_group_symop_operation_xyz
x,y,z
1/2-x,-y,z
1/2+x,-y,-z
-x,y,-z
-x,-y,-z
1/2+x,y,-z
1/2-x,y,z
x,-y,z
loop_
_atom_site_type_symbol
_atom_site_label
_atom_site_fract_x
_atom_site_fract_y
_atom_site_fract_z
Si Si1 0.566334 0.500000 0.797042
Si Si2 0.070193 0.124421 0.755139
Si Si3 0.040506 0.500000 0.395538
Si Si4 0.068769 0.702512 0.902843
Si Si5 0.416415 0.755062 0.407511
O O1 0.750000 0.500000 0.780329
O O2 0.473702 0.500000 0.704360
O O3 0.515423 0.395299 0.852255
O O4 0.250000 0.123545 0.743422
O O5 0.039998 0.189546 0.845150
O O6 0.000804 0.190183 0.673699
O O7 0.016349 0.000000 0.757500
O O8 0.097183 0.374988 0.392118
O O9 0.000000 0.500000 0.500000
O O10 0.250000 0.683336 0.905984
O O11 0.000000 0.711257 0.000000
O O12 0.500000 0.771658 0.500000
O O13 0.250000 0.801677 0.413802
#
# Coordination Sequence:
#
# PCOD9406710 Si02
#       5
#     4   8   4   8   8
#     4  12  22  40  66  95 129 164 201 249 300 363
#     4  10  23  43  64  88 120 159 206 257 306 358
#     4  10  22  38  61  97 131 162 197 243 300 362
#     4  11  24  42  64  93 123 160 202 252 309 367
#     4  11  22  39  62  92 126 163 203 247 301 363
#
# _framework density 19.330756999999998
#
# number of rings (size 3 to 8) (size 9 to 14) (size 15 to 20)
#    0.000    1.250    2.500    3.375    0.000    2.500 
#    0.000    4.375    0.000    0.000    0.000    0.000 
#    0.000    0.000    0.000    0.000    0.000    0.000 
#
# Total GULP energy -178152.553020 kJ/mol
# GULP energy per Si atom -5567.267282 kJ/mol
# Density = 1.928676 g / cm^3
# Si number density = 19.330757 Si / 1000 Ang^3
#
#
#
# Elastic Constant Matrix: (Units=GPa)
#
#
# Indices 1 2 3 4 5 6 
#
# 1 48.6678 45.0415 52.1970 0.0000 0.0000 0.0000
# 2 45.0415 142.0543 74.6313 0.0000 0.0000 0.0000
# 3 52.1970 74.6313 195.5655 0.0000 0.0000 0.0000
# 4 0.0000 0.0000 0.0000 2.5879 0.0000 0.0000
# 5 0.0000 0.0000 0.0000 0.0000 20.9417 0.0000
# 6 0.0000 0.0000 0.0000 0.0000 0.0000 -102.6001
#
#
#
# Elastic Compliance Matrix: (Units=1/GPa)
#
#
# Indices 1 2 3 4 5 6 
#
# 1 0.034271 -0.007581 -0.006254 0.000000 0.000000 0.000000
# 2 -0.007581 0.010482 -0.001977 0.000000 0.000000 0.000000
# 3 -0.006254 -0.001977 0.007537 0.000000 0.000000 0.000000
# 4 0.000000 0.000000 0.000000 0.386420 0.000000 0.000000
# 5 0.000000 0.000000 0.000000 0.000000 0.047752 0.000000
# 6 0.000000 0.000000 0.000000 0.000000 0.000000 -0.009747
#
#
# Mechanical properties :
#
#
# Convention : Reuss Voigt Hill
#
# Bulk Modulus (GPa) = 48.38715 81.11414 64.75065
# Shear Modulus (GPa) = 9.70447 -1.51958 4.09244
#
# Velocity S-wave (km/s) = 2.24302 -0.88758 1.45659
# Velocity P-wave (km/s) = 5.63859 6.40327 6.03306
#
# Compressibility (1/GPa) = 0.02066664
#
# Stress axis : x y z
#
# Youngs Moduli (GPa) = 29.17932 95.40457 132.67957
#
# Poissons Ratio (x) = 0.72323 0.82979
# Poissons Ratio (y) = 0.22120 0.26227
# Poissons Ratio (z) = 0.18249 0.18859
#
# Static dielectric constant tensor:
#      x y z
#    x 1.645130 0.000000 0.000000 
#    y 0.000000 1.657600 0.000000 
#    z 0.000000 0.000000 1.652320 
# 
# From -- ./inp_files/20158.got.cif
#   From: 2010.05.17/outbox.cif.g08.bks.cpg/sg51_11_cif.got.tgz:20158.got - 2010.06.03 11:52:47.
