data_PCOD9406105
_publ_section_title
;
Structure prediction by ZEFSAII (Michael W. Deem and Ramdas Pophale) SiO2 
 PCOD9406105
Probable space group: P M M A
;
_chemical_formula_sum "Si O2"
_cell_formula_units_Z 64
_cell_length_a 14.190256
_cell_length_b 9.297657
_cell_length_c 25.643503
_cell_angle_alpha 90.000000
_cell_angle_beta 90.000000
_cell_angle_gamma 90.000000
_cell_volume 3383.304623
_symmetry_space_group_name_H-M "P M M A"
_symmetry_group_IT_number 51
_symmetry_cell_setting 'orthorhombic'
loop_
_space_group_symop_operation_xyz
x,y,z
1/2-x,-y,z
1/2+x,-y,-z
-x,y,-z
-x,-y,-z
1/2+x,y,-z
1/2-x,y,z
x,-y,z
loop_
_atom_site_type_symbol
_atom_site_label
_atom_site_fract_x
_atom_site_fract_y
_atom_site_fract_z
Si Si1 0.457455 0.171874 0.187190
Si Si2 0.361784 0.663957 0.469192
Si Si3 0.640597 0.668656 0.406396
Si Si4 0.137658 0.670090 0.283652
Si Si5 0.635047 0.664142 0.025978
Si Si6 0.539726 0.829297 0.620832
Si Si7 0.141843 0.828123 0.868575
Si Si8 0.136347 0.166517 0.076085
O O1 0.412578 0.262015 0.233393
O O2 0.567208 0.205087 0.176500
O O3 0.405992 0.203495 0.132236
O O4 0.447260 0.000000 0.197160
O O5 0.250000 0.672657 0.458139
O O6 0.392888 0.500000 0.456680
O O7 0.373124 0.685161 0.531041
O O8 0.416808 0.775885 0.433978
O O9 0.750000 0.700722 0.395171
O O10 0.623911 0.500000 0.394514
O O11 0.566514 0.769092 0.377755
O O12 0.250000 0.689159 0.279225
O O13 0.118274 0.500000 0.288057
O O14 0.099512 0.752559 0.334176
O O15 0.750000 0.665032 0.024171
O O16 0.603837 0.500000 0.030343
O O17 0.611260 0.753362 0.077626
O O18 0.603612 0.736287 0.972028
O O19 0.542985 0.000000 0.625671
O O20 0.250000 0.787196 0.856993
O O21 0.138946 0.000000 0.876809
O O22 0.250000 0.176374 0.079431
O O23 0.112136 0.000000 0.064967
#
# Coordination Sequence:
#
# PCOD9406105 Si02
#       8
#     8   8   8   8   8   8   8   8
#     4  10  21  37  58  82 106 137 179 227 279 331
#     4   9  18  34  57  85 118 157 198 237 280 334
#     4   9  19  37  60  85 117 158 198 235 278 330
#     4  11  25  44  64  84 108 141 182 229 280 335
#     4   9  17  29  47  73 105 140 177 218 263 313
#     4  12  24  36  56  86 118 153 192 236 285 334
#     4   9  18  34  55  78 107 142 177 215 264 323
#     4   9  17  30  49  73 103 138 173 213 268 334
#
# _framework density 18.916416999999999
#
# number of rings (size 3 to 8) (size 9 to 14) (size 15 to 20)
#    0.000    2.250    0.000    3.750    0.000    8.500 
#    0.000    5.625    0.000    2.250    0.000    0.000 
#    0.000    0.000    0.000    0.000    0.000    0.000 
#
# Total GULP energy -357557.684890 kJ/mol
# GULP energy per Si atom -5586.838826 kJ/mol
# Density = 1.887336 g / cm^3
# Si number density = 18.916417 Si / 1000 Ang^3
#
#
#
# Elastic Constant Matrix: (Units=GPa)
#
#
# Indices 1 2 3 4 5 6 
#
# 1 89.4151 55.9047 34.2800 0.0000 0.0000 0.0000
# 2 55.9047 86.2763 37.2989 0.0000 0.0000 0.0000
# 3 34.2800 37.2989 25.6830 0.0000 0.0000 0.0000
# 4 0.0000 0.0000 0.0000 32.5835 0.0000 0.0000
# 5 0.0000 0.0000 0.0000 0.0000 33.6857 0.0000
# 6 0.0000 0.0000 0.0000 0.0000 0.0000 18.7084
#
#
#
# Elastic Compliance Matrix: (Units=1/GPa)
#
#
# Indices 1 2 3 4 5 6 
#
# 1 0.023533 -0.004486 -0.024896 0.000000 0.000000 0.000000
# 2 -0.004486 0.032000 -0.040486 0.000000 0.000000 0.000000
# 3 -0.024896 -0.040486 0.130962 0.000000 0.000000 0.000000
# 4 0.000000 0.000000 0.000000 0.030690 0.000000 0.000000
# 5 0.000000 0.000000 0.000000 0.000000 0.029686 0.000000
# 6 0.000000 0.000000 0.000000 0.000000 0.000000 0.053452
#
#
# Mechanical properties :
#
#
# Convention : Reuss Voigt Hill
#
# Bulk Modulus (GPa) = 21.38542 50.70461 36.04502
# Shear Modulus (GPa) = 10.97345 21.92157 16.44751
#
# Velocity S-wave (km/s) = 2.41114 3.40790 2.95190
# Velocity P-wave (km/s) = 4.36821 6.50752 5.54207
#
# Compressibility (1/GPa) = 0.04676083
#
# Stress axis : x y z
#
# Youngs Moduli (GPa) = 42.49358 31.24982 7.63579
#
# Poissons Ratio (x) = 0.14018 0.19010
# Poissons Ratio (y) = 0.19062 0.30914
# Poissons Ratio (z) = 1.05790 1.26517
#
# Static dielectric constant tensor:
#      x y z
#    x 1.698300 0.000000 0.000000 
#    y 0.000000 1.629910 0.000000 
#    z 0.000000 0.000000 1.623050 
# 
# From -- ./inp_files/35692.got.cif
#   From: 2010.05.17/outbox.cif.g08.bks.cpg/sg51_18_cif.got.tgz:35692.got - 2010.06.03 11:52:47.
