data_PCOD9406719
_publ_section_title
;
Structure prediction by ZEFSAII (Michael W. Deem and Ramdas Pophale) SiO2 
 PCOD9406719
Probable space group: P M M A
;
_chemical_formula_sum "Si O2"
_cell_formula_units_Z 48
_cell_length_a 10.045540
_cell_length_b 30.615464
_cell_length_c 8.813993
_cell_angle_alpha 90.000000
_cell_angle_beta 90.000000
_cell_angle_gamma 90.000000
_cell_volume 2710.733572
_symmetry_space_group_name_H-M "P M M A"
_symmetry_group_IT_number 51
_symmetry_cell_setting 'orthorhombic'
loop_
_space_group_symop_operation_xyz
x,y,z
1/2-x,-y,z
1/2+x,-y,-z
-x,y,-z
-x,-y,-z
1/2+x,y,-z
1/2-x,y,z
x,-y,z
loop_
_atom_site_type_symbol
_atom_site_label
_atom_site_fract_x
_atom_site_fract_y
_atom_site_fract_z
Si Si1 0.595024 0.773923 0.357043
Si Si2 0.593372 0.046976 0.147899
Si Si3 0.908355 0.311651 0.148493
Si Si4 0.495614 0.601249 0.680821
Si Si5 0.408179 0.143204 0.850409
Si Si6 0.250000 0.552920 0.181463
Si Si7 0.750000 0.448491 0.179139
O O1 0.500000 0.768468 0.500000
O O2 0.750000 0.776499 0.404648
O O3 0.582628 0.732861 0.244260
O O4 0.561529 0.818027 0.265341
O O5 0.750000 0.047082 0.104760
O O6 0.570029 0.094609 0.219864
O O7 0.569644 0.000000 0.228281
O O8 0.500000 0.046684 0.000000
O O9 0.750000 0.319484 0.115733
O O10 0.967387 0.351504 0.246504
O O11 0.000000 0.308224 0.000000
O O12 0.500000 0.604576 0.500000
O O13 0.624753 0.576978 0.744841
O O14 0.375784 0.571557 0.738540
O O15 0.250000 0.146818 0.889725
O O16 0.500000 0.146930 0.000000
O O17 0.250000 0.500000 0.204793
O O18 0.250000 0.561226 0.000547
O O19 0.750000 0.500000 0.194422
#
# Coordination Sequence:
#
# PCOD9406719 Si02
#       7
#     8   8   8   8   8   4   4
#     4  10  22  39  57  81 113 146 187 232 281 336
#     4   8  13  22  39  66  99 135 175 223 278 331
#     4  11  24  42  64  89 116 148 188 232 282 345
#     4  12  25  41  63  92 125 156 193 241 291 342
#     4   9  17  30  50  76 107 141 183 232 281 339
#     4  11  25  43  67  93 121 163 203 239 286 337
#     4  11  23  43  65  89 123 159 201 243 282 339
#
# _framework density 17.707381999999999
#
# number of rings (size 3 to 8) (size 9 to 14) (size 15 to 20)
#    0.000    1.833    0.833    3.500    1.167    4.667 
#    0.000    0.000    0.000    0.500    0.000    0.000 
#    0.000    0.000    0.000    0.000    0.000    0.000 
#
# Total GULP energy -267636.063259 kJ/mol
# GULP energy per Si atom -5575.751318 kJ/mol
# Density = 1.766708 g / cm^3
# Si number density = 17.707382 Si / 1000 Ang^3
#
#
#
# Elastic Constant Matrix: (Units=GPa)
#
#
# Indices 1 2 3 4 5 6 
#
# 1 119.9848 67.7749 70.2057 0.0000 0.0000 0.0000
# 2 67.7749 151.4079 75.4097 0.0000 0.0000 0.0000
# 3 70.2057 75.4097 115.1378 0.0000 0.0000 0.0000
# 4 0.0000 0.0000 0.0000 -15.1432 0.0000 0.0000
# 5 0.0000 0.0000 0.0000 0.0000 31.5531 0.0000
# 6 0.0000 0.0000 0.0000 0.0000 0.0000 25.9583
#
#
#
# Elastic Compliance Matrix: (Units=1/GPa)
#
#
# Indices 1 2 3 4 5 6 
#
# 1 0.013789 -0.002946 -0.006479 0.000000 0.000000 0.000000
# 2 -0.002946 0.010431 -0.005036 0.000000 0.000000 0.000000
# 3 -0.006479 -0.005036 0.015934 0.000000 0.000000 0.000000
# 4 0.000000 0.000000 0.000000 -0.066036 0.000000 0.000000
# 5 0.000000 0.000000 0.000000 0.000000 0.031693 0.000000
# 6 0.000000 0.000000 0.000000 0.000000 0.000000 0.038523
#
#
# Mechanical properties :
#
#
# Convention : Reuss Voigt Hill
#
# Bulk Modulus (GPa) = 89.01654 90.36794 89.69224
# Shear Modulus (GPa) = 64.93567 20.01632 42.47599
#
# Velocity S-wave (km/s) = 6.06227 3.36578 4.90304
# Velocity P-wave (km/s) = 9.96903 8.13938 9.10030
#
# Compressibility (1/GPa) = 0.01123387
#
# Stress axis : x y z
#
# Youngs Moduli (GPa) = 72.52098 95.86396 62.75908
#
# Poissons Ratio (x) = 0.28239 0.40660
# Poissons Ratio (y) = 0.21362 0.31605
# Poissons Ratio (z) = 0.46984 0.48277
#
# Static dielectric constant tensor:
#      x y z
#    x 1.640340 0.000000 0.000000 
#    y 0.000000 1.639340 0.000000 
#    z 0.000000 0.000000 1.554840 
# 
# From -- ./inp_files/6247.got.cif
#   From: 2010.05.17/outbox.cif.g08.bks.cpg/sg51_4_cif.got.tgz:6247.got - 2010.06.03 11:52:47.
