data_PCOD9406049
_publ_section_title
;
Structure prediction by ZEFSAII (Michael W. Deem and Ramdas Pophale) SiO2 
 PCOD9406049
Probable space group: P M M A
;
_chemical_formula_sum "Si O2"
_cell_formula_units_Z 64
_cell_length_a 23.358765
_cell_length_b 8.651860
_cell_length_c 15.922345
_cell_angle_alpha 90.000000
_cell_angle_beta 90.000000
_cell_angle_gamma 90.000000
_cell_volume 3217.854409
_symmetry_space_group_name_H-M "P M M A"
_symmetry_group_IT_number 51
_symmetry_cell_setting 'orthorhombic'
loop_
_space_group_symop_operation_xyz
x,y,z
1/2-x,-y,z
1/2+x,-y,-z
-x,y,-z
-x,-y,-z
1/2+x,y,-z
1/2-x,y,z
x,-y,z
loop_
_atom_site_type_symbol
_atom_site_label
_atom_site_fract_x
_atom_site_fract_y
_atom_site_fract_z
Si Si1 0.910140 0.315917 0.544490
Si Si2 0.004114 0.817061 0.900709
Si Si3 0.317788 0.813872 0.331822
Si Si4 0.420997 0.674496 0.768888
Si Si5 0.024995 0.180481 0.612472
Si Si6 0.111537 0.316364 0.172742
Si Si7 0.182587 0.824893 0.828906
Si Si8 0.817259 0.323906 0.996532
O O1 0.905616 0.500000 0.537324
O O2 0.853347 0.247718 0.587687
O O3 0.929129 0.242889 0.455495
O O4 0.965399 0.271303 0.601136
O O5 0.053821 0.716007 0.859608
O O6 0.947440 0.770527 0.848391
O O7 0.014922 0.000000 0.891854
O O8 0.000000 0.783188 0.000000
O O9 0.250000 0.769984 0.331410
O O10 0.351974 0.747784 0.250926
O O11 0.320690 0.000000 0.330113
O O12 0.434051 0.500000 0.744927
O O13 0.450324 0.788380 0.703591
O O14 0.354008 0.707725 0.774328
O O15 0.014268 0.000000 0.598154
O O16 0.100939 0.500000 0.185462
O O17 0.148018 0.295951 0.087642
O O18 0.250000 0.807108 0.815740
O O19 0.165391 0.000000 0.808985
O O20 0.171669 0.791217 0.927194
O O21 0.750000 0.314801 0.976323
O O22 0.829078 0.500000 0.025872
#
# Coordination Sequence:
#
# PCOD9406049 Si02
#       8
#     8   8   8   8   8   8   8   8
#     4  11  22  40  65  93 123 152 191 239 291 350
#     4  11  24  40  58  83 118 159 202 249 302 357
#     4  11  24  41  61  87 122 164 207 250 301 362
#     4  12  24  39  60  86 116 149 190 237 286 340
#     4  11  22  40  66  93 122 154 192 237 289 349
#     4  11  22  36  56  83 116 154 198 247 298 353
#     4  10  21  37  57  81 110 145 185 230 281 336
#     4   9  18  33  53  77 107 146 191 237 284 335
#
# _framework density 19.889030000000002
#
# number of rings (size 3 to 8) (size 9 to 14) (size 15 to 20)
#    0.000    1.250    0.000    7.500    0.000    6.250 
#    0.000    1.875    0.000    3.750    0.000    0.000 
#    0.000    0.000    0.000    0.000    0.000    0.000 
#
# Total GULP energy -357746.352249 kJ/mol
# GULP energy per Si atom -5589.786754 kJ/mol
# Density = 1.984376 g / cm^3
# Si number density = 19.889030 Si / 1000 Ang^3
#
#
#
# Elastic Constant Matrix: (Units=GPa)
#
#
# Indices 1 2 3 4 5 6 
#
# 1 88.4283 17.7145 22.3761 0.0000 0.0000 0.0000
# 2 17.7145 64.3155 2.1730 0.0000 0.0000 0.0000
# 3 22.3761 2.1730 37.7557 0.0000 0.0000 0.0000
# 4 0.0000 0.0000 0.0000 41.6235 0.0000 0.0000
# 5 0.0000 0.0000 0.0000 0.0000 28.6864 0.0000
# 6 0.0000 0.0000 0.0000 0.0000 0.0000 25.0995
#
#
#
# Elastic Compliance Matrix: (Units=1/GPa)
#
#
# Indices 1 2 3 4 5 6 
#
# 1 0.014092 -0.003606 -0.008144 0.000000 0.000000 0.000000
# 2 -0.003606 0.016501 0.001187 0.000000 0.000000 0.000000
# 3 -0.008144 0.001187 0.031244 0.000000 0.000000 0.000000
# 4 0.000000 0.000000 0.000000 0.024025 0.000000 0.000000
# 5 0.000000 0.000000 0.000000 0.000000 0.034860 0.000000
# 6 0.000000 0.000000 0.000000 0.000000 0.000000 0.039841
#
#
# Mechanical properties :
#
#
# Convention : Reuss Voigt Hill
#
# Bulk Modulus (GPa) = 24.56269 30.55852 27.56061
# Shear Modulus (GPa) = 25.60691 28.96427 27.28559
#
# Velocity S-wave (km/s) = 3.59205 3.82028 3.70792
# Velocity P-wave (km/s) = 5.43879 5.90400 5.67617
#
# Compressibility (1/GPa) = 0.04071216
#
# Stress axis : x y z
#
# Youngs Moduli (GPa) = 70.96334 60.60067 32.00582
#
# Poissons Ratio (x) = 0.21853 0.26066
# Poissons Ratio (y) = 0.25590 -0.03801
# Poissons Ratio (z) = 0.57793 -0.07196
#
# Static dielectric constant tensor:
#      x y z
#    x 1.721940 0.000000 0.000000 
#    y 0.000000 1.684380 0.000000 
#    z 0.000000 0.000000 1.689700 
# 
# From -- ./inp_files/26178.got.cif
#   From: 2010.05.17/outbox.cif.g08.bks.cpg/sg51_14_cif.got.tgz:26178.got - 2010.06.03 11:52:47.
