data_PCOD9406966
_publ_section_title
;
Structure prediction by ZEFSAII (Michael W. Deem and Ramdas Pophale) SiO2 
 PCOD9406966
Probable space group: P M M A
;
_chemical_formula_sum "Si O2"
_cell_formula_units_Z 56
_cell_length_a 17.151098
_cell_length_b 14.816093
_cell_length_c 13.099230
_cell_angle_alpha 90.000000
_cell_angle_beta 90.000000
_cell_angle_gamma 90.000000
_cell_volume 3328.674979
_symmetry_space_group_name_H-M "P M M A"
_symmetry_group_IT_number 51
_symmetry_cell_setting 'orthorhombic'
loop_
_space_group_symop_operation_xyz
x,y,z
1/2-x,-y,z
1/2+x,-y,-z
-x,y,-z
-x,-y,-z
1/2+x,y,-z
1/2-x,y,z
x,-y,z
loop_
_atom_site_type_symbol
_atom_site_label
_atom_site_fract_x
_atom_site_fract_y
_atom_site_fract_z
Si Si1 0.841293 0.399517 0.187105
Si Si2 0.157614 0.216039 0.041389
Si Si3 0.433603 0.107082 0.196908
Si Si4 0.093611 0.786902 0.810731
Si Si5 0.590001 0.401204 0.964065
Si Si6 0.843469 0.102015 0.377435
Si Si7 0.160453 0.890511 0.400318
O O1 0.750000 0.377524 0.205088
O O2 0.857349 0.500000 0.228781
O O3 0.897458 0.318346 0.219832
O O4 0.856811 0.405528 0.065687
O O5 0.250000 0.223608 0.047418
O O6 0.125996 0.132942 0.107122
O O7 0.118037 0.308133 0.085355
O O8 0.132459 0.205930 0.922885
O O9 0.509029 0.168955 0.181185
O O10 0.393827 0.130948 0.305048
O O11 0.451574 0.000000 0.195493
O O12 0.135599 0.841581 0.721286
O O13 0.596278 0.500000 0.912230
O O14 0.500000 0.391390 0.000000
O O15 0.750000 0.097066 0.385507
O O16 0.869261 0.139536 0.488007
O O17 0.874557 0.000000 0.365267
O O18 0.250000 0.859920 0.383566
O O19 0.163126 0.000000 0.406548
#
# Coordination Sequence:
#
# PCOD9406966 Si02
#       7
#     8   8   8   8   8   8   8
#     4   9  17  30  48  69  95 126 157 191 235 290
#     4  11  22  34  49  69  96 132 171 205 239 288
#     4  11  23  36  49  67  96 135 173 204 239 289
#     4  11  20  32  49  74 104 126 154 201 252 296
#     4   9  16  28  47  70  96 123 153 196 249 296
#     4   9  17  30  50  75 100 125 155 196 245 290
#     4   8  16  33  53  70  91 123 166 209 241 278
#
# _framework density 16.823512000000001
#
# number of rings (size 3 to 8) (size 9 to 14) (size 15 to 20)
#    0.000    2.286    0.000    6.429    0.000    4.000 
#    0.000    2.143    0.000    0.000    0.000    3.000 
#    0.000    2.286    0.000    0.000    0.000    0.000 
#
# Total GULP energy -311838.242925 kJ/mol
# GULP energy per Si atom -5568.540052 kJ/mol
# Density = 1.678522 g / cm^3
# Si number density = 16.823512 Si / 1000 Ang^3
#
#
#
# Elastic Constant Matrix: (Units=GPa)
#
#
# Indices 1 2 3 4 5 6 
#
# 1 71.2770 36.7564 27.0135 0.0000 0.0000 0.0000
# 2 36.7564 94.0622 33.2722 0.0000 0.0000 0.0000
# 3 27.0135 33.2722 72.1234 0.0000 0.0000 0.0000
# 4 0.0000 0.0000 0.0000 -1.5624 0.0000 0.0000
# 5 0.0000 0.0000 0.0000 0.0000 17.2349 0.0000
# 6 0.0000 0.0000 0.0000 0.0000 0.0000 25.2374
#
#
#
# Elastic Compliance Matrix: (Units=1/GPa)
#
#
# Indices 1 2 3 4 5 6 
#
# 1 0.018636 -0.005752 -0.004326 0.000000 0.000000 0.000000
# 2 -0.005752 0.014480 -0.004525 0.000000 0.000000 0.000000
# 3 -0.004326 -0.004525 0.017573 0.000000 0.000000 0.000000
# 4 0.000000 0.000000 0.000000 -0.640056 0.000000 0.000000
# 5 0.000000 0.000000 0.000000 0.000000 0.058022 0.000000
# 6 0.000000 0.000000 0.000000 0.000000 0.000000 0.039624
#
#
# Mechanical properties :
#
#
# Convention : Reuss Voigt Hill
#
# Bulk Modulus (GPa) = 46.55259 47.94963 47.25111
# Shear Modulus (GPa) = -10.98046 17.54335 3.28144
#
# Velocity S-wave (km/s) = -2.55754 3.23273 1.39812
# Velocity P-wave (km/s) = 4.36003 6.51901 5.54560
#
# Compressibility (1/GPa) = 0.02148108
#
# Stress axis : x y z
#
# Youngs Moduli (GPa) = 53.66085 69.06237 56.90454
#
# Poissons Ratio (x) = 0.39723 0.24619
# Poissons Ratio (y) = 0.30865 0.25752
# Poissons Ratio (z) = 0.23216 0.31254
#
# Static dielectric constant tensor:
#      x y z
#    x 2.175480 0.000000 0.000000 
#    y 0.000000 1.619850 0.000000 
#    z 0.000000 0.000000 1.568960 
# 
# From -- ./inp_files/24335.got.cif
#   From: 2010.05.17/outbox.cif.g08.bks.cpg/sg51_13_cif.got.tgz:24335.got - 2010.06.03 11:52:47.
