data_PCOD9406237
_publ_section_title
;
Structure prediction by ZEFSAII (Michael W. Deem and Ramdas Pophale) SiO2 
 PCOD9406237
Probable space group: P M M A
;
_chemical_formula_sum "Si O2"
_cell_formula_units_Z 40
_cell_length_a 8.657564
_cell_length_b 26.621537
_cell_length_c 9.944539
_cell_angle_alpha 90.000000
_cell_angle_beta 90.000000
_cell_angle_gamma 90.000000
_cell_volume 2291.994082
_symmetry_space_group_name_H-M "P M M A"
_symmetry_group_IT_number 51
_symmetry_cell_setting 'orthorhombic'
loop_
_space_group_symop_operation_xyz
x,y,z
1/2-x,-y,z
1/2+x,-y,-z
-x,y,-z
-x,-y,-z
1/2+x,y,-z
1/2-x,y,z
x,-y,z
loop_
_atom_site_type_symbol
_atom_site_label
_atom_site_fract_x
_atom_site_fract_y
_atom_site_fract_z
Si Si1 0.435255 0.754952 0.347986
Si Si2 0.433974 0.140990 0.651598
Si Si3 0.563408 0.557024 0.851023
Si Si4 0.435006 0.941639 0.148569
Si Si5 0.436329 0.644125 0.349065
O O1 0.500000 0.753584 0.500000
O O2 0.250000 0.759846 0.350076
O O3 0.507059 0.805632 0.288970
O O4 0.476585 0.699756 0.292607
O O5 0.500000 0.136238 0.500000
O O6 0.250000 0.141539 0.644494
O O7 0.493222 0.095750 0.743179
O O8 0.750000 0.558652 0.855605
O O9 0.517929 0.500000 0.812391
O O10 0.509871 0.599114 0.746254
O O11 0.500000 0.566667 0.000000
O O12 0.250000 0.936491 0.147900
O O13 0.472848 0.000000 0.178933
O O14 0.500000 0.930640 0.000000
O O15 0.500000 0.639159 0.500000
O O16 0.250000 0.642377 0.357038
#
# Coordination Sequence:
#
# PCOD9406237 Si02
#       5
#     8   8   8   8   8
#     4   9  16  29  48  70  99 131 164 203 250 299
#     4  11  21  34  54  79 106 136 172 212 254 299
#     4   9  18  33  50  69  96 129 164 202 246 295
#     4  10  21  38  58  79 105 137 171 208 253 303
#     4   9  18  31  49  73  99 128 162 204 249 295
#
# _framework density 17.452051000000001
#
# number of rings (size 3 to 8) (size 9 to 14) (size 15 to 20)
#    0.000    2.400    0.000    4.200    0.000    3.600 
#    0.000    1.000    0.000    2.400    0.000    0.000 
#    0.000    0.000    0.000    0.000    0.000    0.000 
#
# Total GULP energy -222994.811474 kJ/mol
# GULP energy per Si atom -5574.870287 kJ/mol
# Density = 1.741233 g / cm^3
# Si number density = 17.452051 Si / 1000 Ang^3
#
#
#
# Elastic Constant Matrix: (Units=GPa)
#
#
# Indices 1 2 3 4 5 6 
#
# 1 67.0395 60.6127 34.7465 0.0000 0.0000 0.0000
# 2 60.6127 178.3780 97.1716 0.0000 0.0000 0.0000
# 3 34.7465 97.1716 77.0339 0.0000 0.0000 0.0000
# 4 0.0000 0.0000 0.0000 -15.4496 0.0000 0.0000
# 5 0.0000 0.0000 0.0000 0.0000 27.5601 0.0000
# 6 0.0000 0.0000 0.0000 0.0000 0.0000 -17.1874
#
#
#
# Elastic Compliance Matrix: (Units=1/GPa)
#
#
# Indices 1 2 3 4 5 6 
#
# 1 0.021589 -0.006493 -0.001548 0.000000 0.000000 0.000000
# 2 -0.006493 0.019872 -0.022139 0.000000 0.000000 0.000000
# 3 -0.001548 -0.022139 0.041606 0.000000 0.000000 0.000000
# 4 0.000000 0.000000 0.000000 -0.064727 0.000000 0.000000
# 5 0.000000 0.000000 0.000000 0.000000 0.036284 0.000000
# 6 0.000000 0.000000 0.000000 0.000000 0.000000 -0.058182
#
#
# Mechanical properties :
#
#
# Convention : Reuss Voigt Hill
#
# Bulk Modulus (GPa) = 44.03633 78.61256 61.32444
# Shear Modulus (GPa) = 77.67440 7.64598 42.66019
#
# Velocity S-wave (km/s) = 6.67862 2.09539 4.94947
# Velocity P-wave (km/s) = 9.20649 7.14121 8.23882
#
# Compressibility (1/GPa) = 0.02270853
#
# Stress axis : x y z
#
# Youngs Moduli (GPa) = 46.31948 50.32083 24.03521
#
# Poissons Ratio (x) = 0.32673 0.03720
# Poissons Ratio (y) = 0.30075 0.53211
# Poissons Ratio (z) = 0.07169 1.11404
#
# Static dielectric constant tensor:
#      x y z
#    x 1.583400 0.000000 0.000000 
#    y 0.000000 1.636420 0.000000 
#    z 0.000000 0.000000 1.521200 
# 
# From -- ./inp_files/5490.got.cif
#   From: 2010.05.17/outbox.cif.g08.bks.cpg/sg51_3_cif.got.tgz:5490.got - 2010.06.03 11:52:47.
