data_PCOD9406492
_publ_section_title
;
Structure prediction by ZEFSAII (Michael W. Deem and Ramdas Pophale) SiO2 
 PCOD9406492
Probable space group: P M M A
;
_chemical_formula_sum "Si O2"
_cell_formula_units_Z 40
_cell_length_a 7.825783
_cell_length_b 9.082476
_cell_length_c 30.402695
_cell_angle_alpha 90.000000
_cell_angle_beta 90.000000
_cell_angle_gamma 90.000000
_cell_volume 2160.947137
_symmetry_space_group_name_H-M "P M M A"
_symmetry_group_IT_number 51
_symmetry_cell_setting 'orthorhombic'
loop_
_space_group_symop_operation_xyz
x,y,z
1/2-x,-y,z
1/2+x,-y,-z
-x,y,-z
-x,-y,-z
1/2+x,y,-z
1/2-x,y,z
x,-y,z
loop_
_atom_site_type_symbol
_atom_site_label
_atom_site_fract_x
_atom_site_fract_y
_atom_site_fract_z
Si Si1 0.750000 0.322783 0.713693
Si Si2 0.943631 0.679533 0.450822
Si Si3 0.956136 0.827301 0.864527
Si Si4 0.750000 0.320623 0.611730
Si Si5 0.455551 0.332032 0.047437
Si Si6 0.555332 0.176949 0.232765
O O1 0.750000 0.500000 0.716220
O O2 0.750000 0.277274 0.662513
O O3 0.583876 0.258410 0.737931
O O4 0.750000 0.727612 0.441898
O O5 0.944022 0.500000 0.450567
O O6 0.000000 0.723457 0.500000
O O7 0.082333 0.728096 0.415088
O O8 0.750000 0.810255 0.861132
O O9 0.017050 0.747723 0.908644
O O10 0.032949 0.776426 0.818246
O O11 0.993356 0.000000 0.868993
O O12 0.750000 0.500000 0.610858
O O13 0.250000 0.335102 0.049918
O O14 0.520315 0.500000 0.047382
O O15 0.500000 0.264280 0.000000
O O16 0.750000 0.204599 0.246801
O O17 0.524336 0.000000 0.234147
#
# Coordination Sequence:
#
# PCOD9406492 Si02
#       6
#     4   8   8   4   8   8
#     4  11  23  37  55  81 121 155 181 231 292 345
#     4   9  14  22  39  61  90 134 185 224 257 314
#     4   9  17  32  53  75  98 128 171 226 278 318
#     4   9  18  29  41  67 103 143 181 219 274 327
#     4   9  18  31  46  67  99 137 170 204 254 320
#     4  10  21  39  62  83 106 143 192 240 282 334
#
# _framework density 18.510401999999999
#
# number of rings (size 3 to 8) (size 9 to 14) (size 15 to 20)
#    0.000    2.600    2.000    0.300    0.000    3.200 
#    0.000    2.000    0.000    0.000    0.000    0.000 
#    0.000    3.200    0.000    0.000    0.000    0.000 
#
# Total GULP energy -223062.600792 kJ/mol
# GULP energy per Si atom -5576.565020 kJ/mol
# Density = 1.846827 g / cm^3
# Si number density = 18.510402 Si / 1000 Ang^3
#
#
#
# Elastic Constant Matrix: (Units=GPa)
#
#
# Indices 1 2 3 4 5 6 
#
# 1 119.7227 36.2666 94.4514 0.0000 0.0000 0.0000
# 2 36.2666 22.1336 42.7794 0.0000 0.0000 0.0000
# 3 94.4514 42.7794 184.7544 0.0000 0.0000 0.0000
# 4 0.0000 0.0000 0.0000 -136.7864 0.0000 0.0000
# 5 0.0000 0.0000 0.0000 0.0000 22.0805 0.0000
# 6 0.0000 0.0000 0.0000 0.0000 0.0000 5.0313
#
#
#
# Elastic Compliance Matrix: (Units=1/GPa)
#
#
# Indices 1 2 3 4 5 6 
#
# 1 0.018353 -0.021608 -0.004379 0.000000 0.000000 0.000000
# 2 -0.021608 0.107218 -0.013780 0.000000 0.000000 0.000000
# 3 -0.004379 -0.013780 0.010842 0.000000 0.000000 0.000000
# 4 0.000000 0.000000 0.000000 -0.007311 0.000000 0.000000
# 5 0.000000 0.000000 0.000000 0.000000 0.045289 0.000000
# 6 0.000000 0.000000 0.000000 0.000000 0.000000 0.198755
#
#
# Mechanical properties :
#
#
# Convention : Reuss Voigt Hill
#
# Bulk Modulus (GPa) = 17.58095 74.84506 46.21300
# Shear Modulus (GPa) = 10.60131 -11.72736 -0.56302
#
# Velocity S-wave (km/s) = 2.39576 -2.51978 -0.55211
# Velocity P-wave (km/s) = 4.14383 5.66181 4.96122
#
# Compressibility (1/GPa) = 0.05687975
#
# Stress axis : x y z
#
# Youngs Moduli (GPa) = 54.48698 9.32680 92.23337
#
# Poissons Ratio (x) = 0.20153 0.40392
# Poissons Ratio (y) = 1.17734 1.27094
# Poissons Ratio (z) = 0.23862 0.12852
#
# Static dielectric constant tensor:
#      x y z
#    x 1.650700 0.000000 0.000000 
#    y 0.000000 1.626420 0.000000 
#    z 0.000000 0.000000 1.629110 
# 
# From -- ./inp_files/36071.got.cif
#   From: 2010.05.17/outbox.cif.g08.bks.cpg/sg51_19_cif.got.tgz:36071.got - 2010.06.03 11:52:47.
