data_PCOD9406403
_publ_section_title
;
Structure prediction by ZEFSAII (Michael W. Deem and Ramdas Pophale) SiO2 
 PCOD9406403
Probable space group: P M M A
;
_chemical_formula_sum "Si O2"
_cell_formula_units_Z 48
_cell_length_a 8.684062
_cell_length_b 31.221908
_cell_length_c 9.314394
_cell_angle_alpha 90.000000
_cell_angle_beta 90.000000
_cell_angle_gamma 90.000000
_cell_volume 2525.439447
_symmetry_space_group_name_H-M "P M M A"
_symmetry_group_IT_number 51
_symmetry_cell_setting 'orthorhombic'
loop_
_space_group_symop_operation_xyz
x,y,z
1/2-x,-y,z
1/2+x,-y,-z
-x,y,-z
-x,-y,-z
1/2+x,y,-z
1/2-x,y,z
x,-y,z
loop_
_atom_site_type_symbol
_atom_site_label
_atom_site_fract_x
_atom_site_fract_y
_atom_site_fract_z
Si Si1 0.565528 0.290187 0.839206
Si Si2 0.434034 0.874231 0.841607
Si Si3 0.935143 0.210348 0.339292
Si Si4 0.064474 0.451456 0.842039
Si Si5 0.935555 0.630345 0.340069
Si Si6 0.434395 0.950570 0.342057
O O1 0.750000 0.290820 0.842776
O O2 0.506591 0.249261 0.750485
O O3 0.502496 0.332262 0.759439
O O4 0.500000 0.288414 0.000000
O O5 0.250000 0.876970 0.849009
O O6 0.474542 0.834120 0.739955
O O7 0.499709 0.917382 0.771846
O O8 0.500000 0.867459 0.000000
O O9 0.750000 0.214717 0.342444
O O10 0.000000 0.210559 0.500000
O O11 0.250000 0.451143 0.850196
O O12 0.014957 0.500000 0.804732
O O13 0.018484 0.415335 0.728790
O O14 0.000000 0.441337 0.000000
O O15 0.750000 0.633230 0.342071
O O16 0.000000 0.634745 0.500000
O O17 0.500000 0.940341 0.500000
O O18 0.250000 0.947536 0.346034
O O19 0.476662 0.000000 0.309717
#
# Coordination Sequence:
#
# PCOD9406403 Si02
#       6
#     8   8   8   8   8   8
#     4  12  25  42  64  89 119 154 194 240 291 347
#     4  11  24  40  61  88 120 157 197 243 293 348
#     4  11  24  42  64  91 121 155 195 239 291 347
#     4   9  19  36  58  84 114 150 193 240 291 347
#     4  11  23  39  59  85 119 156 196 242 292 346
#     4  10  21  38  61  88 119 156 198 244 294 349
#
# _framework density 19.006592000000001
#
# number of rings (size 3 to 8) (size 9 to 14) (size 15 to 20)
#    0.000    1.333    0.000    5.500    0.000    9.667 
#    0.000    0.000    0.000    0.000    0.000    0.000 
#    0.000    0.000    0.000    0.000    0.000    0.000 
#
# Total GULP energy -268486.387812 kJ/mol
# GULP energy per Si atom -5593.466413 kJ/mol
# Density = 1.896333 g / cm^3
# Si number density = 19.006592 Si / 1000 Ang^3
#
#
#
# Elastic Constant Matrix: (Units=GPa)
#
#
# Indices 1 2 3 4 5 6 
#
# 1 79.1021 58.7455 65.4601 0.0000 0.0000 0.0000
# 2 58.7455 124.6560 105.6778 0.0000 0.0000 0.0000
# 3 65.4601 105.6778 193.1181 0.0000 0.0000 0.0000
# 4 0.0000 0.0000 0.0000 42.5701 0.0000 0.0000
# 5 0.0000 0.0000 0.0000 0.0000 40.0511 0.0000
# 6 0.0000 0.0000 0.0000 0.0000 0.0000 116.8169
#
#
#
# Elastic Compliance Matrix: (Units=1/GPa)
#
#
# Indices 1 2 3 4 5 6 
#
# 1 0.020388 -0.006994 -0.003084 0.000000 0.000000 0.000000
# 2 -0.006994 0.017363 -0.007131 0.000000 0.000000 0.000000
# 3 -0.003084 -0.007131 0.010125 0.000000 0.000000 0.000000
# 4 0.000000 0.000000 0.000000 0.023491 0.000000 0.000000
# 5 0.000000 0.000000 0.000000 0.000000 0.024968 0.000000
# 6 0.000000 0.000000 0.000000 0.000000 0.000000 0.008560
#
#
# Mechanical properties :
#
#
# Convention : Reuss Voigt Hill
#
# Bulk Modulus (GPa) = 74.29421 95.18255 84.73838
# Shear Modulus (GPa) = 34.77090 51.02048 42.89569
#
# Velocity S-wave (km/s) = 4.28180 5.18670 4.75582
# Velocity P-wave (km/s) = 7.97613 9.27667 8.65087
#
# Compressibility (1/GPa) = 0.01346000
#
# Stress axis : x y z
#
# Youngs Moduli (GPa) = 49.04937 57.59315 98.76069
#
# Poissons Ratio (x) = 0.40280 0.30453
# Poissons Ratio (y) = 0.34304 0.70424
# Poissons Ratio (z) = 0.15124 0.41069
#
# Static dielectric constant tensor:
#      x y z
#    x 1.637390 0.000000 0.000000 
#    y 0.000000 1.653190 0.000000 
#    z 0.000000 0.000000 1.611370 
# 
# From -- ./inp_files/6024.got.cif
#   From: 2010.05.17/outbox.cif.g08.bks.cpg/sg51_4_cif.got.tgz:6024.got - 2010.06.03 11:52:47.
