data_PCOD9406582
_publ_section_title
;
Structure prediction by ZEFSAII (Michael W. Deem and Ramdas Pophale) SiO2 
 PCOD9406582
Probable space group: P M M A
;
_chemical_formula_sum "Si O2"
_cell_formula_units_Z 48
_cell_length_a 16.814336
_cell_length_b 9.332918
_cell_length_c 14.337886
_cell_angle_alpha 90.000000
_cell_angle_beta 90.000000
_cell_angle_gamma 90.000000
_cell_volume 2249.998843
_symmetry_space_group_name_H-M "P M M A"
_symmetry_group_IT_number 51
_symmetry_cell_setting 'orthorhombic'
loop_
_space_group_symop_operation_xyz
x,y,z
1/2-x,-y,z
1/2+x,-y,-z
-x,y,-z
-x,-y,-z
1/2+x,y,-z
1/2-x,y,z
x,-y,z
loop_
_atom_site_type_symbol
_atom_site_label
_atom_site_fract_x
_atom_site_fract_y
_atom_site_fract_z
Si Si1 0.840436 0.833893 0.272620
Si Si2 0.996681 0.331578 0.281805
Si Si3 0.250000 0.169180 0.444902
Si Si4 0.250000 0.829432 0.219287
Si Si5 0.421536 0.172256 0.440356
Si Si6 0.604666 0.669194 0.882313
Si Si7 0.156717 0.162546 0.951980
O O1 0.750000 0.796386 0.299624
O O2 0.911421 0.734683 0.305507
O O3 0.845388 0.826263 0.159695
O O4 0.854460 0.000000 0.300380
O O5 0.998186 0.500000 0.300569
O O6 0.061500 0.250406 0.343695
O O7 0.023271 0.308122 0.174779
O O8 0.250000 0.186941 0.331989
O O9 0.335963 0.222288 0.479267
O O10 0.250000 0.000000 0.466363
O O11 0.326598 0.755102 0.172851
O O12 0.250000 0.000000 0.200530
O O13 0.500000 0.202930 0.500000
O O14 0.417645 0.000000 0.427031
O O15 0.622214 0.500000 0.880695
O O16 0.606492 0.727898 0.987105
O O17 0.250000 0.182410 0.976887
O O18 0.133629 0.000000 0.976883
#
# Coordination Sequence:
#
# PCOD9406582 Si02
#       7
#     8   8   4   4   8   8   8
#     4   9  20  40  62  82 108 149 204 252 291 342
#     4  11  24  39  57  84 121 155 189 237 294 359
#     4   9  18  35  61  91 116 149 192 237 295 350
#     4  11  19  31  55  81 112 151 194 241 285 344
#     4  10  21  40  65  91 121 154 195 246 294 348
#     4  11  22  33  50  82 119 154 193 237 290 350
#     4   9  18  33  54  80 110 149 198 248 292 339
#
# _framework density 21.333345000000001
#
# number of rings (size 3 to 8) (size 9 to 14) (size 15 to 20)
#    0.000    2.000    2.500    2.250    0.000    4.000 
#    1.500    5.417    0.000    0.000    0.000    0.000 
#    0.000    0.000    0.000    0.000    0.000    0.000 
#
# Total GULP energy -268097.880416 kJ/mol
# GULP energy per Si atom -5585.372509 kJ/mol
# Density = 2.128479 g / cm^3
# Si number density = 21.333345 Si / 1000 Ang^3
#
#
#
# Elastic Constant Matrix: (Units=GPa)
#
#
# Indices 1 2 3 4 5 6 
#
# 1 126.1217 26.5151 22.4587 0.0000 0.0000 0.0000
# 2 26.5151 25.5936 22.9540 0.0000 0.0000 0.0000
# 3 22.4587 22.9540 38.0760 0.0000 0.0000 0.0000
# 4 0.0000 0.0000 0.0000 -50.4184 0.0000 0.0000
# 5 0.0000 0.0000 0.0000 0.0000 28.9701 0.0000
# 6 0.0000 0.0000 0.0000 0.0000 0.0000 11.4526
#
#
#
# Elastic Compliance Matrix: (Units=1/GPa)
#
#
# Indices 1 2 3 4 5 6 
#
# 1 0.010147 -0.011200 0.000767 0.000000 0.000000 0.000000
# 2 -0.011200 0.097427 -0.052127 0.000000 0.000000 0.000000
# 3 0.000767 -0.052127 0.057236 0.000000 0.000000 0.000000
# 4 0.000000 0.000000 0.000000 -0.019834 0.000000 0.000000
# 5 0.000000 0.000000 0.000000 0.000000 0.034518 0.000000
# 6 0.000000 0.000000 0.000000 0.000000 0.000000 0.087317
#
#
# Mechanical properties :
#
#
# Convention : Reuss Voigt Hill
#
# Bulk Modulus (GPa) = 25.19620 37.07189 31.13404
# Shear Modulus (GPa) = 12.34080 5.85842 9.09961
#
# Velocity S-wave (km/s) = 2.40776 1.65894 2.06753
# Velocity P-wave (km/s) = 4.42336 4.59180 4.50837
#
# Compressibility (1/GPa) = 0.03968852
#
# Stress axis : x y z
#
# Youngs Moduli (GPa) = 98.55198 10.26414 17.47167
#
# Poissons Ratio (x) = 0.11496 -0.01340
# Poissons Ratio (y) = 1.10379 0.91075
# Poissons Ratio (z) = -0.07558 0.53504
#
# Static dielectric constant tensor:
#      x y z
#    x 1.789560 0.000000 0.000000 
#    y 0.000000 1.699440 0.000000 
#    z 0.000000 0.000000 1.835190 
# 
# From -- ./inp_files/29637.got.cif
#   From: 2010.05.17/outbox.cif.g08.bks.cpg/sg51_15_cif.got.tgz:29637.got - 2010.06.03 11:52:47.
