data_PCOD9406939
_publ_section_title
;
Structure prediction by ZEFSAII (Michael W. Deem and Ramdas Pophale) SiO2 
 PCOD9406939
Probable space group: P M M A
;
_chemical_formula_sum "Si O2"
_cell_formula_units_Z 48
_cell_length_a 13.945002
_cell_length_b 18.966985
_cell_length_c 7.218146
_cell_angle_alpha 90.000000
_cell_angle_beta 90.000000
_cell_angle_gamma 90.000000
_cell_volume 1909.160955
_symmetry_space_group_name_H-M "P M M A"
_symmetry_group_IT_number 51
_symmetry_cell_setting 'orthorhombic'
loop_
_space_group_symop_operation_xyz
x,y,z
1/2-x,-y,z
1/2+x,-y,-z
-x,y,-z
-x,-y,-z
1/2+x,y,-z
1/2-x,y,z
x,-y,z
loop_
_atom_site_type_symbol
_atom_site_label
_atom_site_fract_x
_atom_site_fract_y
_atom_site_fract_z
Si Si1 0.359104 0.577395 0.848641
Si Si2 0.645849 0.799795 0.863365
Si Si3 0.359288 0.186987 0.691109
Si Si4 0.019678 0.919262 0.224263
Si Si5 0.858330 0.580738 0.599439
Si Si6 0.013370 0.309667 0.749303
O O1 0.250000 0.584246 0.912803
O O2 0.394654 0.500000 0.905183
O O3 0.358004 0.578473 0.624103
O O4 0.419586 0.646130 0.890260
O O5 0.750000 0.774565 0.802403
O O6 0.616065 0.872862 0.765198
O O7 0.558411 0.749411 0.819153
O O8 0.648428 0.807474 0.084888
O O9 0.250000 0.179667 0.622124
O O10 0.432858 0.121676 0.672068
O O11 0.410334 0.260854 0.632181
O O12 0.028389 0.000000 0.281423
O O13 0.000000 0.918902 0.000000
O O14 0.750000 0.601088 0.655805
O O15 0.875526 0.500000 0.660948
O O16 0.942476 0.630997 0.666681
#
# Coordination Sequence:
#
# PCOD9406939 Si02
#       6
#     8   8   8   8   8   8
#     4   9  18  31  46  66  89 109 133 171 220 268
#     4   9  18  30  42  60  88 119 148 177 208 243
#     4   9  18  30  42  60  88 119 148 177 208 243
#     4   8  14  25  42  63  84 109 143 178 211 248
#     4   9  18  31  46  66  89 109 133 171 220 268
#     4  11  17  26  45  65  84 113 147 174 206 253
#
# _framework density 25.141936999999999
#
# number of rings (size 3 to 8) (size 9 to 14) (size 15 to 20)
#    0.000    2.833    0.000    4.500    0.000    2.000 
#    0.000    3.333    0.000    8.000    0.000   18.667 
#    0.000   42.667    0.000  112.000    0.000    5.333 
#
# Total GULP energy -268431.088610 kJ/mol
# GULP energy per Si atom -5592.314346 kJ/mol
# Density = 2.508471 g / cm^3
# Si number density = 25.141937 Si / 1000 Ang^3
#
#
#
# Elastic Constant Matrix: (Units=GPa)
#
#
# Indices 1 2 3 4 5 6 
#
# 1 182.9270 82.1604 5.5301 0.0000 0.0000 0.0000
# 2 82.1604 190.8970 -4.6938 0.0000 0.0000 0.0000
# 3 5.5301 -4.6938 81.5041 0.0000 0.0000 0.0000
# 4 0.0000 0.0000 0.0000 21.3352 0.0000 0.0000
# 5 0.0000 0.0000 0.0000 0.0000 24.2171 0.0000
# 6 0.0000 0.0000 0.0000 0.0000 0.0000 17.3288
#
#
#
# Elastic Compliance Matrix: (Units=1/GPa)
#
#
# Indices 1 2 3 4 5 6 
#
# 1 0.006809 -0.002946 -0.000632 0.000000 0.000000 0.000000
# 2 -0.002946 0.006521 0.000575 0.000000 0.000000 0.000000
# 3 -0.000632 0.000575 0.012345 0.000000 0.000000 0.000000
# 4 0.000000 0.000000 0.000000 0.046871 0.000000 0.000000
# 5 0.000000 0.000000 0.000000 0.000000 0.041293 0.000000
# 6 0.000000 0.000000 0.000000 0.000000 0.000000 0.057707
#
#
# Mechanical properties :
#
#
# Convention : Reuss Voigt Hill
#
# Bulk Modulus (GPa) = 50.83828 69.03572 59.93700
# Shear Modulus (GPa) = 27.15805 37.39832 32.27819
#
# Velocity S-wave (km/s) = 3.29019 3.86098 3.58696
# Velocity P-wave (km/s) = 5.89052 6.88435 6.40673
#
# Compressibility (1/GPa) = 0.01967022
#
# Stress axis : x y z
#
# Youngs Moduli (GPa) = 146.86551 153.36187 81.00234
#
# Poissons Ratio (x) = 0.45181 0.05117
# Poissons Ratio (y) = 0.43267 -0.04661
# Poissons Ratio (z) = 0.09277 -0.08825
#
# Static dielectric constant tensor:
#      x y z
#    x 1.957740 0.000000 0.000000 
#    y 0.000000 1.953790 0.000000 
#    z 0.000000 0.000000 2.173760 
# 
# From -- ./inp_files/16704.got.cif
#   From: 2010.05.17/outbox.cif.g08.bks.cpg/sg51_9_cif.got.tgz:16704.got - 2010.06.03 11:52:47.
