data_PCOD9406059
_publ_section_title
;
Structure prediction by ZEFSAII (Michael W. Deem and Ramdas Pophale) SiO2 
 PCOD9406059
Probable space group: P M M A
;
_chemical_formula_sum "Si O2"
_cell_formula_units_Z 64
_cell_length_a 14.575610
_cell_length_b 8.834675
_cell_length_c 27.041812
_cell_angle_alpha 90.000000
_cell_angle_beta 90.000000
_cell_angle_gamma 90.000000
_cell_volume 3482.195150
_symmetry_space_group_name_H-M "P M M A"
_symmetry_group_IT_number 51
_symmetry_cell_setting 'orthorhombic'
loop_
_space_group_symop_operation_xyz
x,y,z
1/2-x,-y,z
1/2+x,-y,-z
-x,y,-z
-x,-y,-z
1/2+x,y,-z
1/2-x,y,z
x,-y,z
loop_
_atom_site_type_symbol
_atom_site_label
_atom_site_fract_x
_atom_site_fract_y
_atom_site_fract_z
Si Si1 0.004572 0.682955 0.557379
Si Si2 0.142652 0.818769 0.633914
Si Si3 0.861442 0.826297 0.992878
Si Si4 0.645688 0.683678 0.636737
Si Si5 0.359568 0.677217 0.110270
Si Si6 0.140351 0.320656 0.903429
Si Si7 0.008215 0.179572 0.822670
Si Si8 0.491431 0.682007 0.713892
O O1 0.013106 0.500000 0.560638
O O2 0.089606 0.756996 0.585879
O O3 0.000000 0.724949 0.500000
O O4 0.913417 0.726747 0.588360
O O5 0.250000 0.780955 0.632729
O O6 0.091783 0.743470 0.680539
O O7 0.132992 0.000000 0.636759
O O8 0.750000 0.825886 0.993587
O O9 0.890133 0.753584 0.044703
O O10 0.891591 0.000000 0.988594
O O11 0.887606 0.732235 0.944454
O O12 0.750000 0.740255 0.637263
O O13 0.649476 0.500000 0.636789
O O14 0.584256 0.726929 0.684163
O O15 0.250000 0.696659 0.114810
O O16 0.380875 0.500000 0.116231
O O17 0.413980 0.772541 0.150549
O O18 0.250000 0.297457 0.898550
O O19 0.123248 0.500000 0.904977
O O20 0.087144 0.246829 0.858001
O O21 0.011767 0.250816 0.768396
O O22 0.016609 0.000000 0.819926
O O23 0.487978 0.500000 0.715689
#
# Coordination Sequence:
#
# PCOD9406059 Si02
#       8
#     8   8   8   8   8   8   8   8
#     4   9  18  32  53  84 119 153 189 230 273 319
#     4  10  21  37  57  81 111 150 192 232 279 331
#     4   9  17  32  55  82 112 143 176 219 273 330
#     4   8  15  30  53  79 106 139 180 224 269 317
#     4  10  21  38  59  82 110 145 185 227 271 325
#     4  10  21  38  59  82 109 142 181 223 269 328
#     4  12  25  39  57  82 112 143 179 227 283 339
#     4  10  21  38  58  79 105 139 183 233 282 331
#
# _framework density 18.37921
#
# number of rings (size 3 to 8) (size 9 to 14) (size 15 to 20)
#    0.000    2.250    0.000    3.750    0.000    6.250 
#    0.000    5.000    0.000    9.000    0.000    0.000 
#    0.000    0.000    0.000    0.000    0.000    0.000 
#
# Total GULP energy -357407.224114 kJ/mol
# GULP energy per Si atom -5584.487877 kJ/mol
# Density = 1.833738 g / cm^3
# Si number density = 18.379210 Si / 1000 Ang^3
#
#
#
# Elastic Constant Matrix: (Units=GPa)
#
#
# Indices 1 2 3 4 5 6 
#
# 1 90.2755 22.6218 32.1520 0.0000 0.0000 0.0000
# 2 22.6218 63.1519 33.0969 0.0000 0.0000 0.0000
# 3 32.1520 33.0969 141.2908 0.0000 0.0000 0.0000
# 4 0.0000 0.0000 0.0000 -95.4110 0.0000 0.0000
# 5 0.0000 0.0000 0.0000 0.0000 8.5577 0.0000
# 6 0.0000 0.0000 0.0000 0.0000 0.0000 23.2155
#
#
#
# Elastic Compliance Matrix: (Units=1/GPa)
#
#
# Indices 1 2 3 4 5 6 
#
# 1 0.012683 -0.003455 -0.002077 0.000000 0.000000 0.000000
# 2 -0.003455 0.018992 -0.003663 0.000000 0.000000 0.000000
# 3 -0.002077 -0.003663 0.008408 0.000000 0.000000 0.000000
# 4 0.000000 0.000000 0.000000 -0.010481 0.000000 0.000000
# 5 0.000000 0.000000 0.000000 0.000000 0.116854 0.000000
# 6 0.000000 0.000000 0.000000 0.000000 0.000000 0.043075
#
#
# Mechanical properties :
#
#
# Convention : Reuss Voigt Hill
#
# Bulk Modulus (GPa) = 46.09480 52.27329 49.18405
# Shear Modulus (GPa) = 23.23956 1.06226 12.15091
#
# Velocity S-wave (km/s) = 3.55977 0.76107 2.57402
# Velocity P-wave (km/s) = 6.48307 5.41069 5.97100
#
# Compressibility (1/GPa) = 0.02169442
#
# Stress axis : x y z
#
# Youngs Moduli (GPa) = 78.84854 52.65411 118.93213
#
# Poissons Ratio (x) = 0.18190 0.24700
# Poissons Ratio (y) = 0.27239 0.43561
# Poissons Ratio (z) = 0.16375 0.19285
#
# Static dielectric constant tensor:
#      x y z
#    x 1.648910 0.000000 0.000000 
#    y 0.000000 1.612790 0.000000 
#    z 0.000000 0.000000 1.596390 
# 
# From -- ./inp_files/35830.got.cif
#   From: 2010.05.17/outbox.cif.g08.bks.cpg/sg51_18_cif.got.tgz:35830.got - 2010.06.03 11:52:47.
