data_PCOD9406792
_publ_section_title
;
Structure prediction by ZEFSAII (Michael W. Deem and Ramdas Pophale) SiO2 
 PCOD9406792
Probable space group: P M M A
;
_chemical_formula_sum "Si O2"
_cell_formula_units_Z 56
_cell_length_a 16.064338
_cell_length_b 8.543884
_cell_length_c 20.251878
_cell_angle_alpha 90.000000
_cell_angle_beta 90.000000
_cell_angle_gamma 90.000000
_cell_volume 2779.607527
_symmetry_space_group_name_H-M "P M M A"
_symmetry_group_IT_number 51
_symmetry_cell_setting 'orthorhombic'
loop_
_space_group_symop_operation_xyz
x,y,z
1/2-x,-y,z
1/2+x,-y,-z
-x,y,-z
-x,-y,-z
1/2+x,y,-z
1/2-x,y,z
x,-y,z
loop_
_atom_site_type_symbol
_atom_site_label
_atom_site_fract_x
_atom_site_fract_y
_atom_site_fract_z
Si Si1 0.878279 0.679620 0.275760
Si Si2 0.499312 0.684137 0.078949
Si Si3 0.750000 0.679473 0.507972
Si Si4 0.056941 0.811921 0.294576
Si Si5 0.750000 0.177291 0.371096
Si Si6 0.572390 0.188271 0.551317
Si Si7 0.838922 0.819996 0.141651
Si Si8 0.654984 0.689058 0.827315
O O1 0.870044 0.500000 0.296416
O O2 0.830645 0.790734 0.326777
O O3 0.839512 0.707935 0.204532
O O4 0.973272 0.730578 0.269347
O O5 0.512073 0.500000 0.095543
O O6 0.578686 0.781242 0.102238
O O7 0.414923 0.733419 0.117748
O O8 0.500000 0.696578 0.000000
O O9 0.750000 0.500000 0.528864
O O10 0.750000 0.699735 0.429544
O O11 0.835651 0.758402 0.530911
O O12 0.062461 0.765280 0.371836
O O13 0.128412 0.757463 0.244050
O O14 0.050461 0.000000 0.291668
O O15 0.750000 0.000000 0.396819
O O16 0.500000 0.244843 0.500000
O O17 0.569016 0.000000 0.549243
O O18 0.750000 0.800848 0.105740
O O19 0.843059 0.000000 0.165129
O O20 0.750000 0.735846 0.843955
O O21 0.653288 0.500000 0.822897
#
# Coordination Sequence:
#
# PCOD9406792 Si02
#       8
#     8   8   4   8   4   8   8   8
#     4  12  23  37  61  93 127 163 208 261 319 379
#     4  10  22  41  66  95 128 170 217 263 317 381
#     4  12  26  42  64  94 128 167 212 265 324 384
#     4  11  23  39  64  93 123 164 215 268 322 382
#     4  12  24  40  62  90 128 169 210 259 318 386
#     4  10  23  44  66  89 123 170 218 266 321 383
#     4  11  23  39  61  92 130 169 209 256 312 375
#     4  10  22  40  62  91 128 168 211 266 325 382
#
# _framework density 20.146729000000001
#
# number of rings (size 3 to 8) (size 9 to 14) (size 15 to 20)
#    0.000    1.143    2.143    4.286    1.000    4.571 
#    0.000    1.429    0.000    0.000    0.000    0.000 
#    0.000    0.000    0.000    0.000    0.000    0.000 
#
# Total GULP energy -312711.439878 kJ/mol
# GULP energy per Si atom -5584.132855 kJ/mol
# Density = 2.010087 g / cm^3
# Si number density = 20.146729 Si / 1000 Ang^3
#
#
#
# Elastic Constant Matrix: (Units=GPa)
#
#
# Indices 1 2 3 4 5 6 
#
# 1 167.0071 31.8233 49.9102 0.0000 0.0000 0.0000
# 2 31.8233 31.2052 23.7458 0.0000 0.0000 0.0000
# 3 49.9102 23.7458 75.2022 0.0000 0.0000 0.0000
# 4 0.0000 0.0000 0.0000 26.7070 0.0000 0.0000
# 5 0.0000 0.0000 0.0000 0.0000 10.7220 0.0000
# 6 0.0000 0.0000 0.0000 0.0000 0.0000 307.2635
#
#
#
# Elastic Compliance Matrix: (Units=1/GPa)
#
#
# Indices 1 2 3 4 5 6 
#
# 1 0.008130 -0.005509 -0.003656 0.000000 0.000000 0.000000
# 2 -0.005509 0.045914 -0.010842 0.000000 0.000000 0.000000
# 3 -0.003656 -0.010842 0.019147 0.000000 0.000000 0.000000
# 4 0.000000 0.000000 0.000000 0.037443 0.000000 0.000000
# 5 0.000000 0.000000 0.000000 0.000000 0.093266 0.000000
# 6 0.000000 0.000000 0.000000 0.000000 0.000000 0.003255
#
#
# Mechanical properties :
#
#
# Convention : Reuss Voigt Hill
#
# Bulk Modulus (GPa) = 30.14056 53.81925 41.97991
# Shear Modulus (GPa) = 19.36266 80.13417 49.74841
#
# Velocity S-wave (km/s) = 3.10350 6.31361 4.97460
# Velocity P-wave (km/s) = 5.27591 8.93982 7.34015
#
# Compressibility (1/GPa) = 0.03317788
#
# Stress axis : x y z
#
# Youngs Moduli (GPa) = 122.99806 21.77984 52.22618
#
# Poissons Ratio (x) = 0.11998 0.19096
# Poissons Ratio (y) = 0.67759 0.56622
# Poissons Ratio (z) = 0.44973 0.23613
#
# Static dielectric constant tensor:
#      x y z
#    x 1.846270 0.000000 0.000000 
#    y 0.000000 1.693970 0.000000 
#    z 0.000000 0.000000 1.732190 
# 
# From -- ./inp_files/33613.got.cif
#   From: 2010.05.17/outbox.cif.g08.bks.cpg/sg51_17_cif.got.tgz:33613.got - 2010.06.03 11:52:47.
