data_PCOD9406142
_publ_section_title
;
Structure prediction by ZEFSAII (Michael W. Deem and Ramdas Pophale) SiO2 
 PCOD9406142
Probable space group: P M M A
;
_chemical_formula_sum "Si O2"
_cell_formula_units_Z 64
_cell_length_a 24.180309
_cell_length_b 9.015230
_cell_length_c 15.079406
_cell_angle_alpha 90.000000
_cell_angle_beta 90.000000
_cell_angle_gamma 90.000000
_cell_volume 3287.175504
_symmetry_space_group_name_H-M "P M M A"
_symmetry_group_IT_number 51
_symmetry_cell_setting 'orthorhombic'
loop_
_space_group_symop_operation_xyz
x,y,z
1/2-x,-y,z
1/2+x,-y,-z
-x,y,-z
-x,-y,-z
1/2+x,y,-z
1/2-x,y,z
x,-y,z
loop_
_atom_site_type_symbol
_atom_site_label
_atom_site_fract_x
_atom_site_fract_y
_atom_site_fract_z
Si Si1 0.813005 0.324587 0.698922
Si Si2 0.610505 0.177328 0.845370
Si Si3 0.002169 0.677231 0.895464
Si Si4 0.186165 0.822038 0.985662
Si Si5 0.983601 0.668121 0.603959
Si Si6 0.904592 0.823088 0.350481
Si Si7 0.375238 0.322480 0.824368
Si Si8 0.873117 0.175815 0.553052
O O1 0.750000 0.296418 0.726335
O O2 0.823101 0.500000 0.699489
O O3 0.854280 0.243879 0.765492
O O4 0.823837 0.260515 0.601101
O O5 0.548868 0.242009 0.848899
O O6 0.608625 0.000000 0.839016
O O7 0.643983 0.218199 0.935319
O O8 0.994803 0.500000 0.886653
O O9 0.062619 0.715303 0.858394
O O10 0.000000 0.714395 0.000000
O O11 0.250000 0.786564 0.008170
O O12 0.166936 0.740492 0.896723
O O13 0.182506 0.000000 0.973167
O O14 0.974955 0.500000 0.637159
O O15 0.928351 0.764440 0.601882
O O16 0.000000 0.658443 0.500000
O O17 0.034919 0.746833 0.651052
O O18 0.869483 0.753076 0.271330
O O19 0.879899 0.793303 0.448416
O O20 0.909932 0.000000 0.340600
O O21 0.371040 0.500000 0.817932
O O22 0.868449 0.000000 0.564752
#
# Coordination Sequence:
#
# PCOD9406142 Si02
#       8
#     8   8   8   8   8   8   8   8
#     4  11  25  43  63  88 120 159 203 254 309 366
#     4  11  23  39  64  93 123 159 201 248 301 365
#     4  10  21  39  60  87 127 165 200 247 304 363
#     4  10  22  41  63  87 118 156 199 250 302 355
#     4   9  17  31  53  81 113 149 188 234 287 346
#     4  10  21  37  58  85 120 158 198 245 300 357
#     4  11  23  38  60  89 123 164 206 251 302 358
#     4  10  21  38  60  85 114 152 197 247 300 355
#
# _framework density 19.469602999999999
#
# number of rings (size 3 to 8) (size 9 to 14) (size 15 to 20)
#    0.000    1.750    1.250    2.625    1.750    6.500 
#    0.000    0.625    0.000    0.750    0.000    0.000 
#    0.000    0.000    0.000    0.000    0.000    0.000 
#
# Total GULP energy -357718.832938 kJ/mol
# GULP energy per Si atom -5589.356765 kJ/mol
# Density = 1.942529 g / cm^3
# Si number density = 19.469603 Si / 1000 Ang^3
#
#
#
# Elastic Constant Matrix: (Units=GPa)
#
#
# Indices 1 2 3 4 5 6 
#
# 1 57.0871 19.0665 6.9252 0.0000 0.0000 0.0000
# 2 19.0665 33.3995 20.3866 0.0000 0.0000 0.0000
# 3 6.9252 20.3866 70.3670 0.0000 0.0000 0.0000
# 4 0.0000 0.0000 0.0000 29.9613 0.0000 0.0000
# 5 0.0000 0.0000 0.0000 0.0000 23.0423 0.0000
# 6 0.0000 0.0000 0.0000 0.0000 0.0000 22.3095
#
#
#
# Elastic Compliance Matrix: (Units=1/GPa)
#
#
# Indices 1 2 3 4 5 6 
#
# 1 0.021825 -0.013543 0.001776 0.000000 0.000000 0.000000
# 2 -0.013543 0.044776 -0.011640 0.000000 0.000000 0.000000
# 3 0.001776 -0.011640 0.017409 0.000000 0.000000 0.000000
# 4 0.000000 0.000000 0.000000 0.033376 0.000000 0.000000
# 5 0.000000 0.000000 0.000000 0.000000 0.043399 0.000000
# 6 0.000000 0.000000 0.000000 0.000000 0.000000 0.044824
#
#
# Mechanical properties :
#
#
# Convention : Reuss Voigt Hill
#
# Bulk Modulus (GPa) = 26.88446 28.17892 27.53169
# Shear Modulus (GPa) = 18.88068 22.69430 20.78749
#
# Velocity S-wave (km/s) = 3.11746 3.41783 3.27110
# Velocity P-wave (km/s) = 5.17653 5.48454 5.33276
#
# Compressibility (1/GPa) = 0.03719621
#
# Stress axis : x y z
#
# Youngs Moduli (GPa) = 45.81939 22.33325 57.44259
#
# Poissons Ratio (x) = 0.30245 -0.10200
# Poissons Ratio (y) = 0.62052 0.66861
# Poissons Ratio (z) = -0.08136 0.25995
#
# Static dielectric constant tensor:
#      x y z
#    x 1.664810 0.000000 0.000000 
#    y 0.000000 1.643310 0.000000 
#    z 0.000000 0.000000 1.698900 
# 
# From -- ./inp_files/26215.got.cif
#   From: 2010.05.17/outbox.cif.g08.bks.cpg/sg51_14_cif.got.tgz:26215.got - 2010.06.03 11:52:47.
