data_PCOD9406749
_publ_section_title
;
Structure prediction by ZEFSAII (Michael W. Deem and Ramdas Pophale) SiO2 
 PCOD9406749
Probable space group: P M M A
;
_chemical_formula_sum "Si O2"
_cell_formula_units_Z 40
_cell_length_a 14.227922
_cell_length_b 14.224285
_cell_length_c 9.592259
_cell_angle_alpha 90.000000
_cell_angle_beta 90.000000
_cell_angle_gamma 90.000000
_cell_volume 1941.300729
_symmetry_space_group_name_H-M "P M M A"
_symmetry_group_IT_number 51
_symmetry_cell_setting 'orthorhombic'
loop_
_space_group_symop_operation_xyz
x,y,z
1/2-x,-y,z
1/2+x,-y,-z
-x,y,-z
-x,-y,-z
1/2+x,y,-z
1/2-x,y,z
x,-y,z
loop_
_atom_site_type_symbol
_atom_site_label
_atom_site_fract_x
_atom_site_fract_y
_atom_site_fract_z
Si Si1 0.466497 0.888362 0.273666
Si Si2 0.639687 0.265340 0.859568
Si Si3 0.974637 0.610726 0.654957
Si Si4 0.857968 0.391779 0.128435
Si Si5 0.355491 0.113680 0.562335
O O1 0.421780 0.828423 0.151307
O O2 0.570213 0.855369 0.320587
O O3 0.400997 0.871101 0.410354
O O4 0.467534 0.000000 0.247643
O O5 0.750000 0.244202 0.849119
O O6 0.605645 0.330474 0.731503
O O7 0.622896 0.322757 0.000741
O O8 0.949359 0.500000 0.648207
O O9 0.000000 0.643518 0.500000
O O10 0.067319 0.620096 0.749820
O O11 0.750000 0.378628 0.175130
O O12 0.866469 0.500000 0.077469
O O13 0.250000 0.151423 0.573948
O O14 0.351356 0.000000 0.575610
#
# Coordination Sequence:
#
# PCOD9406749 Si02
#       5
#     8   8   8   8   8
#     4   9  18  31  49  79 117 156 203 253 300 354
#     4  11  22  34  55  86 119 159 202 242 292 357
#     4  10  22  39  61  89 118 148 189 246 303 354
#     4   9  19  39  65  89 116 153 194 237 293 361
#     4   8  14  27  48  72 105 153 203 252 307 359
#
# _framework density 20.604742999999999
#
# number of rings (size 3 to 8) (size 9 to 14) (size 15 to 20)
#    0.000    2.600    0.000    3.000    2.800    4.800 
#    0.000    3.000    0.000    3.600    0.000    0.000 
#    0.000    3.200    0.000    0.000    0.000    0.000 
#
# Total GULP energy -223539.771834 kJ/mol
# GULP energy per Si atom -5588.494296 kJ/mol
# Density = 2.055785 g / cm^3
# Si number density = 20.604743 Si / 1000 Ang^3
#
#
#
# Elastic Constant Matrix: (Units=GPa)
#
#
# Indices 1 2 3 4 5 6 
#
# 1 133.0865 32.6221 31.6656 0.0000 0.0000 0.0000
# 2 32.6221 74.7137 22.2382 0.0000 0.0000 0.0000
# 3 31.6656 22.2382 57.9229 0.0000 0.0000 0.0000
# 4 0.0000 0.0000 0.0000 6.9226 0.0000 0.0000
# 5 0.0000 0.0000 0.0000 0.0000 6.7456 0.0000
# 6 0.0000 0.0000 0.0000 0.0000 0.0000 29.4250
#
#
#
# Elastic Compliance Matrix: (Units=1/GPa)
#
#
# Indices 1 2 3 4 5 6 
#
# 1 0.009137 -0.002826 -0.003910 0.000000 0.000000 0.000000
# 2 -0.002826 0.015985 -0.004592 0.000000 0.000000 0.000000
# 3 -0.003910 -0.004592 0.021165 0.000000 0.000000 0.000000
# 4 0.000000 0.000000 0.000000 0.144455 0.000000 0.000000
# 5 0.000000 0.000000 0.000000 0.000000 0.148244 0.000000
# 6 0.000000 0.000000 0.000000 0.000000 0.000000 0.033985
#
#
# Mechanical properties :
#
#
# Convention : Reuss Voigt Hill
#
# Bulk Modulus (GPa) = 42.31778 48.75278 45.53528
# Shear Modulus (GPa) = 12.39145 20.56512 16.47828
#
# Velocity S-wave (km/s) = 2.45498 3.16266 2.83102
# Velocity P-wave (km/s) = 5.34962 6.08678 5.73006
#
# Compressibility (1/GPa) = 0.02363073
#
# Stress axis : x y z
#
# Youngs Moduli (GPa) = 109.44658 62.55848 47.24758
#
# Poissons Ratio (x) = 0.17676 0.18475
# Poissons Ratio (y) = 0.30925 0.21698
# Poissons Ratio (z) = 0.42796 0.28729
#
# Static dielectric constant tensor:
#      x y z
#    x 1.737900 0.000000 0.000000 
#    y 0.000000 1.768670 0.000000 
#    z 0.000000 0.000000 1.707570 
# 
# From -- ./inp_files/7929.got.cif
#   From: 2010.05.17/outbox.cif.g08.bks.cpg/sg51_4_cif.got.tgz:7929.got - 2010.06.03 11:52:47.
