data_PCOD9406461
_publ_section_title
;
Structure prediction by ZEFSAII (Michael W. Deem and Ramdas Pophale) SiO2 
 PCOD9406461
Probable space group: P M M A
;
_chemical_formula_sum "Si O2"
_cell_formula_units_Z 26
_cell_length_a 14.969033
_cell_length_b 15.986617
_cell_length_c 4.977389
_cell_angle_alpha 90.000000
_cell_angle_beta 90.000000
_cell_angle_gamma 90.000000
_cell_volume 1191.110080
_symmetry_space_group_name_H-M "P M M A"
_symmetry_group_IT_number 51
_symmetry_cell_setting 'orthorhombic'
loop_
_space_group_symop_operation_xyz
x,y,z
1/2-x,-y,z
1/2+x,-y,-z
-x,y,-z
-x,-y,-z
1/2+x,y,-z
1/2-x,y,z
x,-y,z
loop_
_atom_site_type_symbol
_atom_site_label
_atom_site_fract_x
_atom_site_fract_y
_atom_site_fract_z
Si Si1 0.351240 0.258801 0.948955
Si Si2 0.064889 0.907740 0.747621
Si Si3 0.750000 0.500000 0.688992
Si Si4 0.901243 0.361457 0.570565
O O1 0.250000 0.259333 0.048868
O O2 0.371759 0.168528 0.823073
O O3 0.363681 0.323604 0.705939
O O4 0.410135 0.289252 0.201593
O O5 0.000000 0.888090 0.500000
O O6 0.106622 0.000000 0.699411
O O7 0.000000 0.914836 0.000000
O O8 0.829468 0.427714 0.677786
O O9 0.000000 0.394746 0.500000
#
# Coordination Sequence:
#
# PCOD9406461 Si02
#       4
#     8   8   2   8
#     4  12  23  43  66  99 136 175 226 279 331 409
#     4  10  21  38  63  95 132 174 222 269 321 390
#     4  12  26  50  68 104 130 166 234 294 340 424
#     4  12  26  45  71  96 134 179 220 282 351 411
#
# _framework density 21.828379000000002
#
# number of rings (size 3 to 8) (size 9 to 14) (size 15 to 20)
#    0.000    0.615    3.077    6.000    0.000    3.077 
#    0.000    3.077    0.000    9.231    0.000    0.000 
#    0.000    0.000    0.000    0.000    0.000    0.000 
#
# Total GULP energy -144785.797269 kJ/mol
# GULP energy per Si atom -5568.684510 kJ/mol
# Density = 2.177870 g / cm^3
# Si number density = 21.828379 Si / 1000 Ang^3
#
#
#
# Elastic Constant Matrix: (Units=GPa)
#
#
# Indices 1 2 3 4 5 6 
#
# 1 115.8973 50.0536 1.7158 0.0000 0.0000 0.0000
# 2 50.0536 124.3300 6.1246 0.0000 0.0000 0.0000
# 3 1.7158 6.1246 110.9441 0.0000 0.0000 0.0000
# 4 0.0000 0.0000 0.0000 -111.3076 0.0000 0.0000
# 5 0.0000 0.0000 0.0000 0.0000 23.7753 0.0000
# 6 0.0000 0.0000 0.0000 0.0000 0.0000 31.3714
#
#
#
# Elastic Compliance Matrix: (Units=1/GPa)
#
#
# Indices 1 2 3 4 5 6 
#
# 1 0.010445 -0.004208 0.000071 0.000000 0.000000 0.000000
# 2 -0.004208 0.009761 -0.000474 0.000000 0.000000 0.000000
# 3 0.000071 -0.000474 0.009039 0.000000 0.000000 0.000000
# 4 0.000000 0.000000 0.000000 -0.008984 0.000000 0.000000
# 5 0.000000 0.000000 0.000000 0.000000 0.042061 0.000000
# 6 0.000000 0.000000 0.000000 0.000000 0.000000 0.031876
#
#
# Mechanical properties :
#
#
# Convention : Reuss Voigt Hill
#
# Bulk Modulus (GPa) = 49.94670 51.88440 50.91555
# Shear Modulus (GPa) = 45.41604 8.31964 26.86784
#
# Velocity S-wave (km/s) = 4.56630 1.95440 3.51218
# Velocity P-wave (km/s) = 7.12269 5.37715 6.31056
#
# Compressibility (1/GPa) = 0.02002134
#
# Stress axis : x y z
#
# Youngs Moduli (GPa) = 95.74128 102.45160 110.63651
#
# Poissons Ratio (x) = 0.43116 -0.00783
# Poissons Ratio (y) = 0.40292 0.05241
# Poissons Ratio (z) = -0.00678 0.04854
#
# Static dielectric constant tensor:
#      x y z
#    x 1.796250 0.000000 0.000000 
#    y 0.000000 1.883240 0.000000 
#    z 0.000000 0.000000 1.745450 
# 
# From -- ./inp_files/1178.got.cif
#   From: 2010.05.17/outbox.cif.g08.bks.cpg/sg51_1_cif.got.tgz:1178.got - 2010.06.03 11:52:47.
