data_PCOD9406412
_publ_section_title
;
Structure prediction by ZEFSAII (Michael W. Deem and Ramdas Pophale) SiO2 
 PCOD9406412
Probable space group: P M M A
;
_chemical_formula_sum "Si O2"
_cell_formula_units_Z 48
_cell_length_a 19.429561
_cell_length_b 8.738287
_cell_length_c 15.442578
_cell_angle_alpha 90.000000
_cell_angle_beta 90.000000
_cell_angle_gamma 90.000000
_cell_volume 2621.857575
_symmetry_space_group_name_H-M "P M M A"
_symmetry_group_IT_number 51
_symmetry_cell_setting 'orthorhombic'
loop_
_space_group_symop_operation_xyz
x,y,z
1/2-x,-y,z
1/2+x,-y,-z
-x,y,-z
-x,-y,-z
1/2+x,y,-z
1/2-x,y,z
x,-y,z
loop_
_atom_site_type_symbol
_atom_site_label
_atom_site_fract_x
_atom_site_fract_y
_atom_site_fract_z
Si Si1 0.421976 0.683341 0.529669
Si Si2 0.329048 0.815378 0.876068
Si Si3 0.169415 0.816641 0.376049
Si Si4 0.077411 0.684286 0.026437
Si Si5 0.928117 0.184011 0.281319
Si Si6 0.423849 0.683926 0.226306
O O1 0.500000 0.721544 0.500000
O O2 0.416464 0.500000 0.532997
O O3 0.369944 0.749371 0.458955
O O4 0.409878 0.753184 0.624155
O O5 0.250000 0.763201 0.872375
O O6 0.372479 0.769659 0.791191
O O7 0.329239 0.000000 0.878872
O O8 0.368253 0.754178 0.960290
O O9 0.250000 0.777789 0.378105
O O10 0.132859 0.749298 0.291135
O O11 0.162322 0.000000 0.375961
O O12 0.080170 0.500000 0.019505
O O13 0.089777 0.725796 0.126396
O O14 0.000000 0.732573 0.000000
O O15 0.002096 0.250705 0.254170
O O16 0.931996 0.000000 0.283878
O O17 0.426040 0.500000 0.233172
#
# Coordination Sequence:
#
# PCOD9406412 Si02
#       6
#     8   8   8   8   8   8
#     4  11  23  39  63  93 123 158 201 249 299 359
#     4  10  23  41  60  88 125 160 198 248 302 356
#     4  11  25  43  63  90 124 160 200 249 303 359
#     4  10  21  38  61  89 121 157 202 250 298 355
#     4  11  22  37  62  91 121 159 204 251 300 357
#     4  11  22  38  62  90 121 158 203 252 300 358
#
# _framework density 18.30763
#
# number of rings (size 3 to 8) (size 9 to 14) (size 15 to 20)
#    0.000    1.333    3.333    2.000    0.000    6.000 
#    0.000    5.000    0.000    0.000    0.000    0.000 
#    0.000    0.000    0.000    0.000    0.000    0.000 
#
# Total GULP energy -268343.077026 kJ/mol
# GULP energy per Si atom -5590.480771 kJ/mol
# Density = 1.826596 g / cm^3
# Si number density = 18.307630 Si / 1000 Ang^3
#
#
#
# Elastic Constant Matrix: (Units=GPa)
#
#
# Indices 1 2 3 4 5 6 
#
# 1 181.2739 60.3261 117.3192 0.0000 0.0000 0.0000
# 2 60.3261 45.7671 61.4219 0.0000 0.0000 0.0000
# 3 117.3192 61.4219 214.8676 0.0000 0.0000 0.0000
# 4 0.0000 0.0000 0.0000 34.8637 0.0000 0.0000
# 5 0.0000 0.0000 0.0000 0.0000 33.8301 0.0000
# 6 0.0000 0.0000 0.0000 0.0000 0.0000 69.6714
#
#
#
# Elastic Compliance Matrix: (Units=1/GPa)
#
#
# Indices 1 2 3 4 5 6 
#
# 1 0.010896 -0.010348 -0.002991 0.000000 0.000000 0.000000
# 2 -0.010348 0.045276 -0.007293 0.000000 0.000000 0.000000
# 3 -0.002991 -0.007293 0.008372 0.000000 0.000000 0.000000
# 4 0.000000 0.000000 0.000000 0.028683 0.000000 0.000000
# 5 0.000000 0.000000 0.000000 0.000000 0.029559 0.000000
# 6 0.000000 0.000000 0.000000 0.000000 0.000000 0.014353
#
#
# Mechanical properties :
#
#
# Convention : Reuss Voigt Hill
#
# Bulk Modulus (GPa) = 42.95361 102.22700 72.59031
# Shear Modulus (GPa) = 26.85798 41.19579 34.02688
#
# Velocity S-wave (km/s) = 3.83435 4.74877 4.31585
# Velocity P-wave (km/s) = 6.56628 9.27510 8.03565
#
# Compressibility (1/GPa) = 0.02328093
#
# Stress axis : x y z
#
# Youngs Moduli (GPa) = 91.77591 22.08651 119.44505
#
# Poissons Ratio (x) = 0.22854 0.35730
# Poissons Ratio (y) = 0.94967 0.87109
# Poissons Ratio (z) = 0.27453 0.16107
#
# Static dielectric constant tensor:
#      x y z
#    x 1.601060 0.000000 0.000000 
#    y 0.000000 1.617590 0.000000 
#    z 0.000000 0.000000 1.603760 
# 
# From -- ./inp_files/24751.got.cif
#   From: 2010.05.17/outbox.cif.g08.bks.cpg/sg51_13_cif.got.tgz:24751.got - 2010.06.03 11:52:47.
