data_PCOD9406811
_publ_section_title
;
Structure prediction by ZEFSAII (Michael W. Deem and Ramdas Pophale) SiO2 
 PCOD9406811
Probable space group: P M M A
;
_chemical_formula_sum "Si O2"
_cell_formula_units_Z 48
_cell_length_a 17.925145
_cell_length_b 14.913100
_cell_length_c 9.351708
_cell_angle_alpha 90.000000
_cell_angle_beta 90.000000
_cell_angle_gamma 90.000000
_cell_volume 2499.893719
_symmetry_space_group_name_H-M "P M M A"
_symmetry_group_IT_number 51
_symmetry_cell_setting 'orthorhombic'
loop_
_space_group_symop_operation_xyz
x,y,z
1/2-x,-y,z
1/2+x,-y,-z
-x,y,-z
-x,-y,-z
1/2+x,y,-z
1/2-x,y,z
x,-y,z
loop_
_atom_site_type_symbol
_atom_site_label
_atom_site_fract_x
_atom_site_fract_y
_atom_site_fract_z
Si Si1 0.334288 0.231973 0.728758
Si Si2 0.080586 0.106037 0.938629
Si Si3 0.387755 0.603772 0.898770
Si Si4 0.918350 0.240267 0.563495
Si Si5 0.835916 0.105943 0.767943
Si Si6 0.941863 0.603835 0.787085
O O1 0.250000 0.196420 0.729665
O O2 0.338662 0.323765 0.818581
O O3 0.362469 0.249872 0.569143
O O4 0.390819 0.163407 0.806104
O O5 0.138478 0.118487 0.068495
O O6 0.075604 0.000000 0.904160
O O7 0.000000 0.134987 0.000000
O O8 0.364370 0.500000 0.883225
O O9 0.471067 0.611621 0.831462
O O10 0.396397 0.623934 0.067457
O O11 0.889268 0.161539 0.665296
O O12 0.923280 0.329089 0.660450
O O13 0.000000 0.221887 0.500000
O O14 0.750000 0.133567 0.749409
O O15 0.841974 0.000000 0.737527
O O16 0.928493 0.500000 0.748677
#
# Coordination Sequence:
#
# PCOD9406811 Si02
#       6
#     8   8   8   8   8   8
#     4  12  25  37  57  91 129 162 195 245 312 368
#     4  10  22  41  66  92 117 151 203 257 298 351
#     4   9  19  38  63  88 116 153 202 254 301 351
#     4  12  23  37  59  89 123 161 200 249 294 358
#     4  10  22  41  62  83 114 158 201 242 295 356
#     4   9  19  37  63  90 113 150 204 254 297 350
#
# _framework density 19.200814999999999
#
# number of rings (size 3 to 8) (size 9 to 14) (size 15 to 20)
#    0.000    1.667    1.667    4.000    2.333    3.333 
#    0.000    0.833    0.000    3.500    0.000    0.000 
#    0.000    0.000    0.000    0.000    0.000    0.000 
#
# Total GULP energy -268294.936662 kJ/mol
# GULP energy per Si atom -5589.477847 kJ/mol
# Density = 1.915711 g / cm^3
# Si number density = 19.200815 Si / 1000 Ang^3
#
#
#
# Elastic Constant Matrix: (Units=GPa)
#
#
# Indices 1 2 3 4 5 6 
#
# 1 51.7034 26.2974 32.2554 0.0000 0.0000 0.0000
# 2 26.2974 65.2023 60.2470 0.0000 0.0000 0.0000
# 3 32.2554 60.2470 109.1951 0.0000 0.0000 0.0000
# 4 0.0000 0.0000 0.0000 189.0633 0.0000 0.0000
# 5 0.0000 0.0000 0.0000 0.0000 -24.3251 0.0000
# 6 0.0000 0.0000 0.0000 0.0000 0.0000 -27.6311
#
#
#
# Elastic Compliance Matrix: (Units=1/GPa)
#
#
# Indices 1 2 3 4 5 6 
#
# 1 0.025054 -0.006664 -0.003724 0.000000 0.000000 0.000000
# 2 -0.006664 0.033060 -0.016272 0.000000 0.000000 0.000000
# 3 -0.003724 -0.016272 0.019236 0.000000 0.000000 0.000000
# 4 0.000000 0.000000 0.000000 0.005289 0.000000 0.000000
# 5 0.000000 0.000000 0.000000 0.000000 -0.041110 0.000000
# 6 0.000000 0.000000 0.000000 0.000000 0.000000 -0.036191
#
#
# Mechanical properties :
#
#
# Convention : Reuss Voigt Hill
#
# Bulk Modulus (GPa) = 41.61468 51.52228 46.56848
# Shear Modulus (GPa) = 75.00019 34.57481 54.78750
#
# Velocity S-wave (km/s) = 6.25666 4.24806 5.34751
# Velocity P-wave (km/s) = 8.59737 7.13814 7.90151
#
# Compressibility (1/GPa) = 0.02402998
#
# Stress axis : x y z
#
# Youngs Moduli (GPa) = 39.91437 30.24836 51.98640
#
# Poissons Ratio (x) = 0.20156 0.19360
# Poissons Ratio (y) = 0.26597 0.84592
# Poissons Ratio (z) = 0.14865 0.49220
#
# Static dielectric constant tensor:
#      x y z
#    x 1.676390 0.000000 0.000000 
#    y 0.000000 1.660090 0.000000 
#    z 0.000000 0.000000 1.642320 
# 
# From -- ./inp_files/9600.got.cif
#   From: 2010.05.17/outbox.cif.g08.bks.cpg/sg51_5_cif.got.tgz:9600.got - 2010.06.03 11:52:47.
