data_PCOD9406394
_publ_section_title
;
Structure prediction by ZEFSAII (Michael W. Deem and Ramdas Pophale) SiO2 
 PCOD9406394
Probable space group: P M M A
;
_chemical_formula_sum "Si O2"
_cell_formula_units_Z 40
_cell_length_a 8.799004
_cell_length_b 25.846542
_cell_length_c 9.396603
_cell_angle_alpha 90.000000
_cell_angle_beta 90.000000
_cell_angle_gamma 90.000000
_cell_volume 2137.011410
_symmetry_space_group_name_H-M "P M M A"
_symmetry_group_IT_number 51
_symmetry_cell_setting 'orthorhombic'
loop_
_space_group_symop_operation_xyz
x,y,z
1/2-x,-y,z
1/2+x,-y,-z
-x,y,-z
-x,-y,-z
1/2+x,y,-z
1/2-x,y,z
x,-y,z
loop_
_atom_site_type_symbol
_atom_site_label
_atom_site_fract_x
_atom_site_fract_y
_atom_site_fract_z
Si Si1 0.932964 0.941055 0.845328
Si Si2 0.067797 0.249227 0.842272
Si Si3 0.431510 0.350636 0.655892
Si Si4 0.432859 0.156041 0.342667
Si Si5 0.931687 0.560342 0.845062
O O1 0.750000 0.940297 0.855972
O O2 0.977415 0.898617 0.729343
O O3 0.980334 0.000000 0.810459
O O4 0.000000 0.927822 0.000000
O O5 0.250000 0.243554 0.849366
O O6 0.032468 0.301778 0.756517
O O7 0.996838 0.201516 0.756283
O O8 0.000000 0.251457 0.000000
O O9 0.500000 0.342629 0.500000
O O10 0.250000 0.355079 0.645855
O O11 0.499245 0.401749 0.728471
O O12 0.500000 0.160666 0.500000
O O13 0.250000 0.159111 0.348023
O O14 0.750000 0.565968 0.849908
O O15 0.967590 0.500000 0.816193
O O16 0.000000 0.573272 0.000000
#
# Coordination Sequence:
#
# PCOD9406394 Si02
#       5
#     8   8   8   8   8
#     4   9  19  36  57  82 112 147 189 235 282 335
#     4  11  24  41  62  87 115 149 190 235 284 339
#     4  11  24  40  60  86 117 153 191 235 286 339
#     4  11  23  38  58  84 116 152 190 235 287 341
#     4  10  21  38  61  88 118 153 193 237 284 336
#
# _framework density 18.717728999999999
#
# number of rings (size 3 to 8) (size 9 to 14) (size 15 to 20)
#    0.000    1.600    0.000    4.200    0.000   11.600 
#    0.000    0.000    0.000    0.000    0.000    0.000 
#    0.000    0.000    0.000    0.000    0.000    0.000 
#
# Total GULP energy -223639.083238 kJ/mol
# GULP energy per Si atom -5590.977081 kJ/mol
# Density = 1.867513 g / cm^3
# Si number density = 18.717729 Si / 1000 Ang^3
#
#
#
# Elastic Constant Matrix: (Units=GPa)
#
#
# Indices 1 2 3 4 5 6 
#
# 1 56.3170 60.2322 69.3735 0.0000 0.0000 0.0000
# 2 60.2322 112.2952 106.1946 0.0000 0.0000 0.0000
# 3 69.3735 106.1946 195.7049 0.0000 0.0000 0.0000
# 4 0.0000 0.0000 0.0000 -61.3207 0.0000 0.0000
# 5 0.0000 0.0000 0.0000 0.0000 40.0494 0.0000
# 6 0.0000 0.0000 0.0000 0.0000 0.0000 26.9978
#
#
#
# Elastic Compliance Matrix: (Units=1/GPa)
#
#
# Indices 1 2 3 4 5 6 
#
# 1 0.044657 -0.018451 -0.005818 0.000000 0.000000 0.000000
# 2 -0.018451 0.025914 -0.007521 0.000000 0.000000 0.000000
# 3 -0.005818 -0.007521 0.011253 0.000000 0.000000 0.000000
# 4 0.000000 0.000000 0.000000 -0.016308 0.000000 0.000000
# 5 0.000000 0.000000 0.000000 0.000000 0.024969 0.000000
# 6 0.000000 0.000000 0.000000 0.000000 0.000000 0.037040
#
#
# Mechanical properties :
#
#
# Convention : Reuss Voigt Hill
#
# Bulk Modulus (GPa) = 54.81170 92.87974 73.84572
# Shear Modulus (GPa) = 25.35639 9.71308 17.53474
#
# Velocity S-wave (km/s) = 3.68458 2.28046 3.06404
# Velocity P-wave (km/s) = 6.88828 7.52748 7.21496
#
# Compressibility (1/GPa) = 0.01824428
#
# Stress axis : x y z
#
# Youngs Moduli (GPa) = 22.39278 38.58854 88.86148
#
# Poissons Ratio (x) = 0.71199 0.51701
# Poissons Ratio (y) = 0.41317 0.66836
# Poissons Ratio (z) = 0.13029 0.29024
#
# Static dielectric constant tensor:
#      x y z
#    x 1.626000 0.000000 0.000000 
#    y 0.000000 1.643450 0.000000 
#    z 0.000000 0.000000 1.599460 
# 
# From -- ./inp_files/5215.got.cif
#   From: 2010.05.17/outbox.cif.g08.bks.cpg/sg51_3_cif.got.tgz:5215.got - 2010.06.03 11:52:47.
