data_PCOD9406377
_publ_section_title
;
Structure prediction by ZEFSAII (Michael W. Deem and Ramdas Pophale) SiO2 
 PCOD9406377
Probable space group: P M M A
;
_chemical_formula_sum "Si O2"
_cell_formula_units_Z 56
_cell_length_a 14.136679
_cell_length_b 8.768220
_cell_length_c 21.150248
_cell_angle_alpha 90.000000
_cell_angle_beta 90.000000
_cell_angle_gamma 90.000000
_cell_volume 2621.647510
_symmetry_space_group_name_H-M "P M M A"
_symmetry_group_IT_number 51
_symmetry_cell_setting 'orthorhombic'
loop_
_space_group_symop_operation_xyz
x,y,z
1/2-x,-y,z
1/2+x,-y,-z
-x,y,-z
-x,-y,-z
1/2+x,y,-z
1/2-x,y,z
x,-y,z
loop_
_atom_site_type_symbol
_atom_site_label
_atom_site_fract_x
_atom_site_fract_y
_atom_site_fract_z
Si Si1 0.860402 0.315793 0.178429
Si Si2 0.365546 0.677157 0.408564
Si Si3 0.865243 0.171727 0.721124
Si Si4 0.365471 0.320781 0.683159
Si Si5 0.007043 0.821668 0.928618
Si Si6 0.362965 0.315329 0.546263
Si Si7 0.362792 0.670552 0.151548
O O1 0.750000 0.274467 0.170995
O O2 0.865518 0.500000 0.180418
O O3 0.893317 0.256935 0.248107
O O4 0.919811 0.256429 0.119422
O O5 0.250000 0.678464 0.409281
O O6 0.393918 0.500000 0.402073
O O7 0.395689 0.769344 0.347183
O O8 0.397936 0.736426 0.477255
O O9 0.750000 0.169068 0.720242
O O10 0.891210 0.285227 0.777369
O O11 0.897677 0.000000 0.734012
O O12 0.250000 0.315855 0.683066
O O13 0.391474 0.500000 0.683003
O O14 0.397370 0.257687 0.614704
O O15 0.906710 0.791253 0.895754
O O16 0.029665 0.000000 0.931851
O O17 0.000000 0.760511 0.000000
O O18 0.250000 0.287044 0.546015
O O19 0.374635 0.500000 0.545765
O O20 0.250000 0.672237 0.148425
O O21 0.396598 0.500000 0.136299
#
# Coordination Sequence:
#
# PCOD9406377 Si02
#       7
#     8   8   8   8   8   8   8
#     4   9  18  34  58  86 114 145 183 228 273 317
#     4   8  12  18  31  55  89 129 173 218 258 298
#     4   9  16  26  42  66  99 138 176 215 262 317
#     4   7  10  19  38  66  98 131 170 216 264 310
#     4  11  25  42  59  82 113 147 180 215 262 327
#     4   7   9  14  28  54  89 127 167 213 260 302
#     4  10  21  38  61  86 110 139 179 228 276 321
#
# _framework density 21.360614999999999
#
# number of rings (size 3 to 8) (size 9 to 14) (size 15 to 20)
#    0.000    3.286    0.000    3.857    0.000    4.571 
#    0.000    2.857    0.000    0.857    0.000    5.000 
#    0.000    8.000    0.000    0.857    0.000    0.286 
#
# Total GULP energy -312293.452662 kJ/mol
# GULP energy per Si atom -5576.668798 kJ/mol
# Density = 2.131200 g / cm^3
# Si number density = 21.360615 Si / 1000 Ang^3
#
#
#
# Elastic Constant Matrix: (Units=GPa)
#
#
# Indices 1 2 3 4 5 6 
#
# 1 41.4755 -9.6354 7.8026 0.0000 0.0000 0.0000
# 2 -9.6354 10.6966 9.8456 0.0000 0.0000 0.0000
# 3 7.8026 9.8456 183.5720 0.0000 0.0000 0.0000
# 4 0.0000 0.0000 0.0000 41.9852 0.0000 0.0000
# 5 0.0000 0.0000 0.0000 0.0000 43.4323 0.0000
# 6 0.0000 0.0000 0.0000 0.0000 0.0000 11.5018
#
#
#
# Elastic Compliance Matrix: (Units=1/GPa)
#
#
# Indices 1 2 3 4 5 6 
#
# 1 0.032048 0.031686 -0.003062 0.000000 0.000000 0.000000
# 2 0.031686 0.129672 -0.008302 0.000000 0.000000 0.000000
# 3 -0.003062 -0.008302 0.006023 0.000000 0.000000 0.000000
# 4 0.000000 0.000000 0.000000 0.023818 0.000000 0.000000
# 5 0.000000 0.000000 0.000000 0.000000 0.023024 0.000000
# 6 0.000000 0.000000 0.000000 0.000000 0.000000 0.086943
#
#
# Mechanical properties :
#
#
# Convention : Reuss Voigt Hill
#
# Bulk Modulus (GPa) = 4.79871 27.97440 16.38655
# Shear Modulus (GPa) = 15.13573 34.56594 24.85083
#
# Velocity S-wave (km/s) = 2.66481 4.02706 3.41456
# Velocity P-wave (km/s) = 3.42340 5.89471 4.82013
#
# Compressibility (1/GPa) = 0.20838945
#
# Stress axis : x y z
#
# Youngs Moduli (GPa) = 31.20336 7.71176 166.03510
#
# Poissons Ratio (x) = -0.24436 0.50834
# Poissons Ratio (y) = -0.98873 1.37835
# Poissons Ratio (z) = 0.09553 0.06402
#
# Static dielectric constant tensor:
#      x y z
#    x 1.877660 0.000000 0.000000 
#    y 0.000000 1.742030 0.000000 
#    z 0.000000 0.000000 1.792800 
# 
# From -- ./inp_files/33406.got.cif
#   From: 2010.05.17/outbox.cif.g08.bks.cpg/sg51_17_cif.got.tgz:33406.got - 2010.06.03 11:52:47.
