data_PCOD9406483
_publ_section_title
;
Structure prediction by ZEFSAII (Michael W. Deem and Ramdas Pophale) SiO2 
 PCOD9406483
Probable space group: P M M A
;
_chemical_formula_sum "Si O2"
_cell_formula_units_Z 38
_cell_length_a 7.416016
_cell_length_b 9.927108
_cell_length_c 25.164944
_cell_angle_alpha 90.000000
_cell_angle_beta 90.000000
_cell_angle_gamma 90.000000
_cell_volume 1852.632904
_symmetry_space_group_name_H-M "P M M A"
_symmetry_group_IT_number 51
_symmetry_cell_setting 'orthorhombic'
loop_
_space_group_symop_operation_xyz
x,y,z
1/2-x,-y,z
1/2+x,-y,-z
-x,y,-z
-x,-y,-z
1/2+x,y,-z
1/2-x,y,z
x,-y,z
loop_
_atom_site_type_symbol
_atom_site_label
_atom_site_fract_x
_atom_site_fract_y
_atom_site_fract_z
Si Si1 0.530099 0.247101 0.632706
Si Si2 0.465839 0.347590 0.938811
Si Si3 0.534114 0.348804 0.751379
Si Si4 0.962900 0.848305 0.151950
Si Si5 0.250000 0.000000 0.621315
Si Si6 0.536301 0.500000 0.562357
O O1 0.750000 0.224165 0.629413
O O2 0.489261 0.301710 0.692024
O O3 0.409322 0.117323 0.622567
O O4 0.475393 0.364520 0.591584
O O5 0.250000 0.354066 0.932044
O O6 0.535564 0.500000 0.930052
O O7 0.538052 0.240390 0.896646
O O8 0.500000 0.310557 0.000000
O O9 0.750000 0.356028 0.753660
O O10 0.464311 0.500000 0.762498
O O11 0.479853 0.238679 0.794637
O O12 0.750000 0.861754 0.141848
O O13 0.036554 0.000000 0.156661
O O14 0.750000 0.500000 0.570434
O O15 0.500000 0.500000 0.500000
#
# Coordination Sequence:
#
# PCOD9406483 Si02
#       6
#     8   8   8   8   2   4
#     4  10  23  44  66  99 134 175 220 275 330 381
#     4   9  18  34  54  75 104 143 190 245 299 356
#     4  10  21  39  61  84 118 158 203 255 311 370
#     4  10  22  36  53  82 117 150 193 244 304 369
#     4  12  26  38  70  98 142 178 220 258 330 422
#     4  10  22  44  76 100 134 174 229 291 324 372
#
# _framework density 20.51135
#
# number of rings (size 3 to 8) (size 9 to 14) (size 15 to 20)
#    0.000    2.105    1.053    0.947    4.421    2.947 
#    0.000    2.632    0.000    0.000    0.000    0.000 
#    0.000    0.000    0.000    0.000    0.000    0.000 
#
# Total GULP energy -211622.616708 kJ/mol
# GULP energy per Si atom -5569.016229 kJ/mol
# Density = 2.046466 g / cm^3
# Si number density = 20.511350 Si / 1000 Ang^3
#
#
#
# Elastic Constant Matrix: (Units=GPa)
#
#
# Indices 1 2 3 4 5 6 
#
# 1 89.4623 46.3598 14.2923 0.0000 0.0000 0.0000
# 2 46.3598 239.2744 126.2969 0.0000 0.0000 0.0000
# 3 14.2923 126.2969 158.6063 0.0000 0.0000 0.0000
# 4 0.0000 0.0000 0.0000 -13.3637 0.0000 0.0000
# 5 0.0000 0.0000 0.0000 0.0000 21.7929 0.0000
# 6 0.0000 0.0000 0.0000 0.0000 0.0000 -42.0776
#
#
#
# Elastic Compliance Matrix: (Units=1/GPa)
#
#
# Indices 1 2 3 4 5 6 
#
# 1 0.012602 -0.003178 0.001395 0.000000 0.000000 0.000000
# 2 -0.003178 0.008011 -0.006093 0.000000 0.000000 0.000000
# 3 0.001395 -0.006093 0.011031 0.000000 0.000000 0.000000
# 4 0.000000 0.000000 0.000000 -0.074829 0.000000 0.000000
# 5 0.000000 0.000000 0.000000 0.000000 0.045886 0.000000
# 6 0.000000 0.000000 0.000000 0.000000 0.000000 -0.023766
#
#
# Mechanical properties :
#
#
# Convention : Reuss Voigt Hill
#
# Bulk Modulus (GPa) = 62.92351 95.69345 79.30848
# Shear Modulus (GPa) = -307132.15766 13.29659 -153559.43054
#
# Velocity S-wave (km/s) = -387.37931 2.54885 -273.91261
# Velocity P-wave (km/s) = 447.27273 7.44428 316.22577
#
# Compressibility (1/GPa) = 0.01589231
#
# Stress axis : x y z
#
# Youngs Moduli (GPa) = 79.35331 124.82899 90.65546
#
# Poissons Ratio (x) = 0.39670 -0.12647
# Poissons Ratio (y) = 0.25218 0.55234
# Poissons Ratio (z) = -0.11070 0.76054
#
# Static dielectric constant tensor:
#      x y z
#    x 1.783090 0.000000 0.000000 
#    y 0.000000 1.624690 0.000000 
#    z 0.000000 0.000000 1.670850 
# 
# From -- ./inp_files/34358.got.cif
#   From: 2010.05.17/outbox.cif.g08.bks.cpg/sg51_18_cif.got.tgz:34358.got - 2010.06.03 11:52:47.
