data_PCOD9406886
_publ_section_title
;
Structure prediction by ZEFSAII (Michael W. Deem and Ramdas Pophale) SiO2 
 PCOD9406886
Probable space group: P M M A
;
_chemical_formula_sum "Si O2"
_cell_formula_units_Z 48
_cell_length_a 22.917719
_cell_length_b 14.792014
_cell_length_c 7.744153
_cell_angle_alpha 90.000000
_cell_angle_beta 90.000000
_cell_angle_gamma 90.000000
_cell_volume 2625.261829
_symmetry_space_group_name_H-M "P M M A"
_symmetry_group_IT_number 51
_symmetry_cell_setting 'orthorhombic'
loop_
_space_group_symop_operation_xyz
x,y,z
1/2-x,-y,z
1/2+x,-y,-z
-x,y,-z
-x,-y,-z
1/2+x,y,-z
1/2-x,y,z
x,-y,z
loop_
_atom_site_type_symbol
_atom_site_label
_atom_site_fract_x
_atom_site_fract_y
_atom_site_fract_z
Si Si1 0.318391 0.605827 0.501537
Si Si2 0.015162 0.299035 0.685113
Si Si3 0.906673 0.097701 0.886727
Si Si4 0.616749 0.288618 0.794617
Si Si5 0.623343 0.606896 0.138923
Si Si6 0.461882 0.099711 0.737775
O O1 0.250000 0.618389 0.468245
O O2 0.333146 0.500000 0.469638
O O3 0.356124 0.668266 0.376015
O O4 0.332857 0.623720 0.701959
O O5 0.061754 0.355264 0.791791
O O6 0.041754 0.197875 0.648856
O O7 0.000000 0.340953 0.500000
O O8 0.953940 0.293967 0.785619
O O9 0.871307 0.182567 0.818509
O O10 0.970463 0.096060 0.796506
O O11 0.878969 0.000000 0.857992
O O12 0.922732 0.107048 0.089517
O O13 0.638097 0.342341 0.962509
O O14 0.620297 0.500000 0.107592
O O15 0.449175 0.000000 0.656200
#
# Coordination Sequence:
#
# PCOD9406886 Si02
#       6
#     8   8   8   8   8   8
#     4  10  23  42  60  80 104 134 183 240 280 317
#     4  11  20  32  50  81 119 149 179 219 270 339
#     4   8  14  26  48  77 110 144 177 213 258 314
#     4  11  20  35  60  83 110 145 183 218 273 333
#     4  11  23  37  54  79 112 147 180 223 277 332
#     4   8  14  26  44  71 111 149 179 215 256 310
#
# _framework density 18.28389
#
# number of rings (size 3 to 8) (size 9 to 14) (size 15 to 20)
#    0.000    2.167    3.333    2.000    0.000    3.333 
#    0.000    1.667    0.000    1.500    0.000    0.000 
#    0.000    0.000    0.000    0.000    0.000    0.000 
#
# Total GULP energy -267601.672753 kJ/mol
# GULP energy per Si atom -5575.034849 kJ/mol
# Density = 1.824228 g / cm^3
# Si number density = 18.283890 Si / 1000 Ang^3
#
#
#
# Elastic Constant Matrix: (Units=GPa)
#
#
# Indices 1 2 3 4 5 6 
#
# 1 29.8744 25.3273 -2.8900 0.0000 0.0000 0.0000
# 2 25.3273 112.5162 35.5627 0.0000 0.0000 0.0000
# 3 -2.8900 35.5627 49.8993 0.0000 0.0000 0.0000
# 4 0.0000 0.0000 0.0000 15.6537 0.0000 0.0000
# 5 0.0000 0.0000 0.0000 0.0000 5.6288 0.0000
# 6 0.0000 0.0000 0.0000 0.0000 0.0000 18.1807
#
#
#
# Elastic Compliance Matrix: (Units=1/GPa)
#
#
# Indices 1 2 3 4 5 6 
#
# 1 0.047387 -0.014888 0.013355 0.000000 0.000000 0.000000
# 2 -0.014888 0.016149 -0.012372 0.000000 0.000000 0.000000
# 3 0.013355 -0.012372 0.029631 0.000000 0.000000 0.000000
# 4 0.000000 0.000000 0.000000 0.063883 0.000000 0.000000
# 5 0.000000 0.000000 0.000000 0.000000 0.177656 0.000000
# 6 0.000000 0.000000 0.000000 0.000000 0.000000 0.055003
#
#
# Mechanical properties :
#
#
# Convention : Reuss Voigt Hill
#
# Bulk Modulus (GPa) = 15.30023 34.25443 24.77733
# Shear Modulus (GPa) = 11.38162 16.84532 14.11347
#
# Velocity S-wave (km/s) = 2.49769 3.03862 2.78134
# Velocity P-wave (km/s) = 4.08708 5.57552 4.88828
#
# Compressibility (1/GPa) = 0.06535847
#
# Stress axis : x y z
#
# Youngs Moduli (GPa) = 21.10263 61.92285 33.74856
#
# Poissons Ratio (x) = 0.92191 -0.45071
# Poissons Ratio (y) = 0.31418 0.41752
# Poissons Ratio (z) = -0.28183 0.76608
#
# Static dielectric constant tensor:
#      x y z
#    x 1.593960 0.000000 0.000000 
#    y 0.000000 1.674550 0.000000 
#    z 0.000000 0.000000 1.658420 
# 
# From -- ./inp_files/10829.got.cif
#   From: 2010.05.17/outbox.cif.g08.bks.cpg/sg51_6_cif.got.tgz:10829.got - 2010.06.03 11:52:47.
