data_PCOD9406082
_publ_section_title
;
Structure prediction by ZEFSAII (Michael W. Deem and Ramdas Pophale) SiO2 
 PCOD9406082
Probable space group: P M M A
;
_chemical_formula_sum "Si O2"
_cell_formula_units_Z 64
_cell_length_a 15.895663
_cell_length_b 9.257650
_cell_length_c 22.875197
_cell_angle_alpha 90.000000
_cell_angle_beta 90.000000
_cell_angle_gamma 90.000000
_cell_volume 3366.233574
_symmetry_space_group_name_H-M "P M M A"
_symmetry_group_IT_number 51
_symmetry_cell_setting 'orthorhombic'
loop_
_space_group_symop_operation_xyz
x,y,z
1/2-x,-y,z
1/2+x,-y,-z
-x,y,-z
-x,-y,-z
1/2+x,y,-z
1/2-x,y,z
x,-y,z
loop_
_atom_site_type_symbol
_atom_site_label
_atom_site_fract_x
_atom_site_fract_y
_atom_site_fract_z
Si Si1 0.649316 0.837389 0.765953
Si Si2 0.112145 0.336836 0.116708
Si Si3 0.007495 0.326936 0.568584
Si Si4 0.849830 0.173120 0.355950
Si Si5 0.651517 0.162501 0.999837
Si Si6 0.412318 0.336444 0.889681
Si Si7 0.649057 0.666128 0.236368
Si Si8 0.151590 0.327071 0.351603
O O1 0.750000 0.848025 0.762107
O O2 0.631346 0.749742 0.824536
O O3 0.623724 0.751830 0.707880
O O4 0.614152 0.000000 0.768080
O O5 0.146359 0.500000 0.118979
O O6 0.141875 0.252433 0.059494
O O7 0.012069 0.346108 0.112141
O O8 0.021098 0.500000 0.575191
O O9 0.085463 0.244559 0.598521
O O10 0.000000 0.294217 0.500000
O O11 0.918294 0.292011 0.599767
O O12 0.750000 0.208063 0.366691
O O13 0.873122 0.237582 0.292163
O O14 0.857524 0.000000 0.356259
O O15 0.750000 0.153566 0.012703
O O16 0.617912 0.000000 0.991797
O O17 0.611063 0.241296 0.054947
O O18 0.377042 0.500000 0.896394
O O19 0.382419 0.280165 0.826555
O O20 0.750000 0.661956 0.233820
O O21 0.618220 0.500000 0.244102
O O22 0.250000 0.288681 0.365231
O O23 0.150396 0.500000 0.342583
#
# Coordination Sequence:
#
# PCOD9406082 Si02
#       8
#     8   8   8   8   8   8   8   8
#     4  10  21  37  57  83 114 148 189 235 285 342
#     4  11  23  37  56  83 113 146 186 233 283 340
#     4  10  22  39  62  92 123 158 202 249 296 352
#     4  10  22  39  59  87 124 163 203 248 298 355
#     4  11  24  40  57  78 107 145 189 236 285 341
#     4  10  22  38  57  83 112 143 184 234 288 344
#     4   9  18  35  59  84 111 147 190 237 290 346
#     4   9  19  37  60  86 119 157 198 246 298 353
#
# _framework density 19.012346000000001
#
# number of rings (size 3 to 8) (size 9 to 14) (size 15 to 20)
#    0.000    2.000    0.000    2.625    1.750    8.750 
#    0.000    2.500    0.000    1.500    0.000    0.000 
#    0.000    0.000    0.000    0.000    0.000    0.000 
#
# Total GULP energy -357259.714153 kJ/mol
# GULP energy per Si atom -5582.183034 kJ/mol
# Density = 1.896907 g / cm^3
# Si number density = 19.012346 Si / 1000 Ang^3
#
#
#
# Elastic Constant Matrix: (Units=GPa)
#
#
# Indices 1 2 3 4 5 6 
#
# 1 62.3176 39.1789 54.1144 0.0000 0.0000 0.0000
# 2 39.1789 92.1157 75.6995 0.0000 0.0000 0.0000
# 3 54.1144 75.6995 154.6648 0.0000 0.0000 0.0000
# 4 0.0000 0.0000 0.0000 -18.0481 0.0000 0.0000
# 5 0.0000 0.0000 0.0000 0.0000 39.7259 0.0000
# 6 0.0000 0.0000 0.0000 0.0000 0.0000 28.4206
#
#
#
# Elastic Compliance Matrix: (Units=1/GPa)
#
#
# Indices 1 2 3 4 5 6 
#
# 1 0.024717 -0.005697 -0.005859 0.000000 0.000000 0.000000
# 2 -0.005697 0.019474 -0.007538 0.000000 0.000000 0.000000
# 3 -0.005859 -0.007538 0.012205 0.000000 0.000000 0.000000
# 4 0.000000 0.000000 0.000000 -0.055408 0.000000 0.000000
# 5 0.000000 0.000000 0.000000 0.000000 0.025173 0.000000
# 6 0.000000 0.000000 0.000000 0.000000 0.000000 0.035186
#
#
# Mechanical properties :
#
#
# Convention : Reuss Voigt Hill
#
# Bulk Modulus (GPa) = 54.92627 71.89818 63.41222
# Shear Modulus (GPa) = 47.34658 19.36004 33.35331
#
# Velocity S-wave (km/s) = 4.99571 3.19452 4.19298
# Velocity P-wave (km/s) = 7.88852 7.17672 7.54102
#
# Compressibility (1/GPa) = 0.01820623
#
# Stress axis : x y z
#
# Youngs Moduli (GPa) = 40.45812 51.35158 81.93362
#
# Poissons Ratio (x) = 0.29257 0.48008
# Poissons Ratio (y) = 0.23051 0.61760
# Poissons Ratio (z) = 0.23706 0.38708
#
# Static dielectric constant tensor:
#      x y z
#    x 1.662320 0.000000 0.000000 
#    y 0.000000 1.682460 0.000000 
#    z 0.000000 0.000000 1.639610 
# 
# From -- ./inp_files/35785.got.cif
#   From: 2010.05.17/outbox.cif.g08.bks.cpg/sg51_18_cif.got.tgz:35785.got - 2010.06.03 11:52:47.
