data_PCOD9406889
_publ_section_title
;
Structure prediction by ZEFSAII (Michael W. Deem and Ramdas Pophale) SiO2 
 PCOD9406889
Probable space group: P M M A
;
_chemical_formula_sum "Si O2"
_cell_formula_units_Z 56
_cell_length_a 22.026190
_cell_length_b 8.859199
_cell_length_c 14.989621
_cell_angle_alpha 90.000000
_cell_angle_beta 90.000000
_cell_angle_gamma 90.000000
_cell_volume 2924.990706
_symmetry_space_group_name_H-M "P M M A"
_symmetry_group_IT_number 51
_symmetry_cell_setting 'orthorhombic'
loop_
_space_group_symop_operation_xyz
x,y,z
1/2-x,-y,z
1/2+x,-y,-z
-x,y,-z
-x,-y,-z
1/2+x,y,-z
1/2-x,y,z
x,-y,z
loop_
_atom_site_type_symbol
_atom_site_label
_atom_site_fract_x
_atom_site_fract_y
_atom_site_fract_z
Si Si1 0.250000 0.676246 0.555054
Si Si2 0.556019 0.679628 0.287288
Si Si3 0.878054 0.820722 0.455812
Si Si4 0.250000 0.322789 0.770049
Si Si5 0.425701 0.319303 0.372183
Si Si6 0.820864 0.819104 0.951941
Si Si7 0.180824 0.318216 0.239407
Si Si8 0.368999 0.818785 0.859881
O O1 0.250000 0.500000 0.529386
O O2 0.188563 0.754905 0.523026
O O3 0.250000 0.687359 0.662884
O O4 0.566009 0.500000 0.284731
O O5 0.599026 0.750432 0.363122
O O6 0.487341 0.709204 0.318152
O O7 0.574286 0.750661 0.192940
O O8 0.922347 0.766058 0.534354
O O9 0.876099 0.000000 0.449057
O O10 0.250000 0.500000 0.793728
O O11 0.190678 0.243392 0.809756
O O12 0.422243 0.500000 0.389215
O O13 0.368163 0.271774 0.312593
O O14 0.750000 0.782697 0.972612
O O15 0.835999 0.742380 0.858399
O O16 0.824587 0.000000 0.941785
O O17 0.861426 0.774668 0.036545
O O18 0.250000 0.268148 0.259179
O O19 0.180615 0.500000 0.236862
O O20 0.369582 0.000000 0.854638
#
# Coordination Sequence:
#
# PCOD9406889 Si02
#       8
#     4   8   8   4   8   8   8   8
#     4  11  23  39  59  86 120 155 190 234 291 345
#     4  11  23  40  59  83 116 158 200 237 285 345
#     4  12  25  39  60  89 119 151 195 242 290 343
#     4  11  21  33  55  84 116 155 192 232 287 345
#     4  10  23  42  62  83 114 155 198 243 290 344
#     4   9  18  34  55  83 117 151 184 230 294 350
#     4   9  19  37  61  88 111 142 191 244 291 336
#     4  11  21  35  57  85 119 155 191 236 289 341
#
# _framework density 19.145361000000001
#
# number of rings (size 3 to 8) (size 9 to 14) (size 15 to 20)
#    0.000    1.571    2.143    3.000    1.000    5.143 
#    0.000    0.714    0.000    4.286    0.000    0.000 
#    0.000    0.000    0.000    0.000    0.000    0.000 
#
# Total GULP energy -312992.489483 kJ/mol
# GULP energy per Si atom -5589.151598 kJ/mol
# Density = 1.910179 g / cm^3
# Si number density = 19.145361 Si / 1000 Ang^3
#
#
#
# Elastic Constant Matrix: (Units=GPa)
#
#
# Indices 1 2 3 4 5 6 
#
# 1 64.4159 26.9113 17.5848 0.0000 0.0000 0.0000
# 2 26.9113 48.2419 13.5027 0.0000 0.0000 0.0000
# 3 17.5848 13.5027 64.4863 0.0000 0.0000 0.0000
# 4 0.0000 0.0000 0.0000 33.2522 0.0000 0.0000
# 5 0.0000 0.0000 0.0000 0.0000 22.9651 0.0000
# 6 0.0000 0.0000 0.0000 0.0000 0.0000 19.8250
#
#
#
# Elastic Compliance Matrix: (Units=1/GPa)
#
#
# Indices 1 2 3 4 5 6 
#
# 1 0.020947 -0.010714 -0.003469 0.000000 0.000000 0.000000
# 2 -0.010714 0.027500 -0.002836 0.000000 0.000000 0.000000
# 3 -0.003469 -0.002836 0.017047 0.000000 0.000000 0.000000
# 4 0.000000 0.000000 0.000000 0.030073 0.000000 0.000000
# 5 0.000000 0.000000 0.000000 0.000000 0.043544 0.000000
# 6 0.000000 0.000000 0.000000 0.000000 0.000000 0.050441
#
#
# Mechanical properties :
#
#
# Convention : Reuss Voigt Hill
#
# Bulk Modulus (GPa) = 31.79144 32.57130 32.18137
# Shear Modulus (GPa) = 21.36053 23.15147 22.25600
#
# Velocity S-wave (km/s) = 3.34384 3.48120 3.41321
# Velocity P-wave (km/s) = 5.61691 5.76263 5.69023
#
# Compressibility (1/GPa) = 0.03145501
#
# Stress axis : x y z
#
# Youngs Moduli (GPa) = 47.73909 36.36412 58.66156
#
# Poissons Ratio (x) = 0.38962 0.20348
# Poissons Ratio (y) = 0.51149 0.16639
# Poissons Ratio (z) = 0.16559 0.10314
#
# Static dielectric constant tensor:
#      x y z
#    x 1.673480 0.000000 0.000000 
#    y 0.000000 1.638650 0.000000 
#    z 0.000000 0.000000 1.648700 
# 
# From -- ./inp_files/25801.got.cif
#   From: 2010.05.17/outbox.cif.g08.bks.cpg/sg51_13_cif.got.tgz:25801.got - 2010.06.03 11:52:47.
