data_PCOD9406287
_publ_section_title
;
Structure prediction by ZEFSAII (Michael W. Deem and Ramdas Pophale) SiO2 
 PCOD9406287
Probable space group: P M M A
;
_chemical_formula_sum "Si O2"
_cell_formula_units_Z 40
_cell_length_a 8.944883
_cell_length_b 14.201535
_cell_length_c 15.550528
_cell_angle_alpha 90.000000
_cell_angle_beta 90.000000
_cell_angle_gamma 90.000000
_cell_volume 1975.400195
_symmetry_space_group_name_H-M "P M M A"
_symmetry_group_IT_number 51
_symmetry_cell_setting 'orthorhombic'
loop_
_space_group_symop_operation_xyz
x,y,z
1/2-x,-y,z
1/2+x,-y,-z
-x,y,-z
-x,-y,-z
1/2+x,y,-z
1/2-x,y,z
x,-y,z
loop_
_atom_site_type_symbol
_atom_site_label
_atom_site_fract_x
_atom_site_fract_y
_atom_site_fract_z
Si Si1 0.929603 0.389330 0.094435
Si Si2 0.413617 0.888595 0.920563
Si Si3 0.572248 0.296084 0.738317
Si Si4 0.068239 0.105470 0.726026
Si Si5 0.419007 0.611700 0.585051
O O1 0.750000 0.379199 0.091570
O O2 0.962050 0.500000 0.115125
O O3 0.997205 0.323793 0.170007
O O4 0.000000 0.371863 0.000000
O O5 0.250000 0.845394 0.915578
O O6 0.481207 0.888753 0.826362
O O7 0.396114 0.000000 0.938989
O O8 0.500000 0.846217 0.000000
O O9 0.750000 0.292093 0.748333
O O10 0.510313 0.199360 0.694351
O O11 0.517763 0.372010 0.669196
O O12 0.250000 0.112200 0.723071
O O13 0.029823 0.000000 0.694042
O O14 0.500000 0.650867 0.500000
O O15 0.250000 0.649697 0.596320
O O16 0.405381 0.500000 0.572922
#
# Coordination Sequence:
#
# PCOD9406287 Si02
#       5
#     8   8   8   8   8
#     4  10  21  38  59  83 114 153 197 244 292 345
#     4   8  14  25  42  63  87 120 165 218 274 325
#     4  12  24  36  56  86 119 156 196 237 284 344
#     4   9  19  36  54  72 101 144 192 241 290 337
#     4  10  21  39  64  93 123 152 184 228 283 342
#
# _framework density 20.249061999999999
#
# number of rings (size 3 to 8) (size 9 to 14) (size 15 to 20)
#    0.000    2.200    0.000    4.800    0.000    6.800 
#    0.000    4.000    0.000    0.600    0.000    0.000 
#    0.000    0.000    0.000    0.000    0.000    0.000 
#
# Total GULP energy -222875.927911 kJ/mol
# GULP energy per Si atom -5571.898198 kJ/mol
# Density = 2.020297 g / cm^3
# Si number density = 20.249062 Si / 1000 Ang^3
#
#
#
# Elastic Constant Matrix: (Units=GPa)
#
#
# Indices 1 2 3 4 5 6 
#
# 1 89.8364 32.2133 26.0657 0.0000 0.0000 0.0000
# 2 32.2133 100.7402 3.1424 0.0000 0.0000 0.0000
# 3 26.0657 3.1424 63.5563 0.0000 0.0000 0.0000
# 4 0.0000 0.0000 0.0000 0.3806 0.0000 0.0000
# 5 0.0000 0.0000 0.0000 0.0000 24.9812 0.0000
# 6 0.0000 0.0000 0.0000 0.0000 0.0000 18.4979
#
#
#
# Elastic Compliance Matrix: (Units=1/GPa)
#
#
# Indices 1 2 3 4 5 6 
#
# 1 0.014360 -0.004415 -0.005671 0.000000 0.000000 0.000000
# 2 -0.004415 0.011299 0.001252 0.000000 0.000000 0.000000
# 3 -0.005671 0.001252 0.017998 0.000000 0.000000 0.000000
# 4 0.000000 0.000000 0.000000 2.627459 0.000000 0.000000
# 5 0.000000 0.000000 0.000000 0.000000 0.040030 0.000000
# 6 0.000000 0.000000 0.000000 0.000000 0.000000 0.054060
#
#
# Mechanical properties :
#
#
# Convention : Reuss Voigt Hill
#
# Bulk Modulus (GPa) = 38.47750 41.88619 40.18184
# Shear Modulus (GPa) = 1.79113 21.61938 11.70525
#
# Velocity S-wave (km/s) = 0.94152 3.27107 2.40690
# Velocity P-wave (km/s) = 4.49726 5.91582 5.25463
#
# Compressibility (1/GPa) = 0.02598922
#
# Stress axis : x y z
#
# Youngs Moduli (GPa) = 69.63860 88.50178 55.56180
#
# Poissons Ratio (x) = 0.39073 0.31509
# Poissons Ratio (y) = 0.30745 -0.06956
# Poissons Ratio (z) = 0.39492 -0.11080
#
# Static dielectric constant tensor:
#      x y z
#    x 1.734600 0.000000 0.000000 
#    y 0.000000 1.824580 0.000000 
#    z 0.000000 0.000000 1.717190 
# 
# From -- ./inp_files/20519.got.cif
#   From: 2010.05.17/outbox.cif.g08.bks.cpg/sg51_11_cif.got.tgz:20519.got - 2010.06.03 11:52:47.
