data_PCOD9406474
_publ_section_title
;
Structure prediction by ZEFSAII (Michael W. Deem and Ramdas Pophale) SiO2 
 PCOD9406474
Probable space group: P M M A
;
_chemical_formula_sum "Si O2"
_cell_formula_units_Z 64
_cell_length_a 31.500965
_cell_length_b 9.401454
_cell_length_c 12.216523
_cell_angle_alpha 90.000000
_cell_angle_beta 90.000000
_cell_angle_gamma 90.000000
_cell_volume 3617.982822
_symmetry_space_group_name_H-M "P M M A"
_symmetry_group_IT_number 51
_symmetry_cell_setting 'orthorhombic'
loop_
_space_group_symop_operation_xyz
x,y,z
1/2-x,-y,z
1/2+x,-y,-z
-x,y,-z
-x,-y,-z
1/2+x,y,-z
1/2-x,y,z
x,-y,z
loop_
_atom_site_type_symbol
_atom_site_label
_atom_site_fract_x
_atom_site_fract_y
_atom_site_fract_z
Si Si1 0.198641 0.165709 0.756486
Si Si2 0.300706 0.165087 0.518448
Si Si3 0.932252 0.834005 0.489828
Si Si4 0.501369 0.833975 0.314910
Si Si5 0.126704 0.670384 0.132071
Si Si6 0.030262 0.671116 0.101678
Si Si7 0.300293 0.172978 0.999475
Si Si8 0.861412 0.332036 0.613075
O O1 0.250000 0.168212 0.756793
O O2 0.184896 0.223532 0.638279
O O3 0.185910 0.000000 0.755032
O O4 0.187038 0.222564 0.875881
O O5 0.250000 0.165506 0.519178
O O6 0.317755 0.257583 0.419550
O O7 0.314186 0.000000 0.507771
O O8 0.966191 0.825915 0.589086
O O9 0.894240 0.736502 0.528214
O O10 0.955379 0.791014 0.377334
O O11 0.919935 0.000000 0.479942
O O12 0.487609 0.742165 0.211809
O O13 0.504928 0.000000 0.283428
O O14 0.132569 0.500000 0.116741
O O15 0.079989 0.710653 0.086410
O O16 0.166092 0.754547 0.079924
O O17 0.125618 0.698987 0.262320
O O18 0.029353 0.500000 0.114308
O O19 0.000000 0.709555 0.000000
O O20 0.250000 0.207020 0.018404
O O21 0.303234 0.000000 0.003671
O O22 0.859353 0.500000 0.600399
#
# Coordination Sequence:
#
# PCOD9406474 Si02
#       8
#     8   8   8   8   8   8   8   8
#     4   7  12  28  53  76  99 129 167 213 264 315
#     4   9  18  34  56  79 106 143 180 217 269 325
#     4   9  18  34  56  81 107 134 168 217 271 321
#     4   9  18  34  58  84 106 131 171 222 270 317
#     4  10  22  38  53  75 109 147 185 222 271 324
#     4  10  21  39  59  77 107 151 189 224 269 326
#     4   9  18  34  58  85 108 137 182 228 269 319
#     4  11  22  35  52  76 108 145 182 222 266 319
#
# _framework density 17.689413999999999
#
# number of rings (size 3 to 8) (size 9 to 14) (size 15 to 20)
#    0.000    2.750    1.250    2.625    0.000    3.250 
#    2.250    4.375    0.000    2.250    0.000    0.000 
#    0.000    0.000    0.000    0.000    0.000    0.000 
#
# Total GULP energy -356354.380951 kJ/mol
# GULP energy per Si atom -5568.037202 kJ/mol
# Density = 1.764915 g / cm^3
# Si number density = 17.689414 Si / 1000 Ang^3
#
#
#
# Elastic Constant Matrix: (Units=GPa)
#
#
# Indices 1 2 3 4 5 6 
#
# 1 81.4411 35.0867 55.4218 0.0000 0.0000 0.0000
# 2 35.0867 31.3514 37.8151 0.0000 0.0000 0.0000
# 3 55.4218 37.8151 73.9921 0.0000 0.0000 0.0000
# 4 0.0000 0.0000 0.0000 13.6133 0.0000 0.0000
# 5 0.0000 0.0000 0.0000 0.0000 31.2343 0.0000
# 6 0.0000 0.0000 0.0000 0.0000 0.0000 -4.8223
#
#
#
# Elastic Compliance Matrix: (Units=1/GPa)
#
#
# Indices 1 2 3 4 5 6 
#
# 1 0.027681 -0.015566 -0.012778 0.000000 0.000000 0.000000
# 2 -0.015566 0.091911 -0.035314 0.000000 0.000000 0.000000
# 3 -0.012778 -0.035314 0.041134 0.000000 0.000000 0.000000
# 4 0.000000 0.000000 0.000000 0.073457 0.000000 0.000000
# 5 0.000000 0.000000 0.000000 0.000000 0.032016 0.000000
# 6 0.000000 0.000000 0.000000 0.000000 0.000000 -0.207371
#
#
# Mechanical properties :
#
#
# Convention : Reuss Voigt Hill
#
# Bulk Modulus (GPa) = 29.93115 49.27018 39.60067
# Shear Modulus (GPa) = 25.34460 11.90248 18.62354
#
# Velocity S-wave (km/s) = 3.78928 2.59677 3.24822
# Velocity P-wave (km/s) = 6.00849 6.07489 6.04178
#
# Compressibility (1/GPa) = 0.03341001
#
# Stress axis : x y z
#
# Youngs Moduli (GPa) = 36.12617 10.88009 24.31087
#
# Poissons Ratio (x) = 0.16936 0.31065
# Poissons Ratio (y) = 0.56234 0.85850
# Poissons Ratio (z) = 0.46163 0.38422
#
# Static dielectric constant tensor:
#      x y z
#    x 1.642720 0.000000 0.000000 
#    y 0.000000 1.585030 0.000000 
#    z 0.000000 0.000000 1.616770 
# 
# From -- ./inp_files/19484.got.cif
#   From: 2010.05.17/outbox.cif.g08.bks.cpg/sg51_10_cif.got.tgz:19484.got - 2010.06.03 11:52:47.
