data_PCOD9406661
_publ_section_title
;
Structure prediction by ZEFSAII (Michael W. Deem and Ramdas Pophale) SiO2 
 PCOD9406661
Probable space group: P M M A
;
_chemical_formula_sum "Si O2"
_cell_formula_units_Z 44
_cell_length_a 9.429892
_cell_length_b 7.470212
_cell_length_c 31.832400
_cell_angle_alpha 90.000000
_cell_angle_beta 90.000000
_cell_angle_gamma 90.000000
_cell_volume 2242.379060
_symmetry_space_group_name_H-M "P M M A"
_symmetry_group_IT_number 51
_symmetry_cell_setting 'orthorhombic'
loop_
_space_group_symop_operation_xyz
x,y,z
1/2-x,-y,z
1/2+x,-y,-z
-x,y,-z
-x,-y,-z
1/2+x,y,-z
1/2-x,y,z
x,-y,z
loop_
_atom_site_type_symbol
_atom_site_label
_atom_site_fract_x
_atom_site_fract_y
_atom_site_fract_z
Si Si1 0.587078 0.780957 0.541182
Si Si2 0.411812 0.212207 0.621191
Si Si3 0.420138 0.000000 0.043913
Si Si4 0.414245 0.714921 0.713130
Si Si5 0.419011 0.289824 0.112910
Si Si6 0.084409 0.717910 0.804410
O O1 0.500000 0.726386 0.500000
O O2 0.750000 0.723154 0.539488
O O3 0.507882 0.718971 0.583381
O O4 0.588118 0.000000 0.541495
O O5 0.250000 0.285424 0.620357
O O6 0.475538 0.236253 0.667868
O O7 0.399988 0.000000 0.614687
O O8 0.456977 0.171546 0.072658
O O9 0.250000 0.000000 0.037274
O O10 0.500000 0.000000 0.000000
O O11 0.250000 0.777193 0.711955
O O12 0.412851 0.500000 0.714409
O O13 0.471708 0.776170 0.758404
O O14 0.250000 0.273280 0.119316
O O15 0.451663 0.500000 0.106379
O O16 0.497760 0.224855 0.154931
O O17 0.250000 0.768711 0.807673
O O18 0.079940 0.500000 0.804555
#
# Coordination Sequence:
#
# PCOD9406661 Si02
#       6
#     8   8   4   8   8   8
#     4   9  16  26  41  60  82 109 142 181 226 273
#     4   9  16  26  41  62  87 112 142 181 223 268
#     4  10  22  38  54  76 106 134 168 210 251 298
#     4   8  14  26  44  65  91 122 152 184 225 270
#     4   9  18  34  54  74 100 134 167 203 250 298
#     4   8  14  27  48  72  96 124 162 202 234 274
#
# _framework density 19.622015999999999
#
# number of rings (size 3 to 8) (size 9 to 14) (size 15 to 20)
#    0.000    3.273    0.000    1.636    0.000    3.273 
#    1.636    0.909    0.000    2.182    0.000    0.000 
#    0.000    0.000    0.000    0.000    0.000    0.000 
#
# Total GULP energy -245200.149220 kJ/mol
# GULP energy per Si atom -5572.730664 kJ/mol
# Density = 1.957736 g / cm^3
# Si number density = 19.622016 Si / 1000 Ang^3
#
#
#
# Elastic Constant Matrix: (Units=GPa)
#
#
# Indices 1 2 3 4 5 6 
#
# 1 67.4950 21.1895 92.5899 0.0000 0.0000 0.0000
# 2 21.1895 63.4690 39.0492 0.0000 0.0000 0.0000
# 3 92.5899 39.0492 248.4815 0.0000 0.0000 0.0000
# 4 0.0000 0.0000 0.0000 23.3672 0.0000 0.0000
# 5 0.0000 0.0000 0.0000 0.0000 35.1841 0.0000
# 6 0.0000 0.0000 0.0000 0.0000 0.0000 1.9314
#
#
#
# Elastic Compliance Matrix: (Units=1/GPa)
#
#
# Indices 1 2 3 4 5 6 
#
# 1 0.031032 -0.003593 -0.010998 0.000000 0.000000 0.000000
# 2 -0.003593 0.017858 -0.001467 0.000000 0.000000 0.000000
# 3 -0.010998 -0.001467 0.008353 0.000000 0.000000 0.000000
# 4 0.000000 0.000000 0.000000 0.042795 0.000000 0.000000
# 5 0.000000 0.000000 0.000000 0.000000 0.028422 0.000000
# 6 0.000000 0.000000 0.000000 0.000000 0.000000 0.517766
#
#
# Mechanical properties :
#
#
# Convention : Reuss Voigt Hill
#
# Bulk Modulus (GPa) = 39.80138 76.12251 57.96194
# Shear Modulus (GPa) = 7.28099 27.20432 17.24265
#
# Velocity S-wave (km/s) = 1.92839 3.72750 2.96757
# Velocity P-wave (km/s) = 5.02855 7.57657 6.43003
#
# Compressibility (1/GPa) = 0.02512476
#
# Stress axis : x y z
#
# Youngs Moduli (GPa) = 32.22515 55.99649 119.71286
#
# Poissons Ratio (x) = 0.20122 1.31665
# Poissons Ratio (y) = 0.11580 0.17568
# Poissons Ratio (z) = 0.35443 0.08217
#
# Static dielectric constant tensor:
#      x y z
#    x 1.661410 0.000000 0.000000 
#    y 0.000000 1.749750 0.000000 
#    z 0.000000 0.000000 1.691740 
# 
# From -- ./inp_files/36720.got.cif
#   From: 2010.05.17/outbox.cif.g08.bks.cpg/sg51_19_cif.got.tgz:36720.got - 2010.06.03 11:52:47.
