data_PCOD9406698
_publ_section_title
;
Structure prediction by ZEFSAII (Michael W. Deem and Ramdas Pophale) SiO2 
 PCOD9406698
Probable space group: P M M A
;
_chemical_formula_sum "Si O2"
_cell_formula_units_Z 56
_cell_length_a 21.844668
_cell_length_b 9.014179
_cell_length_c 14.178989
_cell_angle_alpha 90.000000
_cell_angle_beta 90.000000
_cell_angle_gamma 90.000000
_cell_volume 2792.009502
_symmetry_space_group_name_H-M "P M M A"
_symmetry_group_IT_number 51
_symmetry_cell_setting 'orthorhombic'
loop_
_space_group_symop_operation_xyz
x,y,z
1/2-x,-y,z
1/2+x,-y,-z
-x,y,-z
-x,-y,-z
1/2+x,y,-z
1/2-x,y,z
x,-y,z
loop_
_atom_site_type_symbol
_atom_site_label
_atom_site_fract_x
_atom_site_fract_y
_atom_site_fract_z
Si Si1 0.431332 0.175069 0.614080
Si Si2 0.183458 0.322062 0.293884
Si Si3 0.317929 0.322970 0.717929
Si Si4 0.130734 0.824273 0.896410
Si Si5 0.066593 0.174546 0.387066
Si Si6 0.994300 0.668427 0.114251
Si Si7 0.629906 0.322280 0.900543
O O1 0.373901 0.259208 0.657430
O O2 0.499112 0.230163 0.644534
O O3 0.430611 0.186880 0.500634
O O4 0.426738 0.000000 0.638089
O O5 0.250000 0.270522 0.328688
O O6 0.180597 0.500000 0.303681
O O7 0.125296 0.254132 0.345172
O O8 0.177027 0.290065 0.182340
O O9 0.250000 0.285671 0.680284
O O10 0.322932 0.500000 0.723484
O O11 0.325267 0.253816 0.821812
O O12 0.061860 0.775833 0.865519
O O13 0.137022 0.000000 0.894481
O O14 0.140008 0.762036 0.001903
O O15 0.069018 0.000000 0.363774
O O16 0.981159 0.500000 0.147083
O O17 0.062553 0.715419 0.141705
O O18 0.000000 0.662356 0.000000
O O19 0.628947 0.500000 0.919524
#
# Coordination Sequence:
#
# PCOD9406698 Si02
#       7
#     8   8   8   8   8   8   8
#     4   9  20  41  66  92 120 151 189 240 296 353
#     4  10  22  38  57  86 122 160 202 244 288 341
#     4  11  25  42  60  85 118 158 201 243 293 354
#     4  11  22  35  55  84 117 153 196 246 298 351
#     4   9  20  40  65  92 122 153 189 235 296 358
#     4   8  15  30  51  75 105 143 191 241 287 339
#     4   9  19  36  55  78 114 160 204 245 290 341
#
# _framework density 20.057238000000002
#
# number of rings (size 3 to 8) (size 9 to 14) (size 15 to 20)
#    0.000    2.429    0.000    3.429    2.000    6.857 
#    0.000    5.714    0.000    0.000    0.000    0.000 
#    0.000    0.000    0.000    0.000    0.000    0.000 
#
# Total GULP energy -312641.240501 kJ/mol
# GULP energy per Si atom -5582.879295 kJ/mol
# Density = 2.001159 g / cm^3
# Si number density = 20.057238 Si / 1000 Ang^3
#
#
#
# Elastic Constant Matrix: (Units=GPa)
#
#
# Indices 1 2 3 4 5 6 
#
# 1 185.2403 68.1094 55.8253 0.0000 0.0000 0.0000
# 2 68.1094 66.8829 32.4452 0.0000 0.0000 0.0000
# 3 55.8253 32.4452 47.0428 0.0000 0.0000 0.0000
# 4 0.0000 0.0000 0.0000 28.8455 0.0000 0.0000
# 5 0.0000 0.0000 0.0000 0.0000 17.8696 0.0000
# 6 0.0000 0.0000 0.0000 0.0000 0.0000 4.8628
#
#
#
# Elastic Compliance Matrix: (Units=1/GPa)
#
#
# Indices 1 2 3 4 5 6 
#
# 1 0.010071 -0.006699 -0.007330 0.000000 0.000000 0.000000
# 2 -0.006699 0.026926 -0.010620 0.000000 0.000000 0.000000
# 3 -0.007330 -0.010620 0.037281 0.000000 0.000000 0.000000
# 4 0.000000 0.000000 0.000000 0.034667 0.000000 0.000000
# 5 0.000000 0.000000 0.000000 0.000000 0.055961 0.000000
# 6 0.000000 0.000000 0.000000 0.000000 0.000000 0.205641
#
#
# Mechanical properties :
#
#
# Convention : Reuss Voigt Hill
#
# Bulk Modulus (GPa) = 40.03663 67.99178 54.01420
# Shear Modulus (GPa) = 11.67751 19.83466 15.75609
#
# Velocity S-wave (km/s) = 2.41552 3.14809 2.80582
# Velocity P-wave (km/s) = 5.27107 6.86924 6.12253
#
# Compressibility (1/GPa) = 0.02497713
#
# Stress axis : x y z
#
# Youngs Moduli (GPa) = 99.29712 37.13900 26.82335
#
# Poissons Ratio (x) = 0.24881 0.19662
# Poissons Ratio (y) = 0.66524 0.28488
# Poissons Ratio (z) = 0.72788 0.39443
#
# Static dielectric constant tensor:
#      x y z
#    x 1.743450 0.000000 0.000000 
#    y 0.000000 1.671050 0.000000 
#    z 0.000000 0.000000 1.723820 
# 
# From -- ./inp_files/25761.got.cif
#   From: 2010.05.17/outbox.cif.g08.bks.cpg/sg51_13_cif.got.tgz:25761.got - 2010.06.03 11:52:47.
