data_PCOD9406600
_publ_section_title
;
Structure prediction by ZEFSAII (Michael W. Deem and Ramdas Pophale) SiO2 
 PCOD9406600
Probable space group: P M M A
;
_chemical_formula_sum "Si O2"
_cell_formula_units_Z 56
_cell_length_a 15.812959
_cell_length_b 19.616532
_cell_length_c 9.561781
_cell_angle_alpha 90.000000
_cell_angle_beta 90.000000
_cell_angle_gamma 90.000000
_cell_volume 2966.020637
_symmetry_space_group_name_H-M "P M M A"
_symmetry_group_IT_number 51
_symmetry_cell_setting 'orthorhombic'
loop_
_space_group_symop_operation_xyz
x,y,z
1/2-x,-y,z
1/2+x,-y,-z
-x,y,-z
-x,-y,-z
1/2+x,y,-z
1/2-x,y,z
x,-y,z
loop_
_atom_site_type_symbol
_atom_site_label
_atom_site_fract_x
_atom_site_fract_y
_atom_site_fract_z
Si Si1 0.399027 0.688747 0.977734
Si Si2 0.348771 0.080066 0.864435
Si Si3 0.467841 0.838511 0.647631
Si Si4 0.348638 0.424801 0.175454
Si Si5 0.151092 0.290681 0.656579
Si Si6 0.400391 0.579259 0.477234
Si Si7 0.584822 0.173883 0.905167
O O1 0.360977 0.621729 0.043240
O O2 0.369237 0.755016 0.064085
O O3 0.500000 0.682921 0.000000
O O4 0.372186 0.698170 0.818895
O O5 0.250000 0.089356 0.831447
O O6 0.405102 0.116545 0.745057
O O7 0.368817 0.000000 0.868475
O O8 0.366168 0.113054 0.017635
O O9 0.500000 0.867626 0.500000
O O10 0.415305 0.768917 0.613753
O O11 0.549949 0.829190 0.748218
O O12 0.250000 0.429721 0.205615
O O13 0.384376 0.500000 0.150427
O O14 0.388629 0.397305 0.317331
O O15 0.250000 0.270208 0.642614
O O16 0.137925 0.362336 0.575892
O O17 0.500000 0.576272 0.500000
O O18 0.367832 0.500000 0.491715
O O19 0.500000 0.177295 0.000000
#
# Coordination Sequence:
#
# PCOD9406600 Si02
#       7
#     8   8   8   8   8   8   8
#     4  11  20  36  59  84 113 148 196 248 295 350
#     4  10  21  41  69  96 125 161 200 245 299 356
#     4  11  23  39  61  90 128 164 205 247 297 361
#     4  10  22  38  54  78 113 151 192 242 301 358
#     4  12  23  36  58  86 120 156 198 254 309 361
#     4  10  22  40  60  81 112 156 202 247 300 371
#     4   9  19  38  60  88 118 157 198 244 286 352
#
# _framework density 18.880516
#
# number of rings (size 3 to 8) (size 9 to 14) (size 15 to 20)
#    0.000    1.571    4.286    2.571    2.000    5.143 
#    0.000    1.429    0.000    1.714    0.000    0.000 
#    0.000    0.000    0.000    0.000    0.000    0.000 
#
# Total GULP energy -312155.502854 kJ/mol
# GULP energy per Si atom -5574.205408 kJ/mol
# Density = 1.883754 g / cm^3
# Si number density = 18.880516 Si / 1000 Ang^3
#
#
#
# Elastic Constant Matrix: (Units=GPa)
#
#
# Indices 1 2 3 4 5 6 
#
# 1 49.5576 11.3859 9.2043 0.0000 0.0000 0.0000
# 2 11.3859 67.8187 12.1857 0.0000 0.0000 0.0000
# 3 9.2043 12.1857 60.4556 0.0000 0.0000 0.0000
# 4 0.0000 0.0000 0.0000 21.2947 0.0000 0.0000
# 5 0.0000 0.0000 0.0000 0.0000 12.4714 0.0000
# 6 0.0000 0.0000 0.0000 0.0000 0.0000 29.1483
#
#
#
# Elastic Compliance Matrix: (Units=1/GPa)
#
#
# Indices 1 2 3 4 5 6 
#
# 1 0.021383 -0.003118 -0.002627 0.000000 0.000000 0.000000
# 2 -0.003118 0.015754 -0.002701 0.000000 0.000000 0.000000
# 3 -0.002627 -0.002701 0.017485 0.000000 0.000000 0.000000
# 4 0.000000 0.000000 0.000000 0.046960 0.000000 0.000000
# 5 0.000000 0.000000 0.000000 0.000000 0.080183 0.000000
# 6 0.000000 0.000000 0.000000 0.000000 0.000000 0.034307
#
#
# Mechanical properties :
#
#
# Convention : Reuss Voigt Hill
#
# Bulk Modulus (GPa) = 26.50355 27.04263 26.77309
# Shear Modulus (GPa) = 20.36322 22.25330 21.30826
#
# Velocity S-wave (km/s) = 3.28766 3.43686 3.36309
# Velocity P-wave (km/s) = 5.33663 5.48666 5.41216
#
# Compressibility (1/GPa) = 0.03773080
#
# Stress axis : x y z
#
# Youngs Moduli (GPa) = 46.76661 63.47629 57.19056
#
# Poissons Ratio (x) = 0.19791 0.15024
# Poissons Ratio (y) = 0.14581 0.15446
# Poissons Ratio (z) = 0.12286 0.17143
#
# Static dielectric constant tensor:
#      x y z
#    x 1.718350 0.000000 0.000000 
#    y 0.000000 1.699680 0.000000 
#    z 0.000000 0.000000 1.634170 
# 
# From -- ./inp_files/8572.got.cif
#   From: 2010.05.17/outbox.cif.g08.bks.cpg/sg51_5_cif.got.tgz:8572.got - 2010.06.03 11:52:47.
