data_PCOD9406913
_publ_section_title
;
Structure prediction by ZEFSAII (Michael W. Deem and Ramdas Pophale) SiO2 
 PCOD9406913
Probable space group: P M M A
;
_chemical_formula_sum "Si O2"
_cell_formula_units_Z 40
_cell_length_a 28.936547
_cell_length_b 8.805622
_cell_length_c 8.001398
_cell_angle_alpha 90.000000
_cell_angle_beta 90.000000
_cell_angle_gamma 90.000000
_cell_volume 2038.790575
_symmetry_space_group_name_H-M "P M M A"
_symmetry_group_IT_number 51
_symmetry_cell_setting 'orthorhombic'
loop_
_space_group_symop_operation_xyz
x,y,z
1/2-x,-y,z
1/2+x,-y,-z
-x,y,-z
-x,-y,-z
1/2+x,y,-z
1/2-x,y,z
x,-y,z
loop_
_atom_site_type_symbol
_atom_site_label
_atom_site_fract_x
_atom_site_fract_y
_atom_site_fract_z
Si Si1 0.856909 0.180413 0.424852
Si Si2 0.358377 0.681904 0.920405
Si Si3 0.804439 0.681706 0.740708
Si Si4 0.551263 0.181521 0.931755
Si Si5 0.948453 0.681507 0.563286
O O1 0.839092 0.252298 0.252257
O O2 0.828154 0.235604 0.585227
O O3 0.909013 0.240267 0.453764
O O4 0.856604 0.000000 0.414077
O O5 0.360807 0.500000 0.910033
O O6 0.328460 0.723373 0.083842
O O7 0.409231 0.750168 0.950790
O O8 0.750000 0.713268 0.746761
O O9 0.810927 0.500000 0.718790
O O10 0.556718 0.257836 0.751120
O O11 0.556958 0.000000 0.918446
O O12 0.500000 0.213237 0.000000
O O13 0.941931 0.500000 0.559345
O O14 0.000000 0.716614 0.500000
#
# Coordination Sequence:
#
# PCOD9406913 Si02
#       5
#     8   8   8   8   8
#     4  12  25  41  65  96 134 172 213 269 331 387
#     4  11  23  41  67  95 129 172 219 267 320 384
#     4  10  23  45  71  97 127 168 219 272 326 387
#     4  11  23  38  59  91 131 171 212 263 326 385
#     4  11  23  39  61  90 126 171 222 268 317 382
#
# _framework density 19.619472999999999
#
# number of rings (size 3 to 8) (size 9 to 14) (size 15 to 20)
#    0.000    1.000    2.000    4.800    0.000    8.400 
#    0.000    2.000    0.000    0.000    0.000    0.000 
#    0.000    0.000    0.000    0.000    0.000    0.000 
#
# Total GULP energy -223838.505692 kJ/mol
# GULP energy per Si atom -5595.962642 kJ/mol
# Density = 1.957482 g / cm^3
# Si number density = 19.619473 Si / 1000 Ang^3
#
#
#
# Elastic Constant Matrix: (Units=GPa)
#
#
# Indices 1 2 3 4 5 6 
#
# 1 100.9233 56.8001 48.8128 0.0000 0.0000 0.0000
# 2 56.8001 72.5176 48.6135 0.0000 0.0000 0.0000
# 3 48.8128 48.6135 143.5007 0.0000 0.0000 0.0000
# 4 0.0000 0.0000 0.0000 108.3632 0.0000 0.0000
# 5 0.0000 0.0000 0.0000 0.0000 16.0851 0.0000
# 6 0.0000 0.0000 0.0000 0.0000 0.0000 -44.3284
#
#
#
# Elastic Compliance Matrix: (Units=1/GPa)
#
#
# Indices 1 2 3 4 5 6 
#
# 1 0.018052 -0.012968 -0.001747 0.000000 0.000000 0.000000
# 2 -0.012968 0.027158 -0.004789 0.000000 0.000000 0.000000
# 3 -0.001747 -0.004789 0.009185 0.000000 0.000000 0.000000
# 4 0.000000 0.000000 0.000000 0.009228 0.000000 0.000000
# 5 0.000000 0.000000 0.000000 0.000000 0.062169 0.000000
# 6 0.000000 0.000000 0.000000 0.000000 0.000000 -0.022559
#
#
# Mechanical properties :
#
#
# Convention : Reuss Voigt Hill
#
# Bulk Modulus (GPa) = 64.99351 69.48827 67.24089
# Shear Modulus (GPa) = 33.92787 26.87165 30.39976
#
# Velocity S-wave (km/s) = 4.16299 3.70488 3.94060
# Velocity P-wave (km/s) = 7.50375 7.33461 7.41966
#
# Compressibility (1/GPa) = 0.01538615
#
# Stress axis : x y z
#
# Youngs Moduli (GPa) = 55.39488 36.82220 108.86947
#
# Poissons Ratio (x) = 0.47752 0.19024
# Poissons Ratio (y) = 0.71837 0.52136
# Poissons Ratio (z) = 0.09680 0.17634
#
# Static dielectric constant tensor:
#      x y z
#    x 1.680200 0.000000 0.000000 
#    y 0.000000 1.649920 0.000000 
#    z 0.000000 0.000000 1.697650 
# 
# From -- ./inp_files/12599.got.cif
#   From: 2010.05.17/outbox.cif.g08.bks.cpg/sg51_7_cif.got.tgz:12599.got - 2010.06.03 11:52:47.
