data_PCOD9406703
_publ_section_title
;
Structure prediction by ZEFSAII (Michael W. Deem and Ramdas Pophale) SiO2 
 PCOD9406703
Probable space group: P M M A
;
_chemical_formula_sum "Si O2"
_cell_formula_units_Z 30
_cell_length_a 30.844563
_cell_length_b 7.938801
_cell_length_c 5.229249
_cell_angle_alpha 90.000000
_cell_angle_beta 90.000000
_cell_angle_gamma 90.000000
_cell_volume 1280.480176
_symmetry_space_group_name_H-M "P M M A"
_symmetry_group_IT_number 51
_symmetry_cell_setting 'orthorhombic'
loop_
_space_group_symop_operation_xyz
x,y,z
1/2-x,-y,z
1/2+x,-y,-z
-x,y,-z
-x,-y,-z
1/2+x,y,-z
1/2-x,y,z
x,-y,z
loop_
_atom_site_type_symbol
_atom_site_label
_atom_site_fract_x
_atom_site_fract_y
_atom_site_fract_z
Si Si1 0.551677 0.319068 0.961412
Si Si2 0.530033 0.000000 0.743433
Si Si3 0.627934 0.700429 0.307983
Si Si4 0.178747 0.806144 0.200740
Si Si5 0.750000 0.500000 0.770870
O O1 0.567716 0.500000 0.863408
O O2 0.557711 0.167062 0.769689
O O3 0.500000 0.333165 0.000000
O O4 0.577741 0.281750 0.220356
O O5 0.500000 0.000000 0.500000
O O6 0.500000 0.000000 0.000000
O O7 0.636334 0.500000 0.325294
O O8 0.646180 0.784967 0.560908
O O9 0.654090 0.774846 0.066201
O O10 0.212747 0.652151 0.226633
O O11 0.195654 0.000000 0.203373
#
# Coordination Sequence:
#
# PCOD9406703 Si02
#       5
#     8   4   8   8   2
#     4   9  21  41  67  97 139 189 238 284 338 401
#     4  10  22  38  58  92 126 171 228 283 328 382
#     4  11  23  47  71 105 147 190 235 294 351 416
#     4  12  27  46  76 106 142 185 230 291 361 429
#     4  12  26  54  76 108 142 178 234 294 356 448
#
# _framework density 23.428708
#
# number of rings (size 3 to 8) (size 9 to 14) (size 15 to 20)
#    0.000    1.333    2.667    1.200    3.733    6.933 
#    0.000   10.667    0.000    0.000    0.000    0.000 
#    0.000    0.000    0.000    0.000    0.000    0.000 
#
# Total GULP energy -167123.604558 kJ/mol
# GULP energy per Si atom -5570.786819 kJ/mol
# Density = 2.337538 g / cm^3
# Si number density = 23.428708 Si / 1000 Ang^3
#
#
#
# Elastic Constant Matrix: (Units=GPa)
#
#
# Indices 1 2 3 4 5 6 
#
# 1 146.2248 40.7603 47.5918 0.0000 0.0000 0.0000
# 2 40.7603 222.2443 40.1026 0.0000 0.0000 0.0000
# 3 47.5918 40.1026 142.2180 0.0000 0.0000 0.0000
# 4 0.0000 0.0000 0.0000 0.1464 0.0000 0.0000
# 5 0.0000 0.0000 0.0000 0.0000 -42.5775 0.0000
# 6 0.0000 0.0000 0.0000 0.0000 0.0000 4.7578
#
#
#
# Elastic Compliance Matrix: (Units=1/GPa)
#
#
# Indices 1 2 3 4 5 6 
#
# 1 0.007889 -0.001023 -0.002352 0.000000 0.000000 0.000000
# 2 -0.001023 0.004873 -0.001032 0.000000 0.000000 0.000000
# 3 -0.002352 -0.001032 0.008109 0.000000 0.000000 0.000000
# 4 0.000000 0.000000 0.000000 6.832235 0.000000 0.000000
# 5 0.000000 0.000000 0.000000 0.000000 -0.023487 0.000000
# 6 0.000000 0.000000 0.000000 0.000000 0.000000 0.210183
#
#
# Mechanical properties :
#
#
# Convention : Reuss Voigt Hill
#
# Bulk Modulus (GPa) = 82.92239 85.28849 84.10544
# Shear Modulus (GPa) = 0.70895 17.94748 9.32822
#
# Velocity S-wave (km/s) = 0.55069 2.77076 1.99754
# Velocity P-wave (km/s) = 5.98955 6.83510 6.42624
#
# Compressibility (1/GPa) = 0.01205947
#
# Stress axis : x y z
#
# Youngs Moduli (GPa) = 126.75495 205.19937 123.31317
#
# Poissons Ratio (x) = 0.20983 0.29000
# Poissons Ratio (y) = 0.12961 0.12726
# Poissons Ratio (z) = 0.29809 0.21176
#
# Static dielectric constant tensor:
#      x y z
#    x 1.833630 0.000000 0.000000 
#    y 0.000000 1.889830 0.000000 
#    z 0.000000 0.000000 1.782440 
# 
# From -- ./inp_files/3768.got.cif
#   From: 2010.05.17/outbox.cif.g08.bks.cpg/sg51_2_cif.got.tgz:3768.got - 2010.06.03 11:52:47.
