data_PCOD9406660
_publ_section_title
;
Structure prediction by ZEFSAII (Michael W. Deem and Ramdas Pophale) SiO2 
 PCOD9406660
Probable space group: P M M A
;
_chemical_formula_sum "Si O2"
_cell_formula_units_Z 48
_cell_length_a 14.244644
_cell_length_b 14.278523
_cell_length_c 12.621840
_cell_angle_alpha 90.000000
_cell_angle_beta 90.000000
_cell_angle_gamma 90.000000
_cell_volume 2567.187302
_symmetry_space_group_name_H-M "P M M A"
_symmetry_group_IT_number 51
_symmetry_cell_setting 'orthorhombic'
loop_
_space_group_symop_operation_xyz
x,y,z
1/2-x,-y,z
1/2+x,-y,-z
-x,y,-z
-x,-y,-z
1/2+x,y,-z
1/2-x,y,z
x,-y,z
loop_
_atom_site_type_symbol
_atom_site_label
_atom_site_fract_x
_atom_site_fract_y
_atom_site_fract_z
Si Si1 0.860677 0.223280 0.240031
Si Si2 0.636188 0.106986 0.032430
Si Si3 0.511422 0.112530 0.378596
Si Si4 0.037168 0.610709 0.831088
Si Si5 0.354631 0.387683 0.053787
Si Si6 0.858462 0.885794 0.795822
O O1 0.750000 0.238391 0.238145
O O2 0.889259 0.173665 0.129065
O O3 0.893335 0.153312 0.330838
O O4 0.915268 0.320676 0.251569
O O5 0.750000 0.103398 0.029811
O O6 0.603335 0.000000 0.051437
O O7 0.608249 0.140055 0.914943
O O8 0.500000 0.142197 0.500000
O O9 0.427905 0.142991 0.298383
O O10 0.513438 0.000000 0.376007
O O11 0.038044 0.500000 0.805898
O O12 0.931687 0.641848 0.860539
O O13 0.099540 0.623308 0.938066
O O14 0.250000 0.346634 0.059522
O O15 0.347346 0.500000 0.067424
O O16 0.750000 0.855654 0.780289
O O17 0.857248 0.000000 0.797610
#
# Coordination Sequence:
#
# PCOD9406660 Si02
#       6
#     8   8   8   8   8   8
#     4  11  22  34  52  78 106 137 173 212 260 318
#     4   8  15  29  48  72 102 131 161 200 248 305
#     4  10  22  38  54  74 100 132 175 222 263 308
#     4   9  18  31  47  72 106 141 179 222 265 314
#     4   8  14  27  47  70 102 145 185 219 260 313
#     4   8  15  30  51  73 100 134 167 203 254 314
#
# _framework density 18.697506000000001
#
# number of rings (size 3 to 8) (size 9 to 14) (size 15 to 20)
#    0.000    3.000    0.000    3.000    0.000    6.000 
#    0.000    6.667    0.000    0.500    0.000    0.000 
#    0.000    0.000    0.000    0.333    0.000    0.000 
#
# Total GULP energy -267848.919485 kJ/mol
# GULP energy per Si atom -5580.185823 kJ/mol
# Density = 1.865495 g / cm^3
# Si number density = 18.697506 Si / 1000 Ang^3
#
#
#
# Elastic Constant Matrix: (Units=GPa)
#
#
# Indices 1 2 3 4 5 6 
#
# 1 99.4663 15.3126 12.9067 0.0000 0.0000 0.0000
# 2 15.3126 58.6408 22.8438 0.0000 0.0000 0.0000
# 3 12.9067 22.8438 77.0081 0.0000 0.0000 0.0000
# 4 0.0000 0.0000 0.0000 10.0342 0.0000 0.0000
# 5 0.0000 0.0000 0.0000 0.0000 13.1117 0.0000
# 6 0.0000 0.0000 0.0000 0.0000 0.0000 20.6374
#
#
#
# Elastic Compliance Matrix: (Units=1/GPa)
#
#
# Indices 1 2 3 4 5 6 
#
# 1 0.010553 -0.002337 -0.001076 0.000000 0.000000 0.000000
# 2 -0.002337 0.019798 -0.005481 0.000000 0.000000 0.000000
# 3 -0.001076 -0.005481 0.014792 0.000000 0.000000 0.000000
# 4 0.000000 0.000000 0.000000 0.099659 0.000000 0.000000
# 5 0.000000 0.000000 0.000000 0.000000 0.076268 0.000000
# 6 0.000000 0.000000 0.000000 0.000000 0.000000 0.048456
#
#
# Mechanical properties :
#
#
# Convention : Reuss Voigt Hill
#
# Bulk Modulus (GPa) = 36.55496 37.47129 37.01312
# Shear Modulus (GPa) = 16.86731 21.02681 18.94706
#
# Velocity S-wave (km/s) = 3.00678 3.35711 3.18676
# Velocity P-wave (km/s) = 5.62561 5.92547 5.77749
#
# Compressibility (1/GPa) = 0.02735607
#
# Stress axis : x y z
#
# Youngs Moduli (GPa) = 94.76029 50.50905 67.60446
#
# Poissons Ratio (x) = 0.11802 0.07271
# Poissons Ratio (y) = 0.22142 0.37057
# Poissons Ratio (z) = 0.10192 0.27686
#
# Static dielectric constant tensor:
#      x y z
#    x 1.694250 0.000000 0.000000 
#    y 0.000000 1.684190 0.000000 
#    z 0.000000 0.000000 1.621960 
# 
# From -- ./inp_files/16469.got.cif
#   From: 2010.05.17/outbox.cif.g08.bks.cpg/sg51_9_cif.got.tgz:16469.got - 2010.06.03 11:52:47.
