data_PCOD9406731
_publ_section_title
;
Structure prediction by ZEFSAII (Michael W. Deem and Ramdas Pophale) SiO2 
 PCOD9406731
Probable space group: P M M A
;
_chemical_formula_sum "Si O2"
_cell_formula_units_Z 40
_cell_length_a 14.645984
_cell_length_b 9.994028
_cell_length_c 14.680209
_cell_angle_alpha 90.000000
_cell_angle_beta 90.000000
_cell_angle_gamma 90.000000
_cell_volume 2148.777045
_symmetry_space_group_name_H-M "P M M A"
_symmetry_group_IT_number 51
_symmetry_cell_setting 'orthorhombic'
loop_
_space_group_symop_operation_xyz
x,y,z
1/2-x,-y,z
1/2+x,-y,-z
-x,y,-z
-x,-y,-z
1/2+x,y,-z
1/2-x,y,z
x,-y,z
loop_
_atom_site_type_symbol
_atom_site_label
_atom_site_fract_x
_atom_site_fract_y
_atom_site_fract_z
Si Si1 0.851172 0.000000 0.105898
Si Si2 0.140861 0.156499 0.597821
Si Si3 0.480170 0.648450 0.710960
Si Si4 0.647993 0.000000 0.886961
Si Si5 0.500412 0.777100 0.108171
Si Si6 0.143499 0.653478 0.427201
O O1 0.911614 0.870724 0.126181
O O2 0.750000 0.000000 0.146624
O O3 0.843793 0.000000 0.996425
O O4 0.250000 0.163336 0.612481
O O5 0.087099 0.237215 0.674848
O O6 0.121501 0.237861 0.504520
O O7 0.114929 0.000000 0.593082
O O8 0.444980 0.500000 0.688333
O O9 0.495388 0.660694 0.818730
O O10 0.575121 0.667406 0.656953
O O11 0.587041 0.869643 0.867536
O O12 0.750000 0.000000 0.847494
O O13 0.500000 0.744683 0.000000
O O14 0.250000 0.669368 0.401725
O O15 0.132485 0.500000 0.462258
#
# Coordination Sequence:
#
# PCOD9406731 Si02
#       6
#     4   8   8   4   8   8
#     4   8  15  31  54  75  99 136 180 230 282 324
#     4  10  22  39  59  84 112 142 180 232 286 332
#     4  11  23  36  55  83 114 152 190 225 272 331
#     4   8  15  31  54  77 101 134 180 232 282 324
#     4   9  19  34  52  79 112 145 187 230 271 323
#     4   9  19  38  60  80 108 146 184 224 276 338
#
# _framework density 18.615241000000001
#
# number of rings (size 3 to 8) (size 9 to 14) (size 15 to 20)
#    0.000    2.600    0.000    2.400    2.800    6.400 
#    0.000    0.000    0.000    0.000    0.000    8.400 
#    0.000    0.000    0.000    0.000    0.000    0.000 
#
# Total GULP energy -222988.402387 kJ/mol
# GULP energy per Si atom -5574.710060 kJ/mol
# Density = 1.857287 g / cm^3
# Si number density = 18.615241 Si / 1000 Ang^3
#
#
#
# Elastic Constant Matrix: (Units=GPa)
#
#
# Indices 1 2 3 4 5 6 
#
# 1 90.5209 45.5348 33.5270 0.0000 0.0000 0.0000
# 2 45.5348 121.3997 58.6945 0.0000 0.0000 0.0000
# 3 33.5270 58.6945 100.8434 0.0000 0.0000 0.0000
# 4 0.0000 0.0000 0.0000 11.1423 0.0000 0.0000
# 5 0.0000 0.0000 0.0000 0.0000 1.3333 0.0000
# 6 0.0000 0.0000 0.0000 0.0000 0.0000 14.3798
#
#
#
# Elastic Compliance Matrix: (Units=1/GPa)
#
#
# Indices 1 2 3 4 5 6 
#
# 1 0.013964 -0.004165 -0.002218 0.000000 0.000000 0.000000
# 2 -0.004165 0.012705 -0.006010 0.000000 0.000000 0.000000
# 3 -0.002218 -0.006010 0.014152 0.000000 0.000000 0.000000
# 4 0.000000 0.000000 0.000000 0.089748 0.000000 0.000000
# 5 0.000000 0.000000 0.000000 0.000000 0.750038 0.000000
# 6 0.000000 0.000000 0.000000 0.000000 0.000000 0.069542
#
#
# Mechanical properties :
#
#
# Convention : Reuss Voigt Hill
#
# Bulk Modulus (GPa) = 62.36712 65.36407 63.86560
# Shear Modulus (GPa) = 5.10058 17.03825 11.06942
#
# Velocity S-wave (km/s) = 1.65709 3.02865 2.44118
# Velocity P-wave (km/s) = 6.10223 6.88620 6.50603
#
# Compressibility (1/GPa) = 0.01603409
#
# Stress axis : x y z
#
# Youngs Moduli (GPa) = 71.61295 78.70709 70.66123
#
# Poissons Ratio (x) = 0.32782 0.15675
# Poissons Ratio (y) = 0.29828 0.42469
# Poissons Ratio (z) = 0.15886 0.47305
#
# Static dielectric constant tensor:
#      x y z
#    x 1.666410 0.000000 0.000000 
#    y 0.000000 1.635960 0.000000 
#    z 0.000000 0.000000 1.638690 
# 
# From -- ./inp_files/23773.got.cif
#   From: 2010.05.17/outbox.cif.g08.bks.cpg/sg51_12_cif.got.tgz:23773.got - 2010.06.03 11:52:47.
