data_PCOD9406975
_publ_section_title
;
Structure prediction by ZEFSAII (Michael W. Deem and Ramdas Pophale) SiO2 
 PCOD9406975
Probable space group: P M M A
;
_chemical_formula_sum "Si O2"
_cell_formula_units_Z 40
_cell_length_a 10.571246
_cell_length_b 14.366710
_cell_length_c 13.994930
_cell_angle_alpha 90.000000
_cell_angle_beta 90.000000
_cell_angle_gamma 90.000000
_cell_volume 2125.466357
_symmetry_space_group_name_H-M "P M M A"
_symmetry_group_IT_number 51
_symmetry_cell_setting 'orthorhombic'
loop_
_space_group_symop_operation_xyz
x,y,z
1/2-x,-y,z
1/2+x,-y,-z
-x,y,-z
-x,-y,-z
1/2+x,y,-z
1/2-x,y,z
x,-y,z
loop_
_atom_site_type_symbol
_atom_site_label
_atom_site_fract_x
_atom_site_fract_y
_atom_site_fract_z
Si Si1 0.250000 0.611840 0.361210
Si Si2 0.517424 0.311487 0.291819
Si Si3 0.895363 0.351226 0.076163
Si Si4 0.383217 0.129383 0.941523
Si Si5 0.750000 0.610929 0.413607
Si Si6 0.396545 0.103533 0.716581
O O1 0.250000 0.500000 0.349549
O O2 0.377759 0.653395 0.316383
O O3 0.250000 0.633239 0.474247
O O4 0.555576 0.349358 0.185863
O O5 0.624511 0.350491 0.362794
O O6 0.527275 0.198742 0.301896
O O7 0.750000 0.388451 0.069870
O O8 0.884395 0.241280 0.054765
O O9 0.000000 0.388317 0.000000
O O10 0.250000 0.099244 0.982747
O O11 0.391178 0.101505 0.831625
O O12 0.500000 0.095629 0.000000
O O13 0.750000 0.500000 0.403511
O O14 0.250000 0.116506 0.684076
O O15 0.439573 0.000000 0.683798
#
# Coordination Sequence:
#
# PCOD9406975 Si02
#       6
#     4   8   8   8   4   8
#     4  11  26  42  64  96 122 145 186 258 328 371
#     4  11  20  39  63  91 124 163 197 243 307 360
#     4   9  17  30  53  84 118 160 205 240 284 348
#     4   8  14  25  41  68 106 146 192 241 281 322
#     4  11  22  42  70  94 114 143 196 256 318 381
#     4   9  17  32  55  81 113 159 205 236 277 345
#
# _framework density 18.819399000000001
#
# number of rings (size 3 to 8) (size 9 to 14) (size 15 to 20)
#    0.000    2.400    2.000    2.400    1.400    2.000 
#    5.400    0.500    0.000    7.200    0.000    0.000 
#    0.000    0.000    0.000    0.000    0.000    0.000 
#
# Total GULP energy -222812.659079 kJ/mol
# GULP energy per Si atom -5570.316477 kJ/mol
# Density = 1.877656 g / cm^3
# Si number density = 18.819399 Si / 1000 Ang^3
#
#
#
# Elastic Constant Matrix: (Units=GPa)
#
#
# Indices 1 2 3 4 5 6 
#
# 1 199.3354 60.7156 84.1366 0.0000 0.0000 0.0000
# 2 60.7156 93.3322 43.3587 0.0000 0.0000 0.0000
# 3 84.1366 43.3587 82.1081 0.0000 0.0000 0.0000
# 4 0.0000 0.0000 0.0000 154.7695 0.0000 0.0000
# 5 0.0000 0.0000 0.0000 0.0000 27.3715 0.0000
# 6 0.0000 0.0000 0.0000 0.0000 0.0000 12.8673
#
#
#
# Elastic Compliance Matrix: (Units=1/GPa)
#
#
# Indices 1 2 3 4 5 6 
#
# 1 0.009145 -0.002114 -0.008254 0.000000 0.000000 0.000000
# 2 -0.002114 0.014686 -0.005589 0.000000 0.000000 0.000000
# 3 -0.008254 -0.005589 0.023588 0.000000 0.000000 0.000000
# 4 0.000000 0.000000 0.000000 0.006461 0.000000 0.000000
# 5 0.000000 0.000000 0.000000 0.000000 0.036534 0.000000
# 6 0.000000 0.000000 0.000000 0.000000 0.000000 0.077717
#
#
# Mechanical properties :
#
#
# Convention : Reuss Voigt Hill
#
# Bulk Modulus (GPa) = 64.49596 83.46638 73.98117
# Shear Modulus (GPa) = 24.36490 51.43931 37.90210
#
# Velocity S-wave (km/s) = 3.60205 5.23378 4.49262
# Velocity P-wave (km/s) = 7.18645 8.99838 8.14297
#
# Compressibility (1/GPa) = 0.01550485
#
# Stress axis : x y z
#
# Youngs Moduli (GPa) = 109.35468 68.09121 42.39417
#
# Poissons Ratio (x) = 0.14397 0.34992
# Poissons Ratio (y) = 0.23121 0.23693
# Poissons Ratio (z) = 0.90261 0.38054
#
# Static dielectric constant tensor:
#      x y z
#    x 1.661250 0.000000 0.000000 
#    y 0.000000 1.693410 0.000000 
#    z 0.000000 0.000000 1.628210 
# 
# From -- ./inp_files/20575.got.cif
#   From: 2010.05.17/outbox.cif.g08.bks.cpg/sg51_11_cif.got.tgz:20575.got - 2010.06.03 11:52:47.
