data_PCOD9406647
_publ_section_title
;
Structure prediction by ZEFSAII (Michael W. Deem and Ramdas Pophale) SiO2 
 PCOD9406647
Probable space group: P M M A
;
_chemical_formula_sum "Si O2"
_cell_formula_units_Z 48
_cell_length_a 10.324447
_cell_length_b 30.817735
_cell_length_c 7.709207
_cell_angle_alpha 90.000000
_cell_angle_beta 90.000000
_cell_angle_gamma 90.000000
_cell_volume 2452.885199
_symmetry_space_group_name_H-M "P M M A"
_symmetry_group_IT_number 51
_symmetry_cell_setting 'orthorhombic'
loop_
_space_group_symop_operation_xyz
x,y,z
1/2-x,-y,z
1/2+x,-y,-z
-x,y,-z
-x,-y,-z
1/2+x,y,-z
1/2-x,y,z
x,-y,z
loop_
_atom_site_type_symbol
_atom_site_label
_atom_site_fract_x
_atom_site_fract_y
_atom_site_fract_z
Si Si1 0.250000 0.653972 0.979209
Si Si2 0.485594 0.771408 0.210390
Si Si3 0.599564 0.552423 0.650991
Si Si4 0.601084 0.137550 0.845655
Si Si5 0.250000 0.708869 0.310103
Si Si6 0.500000 0.597059 0.000000
Si Si7 0.395356 0.952971 0.350563
Si Si8 0.750000 0.728551 0.304578
O O1 0.250000 0.668127 0.181340
O O2 0.379156 0.626780 0.943808
O O3 0.250000 0.696563 0.859874
O O4 0.439341 0.819715 0.261787
O O5 0.376253 0.737227 0.263582
O O6 0.621863 0.757874 0.292136
O O7 0.500000 0.770220 0.000000
O O8 0.500000 0.566949 0.500000
O O9 0.750000 0.565685 0.621819
O O10 0.597651 0.500000 0.652921
O O11 0.549577 0.569395 0.836358
O O12 0.750000 0.144274 0.902638
O O13 0.592301 0.090868 0.756735
O O14 0.500000 0.136386 0.000000
O O15 0.250000 0.701843 0.516043
O O16 0.500000 0.952132 0.500000
O O17 0.250000 0.952327 0.424989
O O18 0.408761 0.000000 0.256793
#
# Coordination Sequence:
#
# PCOD9406647 Si02
#       8
#     4   8   8   8   4   4   8   4
#     4  12  26  44  65  96 134 176 221 284 330 384
#     4  11  21  42  65  88 125 160 202 272 328 380
#     4  10  23  44  72 107 143 181 228 281 332 388
#     4  10  22  37  59  89 117 153 193 247 309 367
#     4  12  24  44  66  91 125 166 216 267 329 390
#     4  12  25  44  70  96 140 186 226 272 337 394
#     4   9  19  37  57  81 119 158 192 238 295 361
#     4  12  26  42  70  93 117 172 220 267 333 388
#
# _framework density 19.568791999999998
#
# number of rings (size 3 to 8) (size 9 to 14) (size 15 to 20)
#    0.000    1.333    3.333    1.750    4.667    3.667 
#    0.000    0.000    0.000    0.000    0.000    0.000 
#    0.000    0.000    0.000    0.000    0.000    0.000 
#
# Total GULP energy -267988.463091 kJ/mol
# GULP energy per Si atom -5583.092981 kJ/mol
# Density = 1.952425 g / cm^3
# Si number density = 19.568792 Si / 1000 Ang^3
#
#
#
# Elastic Constant Matrix: (Units=GPa)
#
#
# Indices 1 2 3 4 5 6 
#
# 1 170.0458 48.1043 40.0884 0.0000 0.0000 0.0000
# 2 48.1043 55.3424 16.7112 0.0000 0.0000 0.0000
# 3 40.0884 16.7112 78.1959 0.0000 0.0000 0.0000
# 4 0.0000 0.0000 0.0000 7.5601 0.0000 0.0000
# 5 0.0000 0.0000 0.0000 0.0000 2.7718 0.0000
# 6 0.0000 0.0000 0.0000 0.0000 0.0000 32.3810
#
#
#
# Elastic Compliance Matrix: (Units=1/GPa)
#
#
# Indices 1 2 3 4 5 6 
#
# 1 0.008382 -0.006401 -0.002929 0.000000 0.000000 0.000000
# 2 -0.006401 0.024204 -0.001891 0.000000 0.000000 0.000000
# 3 -0.002929 -0.001891 0.014694 0.000000 0.000000 0.000000
# 4 0.000000 0.000000 0.000000 0.132273 0.000000 0.000000
# 5 0.000000 0.000000 0.000000 0.000000 0.360781 0.000000
# 6 0.000000 0.000000 0.000000 0.000000 0.000000 0.030882
#
#
# Mechanical properties :
#
#
# Convention : Reuss Voigt Hill
#
# Bulk Modulus (GPa) = 40.26126 57.04353 48.65239
# Shear Modulus (GPa) = 8.30648 21.78793 15.04721
#
# Velocity S-wave (km/s) = 2.06252 3.34039 2.77598
# Velocity P-wave (km/s) = 5.12746 6.64011 5.93220
#
# Compressibility (1/GPa) = 0.02483777
#
# Stress axis : x y z
#
# Youngs Moduli (GPa) = 119.29983 41.31464 68.05392
#
# Poissons Ratio (x) = 0.26447 0.19935
# Poissons Ratio (y) = 0.76369 0.12868
# Poissons Ratio (z) = 0.34946 0.07812
#
# Static dielectric constant tensor:
#      x y z
#    x 1.662440 0.000000 0.000000 
#    y 0.000000 1.713750 0.000000 
#    z 0.000000 0.000000 1.673170 
# 
# From -- ./inp_files/6308.got.cif
#   From: 2010.05.17/outbox.cif.g08.bks.cpg/sg51_4_cif.got.tgz:6308.got - 2010.06.03 11:52:47.
