data_PCOD9406201
_publ_section_title
;
Structure prediction by ZEFSAII (Michael W. Deem and Ramdas Pophale) SiO2 
 PCOD9406201
Probable space group: P M M A
;
_chemical_formula_sum "Si O2"
_cell_formula_units_Z 56
_cell_length_a 8.591406
_cell_length_b 21.637430
_cell_length_c 15.584512
_cell_angle_alpha 90.000000
_cell_angle_beta 90.000000
_cell_angle_gamma 90.000000
_cell_volume 2897.097600
_symmetry_space_group_name_H-M "P M M A"
_symmetry_group_IT_number 51
_symmetry_cell_setting 'orthorhombic'
loop_
_space_group_symop_operation_xyz
x,y,z
1/2-x,-y,z
1/2+x,-y,-z
-x,y,-z
-x,-y,-z
1/2+x,y,-z
1/2-x,y,z
x,-y,z
loop_
_atom_site_type_symbol
_atom_site_label
_atom_site_fract_x
_atom_site_fract_y
_atom_site_fract_z
Si Si1 0.931803 0.625337 0.670908
Si Si2 0.064287 0.071978 0.405569
Si Si3 0.068304 0.265275 0.583491
Si Si4 0.062842 0.500000 0.596343
Si Si5 0.566721 0.833676 0.267625
Si Si6 0.065214 0.500000 0.095613
Si Si7 0.939049 0.767465 0.092354
Si Si8 0.067683 0.632697 0.849932
O O1 0.750000 0.623821 0.693508
O O2 0.965204 0.673936 0.596401
O O3 0.993202 0.559320 0.642683
O O4 0.036471 0.646002 0.750579
O O5 0.250000 0.076581 0.410208
O O6 0.000000 0.090611 0.500000
O O7 0.008881 0.111191 0.322986
O O8 0.019185 0.000000 0.393852
O O9 0.250000 0.279884 0.572992
O O10 0.050873 0.223739 0.667351
O O11 0.000000 0.232226 0.500000
O O12 0.250000 0.500000 0.598530
O O13 0.000000 0.500000 0.500000
O O14 0.750000 0.847806 0.258127
O O15 0.509929 0.809612 0.173990
O O16 0.250000 0.500000 0.097783
O O17 0.008864 0.565706 0.133823
O O18 0.000000 0.500000 0.000000
O O19 0.750000 0.766806 0.093563
O O20 0.990643 0.695247 0.103723
O O21 0.000000 0.789348 0.000000
O O22 0.250000 0.625953 0.869115
#
# Coordination Sequence:
#
# PCOD9406201 Si02
#       8
#     8   8   8   4   8   4   8   8
#     4  12  24  39  58  82 109 144 191 239 292 359
#     4  10  21  37  60  94 133 171 209 248 294 350
#     4  11  22  38  57  83 118 154 194 241 293 351
#     4  12  25  42  59  76 104 144 190 241 298 357
#     4  10  21  39  61  88 123 161 204 249 296 352
#     4  12  25  40  57  84 112 144 190 243 306 377
#     4  10  22  40  62  89 120 156 201 253 308 367
#     4  11  22  41  62  83 113 150 192 248 310 368
#
# _framework density 19.329692000000001
#
# number of rings (size 3 to 8) (size 9 to 14) (size 15 to 20)
#    0.000    1.143    1.429    5.571    0.000    6.000 
#    0.000    0.000    0.000    0.429    0.000    0.000 
#    0.000    0.000    0.000    0.000    0.000    0.000 
#
# Total GULP energy -312653.282194 kJ/mol
# GULP energy per Si atom -5583.094325 kJ/mol
# Density = 1.928570 g / cm^3
# Si number density = 19.329692 Si / 1000 Ang^3
#
#
#
# Elastic Constant Matrix: (Units=GPa)
#
#
# Indices 1 2 3 4 5 6 
#
# 1 44.2531 36.6211 13.1267 0.0000 0.0000 0.0000
# 2 36.6211 116.1576 47.3620 0.0000 0.0000 0.0000
# 3 13.1267 47.3620 135.6577 0.0000 0.0000 0.0000
# 4 0.0000 0.0000 0.0000 27.5724 0.0000 0.0000
# 5 0.0000 0.0000 0.0000 0.0000 33.9011 0.0000
# 6 0.0000 0.0000 0.0000 0.0000 0.0000 20.1068
#
#
#
# Elastic Compliance Matrix: (Units=1/GPa)
#
#
# Indices 1 2 3 4 5 6 
#
# 1 0.030600 -0.009841 0.000475 0.000000 0.000000 0.000000
# 2 -0.009841 0.013203 -0.003657 0.000000 0.000000 0.000000
# 3 0.000475 -0.003657 0.008602 0.000000 0.000000 0.000000
# 4 0.000000 0.000000 0.000000 0.036268 0.000000 0.000000
# 5 0.000000 0.000000 0.000000 0.000000 0.029498 0.000000
# 6 0.000000 0.000000 0.000000 0.000000 0.000000 0.049734
#
#
# Mechanical properties :
#
#
# Convention : Reuss Voigt Hill
#
# Bulk Modulus (GPa) = 37.93830 54.47644 46.20737
# Shear Modulus (GPa) = 24.66231 29.57994 27.12113
#
# Velocity S-wave (km/s) = 3.57582 3.91613 3.74984
# Velocity P-wave (km/s) = 6.05955 6.97797 6.53492
#
# Compressibility (1/GPa) = 0.02635858
#
# Stress axis : x y z
#
# Youngs Moduli (GPa) = 32.67953 75.74190 116.24667
#
# Poissons Ratio (x) = 0.74537 -0.05519
# Poissons Ratio (y) = 0.32160 0.42514
# Poissons Ratio (z) = -0.01551 0.27700
#
# Static dielectric constant tensor:
#      x y z
#    x 1.660220 0.000000 0.000000 
#    y 0.000000 1.703530 0.000000 
#    z 0.000000 0.000000 1.527890 
# 
# From -- ./inp_files/21910.got.cif
#   From: 2010.05.17/outbox.cif.g08.bks.cpg/sg51_11_cif.got.tgz:21910.got - 2010.06.03 11:52:47.
