data_PCOD9406960
_publ_section_title
;
Structure prediction by ZEFSAII (Michael W. Deem and Ramdas Pophale) SiO2 
 PCOD9406960
Probable space group: P M M A
;
_chemical_formula_sum "Si O2"
_cell_formula_units_Z 64
_cell_length_a 27.984609
_cell_length_b 14.263456
_cell_length_c 10.132189
_cell_angle_alpha 90.000000
_cell_angle_beta 90.000000
_cell_angle_gamma 90.000000
_cell_volume 4044.336588
_symmetry_space_group_name_H-M "P M M A"
_symmetry_group_IT_number 51
_symmetry_cell_setting 'orthorhombic'
loop_
_space_group_symop_operation_xyz
x,y,z
1/2-x,-y,z
1/2+x,-y,-z
-x,y,-z
-x,-y,-z
1/2+x,y,-z
1/2-x,y,z
x,-y,z
loop_
_atom_site_type_symbol
_atom_site_label
_atom_site_fract_x
_atom_site_fract_y
_atom_site_fract_z
Si Si1 0.805099 0.302289 0.406994
Si Si2 0.692001 0.895126 0.810585
Si Si3 0.805283 0.709733 0.952974
Si Si4 0.808127 0.105809 0.505758
Si Si5 0.633776 0.388423 0.177655
Si Si6 0.169329 0.387645 0.314834
Si Si7 0.437159 0.386335 0.380215
Si Si8 0.541048 0.613949 0.318963
O O1 0.750000 0.302850 0.362881
O O2 0.822795 0.194402 0.417917
O O3 0.836794 0.364014 0.309971
O O4 0.807759 0.343987 0.554257
O O5 0.750000 0.893518 0.807920
O O6 0.677039 0.878151 0.658494
O O7 0.676996 0.000000 0.848303
O O8 0.678109 0.813396 0.909730
O O9 0.750000 0.712485 0.999337
O O10 0.839917 0.664235 0.059671
O O11 0.807419 0.650460 0.817880
O O12 0.750000 0.106968 0.505229
O O13 0.822803 0.000000 0.467030
O O14 0.634677 0.500000 0.153838
O O15 0.579383 0.357884 0.209231
O O16 0.172676 0.500000 0.320795
O O17 0.113258 0.358942 0.318678
O O18 0.437694 0.500000 0.380231
O O19 0.441150 0.357891 0.534196
O O20 0.485913 0.355502 0.308242
O O21 0.541219 0.500000 0.318770
#
# Coordination Sequence:
#
# PCOD9406960 Si02
#       8
#     8   8   8   8   8   8   8   8
#     4  11  20  30  45  67  93 124 162 195 223 269
#     4   8  14  28  49  67  84 113 155 200 242 275
#     4  11  22  34  45  64  97 135 165 190 225 270
#     4   8  14  27  47  68  88 111 146 200 252 275
#     4  11  22  34  45  63  96 136 166 187 223 278
#     4  11  20  30  45  68  94 123 162 198 224 264
#     4   8  14  27  48  69  86 110 152 205 247 272
#     4   8  14  28  48  66  86 115 152 197 247 282
#
# _framework density 15.824598
#
# number of rings (size 3 to 8) (size 9 to 14) (size 15 to 20)
#    0.000    2.500    2.500    3.000    0.000    3.000 
#    0.000    1.250    0.000    6.000    0.000    0.000 
#    0.000    6.000    0.000    0.000    0.000    0.000 
#
# Total GULP energy -356458.537330 kJ/mol
# GULP energy per Si atom -5569.664646 kJ/mol
# Density = 1.578858 g / cm^3
# Si number density = 15.824598 Si / 1000 Ang^3
#
#
#
# Elastic Constant Matrix: (Units=GPa)
#
#
# Indices 1 2 3 4 5 6 
#
# 1 54.9696 2.7714 -0.7003 0.0000 0.0000 0.0000
# 2 2.7714 53.6971 -3.4686 0.0000 0.0000 0.0000
# 3 -0.7003 -3.4686 22.9267 0.0000 0.0000 0.0000
# 4 0.0000 0.0000 0.0000 23.8554 0.0000 0.0000
# 5 0.0000 0.0000 0.0000 0.0000 19.6937 0.0000
# 6 0.0000 0.0000 0.0000 0.0000 0.0000 -2.3792
#
#
#
# Elastic Compliance Matrix: (Units=1/GPa)
#
#
# Indices 1 2 3 4 5 6 
#
# 1 0.018243 -0.000914 0.000419 0.000000 0.000000 0.000000
# 2 -0.000914 0.018853 0.002824 0.000000 0.000000 0.000000
# 3 0.000419 0.002824 0.044057 0.000000 0.000000 0.000000
# 4 0.000000 0.000000 0.000000 0.041919 0.000000 0.000000
# 5 0.000000 0.000000 0.000000 0.000000 0.050778 0.000000
# 6 0.000000 0.000000 0.000000 0.000000 0.000000 -0.420303
#
#
# Mechanical properties :
#
#
# Convention : Reuss Voigt Hill
#
# Bulk Modulus (GPa) = 11.65358 14.31094 12.98226
# Shear Modulus (GPa) = -22.47128 17.10004 -2.68562
#
# Velocity S-wave (km/s) = -3.77241 3.29081 -1.30415
# Velocity P-wave (km/s) = 3.40507 4.84792 2.44007
#
# Compressibility (1/GPa) = 0.08581056
#
# Stress axis : x y z
#
# Youngs Moduli (GPa) = 54.81460 53.04302 22.69768
#
# Poissons Ratio (x) = 0.04851 -0.00951
# Poissons Ratio (y) = 0.05013 -0.06410
# Poissons Ratio (z) = -0.02296 -0.14981
#
# Static dielectric constant tensor:
#      x y z
#    x 1.549030 0.000000 0.000000 
#    y 0.000000 1.542270 0.000000 
#    z 0.000000 0.000000 1.527630 
# 
# From -- ./inp_files/13229.got.cif
#   From: 2010.05.17/outbox.cif.g08.bks.cpg/sg51_7_cif.got.tgz:13229.got - 2010.06.03 11:52:47.
