data_PCOD9406658
_publ_section_title
;
Structure prediction by ZEFSAII (Michael W. Deem and Ramdas Pophale) SiO2 
 PCOD9406658
Probable space group: P M M A
;
_chemical_formula_sum "Si O2"
_cell_formula_units_Z 40
_cell_length_a 14.709916
_cell_length_b 7.492761
_cell_length_c 15.874494
_cell_angle_alpha 90.000000
_cell_angle_beta 90.000000
_cell_angle_gamma 90.000000
_cell_volume 1749.653153
_symmetry_space_group_name_H-M "P M M A"
_symmetry_group_IT_number 51
_symmetry_cell_setting 'orthorhombic'
loop_
_space_group_symop_operation_xyz
x,y,z
1/2-x,-y,z
1/2+x,-y,-z
-x,y,-z
-x,-y,-z
1/2+x,y,-z
1/2-x,y,z
x,-y,z
loop_
_atom_site_type_symbol
_atom_site_label
_atom_site_fract_x
_atom_site_fract_y
_atom_site_fract_z
Si Si1 0.645294 0.783130 0.282006
Si Si2 0.012439 0.292193 0.407168
Si Si3 0.854501 0.214187 0.918101
Si Si4 0.361314 0.793264 0.902026
Si Si5 0.853745 0.713842 0.734352
O O1 0.750000 0.731836 0.295104
O O2 0.580750 0.718025 0.355397
O O3 0.615552 0.716252 0.189130
O O4 0.642141 0.000000 0.280054
O O5 0.037794 0.500000 0.419510
O O6 0.000000 0.212815 0.500000
O O7 0.087280 0.214688 0.343100
O O8 0.750000 0.280377 0.911905
O O9 0.895844 0.250590 0.826838
O O10 0.851598 0.000000 0.926375
O O11 0.891535 0.282529 0.007690
O O12 0.250000 0.794034 0.904539
O O13 0.391912 0.000000 0.900207
O O14 0.750000 0.782680 0.732496
O O15 0.850053 0.500000 0.727115
#
# Coordination Sequence:
#
# PCOD9406658 Si02
#       5
#     8   8   8   8   8
#     4   9  18  34  56  80 105 133 165 204 251 299
#     4  10  22  38  54  73  98 131 172 215 258 304
#     4   8  13  24  46  74 100 128 163 199 237 290
#     4   7  11  23  45  72 101 131 161 194 236 290
#     4   9  18  33  51  71  98 131 166 207 254 299
#
# _framework density 22.861675000000002
#
# number of rings (size 3 to 8) (size 9 to 14) (size 15 to 20)
#    0.000    3.400    0.000    2.400    0.000    2.400 
#    0.000    4.000    0.000   12.000    0.000    0.000 
#    0.000    0.000    0.000    0.000    0.000    0.000 
#
# Total GULP energy -223044.149610 kJ/mol
# GULP energy per Si atom -5576.103740 kJ/mol
# Density = 2.280964 g / cm^3
# Si number density = 22.861675 Si / 1000 Ang^3
#
#
#
# Elastic Constant Matrix: (Units=GPa)
#
#
# Indices 1 2 3 4 5 6 
#
# 1 76.4415 -8.7004 60.4160 0.0000 0.0000 0.0000
# 2 -8.7004 63.7962 1.6410 0.0000 0.0000 0.0000
# 3 60.4160 1.6410 267.1922 0.0000 0.0000 0.0000
# 4 0.0000 0.0000 0.0000 14.9399 0.0000 0.0000
# 5 0.0000 0.0000 0.0000 0.0000 35.3712 0.0000
# 6 0.0000 0.0000 0.0000 0.0000 0.0000 15.9445
#
#
#
# Elastic Compliance Matrix: (Units=1/GPa)
#
#
# Indices 1 2 3 4 5 6 
#
# 1 0.016263 0.002313 -0.003691 0.000000 0.000000 0.000000
# 2 0.002313 0.016006 -0.000621 0.000000 0.000000 0.000000
# 3 -0.003691 -0.000621 0.004581 0.000000 0.000000 0.000000
# 4 0.000000 0.000000 0.000000 0.066935 0.000000 0.000000
# 5 0.000000 0.000000 0.000000 0.000000 0.028272 0.000000
# 6 0.000000 0.000000 0.000000 0.000000 0.000000 0.062718
#
#
# Mechanical properties :
#
#
# Convention : Reuss Voigt Hill
#
# Bulk Modulus (GPa) = 30.44102 57.12700 43.78401
# Shear Modulus (GPa) = 23.84087 36.85602 30.34845
#
# Velocity S-wave (km/s) = 3.23279 4.01949 3.64741
# Velocity P-wave (km/s) = 5.22291 6.82525 6.07713
#
# Compressibility (1/GPa) = 0.03285041
#
# Stress axis : x y z
#
# Youngs Moduli (GPa) = 61.49045 62.47531 218.28701
#
# Poissons Ratio (x) = -0.14450 0.80579
# Poissons Ratio (y) = -0.14222 0.13562
# Poissons Ratio (z) = 0.22699 0.03881
#
# Static dielectric constant tensor:
#      x y z
#    x 1.875950 0.000000 0.000000 
#    y 0.000000 1.919030 0.000000 
#    z 0.000000 0.000000 1.877200 
# 
# From -- ./inp_files/16179.got.cif
#   From: 2010.05.17/outbox.cif.g08.bks.cpg/sg51_9_cif.got.tgz:16179.got - 2010.06.03 11:52:47.
