data_PCOD9406935
_publ_section_title
;
Structure prediction by ZEFSAII (Michael W. Deem and Ramdas Pophale) SiO2 
 PCOD9406935
Probable space group: P M M A
;
_chemical_formula_sum "Si O2"
_cell_formula_units_Z 32
_cell_length_a 17.884657
_cell_length_b 15.813530
_cell_length_c 5.089521
_cell_angle_alpha 90.000000
_cell_angle_beta 90.000000
_cell_angle_gamma 90.000000
_cell_volume 1439.416090
_symmetry_space_group_name_H-M "P M M A"
_symmetry_group_IT_number 51
_symmetry_cell_setting 'orthorhombic'
loop_
_space_group_symop_operation_xyz
x,y,z
1/2-x,-y,z
1/2+x,-y,-z
-x,y,-z
-x,-y,-z
1/2+x,y,-z
1/2-x,y,z
x,-y,z
loop_
_atom_site_type_symbol
_atom_site_label
_atom_site_fract_x
_atom_site_fract_y
_atom_site_fract_z
Si Si1 0.053519 0.903050 0.249709
Si Si2 0.948373 0.680151 0.254675
Si Si3 0.166400 0.407485 0.432573
Si Si4 0.663520 0.762934 0.912329
O O1 0.120991 0.836824 0.241776
O O2 0.000000 0.896485 0.500000
O O3 0.081019 0.000000 0.233249
O O4 0.000000 0.886999 0.000000
O O5 0.899182 0.601988 0.356253
O O6 0.000000 0.705146 0.500000
O O7 0.885519 0.747625 0.172641
O O8 0.000000 0.665551 0.000000
O O9 0.250000 0.401977 0.552572
O O10 0.160764 0.500000 0.303284
O O11 0.159826 0.327258 0.239941
O O12 0.750000 0.782018 0.962074
#
# Coordination Sequence:
#
# PCOD9406935 Si02
#       4
#     8   8   8   8
#     4  10  24  45  72 103 138 179 223 279 352 419
#     4  12  25  44  68  98 135 184 233 290 346 410
#     4  10  24  46  68  98 142 189 234 284 348 416
#     4  11  25  44  73 104 139 186 237 289 349 413
#
# _framework density 22.231238000000001
#
# number of rings (size 3 to 8) (size 9 to 14) (size 15 to 20)
#    0.000    1.250    2.500    1.500    7.000    2.500 
#    0.000    2.500    0.000    4.500    0.000    0.000 
#    0.000    0.000    0.000    0.000    0.000    0.000 
#
# Total GULP energy -178930.924968 kJ/mol
# GULP energy per Si atom -5591.591405 kJ/mol
# Density = 2.218064 g / cm^3
# Si number density = 22.231238 Si / 1000 Ang^3
#
#
#
# Elastic Constant Matrix: (Units=GPa)
#
#
# Indices 1 2 3 4 5 6 
#
# 1 199.2066 82.6481 74.2341 0.0000 0.0000 0.0000
# 2 82.6481 164.9979 30.2641 0.0000 0.0000 0.0000
# 3 74.2341 30.2641 132.1402 0.0000 0.0000 0.0000
# 4 0.0000 0.0000 0.0000 2.5383 0.0000 0.0000
# 5 0.0000 0.0000 0.0000 0.0000 11.8796 0.0000
# 6 0.0000 0.0000 0.0000 0.0000 0.0000 33.9395
#
#
#
# Elastic Compliance Matrix: (Units=1/GPa)
#
#
# Indices 1 2 3 4 5 6 
#
# 1 0.007678 -0.003189 -0.003583 0.000000 0.000000 0.000000
# 2 -0.003189 0.007651 0.000039 0.000000 0.000000 0.000000
# 3 -0.003583 0.000039 0.009572 0.000000 0.000000 0.000000
# 4 0.000000 0.000000 0.000000 0.393959 0.000000 0.000000
# 5 0.000000 0.000000 0.000000 0.000000 0.084178 0.000000
# 6 0.000000 0.000000 0.000000 0.000000 0.000000 0.029464
#
#
# Mechanical properties :
#
#
# Convention : Reuss Voigt Hill
#
# Bulk Modulus (GPa) = 87.45013 96.73747 92.09380
# Shear Modulus (GPa) = 9.09456 30.28471 19.68964
#
# Velocity S-wave (km/s) = 2.02479 3.69488 2.97926
# Velocity P-wave (km/s) = 6.69988 7.86203 7.30411
#
# Compressibility (1/GPa) = 0.01143509
#
# Stress axis : x y z
#
# Youngs Moduli (GPa) = 130.23967 130.70553 104.47476
#
# Poissons Ratio (x) = 0.41679 0.37435
# Poissons Ratio (y) = 0.41531 -0.00409
# Poissons Ratio (z) = 0.46666 -0.00512
#
# Static dielectric constant tensor:
#      x y z
#    x 1.817070 0.000000 0.000000 
#    y 0.000000 1.857290 0.000000 
#    z 0.000000 0.000000 1.901060 
# 
# From -- ./inp_files/1839.got.cif
#   From: 2010.05.17/outbox.cif.g08.bks.cpg/sg51_1_cif.got.tgz:1839.got - 2010.06.03 11:52:47.
