data_PCOD9406770
_publ_section_title
;
Structure prediction by ZEFSAII (Michael W. Deem and Ramdas Pophale) SiO2 
 PCOD9406770
Probable space group: P M M A
;
_chemical_formula_sum "Si O2"
_cell_formula_units_Z 32
_cell_length_a 24.770871
_cell_length_b 9.315646
_cell_length_c 7.167808
_cell_angle_alpha 90.000000
_cell_angle_beta 90.000000
_cell_angle_gamma 90.000000
_cell_volume 1654.019472
_symmetry_space_group_name_H-M "P M M A"
_symmetry_group_IT_number 51
_symmetry_cell_setting 'orthorhombic'
loop_
_space_group_symop_operation_xyz
x,y,z
1/2-x,-y,z
1/2+x,-y,-z
-x,y,-z
-x,-y,-z
1/2+x,y,-z
1/2-x,y,z
x,-y,z
loop_
_atom_site_type_symbol
_atom_site_label
_atom_site_fract_x
_atom_site_fract_y
_atom_site_fract_z
Si Si1 0.187717 0.331454 0.410162
Si Si2 0.396669 0.329405 0.739421
Si Si3 0.381398 0.829578 0.128303
Si Si4 0.515474 0.337533 0.778425
O O1 0.250000 0.307601 0.461731
O O2 0.181570 0.500000 0.359641
O O3 0.147117 0.302860 0.580582
O O4 0.169235 0.233860 0.239153
O O5 0.395553 0.500000 0.786295
O O6 0.458844 0.299549 0.681074
O O7 0.383650 0.237700 0.922096
O O8 0.434886 0.769877 0.233309
O O9 0.381528 0.000000 0.122099
O O10 0.532055 0.500000 0.725350
O O11 0.500000 0.340859 0.000000
#
# Coordination Sequence:
#
# PCOD9406770 Si02
#       4
#     8   8   8   8
#     4  10  22  40  60  80 104 141 191 236 270 317
#     4   9  19  37  60  84 109 142 187 234 276 318
#     4  11  22  35  55  84 118 149 176 217 276 337
#     4   8  15  31  55  81 110 143 181 225 270 322
#
# _framework density 19.346810999999999
#
# number of rings (size 3 to 8) (size 9 to 14) (size 15 to 20)
#    0.000    2.500    0.000    3.750    0.000    8.000 
#    0.000    7.500    0.000    0.000    0.000    0.000 
#    0.000    0.000    0.000    0.000    0.000    0.000 
#
# Total GULP energy -178728.404011 kJ/mol
# GULP energy per Si atom -5585.262625 kJ/mol
# Density = 1.930278 g / cm^3
# Si number density = 19.346811 Si / 1000 Ang^3
#
#
#
# Elastic Constant Matrix: (Units=GPa)
#
#
# Indices 1 2 3 4 5 6 
#
# 1 106.4688 47.2558 33.4946 0.0000 0.0000 0.0000
# 2 47.2558 82.9730 53.0918 0.0000 0.0000 0.0000
# 3 33.4946 53.0918 59.7745 0.0000 0.0000 0.0000
# 4 0.0000 0.0000 0.0000 6.2277 0.0000 0.0000
# 5 0.0000 0.0000 0.0000 0.0000 30.6651 0.0000
# 6 0.0000 0.0000 0.0000 0.0000 0.0000 -4.6139
#
#
#
# Elastic Compliance Matrix: (Units=1/GPa)
#
#
# Indices 1 2 3 4 5 6 
#
# 1 0.012635 -0.006176 -0.001595 0.000000 0.000000 0.000000
# 2 -0.006176 0.030938 -0.024019 0.000000 0.000000 0.000000
# 3 -0.001595 -0.024019 0.038957 0.000000 0.000000 0.000000
# 4 0.000000 0.000000 0.000000 0.160573 0.000000 0.000000
# 5 0.000000 0.000000 0.000000 0.000000 0.032610 0.000000
# 6 0.000000 0.000000 0.000000 0.000000 0.000000 -0.216738
#
#
# Mechanical properties :
#
#
# Convention : Reuss Voigt Hill
#
# Bulk Modulus (GPa) = 52.76645 57.43341 55.09993
# Shear Modulus (GPa) = 38.79830 14.14738 26.47284
#
# Velocity S-wave (km/s) = 4.48304 2.70710 3.70311
# Velocity P-wave (km/s) = 7.35731 6.28664 6.84295
#
# Compressibility (1/GPa) = 0.01895144
#
# Stress axis : x y z
#
# Youngs Moduli (GPa) = 79.14394 32.32246 25.66939
#
# Poissons Ratio (x) = 0.19961 0.04094
# Poissons Ratio (y) = 0.48876 0.61655
# Poissons Ratio (z) = 0.12623 0.77635
#
# Static dielectric constant tensor:
#      x y z
#    x 1.694210 0.000000 0.000000 
#    y 0.000000 1.633440 0.000000 
#    z 0.000000 0.000000 1.712880 
# 
# From -- ./inp_files/10277.got.cif
#   From: 2010.05.17/outbox.cif.g08.bks.cpg/sg51_6_cif.got.tgz:10277.got - 2010.06.03 11:52:47.
