data_PCOD9406940
_publ_section_title
;
Structure prediction by ZEFSAII (Michael W. Deem and Ramdas Pophale) SiO2 
 PCOD9406940
Probable space group: P M M A
;
_chemical_formula_sum "Si O2"
_cell_formula_units_Z 40
_cell_length_a 18.411478
_cell_length_b 13.690450
_cell_length_c 7.240233
_cell_angle_alpha 90.000000
_cell_angle_beta 90.000000
_cell_angle_gamma 90.000000
_cell_volume 1824.983404
_symmetry_space_group_name_H-M "P M M A"
_symmetry_group_IT_number 51
_symmetry_cell_setting 'orthorhombic'
loop_
_space_group_symop_operation_xyz
x,y,z
1/2-x,-y,z
1/2+x,-y,-z
-x,y,-z
-x,-y,-z
1/2+x,y,-z
1/2-x,y,z
x,-y,z
loop_
_atom_site_type_symbol
_atom_site_label
_atom_site_fract_x
_atom_site_fract_y
_atom_site_fract_z
Si Si1 0.168952 0.616353 0.999936
Si Si2 0.968226 0.611030 0.208649
Si Si3 0.166095 0.113715 0.011050
Si Si4 0.335707 0.112246 0.571472
Si Si5 0.095042 0.253354 0.282850
O O1 0.250000 0.644870 0.950304
O O2 0.164178 0.500000 0.018537
O O3 0.146816 0.662530 0.196209
O O4 0.113968 0.642043 0.834266
O O5 0.971287 0.500000 0.286246
O O6 0.018357 0.692405 0.300566
O O7 0.000000 0.604206 0.000000
O O8 0.250000 0.142244 0.059937
O O9 0.157867 0.123537 0.791590
O O10 0.105449 0.174161 0.118925
O O11 0.159754 0.000000 0.057782
O O12 0.250000 0.119525 0.525375
O O13 0.378253 0.194790 0.460142
O O14 0.358535 0.000000 0.526174
#
# Coordination Sequence:
#
# PCOD9406940 Si02
#       5
#     8   8   8   8   8
#     4   9  17  30  52  81 107 135 175 217 257 308
#     4   8  16  30  48  74 108 140 169 210 263 313
#     4   9  18  31  47  73 109 143 178 222 265 307
#     4   9  18  31  47  73 109 143 178 222 265 307
#     4  11  17  27  53  81 104 137 175 210 261 323
#
# _framework density 21.918009000000001
#
# number of rings (size 3 to 8) (size 9 to 14) (size 15 to 20)
#    0.000    2.800    0.000    5.400    0.000    1.600 
#    0.000    0.000    0.000   37.200    0.000   64.400 
#    0.000    0.000    0.000    0.000    0.000    0.000 
#
# Total GULP energy -223257.108546 kJ/mol
# GULP energy per Si atom -5581.427714 kJ/mol
# Density = 2.186812 g / cm^3
# Si number density = 21.918009 Si / 1000 Ang^3
#
#
#
# Elastic Constant Matrix: (Units=GPa)
#
#
# Indices 1 2 3 4 5 6 
#
# 1 126.9839 50.0922 38.9846 0.0000 0.0000 0.0000
# 2 50.0922 135.9171 34.2739 0.0000 0.0000 0.0000
# 3 38.9846 34.2739 89.2347 0.0000 0.0000 0.0000
# 4 0.0000 0.0000 0.0000 -12.6465 0.0000 0.0000
# 5 0.0000 0.0000 0.0000 0.0000 11.3004 0.0000
# 6 0.0000 0.0000 0.0000 0.0000 0.0000 22.2138
#
#
#
# Elastic Compliance Matrix: (Units=1/GPa)
#
#
# Indices 1 2 3 4 5 6 
#
# 1 0.010009 -0.002864 -0.003273 0.000000 0.000000 0.000000
# 2 -0.002864 0.008966 -0.002193 0.000000 0.000000 0.000000
# 3 -0.003273 -0.002193 0.013478 0.000000 0.000000 0.000000
# 4 0.000000 0.000000 0.000000 -0.079073 0.000000 0.000000
# 5 0.000000 0.000000 0.000000 0.000000 0.088492 0.000000
# 6 0.000000 0.000000 0.000000 0.000000 0.000000 0.045017
#
#
# Mechanical properties :
#
#
# Convention : Reuss Voigt Hill
#
# Bulk Modulus (GPa) = 63.31038 66.53744 64.92391
# Shear Modulus (GPa) = 45.95025 19.42588 32.68806
#
# Velocity S-wave (km/s) = 4.58368 2.98030 3.86603
# Velocity P-wave (km/s) = 7.54727 6.50125 7.04371
#
# Compressibility (1/GPa) = 0.01579520
#
# Stress axis : x y z
#
# Youngs Moduli (GPa) = 99.90518 111.53604 74.19249
#
# Poissons Ratio (x) = 0.31940 0.24283
# Poissons Ratio (y) = 0.28609 0.16267
# Poissons Ratio (z) = 0.32699 0.24455
#
# Static dielectric constant tensor:
#      x y z
#    x 1.855690 0.000000 0.000000 
#    y 0.000000 1.872410 0.000000 
#    z 0.000000 0.000000 1.803680 
# 
# From -- ./inp_files/16196.got.cif
#   From: 2010.05.17/outbox.cif.g08.bks.cpg/sg51_9_cif.got.tgz:16196.got - 2010.06.03 11:52:47.
