data_PCOD9406986
_publ_section_title
;
Structure prediction by ZEFSAII (Michael W. Deem and Ramdas Pophale) SiO2 
 PCOD9406986
Probable space group: P M M A
;
_chemical_formula_sum "Si O2"
_cell_formula_units_Z 40
_cell_length_a 19.500514
_cell_length_b 8.992483
_cell_length_c 13.351357
_cell_angle_alpha 90.000000
_cell_angle_beta 90.000000
_cell_angle_gamma 90.000000
_cell_volume 2341.267803
_symmetry_space_group_name_H-M "P M M A"
_symmetry_group_IT_number 51
_symmetry_cell_setting 'orthorhombic'
loop_
_space_group_symop_operation_xyz
x,y,z
1/2-x,-y,z
1/2+x,-y,-z
-x,y,-z
-x,-y,-z
1/2+x,y,-z
1/2-x,y,z
x,-y,z
loop_
_atom_site_type_symbol
_atom_site_label
_atom_site_fract_x
_atom_site_fract_y
_atom_site_fract_z
Si Si1 0.667886 0.324161 0.121910
Si Si2 0.921983 0.823663 0.292084
Si Si3 0.828482 0.318993 0.895578
Si Si4 0.416642 0.670712 0.504094
Si Si5 0.927953 0.319557 0.716609
O O1 0.750000 0.308717 0.132045
O O2 0.651644 0.500000 0.132013
O O3 0.627839 0.234401 0.205595
O O4 0.650188 0.275977 0.008221
O O5 0.896514 0.768802 0.401318
O O6 0.996953 0.751187 0.275783
O O7 0.927642 0.000000 0.291020
O O8 0.750000 0.270112 0.878120
O O9 0.827482 0.500000 0.895411
O O10 0.879844 0.272806 0.808243
O O11 0.500000 0.671365 0.500000
O O12 0.394911 0.500000 0.520872
O O13 0.396214 0.719329 0.392305
O O14 0.935097 0.500000 0.717151
#
# Coordination Sequence:
#
# PCOD9406986 Si02
#       5
#     8   8   8   8   8
#     4   9  18  34  54  72  93 124 161 199 240 287
#     4  11  21  31  47  71 100 131 163 199 236 281
#     4   8  15  30  53  77  96 119 156 200 243 285
#     4   8  15  29  48  70  96 126 160 196 237 283
#     4   9  17  31  52  75  99 125 157 200 243 286
#
# _framework density 17.084761
#
# number of rings (size 3 to 8) (size 9 to 14) (size 15 to 20)
#    0.000    3.000    0.000    4.200    0.000    4.800 
#    0.000    6.000    0.000    5.400    0.000    0.000 
#    0.000    0.000    0.000    0.000    0.000    0.000 
#
# Total GULP energy -222846.312858 kJ/mol
# GULP energy per Si atom -5571.157821 kJ/mol
# Density = 1.704588 g / cm^3
# Si number density = 17.084761 Si / 1000 Ang^3
#
#
#
# Elastic Constant Matrix: (Units=GPa)
#
#
# Indices 1 2 3 4 5 6 
#
# 1 36.1735 31.4915 66.1127 0.0000 0.0000 0.0000
# 2 31.4915 48.6786 62.0928 0.0000 0.0000 0.0000
# 3 66.1127 62.0928 181.1721 0.0000 0.0000 0.0000
# 4 0.0000 0.0000 0.0000 -2.7696 0.0000 0.0000
# 5 0.0000 0.0000 0.0000 0.0000 -58.7898 0.0000
# 6 0.0000 0.0000 0.0000 0.0000 0.0000 -2.5839
#
#
#
# Elastic Compliance Matrix: (Units=1/GPa)
#
#
# Indices 1 2 3 4 5 6 
#
# 1 0.108692 -0.035041 -0.027654 0.000000 0.000000 0.000000
# 2 -0.035041 0.047796 -0.003594 0.000000 0.000000 0.000000
# 3 -0.027654 -0.003594 0.016843 0.000000 0.000000 0.000000
# 4 0.000000 0.000000 0.000000 -0.361057 0.000000 0.000000
# 5 0.000000 0.000000 0.000000 0.000000 -0.017010 0.000000
# 6 0.000000 0.000000 0.000000 0.000000 0.000000 -0.387008
#
#
# Mechanical properties :
#
#
# Convention : Reuss Voigt Hill
#
# Bulk Modulus (GPa) = 24.53825 65.04646 44.79235
# Shear Modulus (GPa) = -11.22133 -5.74019 -8.48076
#
# Velocity S-wave (km/s) = -2.56560 -1.83497 -2.23041
# Velocity P-wave (km/s) = 2.37011 5.80224 4.43189
#
# Compressibility (1/GPa) = 0.04075271
#
# Stress axis : x y z
#
# Youngs Moduli (GPa) = 9.20031 20.92204 59.37289
#
# Poissons Ratio (x) = 0.73314 1.64189
# Poissons Ratio (y) = 0.32239 0.21339
# Poissons Ratio (z) = 0.25442 0.07519
#
# Static dielectric constant tensor:
#      x y z
#    x 1.555950 0.000000 0.000000 
#    y 0.000000 1.561510 0.000000 
#    z 0.000000 0.000000 1.604050 
# 
# From -- ./inp_files/17876.got.cif
#   From: 2010.05.17/outbox.cif.g08.bks.cpg/sg51_9_cif.got.tgz:17876.got - 2010.06.03 11:52:47.
