data_PCOD9406097
_publ_section_title
;
Structure prediction by ZEFSAII (Michael W. Deem and Ramdas Pophale) SiO2 
 PCOD9406097
Probable space group: P M M A
;
_chemical_formula_sum "Si O2"
_cell_formula_units_Z 56
_cell_length_a 14.731695
_cell_length_b 8.907070
_cell_length_c 22.919527
_cell_angle_alpha 90.000000
_cell_angle_beta 90.000000
_cell_angle_gamma 90.000000
_cell_volume 3007.414123
_symmetry_space_group_name_H-M "P M M A"
_symmetry_group_IT_number 51
_symmetry_cell_setting 'orthorhombic'
loop_
_space_group_symop_operation_xyz
x,y,z
1/2-x,-y,z
1/2+x,-y,-z
-x,y,-z
-x,-y,-z
1/2+x,y,-z
1/2-x,y,z
x,-y,z
loop_
_atom_site_type_symbol
_atom_site_label
_atom_site_fract_x
_atom_site_fract_y
_atom_site_fract_z
Si Si1 0.750000 0.681751 0.384576
Si Si2 0.250000 0.319216 0.479235
Si Si3 0.560908 0.179865 0.557068
Si Si4 0.360402 0.672363 0.012288
Si Si5 0.445415 0.318304 0.661136
Si Si6 0.858412 0.178056 0.109285
Si Si7 0.987155 0.679543 0.205413
Si Si8 0.642600 0.178062 0.866034
O O1 0.750000 0.500000 0.383369
O O2 0.750000 0.726293 0.452368
O O3 0.842507 0.730363 0.353620
O O4 0.250000 0.500000 0.476011
O O5 0.340800 0.253685 0.450890
O O6 0.500000 0.217347 0.500000
O O7 0.511026 0.243908 0.613874
O O8 0.568744 0.000000 0.560312
O O9 0.250000 0.673249 0.011446
O O10 0.390351 0.500000 0.015917
O O11 0.386464 0.762142 0.070241
O O12 0.388923 0.747864 0.951776
O O13 0.450468 0.500000 0.655113
O O14 0.470335 0.279486 0.727368
O O15 0.750000 0.203444 0.115423
O O16 0.911948 0.249269 0.162959
O O17 0.874009 0.000000 0.106858
O O18 0.983225 0.500000 0.200378
O O19 0.083090 0.739400 0.182145
O O20 0.750000 0.208033 0.859286
O O21 0.628288 0.000000 0.863116
#
# Coordination Sequence:
#
# PCOD9406097 Si02
#       8
#     4   4   8   8   8   8   8   8
#     4   9  18  35  63  93 119 153 198 241 286 343
#     4  11  21  37  67  95 121 159 204 247 296 355
#     4  11  23  39  61  92 130 161 195 248 303 354
#     4   9  17  32  57  87 116 146 189 246 302 351
#     4  10  22  41  63  89 120 160 205 245 289 348
#     4  10  21  37  57  84 121 159 195 237 292 359
#     4  11  24  39  60  87 117 154 200 249 290 344
#     4  10  21  39  62  84 112 152 196 244 302 363
#
# _framework density 18.620647999999999
#
# number of rings (size 3 to 8) (size 9 to 14) (size 15 to 20)
#    0.000    1.857    1.429    2.357    1.000    5.714 
#    1.286    3.214    0.000    0.000    0.000    0.000 
#    0.000    0.000    0.000    0.000    0.000    0.000 
#
# Total GULP energy -312974.159487 kJ/mol
# GULP energy per Si atom -5588.824277 kJ/mol
# Density = 1.857827 g / cm^3
# Si number density = 18.620648 Si / 1000 Ang^3
#
#
#
# Elastic Constant Matrix: (Units=GPa)
#
#
# Indices 1 2 3 4 5 6 
#
# 1 118.5790 43.6680 73.7452 0.0000 0.0000 0.0000
# 2 43.6680 59.9408 52.5136 0.0000 0.0000 0.0000
# 3 73.7452 52.5136 160.5078 0.0000 0.0000 0.0000
# 4 0.0000 0.0000 0.0000 22.8263 0.0000 0.0000
# 5 0.0000 0.0000 0.0000 0.0000 25.9785 0.0000
# 6 0.0000 0.0000 0.0000 0.0000 0.0000 28.5549
#
#
#
# Elastic Compliance Matrix: (Units=1/GPa)
#
#
# Indices 1 2 3 4 5 6 
#
# 1 0.013198 -0.006031 -0.004091 0.000000 0.000000 0.000000
# 2 -0.006031 0.026143 -0.005782 0.000000 0.000000 0.000000
# 3 -0.004091 -0.005782 0.010001 0.000000 0.000000 0.000000
# 4 0.000000 0.000000 0.000000 0.043809 0.000000 0.000000
# 5 0.000000 0.000000 0.000000 0.000000 0.038493 0.000000
# 6 0.000000 0.000000 0.000000 0.000000 0.000000 0.035020
#
#
# Mechanical properties :
#
#
# Convention : Reuss Voigt Hill
#
# Bulk Modulus (GPa) = 57.03134 75.43126 66.23130
# Shear Modulus (GPa) = 24.47163 26.74532 25.60848
#
# Velocity S-wave (km/s) = 3.62915 3.79400 3.71249
# Velocity P-wave (km/s) = 6.94662 7.73240 7.35002
#
# Compressibility (1/GPa) = 0.01753422
#
# Stress axis : x y z
#
# Youngs Moduli (GPa) = 75.76696 38.25151 99.98613
#
# Poissons Ratio (x) = 0.23071 0.40901
# Poissons Ratio (y) = 0.45699 0.57812
# Poissons Ratio (z) = 0.30994 0.22117
#
# Static dielectric constant tensor:
#      x y z
#    x 1.654340 0.000000 0.000000 
#    y 0.000000 1.621180 0.000000 
#    z 0.000000 0.000000 1.603290 
# 
# From -- ./inp_files/33520.got.cif
#   From: 2010.05.17/outbox.cif.g08.bks.cpg/sg51_17_cif.got.tgz:33520.got - 2010.06.03 11:52:47.
