data_PCOD9406045
_publ_section_title
;
Structure prediction by ZEFSAII (Michael W. Deem and Ramdas Pophale) SiO2 
 PCOD9406045
Probable space group: P M M A
;
_chemical_formula_sum "Si O2"
_cell_formula_units_Z 40
_cell_length_a 8.855793
_cell_length_b 25.460612
_cell_length_c 9.899759
_cell_angle_alpha 90.000000
_cell_angle_beta 90.000000
_cell_angle_gamma 90.000000
_cell_volume 2232.137365
_symmetry_space_group_name_H-M "P M M A"
_symmetry_group_IT_number 51
_symmetry_cell_setting 'orthorhombic'
loop_
_space_group_symop_operation_xyz
x,y,z
1/2-x,-y,z
1/2+x,-y,-z
-x,y,-z
-x,-y,-z
1/2+x,y,-z
1/2-x,y,z
x,-y,z
loop_
_atom_site_type_symbol
_atom_site_label
_atom_site_fract_x
_atom_site_fract_y
_atom_site_fract_z
Si Si1 0.430405 0.440327 0.648585
Si Si2 0.431697 0.151081 0.649556
Si Si3 0.070248 0.358022 0.145976
Si Si4 0.068483 0.060580 0.856427
Si Si5 0.430528 0.234856 0.147487
O O1 0.500000 0.434478 0.500000
O O2 0.250000 0.435134 0.641588
O O3 0.465513 0.500000 0.695375
O O4 0.498618 0.396757 0.745806
O O5 0.500000 0.150677 0.500000
O O6 0.250000 0.153923 0.642125
O O7 0.474513 0.098892 0.734668
O O8 0.495015 0.199146 0.738146
O O9 0.250000 0.364933 0.141767
O O10 0.039688 0.296512 0.175444
O O11 0.000000 0.369425 0.000000
O O12 0.250000 0.061874 0.868086
O O13 0.021866 0.000000 0.833227
O O14 0.000000 0.077858 0.000000
O O15 0.250000 0.226768 0.143476
O O16 0.500000 0.222607 0.000000
#
# Coordination Sequence:
#
# PCOD9406045 Si02
#       5
#     8   8   8   8   8
#     4  10  21  37  57  81 110 145 183 223 269 322
#     4  11  23  37  55  80 111 146 183 225 273 323
#     4  10  21  37  58  83 110 142 180 224 272 321
#     4   9  19  36  57  81 108 140 180 223 268 321
#     4  10  21  38  59  82 109 142 181 224 271 323
#
# _framework density 17.920044000000001
#
# number of rings (size 3 to 8) (size 9 to 14) (size 15 to 20)
#    0.000    2.000    0.000    3.000    0.000    8.400 
#    0.000    0.000    0.000    0.000    0.000    0.000 
#    0.000    0.000    0.000    0.000    0.000    0.000 
#
# Total GULP energy -223422.303565 kJ/mol
# GULP energy per Si atom -5585.557589 kJ/mol
# Density = 1.787926 g / cm^3
# Si number density = 17.920044 Si / 1000 Ang^3
#
#
#
# Elastic Constant Matrix: (Units=GPa)
#
#
# Indices 1 2 3 4 5 6 
#
# 1 70.1634 68.8804 72.4278 0.0000 0.0000 0.0000
# 2 68.8804 118.8001 114.1043 0.0000 0.0000 0.0000
# 3 72.4278 114.1043 170.9572 0.0000 0.0000 0.0000
# 4 0.0000 0.0000 0.0000 85.6839 0.0000 0.0000
# 5 0.0000 0.0000 0.0000 0.0000 39.1504 0.0000
# 6 0.0000 0.0000 0.0000 0.0000 0.0000 29.4860
#
#
#
# Elastic Compliance Matrix: (Units=1/GPa)
#
#
# Indices 1 2 3 4 5 6 
#
# 1 0.033800 -0.016280 -0.003454 0.000000 0.000000 0.000000
# 2 -0.016280 0.031293 -0.013989 0.000000 0.000000 0.000000
# 3 -0.003454 -0.013989 0.016649 0.000000 0.000000 0.000000
# 4 0.000000 0.000000 0.000000 0.011671 0.000000 0.000000
# 5 0.000000 0.000000 0.000000 0.000000 0.025543 0.000000
# 6 0.000000 0.000000 0.000000 0.000000 0.000000 0.033914
#
#
# Mechanical properties :
#
#
# Convention : Reuss Voigt Hill
#
# Bulk Modulus (GPa) = 69.94590 96.74952 83.34771
# Shear Modulus (GPa) = 22.21425 37.83126 30.02276
#
# Velocity S-wave (km/s) = 3.52466 4.59967 4.09757
# Velocity P-wave (km/s) = 7.46199 9.07282 8.30654
#
# Compressibility (1/GPa) = 0.01429676
#
# Stress axis : x y z
#
# Youngs Moduli (GPa) = 29.58577 31.95635 60.06245
#
# Poissons Ratio (x) = 0.52026 0.20743
# Poissons Ratio (y) = 0.48166 0.84020
# Poissons Ratio (z) = 0.10218 0.44703
#
# Static dielectric constant tensor:
#      x y z
#    x 1.596510 0.000000 0.000000 
#    y 0.000000 1.618700 0.000000 
#    z 0.000000 0.000000 1.562140 
# 
# From -- ./inp_files/5208.got.cif
#   From: 2010.05.17/outbox.cif.g08.bks.cpg/sg51_3_cif.got.tgz:5208.got - 2010.06.03 11:52:47.
