data_PCOD9406695
_publ_section_title
;
Structure prediction by ZEFSAII (Michael W. Deem and Ramdas Pophale) SiO2 
 PCOD9406695
Probable space group: P M M A
;
_chemical_formula_sum "Si O2"
_cell_formula_units_Z 48
_cell_length_a 10.020939
_cell_length_b 8.565242
_cell_length_c 29.464199
_cell_angle_alpha 90.000000
_cell_angle_beta 90.000000
_cell_angle_gamma 90.000000
_cell_volume 2528.964281
_symmetry_space_group_name_H-M "P M M A"
_symmetry_group_IT_number 51
_symmetry_cell_setting 'orthorhombic'
loop_
_space_group_symop_operation_xyz
x,y,z
1/2-x,-y,z
1/2+x,-y,-z
-x,y,-z
-x,-y,-z
1/2+x,y,-z
1/2-x,y,z
x,-y,z
loop_
_atom_site_type_symbol
_atom_site_label
_atom_site_fract_x
_atom_site_fract_y
_atom_site_fract_z
Si Si1 0.096074 0.811317 0.278938
Si Si2 0.529711 0.313116 0.101632
Si Si3 0.250000 0.187603 0.070643
Si Si4 0.398568 0.311506 0.796031
Si Si5 0.903286 0.811612 0.360004
Si Si6 0.250000 0.813330 0.965562
Si Si7 0.903799 0.311553 0.459618
O O1 0.250000 0.757447 0.279778
O O2 0.014969 0.756663 0.234891
O O3 0.008704 0.757964 0.322280
O O4 0.097890 0.000000 0.279469
O O5 0.533789 0.500000 0.099283
O O6 0.381265 0.252165 0.094485
O O7 0.582602 0.266600 0.151336
O O8 0.622307 0.246306 0.061972
O O9 0.250000 0.000000 0.071889
O O10 0.250000 0.238602 0.017811
O O11 0.250000 0.261318 0.780715
O O12 0.403900 0.500000 0.793709
O O13 0.750000 0.759743 0.350411
O O14 0.939811 0.753990 0.410233
O O15 0.902923 0.000000 0.359860
O O16 0.250000 0.000000 0.965416
O O17 0.750000 0.266958 0.468770
O O18 0.910058 0.500000 0.457511
O O19 0.000000 0.258265 0.500000
#
# Coordination Sequence:
#
# PCOD9406695 Si02
#       7
#     8   8   4   8   8   4   8
#     4  10  22  38  57  85 116 146 184 231 283 340
#     4  11  23  41  63  88 118 155 197 239 287 346
#     4  11  25  41  59  89 125 155 191 239 292 343
#     4  10  22  41  61  83 112 146 187 234 280 333
#     4   9  18  34  54  76 107 146 187 229 275 331
#     4  11  23  41  63  89 121 155 193 241 288 341
#     4   9  18  32  50  74 105 141 182 228 276 329
#
# _framework density 18.980101999999999
#
# number of rings (size 3 to 8) (size 9 to 14) (size 15 to 20)
#    0.000    2.000    0.833    2.000    1.167    7.667 
#    0.000    1.667    0.000    0.000    0.000    0.000 
#    0.000    0.000    0.000    0.000    0.000    0.000 
#
# Total GULP energy -268094.030374 kJ/mol
# GULP energy per Si atom -5585.292299 kJ/mol
# Density = 1.893690 g / cm^3
# Si number density = 18.980102 Si / 1000 Ang^3
#
#
#
# Elastic Constant Matrix: (Units=GPa)
#
#
# Indices 1 2 3 4 5 6 
#
# 1 138.6998 19.6315 63.0556 0.0000 0.0000 0.0000
# 2 19.6315 11.2474 18.7035 0.0000 0.0000 0.0000
# 3 63.0556 18.7035 106.7114 0.0000 0.0000 0.0000
# 4 0.0000 0.0000 0.0000 34.4326 0.0000 0.0000
# 5 0.0000 0.0000 0.0000 0.0000 36.4492 0.0000
# 6 0.0000 0.0000 0.0000 0.0000 0.0000 23.2898
#
#
#
# Elastic Compliance Matrix: (Units=1/GPa)
#
#
# Indices 1 2 3 4 5 6 
#
# 1 0.010846 -0.011676 -0.004362 0.000000 0.000000 0.000000
# 2 -0.011676 0.138054 -0.017297 0.000000 0.000000 0.000000
# 3 -0.004362 -0.017297 0.014980 0.000000 0.000000 0.000000
# 4 0.000000 0.000000 0.000000 0.029042 0.000000 0.000000
# 5 0.000000 0.000000 0.000000 0.000000 0.027435 0.000000
# 6 0.000000 0.000000 0.000000 0.000000 0.000000 0.042937
#
#
# Mechanical properties :
#
#
# Convention : Reuss Voigt Hill
#
# Bulk Modulus (GPa) = 10.28717 51.04885 30.66801
# Shear Modulus (GPa) = 13.79805 29.18552 21.49179
#
# Velocity S-wave (km/s) = 2.69917 3.92559 3.36867
# Velocity P-wave (km/s) = 3.89176 6.89213 5.59675
#
# Compressibility (1/GPa) = 0.09720850
#
# Stress axis : x y z
#
# Youngs Moduli (GPa) = 92.20350 7.24352 66.75399
#
# Poissons Ratio (x) = 0.08458 0.29119
# Poissons Ratio (y) = 1.07660 1.15467
# Poissons Ratio (z) = 0.40220 0.12529
#
# Static dielectric constant tensor:
#      x y z
#    x 1.656130 0.000000 0.000000 
#    y 0.000000 1.646130 0.000000 
#    z 0.000000 0.000000 1.634220 
# 
# From -- ./inp_files/37149.got.cif
#   From: 2010.05.17/outbox.cif.g08.bks.cpg/sg51_19_cif.got.tgz:37149.got - 2010.06.03 11:52:47.
