data_PCOD9406826
_publ_section_title
;
Structure prediction by ZEFSAII (Michael W. Deem and Ramdas Pophale) SiO2 
 PCOD9406826
Probable space group: P M M A
;
_chemical_formula_sum "Si O2"
_cell_formula_units_Z 40
_cell_length_a 15.648623
_cell_length_b 9.448593
_cell_length_c 14.648182
_cell_angle_alpha 90.000000
_cell_angle_beta 90.000000
_cell_angle_gamma 90.000000
_cell_volume 2165.843127
_symmetry_space_group_name_H-M "P M M A"
_symmetry_group_IT_number 51
_symmetry_cell_setting 'orthorhombic'
loop_
_space_group_symop_operation_xyz
x,y,z
1/2-x,-y,z
1/2+x,-y,-z
-x,y,-z
-x,-y,-z
1/2+x,y,-z
1/2-x,y,z
x,-y,z
loop_
_atom_site_type_symbol
_atom_site_label
_atom_site_fract_x
_atom_site_fract_y
_atom_site_fract_z
Si Si1 0.388232 0.666078 0.598185
Si Si2 0.907133 0.664910 0.612325
Si Si3 0.250000 0.669316 0.907446
Si Si4 0.592897 0.333900 0.957205
Si Si5 0.149188 0.837873 0.215282
Si Si6 0.250000 0.829575 0.715151
O O1 0.366230 0.500000 0.614414
O O2 0.375872 0.695839 0.490428
O O3 0.489813 0.680531 0.614699
O O4 0.331757 0.767042 0.660739
O O5 0.887835 0.500000 0.630866
O O6 0.867252 0.762554 0.688794
O O7 0.250000 0.500000 0.885659
O O8 0.250000 0.761470 0.816028
O O9 0.166748 0.699421 0.969337
O O10 0.602532 0.500000 0.934030
O O11 0.603407 0.244071 0.866178
O O12 0.500000 0.312409 0.000000
O O13 0.250000 0.833905 0.195491
O O14 0.120825 0.000000 0.219340
O O15 0.250000 0.000000 0.717430
#
# Coordination Sequence:
#
# PCOD9406826 Si02
#       6
#     8   8   4   8   8   4
#     4   9  20  41  63  87 116 153 203 252 291 337
#     4   9  20  39  65  89 114 152 202 252 293 341
#     4  10  22  42  63  86 119 154 197 256 298 340
#     4  10  22  41  66  91 113 149 203 253 297 349
#     4  11  24  39  58  89 127 159 189 236 299 364
#     4  12  26  38  57  88 125 162 195 234 292 360
#
# _framework density 18.468558999999999
#
# number of rings (size 3 to 8) (size 9 to 14) (size 15 to 20)
#    0.000    2.000    1.000    2.700    4.200    4.000 
#    0.000    2.000    0.000    0.000    0.000    0.000 
#    0.000    0.000    0.000    0.000    0.000    0.000 
#
# Total GULP energy -223465.859049 kJ/mol
# GULP energy per Si atom -5586.646476 kJ/mol
# Density = 1.842652 g / cm^3
# Si number density = 18.468559 Si / 1000 Ang^3
#
#
#
# Elastic Constant Matrix: (Units=GPa)
#
#
# Indices 1 2 3 4 5 6 
#
# 1 48.1354 33.3672 19.3774 0.0000 0.0000 0.0000
# 2 33.3672 82.3209 66.5955 0.0000 0.0000 0.0000
# 3 19.3774 66.5955 84.5366 0.0000 0.0000 0.0000
# 4 0.0000 0.0000 0.0000 -34.7003 0.0000 0.0000
# 5 0.0000 0.0000 0.0000 0.0000 11.3561 0.0000
# 6 0.0000 0.0000 0.0000 0.0000 0.0000 19.8196
#
#
#
# Elastic Compliance Matrix: (Units=1/GPa)
#
#
# Indices 1 2 3 4 5 6 
#
# 1 0.030563 -0.018529 0.007591 0.000000 0.000000 0.000000
# 2 -0.018529 0.044724 -0.030985 0.000000 0.000000 0.000000
# 3 0.007591 -0.030985 0.034499 0.000000 0.000000 0.000000
# 4 0.000000 0.000000 0.000000 -0.028818 0.000000 0.000000
# 5 0.000000 0.000000 0.000000 0.000000 0.088058 0.000000
# 6 0.000000 0.000000 0.000000 0.000000 0.000000 0.050455
#
#
# Mechanical properties :
#
#
# Convention : Reuss Voigt Hill
#
# Bulk Modulus (GPa) = 38.55166 50.40812 44.47989
# Shear Modulus (GPa) = 16.02694 5.67194 10.84944
#
# Velocity S-wave (km/s) = 2.94903 1.75437 2.42638
# Velocity P-wave (km/s) = 5.70221 5.60865 5.65563
#
# Compressibility (1/GPa) = 0.02593922
#
# Stress axis : x y z
#
# Youngs Moduli (GPa) = 32.71910 22.35915 28.98674
#
# Poissons Ratio (x) = 0.41430 -0.22004
# Poissons Ratio (y) = 0.60626 0.89816
# Poissons Ratio (z) = -0.24837 0.69281
#
# Static dielectric constant tensor:
#      x y z
#    x 1.642090 0.000000 0.000000 
#    y 0.000000 1.613900 0.000000 
#    z 0.000000 0.000000 1.600790 
# 
# From -- ./inp_files/23790.got.cif
#   From: 2010.05.17/outbox.cif.g08.bks.cpg/sg51_12_cif.got.tgz:23790.got - 2010.06.03 11:52:47.
