data_PCOD9406184
_publ_section_title
;
Structure prediction by ZEFSAII (Michael W. Deem and Ramdas Pophale) SiO2 
 PCOD9406184
Probable space group: P M M A
;
_chemical_formula_sum "Si O2"
_cell_formula_units_Z 58
_cell_length_a 15.994403
_cell_length_b 10.479848
_cell_length_c 17.342222
_cell_angle_alpha 90.000000
_cell_angle_beta 90.000000
_cell_angle_gamma 90.000000
_cell_volume 2906.884388
_symmetry_space_group_name_H-M "P M M A"
_symmetry_group_IT_number 51
_symmetry_cell_setting 'orthorhombic'
loop_
_space_group_symop_operation_xyz
x,y,z
1/2-x,-y,z
1/2+x,-y,-z
-x,y,-z
-x,-y,-z
1/2+x,y,-z
1/2-x,y,z
x,-y,z
loop_
_atom_site_type_symbol
_atom_site_label
_atom_site_fract_x
_atom_site_fract_y
_atom_site_fract_z
Si Si1 0.596120 0.188190 0.991902
Si Si2 0.847422 0.855572 0.399351
Si Si3 0.902241 0.355565 0.518858
Si Si4 0.349039 0.644354 0.308657
Si Si5 0.347226 0.359321 0.884028
Si Si6 0.597183 0.143189 0.229416
Si Si7 0.750000 0.000000 0.031946
Si Si8 0.902875 0.146375 0.813970
O O1 0.613461 0.191448 0.900987
O O2 0.673731 0.107981 0.026970
O O3 0.500000 0.139029 0.000000
O O4 0.600174 0.316778 0.041606
O O5 0.750000 0.853115 0.376922
O O6 0.862360 0.750354 0.464061
O O7 0.898415 0.832549 0.320826
O O8 0.866980 0.000000 0.426906
O O9 0.868878 0.500000 0.505813
O O10 0.889774 0.325728 0.608795
O O11 0.000000 0.356881 0.500000
O O12 0.250000 0.641090 0.321295
O O13 0.375810 0.500000 0.285260
O O14 0.367904 0.752266 0.246354
O O15 0.250000 0.364349 0.905085
O O16 0.372887 0.500000 0.856546
O O17 0.358467 0.253974 0.817736
O O18 0.502205 0.141722 0.200416
O O19 0.633236 0.000000 0.215930
O O20 0.871041 0.000000 0.805483
#
# Coordination Sequence:
#
# PCOD9406184 Si02
#       8
#     8   8   8   8   8   8   2   8
#     4  12  25  44  67  97 130 171 222 271 331 401
#     4  10  21  37  59  91 125 159 202 250 312 376
#     4  10  21  39  64  90 120 162 210 256 310 377
#     4  10  23  41  60  87 125 168 210 255 318 387
#     4  11  25  42  62  93 130 170 218 267 324 389
#     4  10  22  40  63  90 125 167 206 260 319 379
#     4  12  26  40  74  98 132 172 212 290 328 390
#     4  11  24  39  64  93 124 157 212 267 313 380
#
# _framework density 19.952634
#
# number of rings (size 3 to 8) (size 9 to 14) (size 15 to 20)
#    0.000    1.379    2.759    1.862    1.931    4.690 
#    0.000    1.379    0.000    0.000    0.000    0.000 
#    0.000    0.000    0.000    0.000    0.000    0.000 
#
# Total GULP energy -323264.901026 kJ/mol
# GULP energy per Si atom -5573.532776 kJ/mol
# Density = 1.990722 g / cm^3
# Si number density = 19.952634 Si / 1000 Ang^3
#
#
#
# Elastic Constant Matrix: (Units=GPa)
#
#
# Indices 1 2 3 4 5 6 
#
# 1 62.4238 14.7027 -5.1455 0.0000 0.0000 0.0000
# 2 14.7027 124.7358 83.6907 0.0000 0.0000 0.0000
# 3 -5.1455 83.6907 112.3912 0.0000 0.0000 0.0000
# 4 0.0000 0.0000 0.0000 11.1212 0.0000 0.0000
# 5 0.0000 0.0000 0.0000 0.0000 25.9928 0.0000
# 6 0.0000 0.0000 0.0000 0.0000 0.0000 25.0717
#
#
#
# Elastic Compliance Matrix: (Units=1/GPa)
#
#
# Indices 1 2 3 4 5 6 
#
# 1 0.017641 -0.005239 0.004708 0.000000 0.000000 0.000000
# 2 -0.005239 0.017577 -0.013328 0.000000 0.000000 0.000000
# 3 0.004708 -0.013328 0.019038 0.000000 0.000000 0.000000
# 4 0.000000 0.000000 0.000000 0.089919 0.000000 0.000000
# 5 0.000000 0.000000 0.000000 0.000000 0.038472 0.000000
# 6 0.000000 0.000000 0.000000 0.000000 0.000000 0.039886
#
#
# Mechanical properties :
#
#
# Convention : Reuss Voigt Hill
#
# Bulk Modulus (GPa) = 37.67964 54.00518 45.84241
# Shear Modulus (GPa) = 19.29788 26.19065 22.74427
#
# Velocity S-wave (km/s) = 3.11333 3.62697 3.37992
# Velocity P-wave (km/s) = 5.64352 6.68321 6.18525
#
# Compressibility (1/GPa) = 0.02653953
#
# Stress axis : x y z
#
# Youngs Moduli (GPa) = 56.68458 56.89272 52.52708
#
# Poissons Ratio (x) = 0.29803 -0.24732
# Poissons Ratio (y) = 0.29694 0.70010
# Poissons Ratio (z) = -0.26690 0.75828
#
# Static dielectric constant tensor:
#      x y z
#    x 1.727480 0.000000 0.000000 
#    y 0.000000 1.760570 0.000000 
#    z 0.000000 0.000000 1.682970 
# 
# From -- ./inp_files/30177.got.cif
#   From: 2010.05.17/outbox.cif.g08.bks.cpg/sg51_16_cif.got.tgz:30177.got - 2010.06.03 11:52:47.
