data_PCOD9406548
_publ_section_title
;
Structure prediction by ZEFSAII (Michael W. Deem and Ramdas Pophale) SiO2 
 PCOD9406548
Probable space group: P M M A
;
_chemical_formula_sum "Si O2"
_cell_formula_units_Z 56
_cell_length_a 17.258405
_cell_length_b 18.818337
_cell_length_c 9.168689
_cell_angle_alpha 90.000000
_cell_angle_beta 90.000000
_cell_angle_gamma 90.000000
_cell_volume 2977.756215
_symmetry_space_group_name_H-M "P M M A"
_symmetry_group_IT_number 51
_symmetry_cell_setting 'orthorhombic'
loop_
_space_group_symop_operation_xyz
x,y,z
1/2-x,-y,z
1/2+x,-y,-z
-x,y,-z
-x,-y,-z
1/2+x,y,-z
1/2-x,y,z
x,-y,z
loop_
_atom_site_type_symbol
_atom_site_label
_atom_site_fract_x
_atom_site_fract_y
_atom_site_fract_z
Si Si1 0.081785 0.582853 0.929205
Si Si2 0.840379 0.083217 0.856637
Si Si3 0.158870 0.419070 0.233134
Si Si4 0.158482 0.303681 0.736310
Si Si5 0.919495 0.698821 0.568899
Si Si6 0.426803 0.180211 0.907975
Si Si7 0.035176 0.857599 0.344515
O O1 0.074111 0.500000 0.889914
O O2 0.111038 0.628437 0.794356
O O3 0.142785 0.589913 0.061339
O O4 0.000000 0.605801 0.000000
O O5 0.750000 0.100948 0.836646
O O6 0.891158 0.099539 0.713190
O O7 0.846579 0.000000 0.892591
O O8 0.877988 0.130661 0.984176
O O9 0.250000 0.413396 0.263058
O O10 0.133452 0.500000 0.270243
O O11 0.114224 0.358747 0.321161
O O12 0.250000 0.313372 0.753782
O O13 0.137493 0.289468 0.567960
O O14 0.126498 0.239741 0.835854
O O15 0.939281 0.774562 0.642691
O O16 0.000000 0.672684 0.500000
O O17 0.468130 0.137732 0.776962
O O18 0.500000 0.210645 0.000000
O O19 0.000000 0.878390 0.500000
#
# Coordination Sequence:
#
# PCOD9406548 Si02
#       7
#     8   8   8   8   8   8   8
#     4  10  22  39  59  82 112 153 201 251 301 359
#     4  10  23  42  65  96 129 160 198 246 301 360
#     4  10  22  39  57  81 114 154 200 248 304 363
#     4  12  23  35  57  88 119 153 197 250 307 357
#     4  11  22  39  59  83 119 156 199 250 298 358
#     4  10  21  39  64  87 121 159 202 244 294 357
#     4  10  21  41  64  90 123 163 204 252 293 360
#
# _framework density 18.806106
#
# number of rings (size 3 to 8) (size 9 to 14) (size 15 to 20)
#    0.000    1.571    2.857    2.571    4.000    5.714 
#    0.000    0.000    0.000    1.714    0.000    0.000 
#    0.000    0.000    0.000    0.000    0.000    0.000 
#
# Total GULP energy -312769.439037 kJ/mol
# GULP energy per Si atom -5585.168554 kJ/mol
# Density = 1.876330 g / cm^3
# Si number density = 18.806106 Si / 1000 Ang^3
#
#
#
# Elastic Constant Matrix: (Units=GPa)
#
#
# Indices 1 2 3 4 5 6 
#
# 1 102.8274 28.7096 21.9946 0.0000 0.0000 0.0000
# 2 28.7096 55.9186 20.8041 0.0000 0.0000 0.0000
# 3 21.9946 20.8041 73.2609 0.0000 0.0000 0.0000
# 4 0.0000 0.0000 0.0000 -1.4163 0.0000 0.0000
# 5 0.0000 0.0000 0.0000 0.0000 26.5803 0.0000
# 6 0.0000 0.0000 0.0000 0.0000 0.0000 29.0799
#
#
#
# Elastic Compliance Matrix: (Units=1/GPa)
#
#
# Indices 1 2 3 4 5 6 
#
# 1 0.011610 -0.005215 -0.002005 0.000000 0.000000 0.000000
# 2 -0.005215 0.022338 -0.004778 0.000000 0.000000 0.000000
# 3 -0.002005 -0.004778 0.015608 0.000000 0.000000 0.000000
# 4 0.000000 0.000000 0.000000 -0.706071 0.000000 0.000000
# 5 0.000000 0.000000 0.000000 0.000000 0.037622 0.000000
# 6 0.000000 0.000000 0.000000 0.000000 0.000000 0.034388
#
#
# Mechanical properties :
#
#
# Convention : Reuss Voigt Hill
#
# Bulk Modulus (GPa) = 39.12097 41.66928 40.39512
# Shear Modulus (GPa) = -9.05814 21.54869 6.24528
#
# Velocity S-wave (km/s) = -2.19705 3.38869 1.82430
# Velocity P-wave (km/s) = 3.79623 6.12506 5.09548
#
# Compressibility (1/GPa) = 0.02556174
#
# Stress axis : x y z
#
# Youngs Moduli (GPa) = 86.13394 44.76658 64.06788
#
# Poissons Ratio (x) = 0.23345 0.12843
# Poissons Ratio (y) = 0.44918 0.30610
# Poissons Ratio (z) = 0.17267 0.21389
#
# Static dielectric constant tensor:
#      x y z
#    x 1.651690 0.000000 0.000000 
#    y 0.000000 1.638450 0.000000 
#    z 0.000000 0.000000 1.648020 
# 
# From -- ./inp_files/8514.got.cif
#   From: 2010.05.17/outbox.cif.g08.bks.cpg/sg51_5_cif.got.tgz:8514.got - 2010.06.03 11:52:47.
