data_PCOD9406304
_publ_section_title
;
Structure prediction by ZEFSAII (Michael W. Deem and Ramdas Pophale) SiO2 
 PCOD9406304
Probable space group: P M M A
;
_chemical_formula_sum "Si O2"
_cell_formula_units_Z 64
_cell_length_a 14.653568
_cell_length_b 23.456158
_cell_length_c 9.189853
_cell_angle_alpha 90.000000
_cell_angle_beta 90.000000
_cell_angle_gamma 90.000000
_cell_volume 3158.703247
_symmetry_space_group_name_H-M "P M M A"
_symmetry_group_IT_number 51
_symmetry_cell_setting 'orthorhombic'
loop_
_space_group_symop_operation_xyz
x,y,z
1/2-x,-y,z
1/2+x,-y,-z
-x,y,-z
-x,-y,-z
1/2+x,y,-z
1/2-x,y,z
x,-y,z
loop_
_atom_site_type_symbol
_atom_site_label
_atom_site_fract_x
_atom_site_fract_y
_atom_site_fract_z
Si Si1 0.358686 0.235363 0.740741
Si Si2 0.144641 0.725599 0.426588
Si Si3 0.470347 0.123994 0.834987
Si Si4 0.400314 0.062598 0.576671
Si Si5 0.640963 0.624639 0.790156
Si Si6 0.643095 0.357633 0.128138
Si Si7 0.847472 0.145498 0.663826
Si Si8 0.016039 0.565205 0.667321
O O1 0.250000 0.220426 0.725682
O O2 0.396033 0.258375 0.584288
O O3 0.416162 0.183038 0.804759
O O4 0.365533 0.290565 0.841605
O O5 0.250000 0.708554 0.460006
O O6 0.110772 0.677136 0.315991
O O7 0.146709 0.786558 0.348393
O O8 0.412721 0.076890 0.746415
O O9 0.566407 0.126008 0.752412
O O10 0.500000 0.114642 0.000000
O O11 0.500000 0.060789 0.500000
O O12 0.352630 0.114975 0.493674
O O13 0.359073 0.000000 0.554245
O O14 0.750000 0.618920 0.777624
O O15 0.583522 0.570910 0.738540
O O16 0.618977 0.633705 0.959424
O O17 0.750000 0.372829 0.148961
O O18 0.582521 0.394051 0.240255
O O19 0.750000 0.130154 0.730876
O O20 0.049116 0.500000 0.670223
O O21 0.000000 0.582631 0.500000
#
# Coordination Sequence:
#
# PCOD9406304 Si02
#       8
#     8   8   8   8   8   8   8   8
#     4  10  21  38  59  85 124 164 206 257 310 373
#     4   9  18  34  58  85 117 155 199 251 304 359
#     4  11  24  36  57  92 126 169 208 253 322 381
#     4   9  19  39  62  84 115 157 208 259 304 360
#     4  10  22  40  63  91 122 161 203 251 318 377
#     4  10  23  41  62  90 124 163 204 255 317 376
#     4  10  21  38  59  88 120 159 210 260 308 368
#     4  11  25  43  64  91 122 162 209 257 303 363
#
# _framework density 20.261479000000001
#
# number of rings (size 3 to 8) (size 9 to 14) (size 15 to 20)
#    0.000    2.000    1.250    1.125    3.500    4.000 
#    0.000    2.500    0.000    0.000    0.000    1.750 
#    0.000    0.000    0.000    0.000    0.000    0.000 
#
# Total GULP energy -356942.317840 kJ/mol
# GULP energy per Si atom -5577.223716 kJ/mol
# Density = 2.021536 g / cm^3
# Si number density = 20.261479 Si / 1000 Ang^3
#
#
#
# Elastic Constant Matrix: (Units=GPa)
#
#
# Indices 1 2 3 4 5 6 
#
# 1 65.5300 23.1517 23.4980 0.0000 0.0000 0.0000
# 2 23.1517 79.0764 24.0522 0.0000 0.0000 0.0000
# 3 23.4980 24.0522 109.1421 0.0000 0.0000 0.0000
# 4 0.0000 0.0000 0.0000 9.0968 0.0000 0.0000
# 5 0.0000 0.0000 0.0000 0.0000 22.7394 0.0000
# 6 0.0000 0.0000 0.0000 0.0000 0.0000 -31.7759
#
#
#
# Elastic Compliance Matrix: (Units=1/GPa)
#
#
# Indices 1 2 3 4 5 6 
#
# 1 0.017828 -0.004343 -0.002881 0.000000 0.000000 0.000000
# 2 -0.004343 0.014613 -0.002285 0.000000 0.000000 0.000000
# 3 -0.002881 -0.002285 0.010286 0.000000 0.000000 0.000000
# 4 0.000000 0.000000 0.000000 0.109929 0.000000 0.000000
# 5 0.000000 0.000000 0.000000 0.000000 0.043976 0.000000
# 6 0.000000 0.000000 0.000000 0.000000 0.000000 -0.031470
#
#
# Mechanical properties :
#
#
# Convention : Reuss Voigt Hill
#
# Bulk Modulus (GPa) = 42.18052 43.90582 43.04317
# Shear Modulus (GPa) = 26.03038 12.21518 19.12278
#
# Velocity S-wave (km/s) = 3.58819 2.45802 3.07547
# Velocity P-wave (km/s) = 6.16686 5.45641 5.82248
#
# Compressibility (1/GPa) = 0.02370763
#
# Stress axis : x y z
#
# Youngs Moduli (GPa) = 56.09227 68.43382 97.21707
#
# Poissons Ratio (x) = 0.29722 0.28009
# Poissons Ratio (y) = 0.24362 0.22216
# Poissons Ratio (z) = 0.16161 0.15638
#
# Static dielectric constant tensor:
#      x y z
#    x 1.757830 0.000000 0.000000 
#    y 0.000000 1.696190 0.000000 
#    z 0.000000 0.000000 1.738080 
# 
# From -- ./inp_files/8724.got.cif
#   From: 2010.05.17/outbox.cif.g08.bks.cpg/sg51_5_cif.got.tgz:8724.got - 2010.06.03 11:52:47.
