data_PCOD9406038
_publ_section_title
;
Structure prediction by ZEFSAII (Michael W. Deem and Ramdas Pophale) SiO2 
 PCOD9406038
Probable space group: P M M A
;
_chemical_formula_sum "Si O2"
_cell_formula_units_Z 48
_cell_length_a 9.138878
_cell_length_b 9.110077
_cell_length_c 31.678353
_cell_angle_alpha 90.000000
_cell_angle_beta 90.000000
_cell_angle_gamma 90.000000
_cell_volume 2637.409228
_symmetry_space_group_name_H-M "P M M A"
_symmetry_group_IT_number 51
_symmetry_cell_setting 'orthorhombic'
loop_
_space_group_symop_operation_xyz
x,y,z
1/2-x,-y,z
1/2+x,-y,-z
-x,y,-z
-x,-y,-z
1/2+x,y,-z
1/2-x,y,z
x,-y,z
loop_
_atom_site_type_symbol
_atom_site_label
_atom_site_fract_x
_atom_site_fract_y
_atom_site_fract_z
Si Si1 0.925153 0.672510 0.043348
Si Si2 0.075114 0.826030 0.869575
Si Si3 0.421221 0.676783 0.543598
Si Si4 0.921269 0.176564 0.622880
Si Si5 0.923037 0.674972 0.790197
Si Si6 0.077293 0.176075 0.710603
O O1 0.750000 0.684339 0.038766
O O2 0.961119 0.500000 0.049587
O O3 0.968711 0.762243 0.084817
O O4 0.000000 0.722121 0.000000
O O5 0.250000 0.800185 0.864626
O O6 0.990671 0.745871 0.832155
O O7 0.050152 0.000000 0.867754
O O8 0.500000 0.720311 0.500000
O O9 0.250000 0.716476 0.542408
O O10 0.431681 0.500000 0.547092
O O11 0.499959 0.749175 0.583388
O O12 0.750000 0.216069 0.624175
O O13 0.999822 0.217651 0.666692
O O14 0.932034 0.000000 0.618795
O O15 0.750000 0.705752 0.787823
O O16 0.944024 0.500000 0.791134
O O17 0.003143 0.743150 0.749725
O O18 0.250000 0.208012 0.708683
O O19 0.060273 0.000000 0.716063
#
# Coordination Sequence:
#
# PCOD9406038 Si02
#       6
#     8   8   8   8   8   8
#     4   9  18  33  53  77 107 143 181 222 268 318
#     4  10  21  37  57  81 109 143 183 225 271 324
#     4  10  21  37  57  81 110 146 187 230 277 327
#     4  10  21  37  58  84 113 146 183 224 272 325
#     4  11  24  39  56  81 111 143 181 224 270 322
#     4  10  21  38  60  84 110 142 180 222 270 324
#
# _framework density 18.199677999999999
#
# number of rings (size 3 to 8) (size 9 to 14) (size 15 to 20)
#    0.000    2.000    0.000    3.000    0.000    9.333 
#    0.000    1.667    0.000    0.000    0.000    0.000 
#    0.000    0.000    0.000    0.000    0.000    0.000 
#
# Total GULP energy -268181.078024 kJ/mol
# GULP energy per Si atom -5587.105792 kJ/mol
# Density = 1.815826 g / cm^3
# Si number density = 18.199678 Si / 1000 Ang^3
#
#
#
# Elastic Constant Matrix: (Units=GPa)
#
#
# Indices 1 2 3 4 5 6 
#
# 1 139.3892 74.4763 124.1451 0.0000 0.0000 0.0000
# 2 74.4763 48.8224 80.2666 0.0000 0.0000 0.0000
# 3 124.1451 80.2666 222.2621 0.0000 0.0000 0.0000
# 4 0.0000 0.0000 0.0000 42.2170 0.0000 0.0000
# 5 0.0000 0.0000 0.0000 0.0000 42.9870 0.0000
# 6 0.0000 0.0000 0.0000 0.0000 0.0000 28.2477
#
#
#
# Elastic Compliance Matrix: (Units=1/GPa)
#
#
# Indices 1 2 3 4 5 6 
#
# 1 0.038839 -0.058044 -0.000732 0.000000 0.000000 0.000000
# 2 -0.058044 0.137159 -0.017112 0.000000 0.000000 0.000000
# 3 -0.000732 -0.017112 0.011088 0.000000 0.000000 0.000000
# 4 0.000000 0.000000 0.000000 0.023687 0.000000 0.000000
# 5 0.000000 0.000000 0.000000 0.000000 0.023263 0.000000
# 6 0.000000 0.000000 0.000000 0.000000 0.000000 0.035401
#
#
# Mechanical properties :
#
#
# Convention : Reuss Voigt Hill
#
# Bulk Modulus (GPa) = 28.32082 107.58331 67.95206
# Shear Modulus (GPa) = 11.54775 31.46272 21.50524
#
# Velocity S-wave (km/s) = 2.52167 4.16234 3.44121
# Velocity P-wave (km/s) = 4.90646 9.07420 7.29433
#
# Compressibility (1/GPa) = 0.03530972
#
# Stress axis : x y z
#
# Youngs Moduli (GPa) = 25.74705 7.29079 90.18741
#
# Poissons Ratio (x) = 0.42319 0.06603
# Poissons Ratio (y) = 1.49446 1.54332
# Poissons Ratio (z) = 0.01885 0.12476
#
# Static dielectric constant tensor:
#      x y z
#    x 1.608040 0.000000 0.000000 
#    y 0.000000 1.610090 0.000000 
#    z 0.000000 0.000000 1.583750 
# 
# From -- ./inp_files/37000.got.cif
#   From: 2010.05.17/outbox.cif.g08.bks.cpg/sg51_19_cif.got.tgz:37000.got - 2010.06.03 11:52:47.
