data_PCOD9406197
_publ_section_title
;
Structure prediction by ZEFSAII (Michael W. Deem and Ramdas Pophale) SiO2 
 PCOD9406197
Probable space group: P M M A
;
_chemical_formula_sum "Si O2"
_cell_formula_units_Z 40
_cell_length_a 14.867141
_cell_length_b 10.766148
_cell_length_c 11.785878
_cell_angle_alpha 90.000000
_cell_angle_beta 90.000000
_cell_angle_gamma 90.000000
_cell_volume 1886.469323
_symmetry_space_group_name_H-M "P M M A"
_symmetry_group_IT_number 51
_symmetry_cell_setting 'orthorhombic'
loop_
_space_group_symop_operation_xyz
x,y,z
1/2-x,-y,z
1/2+x,-y,-z
-x,y,-z
-x,-y,-z
1/2+x,y,-z
1/2-x,y,z
x,-y,z
loop_
_atom_site_type_symbol
_atom_site_label
_atom_site_fract_x
_atom_site_fract_y
_atom_site_fract_z
Si Si1 0.908640 0.866194 0.427404
Si Si2 0.354933 0.639829 0.950941
Si Si3 0.354657 0.749564 0.192892
Si Si4 0.144337 0.636197 0.431766
Si Si5 0.038586 0.863999 0.835793
O O1 0.865868 0.740129 0.472577
O O2 0.929039 0.859346 0.294606
O O3 0.000000 0.871189 0.500000
O O4 0.861750 0.000000 0.449339
O O5 0.250000 0.656424 0.916111
O O6 0.383593 0.500000 0.919731
O O7 0.415940 0.748440 0.899356
O O8 0.356465 0.655463 0.087147
O O9 0.250000 0.791989 0.204879
O O10 0.387513 0.687185 0.310050
O O11 0.430562 0.850419 0.164658
O O12 0.250000 0.622323 0.414457
O O13 0.106161 0.500000 0.458889
O O14 0.064444 0.000000 0.882073
#
# Coordination Sequence:
#
# PCOD9406197 Si02
#       5
#     8   8   8   8   8
#     4  10  21  40  59  81 118 159 199 243 298 362
#     4  10  23  43  65  90 123 164 207 251 306 372
#     4  10  21  39  63  92 126 162 201 252 309 366
#     4  10  21  37  60  91 121 152 199 255 306 360
#     4  11  24  41  63  92 125 162 208 257 305 362
#
# _framework density 21.203631000000001
#
# number of rings (size 3 to 8) (size 9 to 14) (size 15 to 20)
#    0.000    1.800    2.000    1.200    0.000    9.600 
#    0.000    8.000    0.000    0.000    0.000    0.000 
#    0.000    0.000    0.000    0.000    0.000    0.000 
#
# Total GULP energy -223106.721212 kJ/mol
# GULP energy per Si atom -5577.668030 kJ/mol
# Density = 2.115537 g / cm^3
# Si number density = 21.203631 Si / 1000 Ang^3
#
#
#
# Elastic Constant Matrix: (Units=GPa)
#
#
# Indices 1 2 3 4 5 6 
#
# 1 62.0405 53.7368 10.6724 0.0000 0.0000 0.0000
# 2 53.7368 181.9190 47.3330 0.0000 0.0000 0.0000
# 3 10.6724 47.3330 86.9948 0.0000 0.0000 0.0000
# 4 0.0000 0.0000 0.0000 19.5676 0.0000 0.0000
# 5 0.0000 0.0000 0.0000 0.0000 32.6183 0.0000
# 6 0.0000 0.0000 0.0000 0.0000 0.0000 25.8094
#
#
#
# Elastic Compliance Matrix: (Units=1/GPa)
#
#
# Indices 1 2 3 4 5 6 
#
# 1 0.021729 -0.006669 0.000963 0.000000 0.000000 0.000000
# 2 -0.006669 0.008450 -0.003780 0.000000 0.000000 0.000000
# 3 0.000963 -0.003780 0.013433 0.000000 0.000000 0.000000
# 4 0.000000 0.000000 0.000000 0.051105 0.000000 0.000000
# 5 0.000000 0.000000 0.000000 0.000000 0.030658 0.000000
# 6 0.000000 0.000000 0.000000 0.000000 0.000000 0.038746
#
#
# Mechanical properties :
#
#
# Convention : Reuss Voigt Hill
#
# Bulk Modulus (GPa) = 40.58230 61.60430 51.09330
# Shear Modulus (GPa) = 26.13605 30.21319 28.17462
#
# Velocity S-wave (km/s) = 3.51468 3.77889 3.64918
# Velocity P-wave (km/s) = 5.97089 6.93950 6.47334
#
# Compressibility (1/GPa) = 0.02464128
#
# Stress axis : x y z
#
# Youngs Moduli (GPa) = 46.02068 118.33849 74.44212
#
# Poissons Ratio (x) = 0.78921 -0.07168
# Poissons Ratio (y) = 0.30692 0.28136
# Poissons Ratio (z) = -0.04431 0.44727
#
# Static dielectric constant tensor:
#      x y z
#    x 1.798800 0.000000 0.000000 
#    y 0.000000 1.810080 0.000000 
#    z 0.000000 0.000000 1.760770 
# 
# From -- ./inp_files/16190.got.cif
#   From: 2010.05.17/outbox.cif.g08.bks.cpg/sg51_9_cif.got.tgz:16190.got - 2010.06.03 11:52:47.
