data_PCOD9406752
_publ_section_title
;
Structure prediction by ZEFSAII (Michael W. Deem and Ramdas Pophale) SiO2 
 PCOD9406752
Probable space group: P M M A
;
_chemical_formula_sum "Si O2"
_cell_formula_units_Z 64
_cell_length_a 17.927814
_cell_length_b 8.101589
_cell_length_c 21.249234
_cell_angle_alpha 90.000000
_cell_angle_beta 90.000000
_cell_angle_gamma 90.000000
_cell_volume 3086.319083
_symmetry_space_group_name_H-M "P M M A"
_symmetry_group_IT_number 51
_symmetry_cell_setting 'orthorhombic'
loop_
_space_group_symop_operation_xyz
x,y,z
1/2-x,-y,z
1/2+x,-y,-z
-x,y,-z
-x,-y,-z
1/2+x,y,-z
1/2-x,y,z
x,-y,z
loop_
_atom_site_type_symbol
_atom_site_label
_atom_site_fract_x
_atom_site_fract_y
_atom_site_fract_z
Si Si1 0.063472 0.698032 0.817759
Si Si2 0.832874 0.198613 0.426740
Si Si3 0.395904 0.194469 0.203947
Si Si4 0.665158 0.302011 0.296648
Si Si5 0.835575 0.695375 0.660652
Si Si6 0.839289 0.189580 0.927269
Si Si7 0.571835 0.198436 0.541334
Si Si8 0.336703 0.200481 0.934494
O O1 0.054462 0.500000 0.814156
O O2 0.118476 0.755485 0.762394
O O3 0.104779 0.741568 0.882617
O O4 0.983965 0.778876 0.804430
O O5 0.750000 0.266314 0.420825
O O6 0.872485 0.253342 0.362822
O O7 0.863703 0.250500 0.493198
O O8 0.832122 0.000000 0.426485
O O9 0.363178 0.266411 0.268507
O O10 0.362797 0.267138 0.138800
O O11 0.377818 0.000000 0.206258
O O12 0.750000 0.235830 0.293117
O O13 0.668858 0.500000 0.294446
O O14 0.750000 0.762653 0.650567
O O15 0.830774 0.500000 0.653765
O O16 0.898540 0.751603 0.610098
O O17 0.750000 0.181994 0.928118
O O18 0.868443 0.000000 0.926631
O O19 0.859509 0.261200 0.995513
O O20 0.500000 0.256874 0.500000
O O21 0.564308 0.000000 0.544025
O O22 0.250000 0.251265 0.921291
O O23 0.336363 0.000000 0.936026
#
# Coordination Sequence:
#
# PCOD9406752 Si02
#       8
#     8   8   8   8   8   8   8   8
#     4  11  23  37  53  80 121 160 196 241 297 361
#     4   9  18  33  54  80 110 143 184 236 285 331
#     4  11  23  39  62  88 116 155 202 252 302 352
#     4   9  19  35  54  75 104 147 192 230 276 343
#     4  11  25  44  65  91 124 161 201 245 296 358
#     4   8  16  34  60  87 112 143 192 250 302 353
#     4  10  22  39  61  91 122 154 194 242 291 344
#     4   9  18  35  60  87 114 149 197 249 297 353
#
# _framework density 20.736677
#
# number of rings (size 3 to 8) (size 9 to 14) (size 15 to 20)
#    0.000    2.250    0.000    3.000    1.750    5.000 
#    0.000    6.250    0.000    1.500    0.000    0.000 
#    0.000    0.000    0.000    0.000    0.000    0.000 
#
# Total GULP energy -356648.600835 kJ/mol
# GULP energy per Si atom -5572.634388 kJ/mol
# Density = 2.068948 g / cm^3
# Si number density = 20.736677 Si / 1000 Ang^3
#
#
#
# Elastic Constant Matrix: (Units=GPa)
#
#
# Indices 1 2 3 4 5 6 
#
# 1 49.4748 0.3709 32.3381 0.0000 0.0000 0.0000
# 2 0.3709 16.3236 1.2034 0.0000 0.0000 0.0000
# 3 32.3381 1.2034 146.0315 0.0000 0.0000 0.0000
# 4 0.0000 0.0000 0.0000 33.3366 0.0000 0.0000
# 5 0.0000 0.0000 0.0000 0.0000 57.3489 0.0000
# 6 0.0000 0.0000 0.0000 0.0000 0.0000 17.0715
#
#
#
# Elastic Compliance Matrix: (Units=1/GPa)
#
#
# Indices 1 2 3 4 5 6 
#
# 1 0.023633 -0.000151 -0.005232 0.000000 0.000000 0.000000
# 2 -0.000151 0.061299 -0.000472 0.000000 0.000000 0.000000
# 3 -0.005232 -0.000472 0.008010 0.000000 0.000000 0.000000
# 4 0.000000 0.000000 0.000000 0.029997 0.000000 0.000000
# 5 0.000000 0.000000 0.000000 0.000000 0.017437 0.000000
# 6 0.000000 0.000000 0.000000 0.000000 0.000000 0.058577
#
#
# Mechanical properties :
#
#
# Convention : Reuss Voigt Hill
#
# Bulk Modulus (GPa) = 12.31030 31.07273 21.69152
# Shear Modulus (GPa) = 21.03115 33.41256 27.22185
#
# Velocity S-wave (km/s) = 3.18811 4.01843 3.62711
# Velocity P-wave (km/s) = 4.41604 6.04544 5.29380
#
# Compressibility (1/GPa) = 0.08123276
#
# Stress axis : x y z
#
# Youngs Moduli (GPa) = 42.31305 16.31338 124.83789
#
# Poissons Ratio (x) = 0.00247 0.65319
# Poissons Ratio (y) = 0.00640 0.05888
# Poissons Ratio (z) = 0.22139 0.00769
#
# Static dielectric constant tensor:
#      x y z
#    x 1.783070 0.000000 0.000000 
#    y 0.000000 1.738020 0.000000 
#    z 0.000000 0.000000 1.779350 
# 
# From -- ./inp_files/33776.got.cif
#   From: 2010.05.17/outbox.cif.g08.bks.cpg/sg51_17_cif.got.tgz:33776.got - 2010.06.03 11:52:47.
