data_PCOD9406188
_publ_section_title
;
Structure prediction by ZEFSAII (Michael W. Deem and Ramdas Pophale) SiO2 
 PCOD9406188
Probable space group: P M M A
;
_chemical_formula_sum "Si O2"
_cell_formula_units_Z 48
_cell_length_a 10.011964
_cell_length_b 9.010632
_cell_length_c 29.667716
_cell_angle_alpha 90.000000
_cell_angle_beta 90.000000
_cell_angle_gamma 90.000000
_cell_volume 2676.446986
_symmetry_space_group_name_H-M "P M M A"
_symmetry_group_IT_number 51
_symmetry_cell_setting 'orthorhombic'
loop_
_space_group_symop_operation_xyz
x,y,z
1/2-x,-y,z
1/2+x,-y,-z
-x,y,-z
-x,-y,-z
1/2+x,y,-z
1/2-x,y,z
x,-y,z
loop_
_atom_site_type_symbol
_atom_site_label
_atom_site_fract_x
_atom_site_fract_y
_atom_site_fract_z
Si Si1 0.462471 0.324077 0.899366
Si Si2 0.408431 0.322921 0.271355
Si Si3 0.250000 0.823303 0.963969
Si Si4 0.406656 0.321613 0.458175
Si Si5 0.750000 0.327208 0.940277
Si Si6 0.095720 0.176704 0.803217
Si Si7 0.587884 0.829766 0.635215
O O1 0.433240 0.500000 0.898376
O O2 0.376706 0.246591 0.938376
O O3 0.617787 0.304016 0.911000
O O4 0.426894 0.251084 0.851804
O O5 0.250000 0.290467 0.265353
O O6 0.424683 0.500000 0.269944
O O7 0.495069 0.246563 0.232726
O O8 0.450728 0.260433 0.320211
O O9 0.250000 0.000000 0.959398
O O10 0.250000 0.774627 0.015779
O O11 0.500000 0.278538 0.500000
O O12 0.250000 0.284433 0.466225
O O13 0.414176 0.500000 0.452892
O O14 0.452029 0.245744 0.411715
O O15 0.750000 0.500000 0.955591
O O16 0.250000 0.202606 0.789792
O O17 0.075055 0.000000 0.806660
O O18 0.750000 0.829551 0.634790
O O19 0.542716 0.000000 0.637979
#
# Coordination Sequence:
#
# PCOD9406188 Si02
#       7
#     8   8   4   8   4   8   8
#     4  11  23  41  64  87 116 153 191 233 280 335
#     4  10  21  37  60  87 113 145 189 235 280 336
#     4  12  24  40  62  90 120 154 192 230 279 338
#     4   9  17  30  49  73 103 140 182 226 273 328
#     4  10  24  42  62  90 118 148 192 238 279 328
#     4  11  24  41  60  85 117 150 186 230 284 342
#     4   9  17  31  52  78 108 142 182 229 281 331
#
# _framework density 17.934225000000001
#
# number of rings (size 3 to 8) (size 9 to 14) (size 15 to 20)
#    0.000    1.833    0.833    3.250    1.167    7.667 
#    0.000    0.833    0.000    3.000    0.000    0.000 
#    0.000    0.000    0.000    0.000    0.000    0.000 
#
# Total GULP energy -268087.446599 kJ/mol
# GULP energy per Si atom -5585.155137 kJ/mol
# Density = 1.789341 g / cm^3
# Si number density = 17.934225 Si / 1000 Ang^3
#
#
#
# Elastic Constant Matrix: (Units=GPa)
#
#
# Indices 1 2 3 4 5 6 
#
# 1 81.7744 58.7306 41.7872 0.0000 0.0000 0.0000
# 2 58.7306 102.5638 62.4181 0.0000 0.0000 0.0000
# 3 41.7872 62.4181 114.5045 0.0000 0.0000 0.0000
# 4 0.0000 0.0000 0.0000 122.2962 0.0000 0.0000
# 5 0.0000 0.0000 0.0000 0.0000 31.3687 0.0000
# 6 0.0000 0.0000 0.0000 0.0000 0.0000 20.7748
#
#
#
# Elastic Compliance Matrix: (Units=1/GPa)
#
#
# Indices 1 2 3 4 5 6 
#
# 1 0.020979 -0.011005 -0.001657 0.000000 0.000000 0.000000
# 2 -0.011005 0.020363 -0.007084 0.000000 0.000000 0.000000
# 3 -0.001657 -0.007084 0.013200 0.000000 0.000000 0.000000
# 4 0.000000 0.000000 0.000000 0.008177 0.000000 0.000000
# 5 0.000000 0.000000 0.000000 0.000000 0.031879 0.000000
# 6 0.000000 0.000000 0.000000 0.000000 0.000000 0.048135
#
#
# Mechanical properties :
#
#
# Convention : Reuss Voigt Hill
#
# Bulk Modulus (GPa) = 66.44648 69.41271 67.92960
# Shear Modulus (GPa) = 26.70353 43.94838 35.32596
#
# Velocity S-wave (km/s) = 3.86290 4.95565 4.44300
# Velocity P-wave (km/s) = 7.55159 8.45770 8.01746
#
# Compressibility (1/GPa) = 0.01504971
#
# Stress axis : x y z
#
# Youngs Moduli (GPa) = 47.66626 49.10946 75.75919
#
# Poissons Ratio (x) = 0.54043 0.12556
# Poissons Ratio (y) = 0.52455 0.53668
# Poissons Ratio (z) = 0.07900 0.34789
#
# Static dielectric constant tensor:
#      x y z
#    x 1.579480 0.000000 0.000000 
#    y 0.000000 1.601030 0.000000 
#    z 0.000000 0.000000 1.578000 
# 
# From -- ./inp_files/37230.got.cif
#   From: 2010.05.17/outbox.cif.g08.bks.cpg/sg51_19_cif.got.tgz:37230.got - 2010.06.03 11:52:47.
