data_PCOD9406520
_publ_section_title
;
Structure prediction by ZEFSAII (Michael W. Deem and Ramdas Pophale) SiO2 
 PCOD9406520
Probable space group: P M M A
;
_chemical_formula_sum "Si O2"
_cell_formula_units_Z 40
_cell_length_a 8.610697
_cell_length_b 27.080318
_cell_length_c 9.397828
_cell_angle_alpha 90.000000
_cell_angle_beta 90.000000
_cell_angle_gamma 90.000000
_cell_volume 2191.389414
_symmetry_space_group_name_H-M "P M M A"
_symmetry_group_IT_number 51
_symmetry_cell_setting 'orthorhombic'
loop_
_space_group_symop_operation_xyz
x,y,z
1/2-x,-y,z
1/2+x,-y,-z
-x,y,-z
-x,-y,-z
1/2+x,y,-z
1/2-x,y,z
x,-y,z
loop_
_atom_site_type_symbol
_atom_site_label
_atom_site_fract_x
_atom_site_fract_y
_atom_site_fract_z
Si Si1 0.936929 0.840003 0.662293
Si Si2 0.064904 0.646004 0.158845
Si Si3 0.937509 0.946892 0.662015
Si Si4 0.935209 0.262818 0.338998
Si Si5 0.935941 0.442815 0.341668
O O1 0.750000 0.836080 0.660409
O O2 0.982842 0.893594 0.726144
O O3 0.000000 0.841210 0.500000
O O4 0.007301 0.789767 0.723614
O O5 0.250000 0.648707 0.157862
O O6 0.997589 0.691693 0.248383
O O7 0.010721 0.595601 0.233987
O O8 0.000000 0.647897 0.000000
O O9 0.750000 0.946669 0.656522
O O10 0.000000 0.947040 0.500000
O O11 0.986630 0.000000 0.726339
O O12 0.750000 0.263315 0.344618
O O13 0.000000 0.266885 0.500000
O O14 0.750000 0.436977 0.341906
O O15 0.972231 0.500000 0.306795
O O16 0.000000 0.433069 0.500000
#
# Coordination Sequence:
#
# PCOD9406520 Si02
#       5
#     8   8   8   8   8
#     4   9  15  24  39  61  89 123 165 210 256 306
#     4  12  25  41  59  81 110 142 178 219 266 316
#     4   8  13  20  31  50  80 118 157 198 247 303
#     4  11  21  35  54  76 103 137 178 221 266 314
#     4  10  21  39  63  90 118 148 182 218 257 303
#
# _framework density 18.253260000000001
#
# number of rings (size 3 to 8) (size 9 to 14) (size 15 to 20)
#    0.000    2.000    0.000    6.600    0.000    2.400 
#    0.000    0.000    0.000    0.000    0.000    0.000 
#    0.000    0.800    0.000    2.200    0.000   10.200 
#
# Total GULP energy -223050.860172 kJ/mol
# GULP energy per Si atom -5576.271504 kJ/mol
# Density = 1.821171 g / cm^3
# Si number density = 18.253260 Si / 1000 Ang^3
#
#
#
# Elastic Constant Matrix: (Units=GPa)
#
#
# Indices 1 2 3 4 5 6 
#
# 1 120.6871 75.7507 37.8730 0.0000 0.0000 0.0000
# 2 75.7507 177.5107 79.6174 0.0000 0.0000 0.0000
# 3 37.8730 79.6174 60.3929 0.0000 0.0000 0.0000
# 4 0.0000 0.0000 0.0000 -6.3854 0.0000 0.0000
# 5 0.0000 0.0000 0.0000 0.0000 21.9619 0.0000
# 6 0.0000 0.0000 0.0000 0.0000 0.0000 45.0332
#
#
#
# Elastic Compliance Matrix: (Units=1/GPa)
#
#
# Indices 1 2 3 4 5 6 
#
# 1 0.011397 -0.004056 -0.001799 0.000000 0.000000 0.000000
# 2 -0.004056 0.015227 -0.017531 0.000000 0.000000 0.000000
# 3 -0.001799 -0.017531 0.040798 0.000000 0.000000 0.000000
# 4 0.000000 0.000000 0.000000 -0.156607 0.000000 0.000000
# 5 0.000000 0.000000 0.000000 0.000000 0.045533 0.000000
# 6 0.000000 0.000000 0.000000 0.000000 0.000000 0.022206
#
#
# Mechanical properties :
#
#
# Convention : Reuss Voigt Hill
#
# Bulk Modulus (GPa) = 48.42893 82.78588 65.60740
# Shear Modulus (GPa) = 155.22783 23.14523 89.18653
#
# Velocity S-wave (km/s) = 9.23178 3.56477 6.99762
# Velocity P-wave (km/s) = 11.84161 7.89911 10.06528
#
# Compressibility (1/GPa) = 0.02064882
#
# Stress axis : x y z
#
# Youngs Moduli (GPa) = 87.74600 65.67096 24.51096
#
# Poissons Ratio (x) = 0.26638 0.04411
# Poissons Ratio (y) = 0.35592 0.42970
# Poissons Ratio (z) = 0.15789 1.15127
#
# Static dielectric constant tensor:
#      x y z
#    x 1.610590 0.000000 0.000000 
#    y 0.000000 1.697630 0.000000 
#    z 0.000000 0.000000 1.580530 
# 
# From -- ./inp_files/5504.got.cif
#   From: 2010.05.17/outbox.cif.g08.bks.cpg/sg51_3_cif.got.tgz:5504.got - 2010.06.03 11:52:47.
