data_PCOD9406092
_publ_section_title
;
Structure prediction by ZEFSAII (Michael W. Deem and Ramdas Pophale) SiO2 
 PCOD9406092
Probable space group: P M M A
;
_chemical_formula_sum "Si O2"
_cell_formula_units_Z 48
_cell_length_a 8.742495
_cell_length_b 14.747586
_cell_length_c 21.112722
_cell_angle_alpha 90.000000
_cell_angle_beta 90.000000
_cell_angle_gamma 90.000000
_cell_volume 2722.077960
_symmetry_space_group_name_H-M "P M M A"
_symmetry_group_IT_number 51
_symmetry_cell_setting 'orthorhombic'
loop_
_space_group_symop_operation_xyz
x,y,z
1/2-x,-y,z
1/2+x,-y,-z
-x,y,-z
-x,-y,-z
1/2+x,y,-z
1/2-x,y,z
x,-y,z
loop_
_atom_site_type_symbol
_atom_site_label
_atom_site_fract_x
_atom_site_fract_y
_atom_site_fract_z
Si Si1 0.433106 0.394944 0.430872
Si Si2 0.433178 0.284123 0.685197
Si Si3 0.932671 0.286112 0.066168
Si Si4 0.566239 0.897544 0.885435
Si Si5 0.433655 0.897409 0.264495
Si Si6 0.936401 0.395758 0.190405
O O1 0.500000 0.373173 0.500000
O O2 0.250000 0.389360 0.432863
O O3 0.475981 0.500000 0.416588
O O4 0.497722 0.329917 0.376942
O O5 0.250000 0.288043 0.682061
O O6 0.486800 0.181503 0.696453
O O7 0.484850 0.341205 0.747147
O O8 0.750000 0.289517 0.063716
O O9 0.986061 0.344649 0.126613
O O10 0.985780 0.182914 0.077569
O O11 0.000000 0.319664 0.000000
O O12 0.750000 0.890123 0.892405
O O13 0.530785 0.886955 0.810458
O O14 0.521518 0.000000 0.904242
O O15 0.250000 0.889807 0.270546
O O16 0.477682 0.000000 0.282788
O O17 0.750000 0.395519 0.190202
O O18 0.986956 0.500000 0.192119
#
# Coordination Sequence:
#
# PCOD9406092 Si02
#       6
#     8   8   8   8   8   8
#     4  10  21  37  57  84 118 154 190 227 269 320
#     4  11  20  33  57  86 114 146 182 224 272 323
#     4  11  22  36  53  74 101 137 178 223 274 327
#     4   9  18  34  55  77 103 135 171 217 272 325
#     4   9  18  33  54  80 111 144 178 222 273 323
#     4   9  19  35  53  75 104 137 176 221 269 320
#
# _framework density 17.633586999999999
#
# number of rings (size 3 to 8) (size 9 to 14) (size 15 to 20)
#    0.000    2.167    1.667    3.000    0.000    3.000 
#    0.000    1.667    0.000    5.000    0.000    0.000 
#    0.000    0.000    0.000    0.000    0.000    0.000 
#
# Total GULP energy -267980.518936 kJ/mol
# GULP energy per Si atom -5582.927478 kJ/mol
# Density = 1.759345 g / cm^3
# Si number density = 17.633587 Si / 1000 Ang^3
#
#
#
# Elastic Constant Matrix: (Units=GPa)
#
#
# Indices 1 2 3 4 5 6 
#
# 1 33.6227 31.7604 37.7270 0.0000 0.0000 0.0000
# 2 31.7604 120.6354 75.6549 0.0000 0.0000 0.0000
# 3 37.7270 75.6549 122.7162 0.0000 0.0000 0.0000
# 4 0.0000 0.0000 0.0000 16.9666 0.0000 0.0000
# 5 0.0000 0.0000 0.0000 0.0000 25.1727 0.0000
# 6 0.0000 0.0000 0.0000 0.0000 0.0000 22.6355
#
#
#
# Elastic Compliance Matrix: (Units=1/GPa)
#
#
# Indices 1 2 3 4 5 6 
#
# 1 0.047512 -0.005459 -0.011241 0.000000 0.000000 0.000000
# 2 -0.005459 0.014142 -0.007040 0.000000 0.000000 0.000000
# 3 -0.011241 -0.007040 0.015945 0.000000 0.000000 0.000000
# 4 0.000000 0.000000 0.000000 0.058939 0.000000 0.000000
# 5 0.000000 0.000000 0.000000 0.000000 0.039726 0.000000
# 6 0.000000 0.000000 0.000000 0.000000 0.000000 0.044178
#
#
# Mechanical properties :
#
#
# Convention : Reuss Voigt Hill
#
# Bulk Modulus (GPa) = 33.20274 63.02877 48.11576
# Shear Modulus (GPa) = 17.98806 21.74376 19.86591
#
# Velocity S-wave (km/s) = 3.19737 3.51534 3.36012
# Velocity P-wave (km/s) = 5.70097 7.23174 6.51149
#
# Compressibility (1/GPa) = 0.03011799
#
# Stress axis : x y z
#
# Youngs Moduli (GPa) = 21.04738 70.71220 62.71499
#
# Poissons Ratio (x) = 0.38601 0.70500
# Poissons Ratio (y) = 0.11490 0.44153
# Poissons Ratio (z) = 0.23660 0.49783
#
# Static dielectric constant tensor:
#      x y z
#    x 1.591220 0.000000 0.000000 
#    y 0.000000 1.591530 0.000000 
#    z 0.000000 0.000000 1.582520 
# 
# From -- ./inp_files/27538.got.cif
#   From: 2010.05.17/outbox.cif.g08.bks.cpg/sg51_14_cif.got.tgz:27538.got - 2010.06.03 11:52:47.
