data_PCOD9406318
_publ_section_title
;
Structure prediction by ZEFSAII (Michael W. Deem and Ramdas Pophale) SiO2 
 PCOD9406318
Probable space group: P M M A
;
_chemical_formula_sum "Si O2"
_cell_formula_units_Z 48
_cell_length_a 8.177502
_cell_length_b 32.019680
_cell_length_c 9.855770
_cell_angle_alpha 90.000000
_cell_angle_beta 90.000000
_cell_angle_gamma 90.000000
_cell_volume 2580.644645
_symmetry_space_group_name_H-M "P M M A"
_symmetry_group_IT_number 51
_symmetry_cell_setting 'orthorhombic'
loop_
_space_group_symop_operation_xyz
x,y,z
1/2-x,-y,z
1/2+x,-y,-z
-x,y,-z
-x,-y,-z
1/2+x,y,-z
1/2-x,y,z
x,-y,z
loop_
_atom_site_type_symbol
_atom_site_label
_atom_site_fract_x
_atom_site_fract_y
_atom_site_fract_z
Si Si1 0.447920 0.864062 0.656462
Si Si2 0.052462 0.789432 0.846390
Si Si3 0.052285 0.694923 0.846071
Si Si4 0.447469 0.955162 0.657874
Si Si5 0.945393 0.452303 0.849926
Si Si6 0.444807 0.620618 0.655011
O O1 0.500000 0.860012 0.500000
O O2 0.250000 0.863846 0.660076
O O3 0.508001 0.825267 0.745301
O O4 0.503528 0.909844 0.710287
O O5 0.250000 0.789229 0.840968
O O6 0.996260 0.742197 0.813589
O O7 0.000000 0.798475 0.000000
O O8 0.250000 0.694851 0.843078
O O9 0.990932 0.660401 0.740531
O O10 0.000000 0.685087 0.000000
O O11 0.500000 0.955227 0.500000
O O12 0.250000 0.955298 0.664119
O O13 0.505079 0.000000 0.716164
O O14 0.750000 0.453055 0.847635
O O15 0.006220 0.500000 0.831101
O O16 0.005004 0.420992 0.735145
O O17 0.000000 0.438191 0.000000
O O18 0.500000 0.620639 0.500000
O O19 0.250000 0.623026 0.656311
#
# Coordination Sequence:
#
# PCOD9406318 Si02
#       6
#     8   8   8   8   8   8
#     4   9  17  28  44  67  93 120 152 193 238 284
#     4   9  18  33  50  69  94 124 160 198 238 287
#     4   9  19  35  54  74  96 126 164 204 243 288
#     4   8  13  22  37  58  84 114 148 186 229 276
#     4  10  21  38  60  84 109 139 175 212 249 292
#     4  11  23  37  54  78 108 139 170 207 253 300
#
# _framework density 18.600003000000001
#
# number of rings (size 3 to 8) (size 9 to 14) (size 15 to 20)
#    0.000    2.667    0.000    1.500    0.000    5.333 
#    0.000    0.000    0.000    0.500    0.000    0.000 
#    0.000    0.000    0.000    0.000    0.000    0.000 
#
# Total GULP energy -267529.161695 kJ/mol
# GULP energy per Si atom -5573.524202 kJ/mol
# Density = 1.855767 g / cm^3
# Si number density = 18.600003 Si / 1000 Ang^3
#
#
#
# Elastic Constant Matrix: (Units=GPa)
#
#
# Indices 1 2 3 4 5 6 
#
# 1 15.4048 17.7174 11.2270 0.0000 0.0000 0.0000
# 2 17.7174 167.0850 112.0047 0.0000 0.0000 0.0000
# 3 11.2270 112.0047 115.5665 0.0000 0.0000 0.0000
# 4 0.0000 0.0000 0.0000 40.4899 0.0000 0.0000
# 5 0.0000 0.0000 0.0000 0.0000 26.7992 0.0000
# 6 0.0000 0.0000 0.0000 0.0000 0.0000 55.2362
#
#
#
# Elastic Compliance Matrix: (Units=1/GPa)
#
#
# Indices 1 2 3 4 5 6 
#
# 1 0.073988 -0.008642 0.001188 0.000000 0.000000 0.000000
# 2 -0.008642 0.018094 -0.016697 0.000000 0.000000 0.000000
# 3 0.001188 -0.016697 0.024720 0.000000 0.000000 0.000000
# 4 0.000000 0.000000 0.000000 0.024698 0.000000 0.000000
# 5 0.000000 0.000000 0.000000 0.000000 0.037315 0.000000
# 6 0.000000 0.000000 0.000000 0.000000 0.000000 0.018104
#
#
# Mechanical properties :
#
#
# Convention : Reuss Voigt Hill
#
# Bulk Modulus (GPa) = 14.59850 64.43938 39.51894
# Shear Modulus (GPa) = 18.65305 34.97888 26.81597
#
# Velocity S-wave (km/s) = 3.17022 4.34128 3.80112
# Velocity P-wave (km/s) = 4.61152 7.73621 6.36848
#
# Compressibility (1/GPa) = 0.06850018
#
# Stress axis : x y z
#
# Youngs Moduli (GPa) = 13.51568 55.26736 40.45351
#
# Poissons Ratio (x) = 0.47760 -0.04804
# Poissons Ratio (y) = 0.11680 0.67544
# Poissons Ratio (z) = -0.01605 0.92278
#
# Static dielectric constant tensor:
#      x y z
#    x 1.648080 0.000000 0.000000 
#    y 0.000000 1.707720 0.000000 
#    z 0.000000 0.000000 1.587750 
# 
# From -- ./inp_files/5982.got.cif
#   From: 2010.05.17/outbox.cif.g08.bks.cpg/sg51_3_cif.got.tgz:5982.got - 2010.06.03 11:52:47.
