data_PCOD9406234
_publ_section_title
;
Structure prediction by ZEFSAII (Michael W. Deem and Ramdas Pophale) SiO2 
 PCOD9406234
Probable space group: P M M A
;
_chemical_formula_sum "Si O2"
_cell_formula_units_Z 52
_cell_length_a 9.023673
_cell_length_b 10.777917
_cell_length_c 30.372996
_cell_angle_alpha 90.000000
_cell_angle_beta 90.000000
_cell_angle_gamma 90.000000
_cell_volume 2953.968207
_symmetry_space_group_name_H-M "P M M A"
_symmetry_group_IT_number 51
_symmetry_cell_setting 'orthorhombic'
loop_
_space_group_symop_operation_xyz
x,y,z
1/2-x,-y,z
1/2+x,-y,-z
-x,y,-z
-x,-y,-z
1/2+x,y,-z
1/2-x,y,z
x,-y,z
loop_
_atom_site_type_symbol
_atom_site_label
_atom_site_fract_x
_atom_site_fract_y
_atom_site_fract_z
Si Si1 0.079163 0.848656 0.044994
Si Si2 0.928232 0.856047 0.773518
Si Si3 0.081037 0.849594 0.865930
Si Si4 0.081908 0.146452 0.456138
Si Si5 0.428308 0.355451 0.297536
Si Si6 0.426829 0.706588 0.609192
Si Si7 0.072151 0.500000 0.452197
O O1 0.250000 0.811045 0.045148
O O2 0.998395 0.806294 0.089487
O O3 0.075670 0.000000 0.045193
O O4 0.000000 0.808787 0.000000
O O5 0.750000 0.856866 0.776723
O O6 0.968701 0.749851 0.738290
O O7 0.995455 0.821781 0.820936
O O8 0.973379 0.000000 0.762718
O O9 0.250000 0.805734 0.864041
O O10 0.083826 0.000000 0.868447
O O11 0.250000 0.196415 0.452333
O O12 0.000000 0.196238 0.500000
O O13 0.985712 0.166701 0.412176
O O14 0.095384 0.000000 0.462652
O O15 0.250000 0.347662 0.304694
O O16 0.460095 0.500000 0.285295
O O17 0.512655 0.322784 0.342507
O O18 0.250000 0.695348 0.607568
O O19 0.508047 0.613968 0.575644
O O20 0.250000 0.500000 0.454067
O O21 0.000000 0.500000 0.500000
#
# Coordination Sequence:
#
# PCOD9406234 Si02
#       7
#     8   8   8   8   8   8   4
#     4   9  15  22  34  55  87 128 171 213 259 313
#     4   9  18  33  53  76 101 133 176 222 268 318
#     4   9  16  26  41  63  93 129 169 214 264 316
#     4  10  21  38  59  82 110 143 176 210 251 302
#     4  10  21  38  58  78 105 141 178 220 269 322
#     4  12  24  38  57  82 109 137 171 211 258 309
#     4  12  24  40  60  82 108 136 170 208 249 302
#
# _framework density 17.603439999999999
#
# number of rings (size 3 to 8) (size 9 to 14) (size 15 to 20)
#    0.000    2.000    0.769    3.923    0.000    5.846 
#    0.000    1.538    0.000    0.000    0.000    0.000 
#    0.000    0.615    0.000    1.692    0.000    3.077 
#
# Total GULP energy -289873.104110 kJ/mol
# GULP energy per Si atom -5574.482771 kJ/mol
# Density = 1.756337 g / cm^3
# Si number density = 17.603440 Si / 1000 Ang^3
#
#
#
# Elastic Constant Matrix: (Units=GPa)
#
#
# Indices 1 2 3 4 5 6 
#
# 1 111.3365 39.0477 84.7317 0.0000 0.0000 0.0000
# 2 39.0477 60.1102 58.3343 0.0000 0.0000 0.0000
# 3 84.7317 58.3343 174.2503 0.0000 0.0000 0.0000
# 4 0.0000 0.0000 0.0000 12.2361 0.0000 0.0000
# 5 0.0000 0.0000 0.0000 0.0000 36.3966 0.0000
# 6 0.0000 0.0000 0.0000 0.0000 0.0000 11.2158
#
#
#
# Elastic Compliance Matrix: (Units=1/GPa)
#
#
# Indices 1 2 3 4 5 6 
#
# 1 0.014854 -0.003910 -0.005914 0.000000 0.000000 0.000000
# 2 -0.003910 0.025671 -0.006693 0.000000 0.000000 0.000000
# 3 -0.005914 -0.006693 0.010855 0.000000 0.000000 0.000000
# 4 0.000000 0.000000 0.000000 0.081725 0.000000 0.000000
# 5 0.000000 0.000000 0.000000 0.000000 0.027475 0.000000
# 6 0.000000 0.000000 0.000000 0.000000 0.000000 0.089160
#
#
# Mechanical properties :
#
#
# Convention : Reuss Voigt Hill
#
# Bulk Modulus (GPa) = 54.50522 78.88047 66.69284
# Shear Modulus (GPa) = 17.30773 22.87527 20.09150
#
# Velocity S-wave (km/s) = 3.13901 3.60874 3.38204
# Velocity P-wave (km/s) = 6.64589 7.89119 7.29516
#
# Compressibility (1/GPa) = 0.01834687
#
# Stress axis : x y z
#
# Youngs Moduli (GPa) = 67.32284 38.95464 92.12199
#
# Poissons Ratio (x) = 0.15230 0.54481
# Poissons Ratio (y) = 0.26322 0.61655
# Poissons Ratio (z) = 0.39815 0.26071
#
# Static dielectric constant tensor:
#      x y z
#    x 1.601430 0.000000 0.000000 
#    y 0.000000 1.790710 0.000000 
#    z 0.000000 0.000000 1.576240 
# 
# From -- ./inp_files/36196.got.cif
#   From: 2010.05.17/outbox.cif.g08.bks.cpg/sg51_19_cif.got.tgz:36196.got - 2010.06.03 11:52:47.
