data_PCOD9406262
_publ_section_title
;
Structure prediction by ZEFSAII (Michael W. Deem and Ramdas Pophale) SiO2 
 PCOD9406262
Probable space group: P M M A
;
_chemical_formula_sum "Si O2"
_cell_formula_units_Z 64
_cell_length_a 18.855951
_cell_length_b 8.482659
_cell_length_c 21.227226
_cell_angle_alpha 90.000000
_cell_angle_beta 90.000000
_cell_angle_gamma 90.000000
_cell_volume 3395.265133
_symmetry_space_group_name_H-M "P M M A"
_symmetry_group_IT_number 51
_symmetry_cell_setting 'orthorhombic'
loop_
_space_group_symop_operation_xyz
x,y,z
1/2-x,-y,z
1/2+x,-y,-z
-x,y,-z
-x,-y,-z
1/2+x,y,-z
1/2-x,y,z
x,-y,z
loop_
_atom_site_type_symbol
_atom_site_label
_atom_site_fract_x
_atom_site_fract_y
_atom_site_fract_z
Si Si1 0.831720 0.690643 0.001481
Si Si2 0.667928 0.690173 0.758664
Si Si3 0.578568 0.690928 0.879498
Si Si4 0.667448 0.688327 0.239373
Si Si5 0.167881 0.809722 0.377871
Si Si6 0.418354 0.186920 0.878908
Si Si7 0.418569 0.192731 0.500191
Si Si8 0.167275 0.190014 0.623215
O O1 0.750000 0.744623 0.999643
O O2 0.830827 0.500000 0.001189
O O3 0.871433 0.745498 0.064088
O O4 0.875772 0.742297 0.940075
O O5 0.750000 0.741783 0.767947
O O6 0.667996 0.500000 0.758623
O O7 0.618192 0.743643 0.815726
O O8 0.643851 0.748452 0.690155
O O9 0.577667 0.500000 0.879440
O O10 0.498283 0.749087 0.882775
O O11 0.750000 0.738428 0.230810
O O12 0.664778 0.500000 0.233500
O O13 0.618190 0.762789 0.186416
O O14 0.645863 0.737749 0.309868
O O15 0.250000 0.761155 0.386344
O O16 0.121737 0.755384 0.437054
O O17 0.166058 0.000000 0.376621
O O18 0.419793 0.000000 0.883608
O O19 0.500000 0.242535 0.500000
O O20 0.378662 0.243002 0.563693
O O21 0.416976 0.000000 0.500045
O O22 0.250000 0.229323 0.612305
O O23 0.162095 0.000000 0.627956
#
# Coordination Sequence:
#
# PCOD9406262 Si02
#       8
#     8   8   8   8   8   8   8   8
#     4  10  21  39  63  86 108 141 185 227 267 316
#     4   9  18  34  56  81 107 137 177 223 268 314
#     4  10  21  38  59  82 111 146 181 219 266 320
#     4  10  21  38  59  81 106 139 180 224 270 323
#     4   9  17  30  49  73 102 137 175 214 260 316
#     4  12  25  38  55  82 115 147 179 219 268 320
#     4   9  17  29  47  72 101 134 174 218 262 312
#     4   9  17  31  52  76 102 134 173 218 267 316
#
# _framework density 18.849779999999999
#
# number of rings (size 3 to 8) (size 9 to 14) (size 15 to 20)
#    0.000    2.250    0.000    3.000    0.000    9.000 
#    0.000    1.875    0.000    6.000    0.000    0.000 
#    0.000    0.000    0.000    0.000    0.000    0.000 
#
# Total GULP energy -357378.288392 kJ/mol
# GULP energy per Si atom -5584.035756 kJ/mol
# Density = 1.880688 g / cm^3
# Si number density = 18.849780 Si / 1000 Ang^3
#
#
#
# Elastic Constant Matrix: (Units=GPa)
#
#
# Indices 1 2 3 4 5 6 
#
# 1 143.0504 22.8530 117.4897 0.0000 0.0000 0.0000
# 2 22.8530 10.5139 22.6485 0.0000 0.0000 0.0000
# 3 117.4897 22.6485 182.2742 0.0000 0.0000 0.0000
# 4 0.0000 0.0000 0.0000 31.4634 0.0000 0.0000
# 5 0.0000 0.0000 0.0000 0.0000 -13.5080 0.0000
# 6 0.0000 0.0000 0.0000 0.0000 0.0000 11.9204
#
#
#
# Elastic Compliance Matrix: (Units=1/GPa)
#
#
# Indices 1 2 3 4 5 6 
#
# 1 0.017103 -0.018335 -0.008746 0.000000 0.000000 0.000000
# 2 -0.018335 0.149530 -0.006762 0.000000 0.000000 0.000000
# 3 -0.008746 -0.006762 0.011964 0.000000 0.000000 0.000000
# 4 0.000000 0.000000 0.000000 0.031783 0.000000 0.000000
# 5 0.000000 0.000000 0.000000 0.000000 -0.074030 0.000000
# 6 0.000000 0.000000 0.000000 0.000000 0.000000 0.083890
#
#
# Mechanical properties :
#
#
# Convention : Reuss Voigt Hill
#
# Bulk Modulus (GPa) = 9.01614 73.53566 41.27590
# Shear Modulus (GPa) = 15.38961 17.49832 16.44397
#
# Velocity S-wave (km/s) = 2.86043 3.05011 2.95679
# Velocity P-wave (km/s) = 3.96270 7.17638 5.79669
#
# Compressibility (1/GPa) = 0.11091222
#
# Stress axis : x y z
#
# Youngs Moduli (GPa) = 58.47029 6.68761 83.58559
#
# Poissons Ratio (x) = 0.12262 0.73103
# Poissons Ratio (y) = 1.07203 0.56519
# Poissons Ratio (z) = 0.51137 0.04522
#
# Static dielectric constant tensor:
#      x y z
#    x 1.633070 0.000000 0.000000 
#    y 0.000000 1.647210 0.000000 
#    z 0.000000 0.000000 1.628900 
# 
# From -- ./inp_files/33807.got.cif
#   From: 2010.05.17/outbox.cif.g08.bks.cpg/sg51_17_cif.got.tgz:33807.got - 2010.06.03 11:52:47.
