data_PCOD9406977
_publ_section_title
;
Structure prediction by ZEFSAII (Michael W. Deem and Ramdas Pophale) SiO2 
 PCOD9406977
Probable space group: P M M A
;
_chemical_formula_sum "Si O2"
_cell_formula_units_Z 24
_cell_length_a 10.124424
_cell_length_b 10.278668
_cell_length_c 12.129168
_cell_angle_alpha 90.000000
_cell_angle_beta 90.000000
_cell_angle_gamma 90.000000
_cell_volume 1262.229060
_symmetry_space_group_name_H-M "P M M A"
_symmetry_group_IT_number 51
_symmetry_cell_setting 'orthorhombic'
loop_
_space_group_symop_operation_xyz
x,y,z
1/2-x,-y,z
1/2+x,-y,-z
-x,y,-z
-x,-y,-z
1/2+x,y,-z
1/2-x,y,z
x,-y,z
loop_
_atom_site_type_symbol
_atom_site_label
_atom_site_fract_x
_atom_site_fract_y
_atom_site_fract_z
Si Si1 0.093894 0.500000 0.891831
Si Si2 0.964030 0.757995 0.248403
Si Si3 0.250000 0.843856 0.584737
Si Si4 0.395506 0.000000 0.904597
Si Si5 0.250000 0.155275 0.321185
O O1 0.250000 0.500000 0.922253
O O2 0.064193 0.625387 0.816025
O O3 0.000000 0.500000 0.000000
O O4 0.877251 0.777594 0.358793
O O5 0.117614 0.780688 0.273843
O O6 0.915378 0.874138 0.170097
O O7 0.250000 0.830665 0.453574
O O8 0.250000 0.000000 0.609064
O O9 0.250000 0.000000 0.953535
O O10 0.500000 0.000000 0.000000
O O11 0.250000 0.000000 0.296455
#
# Coordination Sequence:
#
# PCOD9406977 Si02
#       5
#     4   8   4   4   4
#     4  12  28  48  71  95 134 182 223 277 341 398
#     4  12  23  44  66  99 136 174 222 278 333 392
#     4  11  20  43  70 101 137 177 223 275 342 389
#     4  12  24  40  65  93 126 168 225 283 331 388
#     4  11  24  39  72 107 135 177 221 273 332 407
#
# _framework density 19.013981999999999
#
# number of rings (size 3 to 8) (size 9 to 14) (size 15 to 20)
#    0.000    0.333    6.667    2.000    4.667    2.667 
#    0.000    5.000    0.000    0.000    0.000    0.000 
#    0.000    0.000    0.000    0.000    0.000    0.000 
#
# Total GULP energy -134251.218320 kJ/mol
# GULP energy per Si atom -5593.800763 kJ/mol
# Density = 1.897071 g / cm^3
# Si number density = 19.013982 Si / 1000 Ang^3
#
#
#
# Elastic Constant Matrix: (Units=GPa)
#
#
# Indices 1 2 3 4 5 6 
#
# 1 218.0501 47.6881 55.2322 0.0000 0.0000 0.0000
# 2 47.6881 155.7891 50.8729 0.0000 0.0000 0.0000
# 3 55.2322 50.8729 75.4808 0.0000 0.0000 0.0000
# 4 0.0000 0.0000 0.0000 69.4787 0.0000 0.0000
# 5 0.0000 0.0000 0.0000 0.0000 42.9168 0.0000
# 6 0.0000 0.0000 0.0000 0.0000 0.0000 31.4655
#
#
#
# Elastic Compliance Matrix: (Units=1/GPa)
#
#
# Indices 1 2 3 4 5 6 
#
# 1 0.005658 -0.000487 -0.003812 0.000000 0.000000 0.000000
# 2 -0.000487 0.008272 -0.005219 0.000000 0.000000 0.000000
# 3 -0.003812 -0.005219 0.019555 0.000000 0.000000 0.000000
# 4 0.000000 0.000000 0.000000 0.014393 0.000000 0.000000
# 5 0.000000 0.000000 0.000000 0.000000 0.023301 0.000000
# 6 0.000000 0.000000 0.000000 0.000000 0.000000 0.031781
#
#
# Mechanical properties :
#
#
# Convention : Reuss Voigt Hill
#
# Bulk Modulus (GPa) = 69.20609 84.10071 76.65340
# Shear Modulus (GPa) = 39.42813 48.47398 43.95105
#
# Velocity S-wave (km/s) = 4.55866 5.05462 4.81303
# Velocity P-wave (km/s) = 8.01156 8.85396 8.44327
#
# Compressibility (1/GPa) = 0.01444960
#
# Stress axis : x y z
#
# Youngs Moduli (GPa) = 176.73366 120.88530 51.13732
#
# Poissons Ratio (x) = 0.05890 0.19493
# Poissons Ratio (y) = 0.08611 0.26688
# Poissons Ratio (z) = 0.67370 0.63089
#
# Static dielectric constant tensor:
#      x y z
#    x 1.592460 0.000000 0.000000 
#    y 0.000000 1.631690 0.000000 
#    z 0.000000 0.000000 1.644200 
# 
# From -- ./inp_files/13572.got.cif
#   From: 2010.05.17/outbox.cif.g08.bks.cpg/sg51_7_cif.got.tgz:13572.got - 2010.06.03 11:52:47.
