data_PCOD9406725
_publ_section_title
;
Structure prediction by ZEFSAII (Michael W. Deem and Ramdas Pophale) SiO2 
 PCOD9406725
Probable space group: P M M A
;
_chemical_formula_sum "Si O2"
_cell_formula_units_Z 56
_cell_length_a 15.295414
_cell_length_b 19.495434
_cell_length_c 9.240415
_cell_angle_alpha 90.000000
_cell_angle_beta 90.000000
_cell_angle_gamma 90.000000
_cell_volume 2755.406133
_symmetry_space_group_name_H-M "P M M A"
_symmetry_group_IT_number 51
_symmetry_cell_setting 'orthorhombic'
loop_
_space_group_symop_operation_xyz
x,y,z
1/2-x,-y,z
1/2+x,-y,-z
-x,y,-z
-x,-y,-z
1/2+x,y,-z
1/2-x,y,z
x,-y,z
loop_
_atom_site_type_symbol
_atom_site_label
_atom_site_fract_x
_atom_site_fract_y
_atom_site_fract_z
Si Si1 0.157008 0.173289 0.675289
Si Si2 0.097525 0.705494 0.500612
Si Si3 0.650365 0.715597 0.830491
Si Si4 0.476268 0.842634 0.153770
Si Si5 0.904866 0.922330 0.576427
Si Si6 0.894870 0.421999 0.001050
Si Si7 0.147694 0.577904 0.662955
O O1 0.250000 0.161131 0.750639
O O2 0.153991 0.248716 0.607522
O O3 0.149308 0.122928 0.536833
O O4 0.070608 0.167931 0.771560
O O5 0.135624 0.705973 0.340875
O O6 0.093427 0.630983 0.569993
O O7 0.000000 0.736840 0.500000
O O8 0.750000 0.738879 0.858496
O O9 0.577892 0.772252 0.875198
O O10 0.636894 0.641769 0.905792
O O11 0.419213 0.885834 0.269040
O O12 0.500000 0.876011 0.000000
O O13 0.000000 0.925535 0.500000
O O14 0.872165 0.000000 0.592151
O O15 0.867215 0.500000 0.957269
O O16 0.864208 0.410890 0.165851
O O17 0.000000 0.421084 0.000000
O O18 0.250000 0.586032 0.626842
O O19 0.121333 0.500000 0.633072
#
# Coordination Sequence:
#
# PCOD9406725 Si02
#       7
#     8   8   8   8   8   8   8
#     4  11  22  41  66  94 127 169 215 260 315 379
#     4  12  22  39  61  85 121 155 206 267 319 373
#     4  12  24  38  59  89 125 166 212 267 326 382
#     4  11  24  41  61  95 137 171 214 265 317 384
#     4   9  19  40  68  96 127 167 210 255 308 370
#     4  10  22  41  61  84 118 162 211 262 321 392
#     4  10  22  39  58  83 115 155 203 255 316 385
#
# _framework density 20.323682000000002
#
# number of rings (size 3 to 8) (size 9 to 14) (size 15 to 20)
#    0.000    1.286    2.857    3.429    2.000    2.857 
#    0.000    0.000    0.000    0.000    0.000    2.000 
#    0.000    0.000    0.000    0.000    0.000    0.000 
#
# Total GULP energy -312784.323444 kJ/mol
# GULP energy per Si atom -5585.434347 kJ/mol
# Density = 2.027742 g / cm^3
# Si number density = 20.323682 Si / 1000 Ang^3
#
#
#
# Elastic Constant Matrix: (Units=GPa)
#
#
# Indices 1 2 3 4 5 6 
#
# 1 115.0693 20.4661 13.2335 0.0000 0.0000 0.0000
# 2 20.4661 78.3741 22.0481 0.0000 0.0000 0.0000
# 3 13.2335 22.0481 59.6592 0.0000 0.0000 0.0000
# 4 0.0000 0.0000 0.0000 14.6090 0.0000 0.0000
# 5 0.0000 0.0000 0.0000 0.0000 14.9535 0.0000
# 6 0.0000 0.0000 0.0000 0.0000 0.0000 98.0087
#
#
#
# Elastic Compliance Matrix: (Units=1/GPa)
#
#
# Indices 1 2 3 4 5 6 
#
# 1 0.009201 -0.002041 -0.001287 0.000000 0.000000 0.000000
# 2 -0.002041 0.014692 -0.004977 0.000000 0.000000 0.000000
# 3 -0.001287 -0.004977 0.018887 0.000000 0.000000 0.000000
# 4 0.000000 0.000000 0.000000 0.068451 0.000000 0.000000
# 5 0.000000 0.000000 0.000000 0.000000 0.066874 0.000000
# 6 0.000000 0.000000 0.000000 0.000000 0.000000 0.010203
#
#
# Mechanical properties :
#
#
# Convention : Reuss Voigt Hill
#
# Bulk Modulus (GPa) = 38.21029 40.51091 39.36060
# Shear Modulus (GPa) = 23.40370 38.67125 31.03748
#
# Velocity S-wave (km/s) = 3.39713 4.36680 3.91213
# Velocity P-wave (km/s) = 5.85056 6.73806 6.30993
#
# Compressibility (1/GPa) = 0.02617096
#
# Stress axis : x y z
#
# Youngs Moduli (GPa) = 108.67940 68.06242 52.94724
#
# Poissons Ratio (x) = 0.13890 0.06813
# Poissons Ratio (y) = 0.22179 0.26353
# Poissons Ratio (z) = 0.13985 0.33876
#
# Static dielectric constant tensor:
#      x y z
#    x 1.906860 0.000000 0.000000 
#    y 0.000000 1.723970 0.000000 
#    z 0.000000 0.000000 1.696230 
# 
# From -- ./inp_files/8475.got.cif
#   From: 2010.05.17/outbox.cif.g08.bks.cpg/sg51_5_cif.got.tgz:8475.got - 2010.06.03 11:52:47.
