data_PCOD9406663
_publ_section_title
;
Structure prediction by ZEFSAII (Michael W. Deem and Ramdas Pophale) SiO2 
 PCOD9406663
Probable space group: P M M A
;
_chemical_formula_sum "Si O2"
_cell_formula_units_Z 48
_cell_length_a 7.537568
_cell_length_b 9.539182
_cell_length_c 36.259770
_cell_angle_alpha 90.000000
_cell_angle_beta 90.000000
_cell_angle_gamma 90.000000
_cell_volume 2607.158431
_symmetry_space_group_name_H-M "P M M A"
_symmetry_group_IT_number 51
_symmetry_cell_setting 'orthorhombic'
loop_
_space_group_symop_operation_xyz
x,y,z
1/2-x,-y,z
1/2+x,-y,-z
-x,y,-z
-x,-y,-z
1/2+x,y,-z
1/2-x,y,z
x,-y,z
loop_
_atom_site_type_symbol
_atom_site_label
_atom_site_fract_x
_atom_site_fract_y
_atom_site_fract_z
Si Si1 0.250000 0.832177 0.751830
Si Si2 0.965908 0.336216 0.619830
Si Si3 0.537794 0.159593 0.959117
Si Si4 0.037841 0.338803 0.460350
Si Si5 0.750000 0.332105 0.171957
Si Si6 0.541268 0.166833 0.691588
Si Si7 0.040781 0.666529 0.111703
O O1 0.250000 0.749876 0.789913
O O2 0.421082 0.797574 0.726675
O O3 0.250000 0.000000 0.758335
O O4 0.750000 0.331728 0.620185
O O5 0.016323 0.500000 0.622919
O O6 0.024098 0.282019 0.579305
O O7 0.022472 0.248093 0.655130
O O8 0.750000 0.152807 0.956008
O O9 0.477354 0.251503 0.924680
O O10 0.467579 0.000000 0.957443
O O11 0.500000 0.216700 0.000000
O O12 0.250000 0.345740 0.458085
O O13 0.969720 0.500000 0.462053
O O14 0.000000 0.270598 0.500000
O O15 0.750000 0.500000 0.178363
O O16 0.578862 0.297217 0.146835
O O17 0.750000 0.198079 0.697779
O O18 0.525065 0.000000 0.685250
O O19 0.250000 0.695882 0.117939
O O20 0.022512 0.500000 0.105283
#
# Coordination Sequence:
#
# PCOD9406663 Si02
#       7
#     4   8   8   8   4   8   8
#     4  10  22  38  54  78 104 126 162 206 248 302
#     4   8  14  26  45  68  93 123 159 198 240 287
#     4   9  18  31  48  74 105 136 173 216 256 293
#     4   8  13  22  36  56  86 120 153 191 234 279
#     4  10  22  38  56  78 104 134 168 208 254 302
#     4   9  18  34  54  73  97 129 160 195 244 298
#     4   9  19  36  54  74 103 137 172 208 248 298
#
# _framework density 18.410851000000001
#
# number of rings (size 3 to 8) (size 9 to 14) (size 15 to 20)
#    0.000    3.167    0.000    1.000    1.167    2.333 
#    1.500    0.000    0.000    0.500    0.000    0.000 
#    0.000    0.000    0.000    0.000    0.000    0.000 
#
# Total GULP energy -267369.891292 kJ/mol
# GULP energy per Si atom -5570.206069 kJ/mol
# Density = 1.836895 g / cm^3
# Si number density = 18.410851 Si / 1000 Ang^3
#
#
#
# Elastic Constant Matrix: (Units=GPa)
#
#
# Indices 1 2 3 4 5 6 
#
# 1 70.5738 29.3989 62.9602 0.0000 0.0000 0.0000
# 2 29.3989 32.7478 77.6600 0.0000 0.0000 0.0000
# 3 62.9602 77.6600 233.0011 0.0000 0.0000 0.0000
# 4 0.0000 0.0000 0.0000 182.9245 0.0000 0.0000
# 5 0.0000 0.0000 0.0000 0.0000 28.5218 0.0000
# 6 0.0000 0.0000 0.0000 0.0000 0.0000 9.7932
#
#
#
# Elastic Compliance Matrix: (Units=1/GPa)
#
#
# Indices 1 2 3 4 5 6 
#
# 1 0.023124 -0.028348 0.003200 0.000000 0.000000 0.000000
# 2 -0.028348 0.180450 -0.052485 0.000000 0.000000 0.000000
# 3 0.003200 -0.052485 0.020920 0.000000 0.000000 0.000000
# 4 0.000000 0.000000 0.000000 0.005467 0.000000 0.000000
# 5 0.000000 0.000000 0.000000 0.000000 0.035061 0.000000
# 6 0.000000 0.000000 0.000000 0.000000 0.000000 0.102112
#
#
# Mechanical properties :
#
#
# Convention : Reuss Voigt Hill
#
# Bulk Modulus (GPa) = 14.44466 75.15120 44.79793
# Shear Modulus (GPa) = 9.16632 55.33480 32.25056
#
# Velocity S-wave (km/s) = 2.23373 5.48824 4.18989
# Velocity P-wave (km/s) = 3.80992 9.00381 6.91318
#
# Compressibility (1/GPa) = 0.06922975
#
# Stress axis : x y z
#
# Youngs Moduli (GPa) = 43.24599 5.54169 47.80014
#
# Poissons Ratio (x) = 0.15709 -0.15296
# Poissons Ratio (y) = 1.22592 2.50878
# Poissons Ratio (z) = -0.13839 0.29085
#
# Static dielectric constant tensor:
#      x y z
#    x 1.671370 0.000000 0.000000 
#    y 0.000000 1.617540 0.000000 
#    z 0.000000 0.000000 1.632830 
# 
# From -- ./inp_files/37095.got.cif
#   From: 2010.05.17/outbox.cif.g08.bks.cpg/sg51_19_cif.got.tgz:37095.got - 2010.06.03 11:52:47.
