data_PCOD9406830
_publ_section_title
;
Structure prediction by ZEFSAII (Michael W. Deem and Ramdas Pophale) SiO2 
 PCOD9406830
Probable space group: P M M A
;
_chemical_formula_sum "Si O2"
_cell_formula_units_Z 48
_cell_length_a 14.899660
_cell_length_b 7.527109
_cell_length_c 19.865451
_cell_angle_alpha 90.000000
_cell_angle_beta 90.000000
_cell_angle_gamma 90.000000
_cell_volume 2227.937444
_symmetry_space_group_name_H-M "P M M A"
_symmetry_group_IT_number 51
_symmetry_cell_setting 'orthorhombic'
loop_
_space_group_symop_operation_xyz
x,y,z
1/2-x,-y,z
1/2+x,-y,-z
-x,y,-z
-x,-y,-z
1/2+x,y,-z
1/2-x,y,z
x,-y,z
loop_
_atom_site_type_symbol
_atom_site_label
_atom_site_fract_x
_atom_site_fract_y
_atom_site_fract_z
Si Si1 0.360120 0.000000 0.208345
Si Si2 0.858552 0.706958 0.172057
Si Si3 0.643152 0.000000 0.634419
Si Si4 0.013461 0.710206 0.420539
Si Si5 0.601151 0.294800 0.026236
Si Si6 0.853438 0.283046 0.320866
Si Si7 0.353158 0.301702 0.115282
O O1 0.378810 0.000000 0.286405
O O2 0.396273 0.171703 0.169021
O O3 0.250000 0.000000 0.201713
O O4 0.750000 0.710535 0.169928
O O5 0.887955 0.500000 0.172418
O O6 0.889933 0.784783 0.100433
O O7 0.882013 0.780054 0.245916
O O8 0.596795 0.172617 0.602893
O O9 0.750000 0.000000 0.625679
O O10 0.028014 0.500000 0.408440
O O11 0.000000 0.736123 0.500000
O O12 0.925416 0.765835 0.377590
O O13 0.634038 0.500000 0.032313
O O14 0.500000 0.294716 0.000000
O O15 0.648624 0.221347 0.959829
O O16 0.750000 0.227248 0.333837
O O17 0.851521 0.500000 0.318458
O O18 0.250000 0.322477 0.135462
O O19 0.394184 0.500000 0.113382
#
# Coordination Sequence:
#
# PCOD9406830 Si02
#       7
#     4   8   4   8   8   8   8
#     4   9  20  37  54  75 104 141 190 241 282 329
#     4   8  13  23  41  67 101 140 182 231 290 357
#     4  11  25  43  62  89 127 169 211 251 296 355
#     4  10  22  41  66  96 127 159 200 250 304 367
#     4   9  16  24  38  66 100 133 176 228 281 341
#     4   8  15  30  55  87 120 154 194 245 309 375
#     4   9  17  31  51  71  94 131 178 227 279 331
#
# _framework density 21.544592000000002
#
# number of rings (size 3 to 8) (size 9 to 14) (size 15 to 20)
#    0.000    3.000    0.000    1.750    0.000    5.000 
#    0.000    7.500    0.000    1.000    0.000    1.167 
#    0.000    0.000    0.000    0.000    0.000    0.000 
#
# Total GULP energy -267651.428355 kJ/mol
# GULP energy per Si atom -5576.071424 kJ/mol
# Density = 2.149556 g / cm^3
# Si number density = 21.544592 Si / 1000 Ang^3
#
#
#
# Elastic Constant Matrix: (Units=GPa)
#
#
# Indices 1 2 3 4 5 6 
#
# 1 88.8129 32.9259 69.7894 0.0000 0.0000 0.0000
# 2 32.9259 84.9334 70.9961 0.0000 0.0000 0.0000
# 3 69.7894 70.9961 194.6257 0.0000 0.0000 0.0000
# 4 0.0000 0.0000 0.0000 99.7743 0.0000 0.0000
# 5 0.0000 0.0000 0.0000 0.0000 38.3785 0.0000
# 6 0.0000 0.0000 0.0000 0.0000 0.0000 8.2045
#
#
#
# Elastic Compliance Matrix: (Units=1/GPa)
#
#
# Indices 1 2 3 4 5 6 
#
# 1 0.015913 -0.002013 -0.004972 0.000000 0.000000 0.000000
# 2 -0.002013 0.017194 -0.005550 0.000000 0.000000 0.000000
# 3 -0.004972 -0.005550 0.008945 0.000000 0.000000 0.000000
# 4 0.000000 0.000000 0.000000 0.010023 0.000000 0.000000
# 5 0.000000 0.000000 0.000000 0.000000 0.026056 0.000000
# 6 0.000000 0.000000 0.000000 0.000000 0.000000 0.121884
#
#
# Mechanical properties :
#
#
# Convention : Reuss Voigt Hill
#
# Bulk Modulus (GPa) = 58.88531 79.53274 69.20903
# Shear Modulus (GPa) = 21.66897 42.24883 31.95890
#
# Velocity S-wave (km/s) = 3.17483 4.43312 3.85565
# Velocity P-wave (km/s) = 6.38988 7.94977 7.21212
#
# Compressibility (1/GPa) = 0.01698216
#
# Stress axis : x y z
#
# Youngs Moduli (GPa) = 62.84300 58.16094 111.78882
#
# Poissons Ratio (x) = 0.11707 0.55578
# Poissons Ratio (y) = 0.12650 0.62044
# Poissons Ratio (z) = 0.31244 0.32280
#
# Static dielectric constant tensor:
#      x y z
#    x 1.659840 0.000000 0.000000 
#    y 0.000000 1.560340 0.000000 
#    z 0.000000 0.000000 1.778220 
# 
# From -- ./inp_files/29620.got.cif
#   From: 2010.05.17/outbox.cif.g08.bks.cpg/sg51_15_cif.got.tgz:29620.got - 2010.06.03 11:52:47.
