data_PCOD9406551
_publ_section_title
;
Structure prediction by ZEFSAII (Michael W. Deem and Ramdas Pophale) SiO2 
 PCOD9406551
Probable space group: P M M A
;
_chemical_formula_sum "Si O2"
_cell_formula_units_Z 64
_cell_length_a 14.518529
_cell_length_b 9.359751
_cell_length_c 24.003102
_cell_angle_alpha 90.000000
_cell_angle_beta 90.000000
_cell_angle_gamma 90.000000
_cell_volume 3261.777122
_symmetry_space_group_name_H-M "P M M A"
_symmetry_group_IT_number 51
_symmetry_cell_setting 'orthorhombic'
loop_
_space_group_symop_operation_xyz
x,y,z
1/2-x,-y,z
1/2+x,-y,-z
-x,y,-z
-x,-y,-z
1/2+x,y,-z
1/2-x,y,z
x,-y,z
loop_
_atom_site_type_symbol
_atom_site_label
_atom_site_fract_x
_atom_site_fract_y
_atom_site_fract_z
Si Si1 0.977965 0.171147 0.290603
Si Si2 0.147293 0.755575 0.111960
Si Si3 0.518675 0.672855 0.407878
Si Si4 0.646259 0.327105 0.511707
Si Si5 0.055156 0.158495 0.899334
Si Si6 0.356158 0.338288 0.237482
Si Si7 0.639951 0.333593 0.201159
Si Si8 0.857116 0.656840 0.011774
O O1 0.073883 0.225991 0.263619
O O2 0.970311 0.240695 0.351443
O O3 0.899768 0.240407 0.251632
O O4 0.973215 0.000000 0.291266
O O5 0.250000 0.823823 0.111687
O O6 0.140823 0.672148 0.170271
O O7 0.142217 0.665771 0.055006
O O8 0.054565 0.846395 0.108683
O O9 0.520238 0.500000 0.398625
O O10 0.422460 0.711687 0.438264
O O11 0.597546 0.708669 0.453182
O O12 0.750000 0.272051 0.516678
O O13 0.649568 0.500000 0.512668
O O14 0.096572 0.267287 0.854448
O O15 0.093460 0.000000 0.891315
O O16 0.084267 0.221240 0.958905
O O17 0.250000 0.312207 0.253937
O O18 0.381281 0.500000 0.254494
O O19 0.750000 0.325988 0.198466
O O20 0.613076 0.500000 0.207321
O O21 0.750000 0.672179 0.029046
O O22 0.890188 0.500000 0.029553
#
# Coordination Sequence:
#
# PCOD9406551 Si02
#       8
#     8   8   8   8   8   8   8   8
#     4  12  25  40  60  90 129 168 203 248 305 364
#     4  10  22  39  62  90 119 153 200 251 303 363
#     4   9  18  34  58  88 121 159 206 254 294 345
#     4   8  15  31  58  90 121 156 202 255 302 339
#     4  12  25  40  61  90 122 158 195 243 311 378
#     4  10  21  39  64  90 117 156 207 258 305 358
#     4  11  25  45  68  89 112 152 206 260 310 363
#     4  10  22  40  62  89 119 154 199 250 303 364
#
# _framework density 19.621206000000001
#
# number of rings (size 3 to 8) (size 9 to 14) (size 15 to 20)
#    0.000    1.750    1.250    3.750    0.000    8.750 
#    0.000    6.250    0.000    0.750    0.000    0.000 
#    0.000    0.000    0.000    0.000    0.000    0.000 
#
# Total GULP energy -357339.631412 kJ/mol
# GULP energy per Si atom -5583.431741 kJ/mol
# Density = 1.957655 g / cm^3
# Si number density = 19.621206 Si / 1000 Ang^3
#
#
#
# Elastic Constant Matrix: (Units=GPa)
#
#
# Indices 1 2 3 4 5 6 
#
# 1 82.2354 34.2503 8.7389 0.0000 0.0000 0.0000
# 2 34.2503 119.2851 36.3212 0.0000 0.0000 0.0000
# 3 8.7389 36.3212 87.4971 0.0000 0.0000 0.0000
# 4 0.0000 0.0000 0.0000 -40.1907 0.0000 0.0000
# 5 0.0000 0.0000 0.0000 0.0000 8.0799 0.0000
# 6 0.0000 0.0000 0.0000 0.0000 0.0000 33.7540
#
#
#
# Elastic Compliance Matrix: (Units=1/GPa)
#
#
# Indices 1 2 3 4 5 6 
#
# 1 0.013819 -0.004061 0.000306 0.000000 0.000000 0.000000
# 2 -0.004061 0.010790 -0.004073 0.000000 0.000000 0.000000
# 3 0.000306 -0.004073 0.013089 0.000000 0.000000 0.000000
# 4 0.000000 0.000000 0.000000 -0.024881 0.000000 0.000000
# 5 0.000000 0.000000 0.000000 0.000000 0.123765 0.000000
# 6 0.000000 0.000000 0.000000 0.000000 0.000000 0.029626
#
#
# Mechanical properties :
#
#
# Convention : Reuss Voigt Hill
#
# Bulk Modulus (GPa) = 45.37080 49.73762 47.55421
# Shear Modulus (GPa) = 26.42545 14.30911 20.36728
#
# Velocity S-wave (km/s) = 3.67383 2.70343 3.22533
# Velocity P-wave (km/s) = 6.41635 5.92863 6.17731
#
# Compressibility (1/GPa) = 0.02204061
#
# Stress axis : x y z
#
# Youngs Moduli (GPa) = 72.36374 92.68222 76.39825
#
# Poissons Ratio (x) = 0.37637 -0.02334
# Poissons Ratio (y) = 0.29386 0.31119
# Poissons Ratio (z) = -0.02211 0.37752
#
# Static dielectric constant tensor:
#      x y z
#    x 1.711360 0.000000 0.000000 
#    y 0.000000 1.670270 0.000000 
#    z 0.000000 0.000000 1.673550 
# 
# From -- ./inp_files/35626.got.cif
#   From: 2010.05.17/outbox.cif.g08.bks.cpg/sg51_18_cif.got.tgz:35626.got - 2010.06.03 11:52:47.
