data_PCOD9406055
_publ_section_title
;
Structure prediction by ZEFSAII (Michael W. Deem and Ramdas Pophale) SiO2 
 PCOD9406055
Probable space group: P M M A
;
_chemical_formula_sum "Si O2"
_cell_formula_units_Z 40
_cell_length_a 8.810914
_cell_length_b 25.315426
_cell_length_c 9.846329
_cell_angle_alpha 90.000000
_cell_angle_beta 90.000000
_cell_angle_gamma 90.000000
_cell_volume 2196.243783
_symmetry_space_group_name_H-M "P M M A"
_symmetry_group_IT_number 51
_symmetry_cell_setting 'orthorhombic'
loop_
_space_group_symop_operation_xyz
x,y,z
1/2-x,-y,z
1/2+x,-y,-z
-x,y,-z
-x,-y,-z
1/2+x,y,-z
1/2-x,y,z
x,-y,z
loop_
_atom_site_type_symbol
_atom_site_label
_atom_site_fract_x
_atom_site_fract_y
_atom_site_fract_z
Si Si1 0.070591 0.563068 0.646266
Si Si2 0.569225 0.855399 0.352353
Si Si3 0.431533 0.645674 0.150904
Si Si4 0.431427 0.059746 0.149946
Si Si5 0.431757 0.732092 0.649251
O O1 0.250000 0.575253 0.646551
O O2 0.052195 0.500000 0.662621
O O3 0.000000 0.577735 0.500000
O O4 0.988390 0.594648 0.765378
O O5 0.500000 0.866087 0.500000
O O6 0.750000 0.861713 0.356474
O O7 0.498530 0.895596 0.245934
O O8 0.536925 0.793824 0.320271
O O9 0.250000 0.646795 0.144650
O O10 0.493629 0.694921 0.238469
O O11 0.500000 0.646082 0.000000
O O12 0.250000 0.064299 0.143508
O O13 0.468745 0.000000 0.198101
O O14 0.500000 0.065358 0.000000
O O15 0.500000 0.720542 0.500000
O O16 0.250000 0.724266 0.646050
#
# Coordination Sequence:
#
# PCOD9406055 Si02
#       5
#     8   8   8   8   8
#     4  10  21  39  63  89 117 151 191 233 278 331
#     4  10  21  37  59  85 113 146 185 232 281 331
#     4  12  25  40  59  84 116 152 190 234 283 334
#     4  10  21  37  57  81 111 148 188 230 278 334
#     4  10  21  39  61  85 113 147 188 231 279 334
#
# _framework density 18.212914999999999
#
# number of rings (size 3 to 8) (size 9 to 14) (size 15 to 20)
#    0.000    1.600    0.000    4.800    0.000    6.400 
#    0.000    0.000    0.000    0.000    0.000    0.000 
#    0.000    0.000    0.000    0.000    0.000    0.000 
#
# Total GULP energy -223606.547141 kJ/mol
# GULP energy per Si atom -5590.163679 kJ/mol
# Density = 1.817146 g / cm^3
# Si number density = 18.212915 Si / 1000 Ang^3
#
#
#
# Elastic Constant Matrix: (Units=GPa)
#
#
# Indices 1 2 3 4 5 6 
#
# 1 136.8675 78.6252 89.3090 0.0000 0.0000 0.0000
# 2 78.6252 108.1614 97.6596 0.0000 0.0000 0.0000
# 3 89.3090 97.6596 156.7196 0.0000 0.0000 0.0000
# 4 0.0000 0.0000 0.0000 57.9022 0.0000 0.0000
# 5 0.0000 0.0000 0.0000 0.0000 40.6492 0.0000
# 6 0.0000 0.0000 0.0000 0.0000 0.0000 34.6805
#
#
#
# Elastic Compliance Matrix: (Units=1/GPa)
#
#
# Indices 1 2 3 4 5 6 
#
# 1 0.013366 -0.006491 -0.003572 0.000000 0.000000 0.000000
# 2 -0.006491 0.024292 -0.011438 0.000000 0.000000 0.000000
# 3 -0.003572 -0.011438 0.015544 0.000000 0.000000 0.000000
# 4 0.000000 0.000000 0.000000 0.017271 0.000000 0.000000
# 5 0.000000 0.000000 0.000000 0.000000 0.024601 0.000000
# 6 0.000000 0.000000 0.000000 0.000000 0.000000 0.028835
#
#
# Mechanical properties :
#
#
# Convention : Reuss Voigt Hill
#
# Bulk Modulus (GPa) = 98.04635 103.65957 100.85296
# Shear Modulus (GPa) = 29.35830 35.72335 32.54082
#
# Velocity S-wave (km/s) = 4.01926 4.43361 4.23151
# Velocity P-wave (km/s) = 8.68848 9.12404 8.90892
#
# Compressibility (1/GPa) = 0.01019926
#
# Stress axis : x y z
#
# Youngs Moduli (GPa) = 74.81749 41.16656 64.33273
#
# Poissons Ratio (x) = 0.26720 0.22980
# Poissons Ratio (y) = 0.48563 0.73586
# Poissons Ratio (z) = 0.26725 0.47088
#
# Static dielectric constant tensor:
#      x y z
#    x 1.604640 0.000000 0.000000 
#    y 0.000000 1.630250 0.000000 
#    z 0.000000 0.000000 1.572550 
# 
# From -- ./inp_files/5222.got.cif
#   From: 2010.05.17/outbox.cif.g08.bks.cpg/sg51_3_cif.got.tgz:5222.got - 2010.06.03 11:52:47.
