data_PCOD9406691
_publ_section_title
;
Structure prediction by ZEFSAII (Michael W. Deem and Ramdas Pophale) SiO2 
 PCOD9406691
Probable space group: P M M A
;
_chemical_formula_sum "Si O2"
_cell_formula_units_Z 56
_cell_length_a 15.722578
_cell_length_b 20.636350
_cell_length_c 7.176595
_cell_angle_alpha 90.000000
_cell_angle_beta 90.000000
_cell_angle_gamma 90.000000
_cell_volume 2328.493775
_symmetry_space_group_name_H-M "P M M A"
_symmetry_group_IT_number 51
_symmetry_cell_setting 'orthorhombic'
loop_
_space_group_symop_operation_xyz
x,y,z
1/2-x,-y,z
1/2+x,-y,-z
-x,y,-z
-x,-y,-z
1/2+x,y,-z
1/2-x,y,z
x,-y,z
loop_
_atom_site_type_symbol
_atom_site_label
_atom_site_fract_x
_atom_site_fract_y
_atom_site_fract_z
Si Si1 0.506070 0.426440 0.727418
Si Si2 0.846288 0.072367 0.277360
Si Si3 0.652940 0.815344 0.815754
Si Si4 0.345729 0.332642 0.277699
Si Si5 0.154636 0.211612 0.744207
Si Si6 0.653467 0.351723 0.286725
Si Si7 0.027458 0.069905 0.279630
O O1 0.500000 0.423491 0.500000
O O2 0.526214 0.500000 0.778801
O O3 0.577809 0.376419 0.796798
O O4 0.412065 0.404343 0.786955
O O5 0.750000 0.076432 0.194410
O O6 0.858175 0.144398 0.366301
O O7 0.936547 0.070453 0.172150
O O8 0.844594 0.000000 0.369463
O O9 0.750000 0.833106 0.762822
O O10 0.633895 0.744074 0.733731
O O11 0.585560 0.869647 0.763500
O O12 0.651735 0.807910 0.039734
O O13 0.250000 0.338988 0.196606
O O14 0.339322 0.355229 0.490766
O O15 0.250000 0.230912 0.688469
O O16 0.109179 0.280436 0.736638
O O17 0.750000 0.357347 0.211745
O O18 0.000000 0.070876 0.500000
O O19 0.069042 0.000000 0.244653
#
# Coordination Sequence:
#
# PCOD9406691 Si02
#       7
#     8   8   8   8   8   8   8
#     4   9  18  32  53  82 111 140 178 225 276 327
#     4   9  19  36  56  77 105 142 184 229 275 325
#     4  10  22  38  57  81 111 146 184 229 279 329
#     4   9  19  34  53  79 109 144 183 223 273 330
#     4   9  19  35  55  81 108 141 185 229 276 327
#     4   9  18  33  55  81 109 142 181 225 274 332
#     4  10  23  38  54  81 113 146 187 233 281 334
#
# _framework density 24.049880999999999
#
# number of rings (size 3 to 8) (size 9 to 14) (size 15 to 20)
#    0.000    2.714    0.000    0.000    4.000    3.143 
#    0.000    7.143    0.000    1.714    0.000    4.000 
#    0.000    0.000    0.000    0.000    0.000    0.000 
#
# Total GULP energy -311866.046465 kJ/mol
# GULP energy per Si atom -5569.036544 kJ/mol
# Density = 2.399514 g / cm^3
# Si number density = 24.049881 Si / 1000 Ang^3
#
#
#
# Elastic Constant Matrix: (Units=GPa)
#
#
# Indices 1 2 3 4 5 6 
#
# 1 173.4331 106.9024 13.1961 0.0000 0.0000 0.0000
# 2 106.9024 153.3081 -20.4619 0.0000 0.0000 0.0000
# 3 13.1961 -20.4619 71.5175 0.0000 0.0000 0.0000
# 4 0.0000 0.0000 0.0000 -30.0858 0.0000 0.0000
# 5 0.0000 0.0000 0.0000 0.0000 4.2013 0.0000
# 6 0.0000 0.0000 0.0000 0.0000 0.0000 39.8019
#
#
#
# Elastic Compliance Matrix: (Units=1/GPa)
#
#
# Indices 1 2 3 4 5 6 
#
# 1 0.011373 -0.008537 -0.004541 0.000000 0.000000 0.000000
# 2 -0.008537 0.013189 0.005349 0.000000 0.000000 0.000000
# 3 -0.004541 0.005349 0.016351 0.000000 0.000000 0.000000
# 4 0.000000 0.000000 0.000000 -0.033238 0.000000 0.000000
# 5 0.000000 0.000000 0.000000 0.000000 0.238022 0.000000
# 6 0.000000 0.000000 0.000000 0.000000 0.000000 0.025124
#
#
# Mechanical properties :
#
#
# Convention : Reuss Voigt Hill
#
# Bulk Modulus (GPa) = 39.28403 66.39245 52.83824
# Shear Modulus (GPa) = 16.96263 22.69162 19.82712
#
# Velocity S-wave (km/s) = 2.65865 3.07501 2.87438
# Velocity P-wave (km/s) = 5.07882 6.34616 5.74753
#
# Compressibility (1/GPa) = 0.02545564
#
# Stress axis : x y z
#
# Youngs Moduli (GPa) = 87.92401 75.81792 61.15890
#
# Poissons Ratio (x) = 0.64725 0.27773
# Poissons Ratio (y) = 0.75059 -0.32713
# Poissons Ratio (z) = 0.39927 -0.40554
#
# Static dielectric constant tensor:
#      x y z
#    x 1.931110 0.000000 0.000000 
#    y 0.000000 1.939940 0.000000 
#    z 0.000000 0.000000 2.029860 
# 
# From -- ./inp_files/8481.got.cif
#   From: 2010.05.17/outbox.cif.g08.bks.cpg/sg51_5_cif.got.tgz:8481.got - 2010.06.03 11:52:47.
