data_PCOD9406581
_publ_section_title
;
Structure prediction by ZEFSAII (Michael W. Deem and Ramdas Pophale) SiO2 
 PCOD9406581
Probable space group: P M M A
;
_chemical_formula_sum "Si O2"
_cell_formula_units_Z 40
_cell_length_a 13.519903
_cell_length_b 8.609881
_cell_length_c 15.801384
_cell_angle_alpha 90.000000
_cell_angle_beta 90.000000
_cell_angle_gamma 90.000000
_cell_volume 1839.356248
_symmetry_space_group_name_H-M "P M M A"
_symmetry_group_IT_number 51
_symmetry_cell_setting 'orthorhombic'
loop_
_space_group_symop_operation_xyz
x,y,z
1/2-x,-y,z
1/2+x,-y,-z
-x,y,-z
-x,-y,-z
1/2+x,y,-z
1/2-x,y,z
x,-y,z
loop_
_atom_site_type_symbol
_atom_site_label
_atom_site_fract_x
_atom_site_fract_y
_atom_site_fract_z
Si Si1 0.864151 0.312906 0.357649
Si Si2 0.947662 0.820350 0.717864
Si Si3 0.138839 0.184108 0.939758
Si Si4 0.069513 0.680952 0.110534
Si Si5 0.868579 0.323328 0.549958
O O1 0.750000 0.267457 0.346306
O O2 0.869922 0.500000 0.348854
O O3 0.896582 0.275795 0.454509
O O4 0.938485 0.229716 0.294958
O O5 0.901566 0.722104 0.794038
O O6 0.899316 0.782596 0.627590
O O7 0.939858 0.000000 0.739037
O O8 0.250000 0.229655 0.912823
O O9 0.046850 0.275141 0.899147
O O10 0.126332 0.000000 0.925120
O O11 0.126126 0.219872 0.039788
O O12 0.083844 0.500000 0.092563
O O13 0.750000 0.329899 0.547207
O O14 0.904864 0.500000 0.565721
#
# Coordination Sequence:
#
# PCOD9406581 Si02
#       5
#     8   8   8   8   8
#     4   9  19  37  59  81 108 146 191 235 279 331
#     4  12  24  36  54  82 117 151 184 230 284 331
#     4  10  21  40  65  89 116 146 175 219 280 337
#     4  11  23  39  60  85 114 148 189 231 267 322
#     4   9  19  37  59  81 108 146 191 235 279 331
#
# _framework density 21.746739000000002
#
# number of rings (size 3 to 8) (size 9 to 14) (size 15 to 20)
#    0.000    1.800    0.000    7.200    0.000    7.200 
#    0.000    2.000    0.000    0.000    0.000    0.000 
#    0.000    0.000    0.000    0.000    0.000    0.000 
#
# Total GULP energy -223663.941412 kJ/mol
# GULP energy per Si atom -5591.598535 kJ/mol
# Density = 2.169724 g / cm^3
# Si number density = 21.746739 Si / 1000 Ang^3
#
#
#
# Elastic Constant Matrix: (Units=GPa)
#
#
# Indices 1 2 3 4 5 6 
#
# 1 36.8471 -8.4513 -13.7938 0.0000 0.0000 0.0000
# 2 -8.4513 39.1946 -0.6116 0.0000 0.0000 0.0000
# 3 -13.7938 -0.6116 54.6559 0.0000 0.0000 0.0000
# 4 0.0000 0.0000 0.0000 76.8368 0.0000 0.0000
# 5 0.0000 0.0000 0.0000 0.0000 6.8664 0.0000
# 6 0.0000 0.0000 0.0000 0.0000 0.0000 32.6675
#
#
#
# Elastic Compliance Matrix: (Units=1/GPa)
#
#
# Indices 1 2 3 4 5 6 
#
# 1 0.031770 0.006977 0.008096 0.000000 0.000000 0.000000
# 2 0.006977 0.027050 0.002063 0.000000 0.000000 0.000000
# 3 0.008096 0.002063 0.020363 0.000000 0.000000 0.000000
# 4 0.000000 0.000000 0.000000 0.013015 0.000000 0.000000
# 5 0.000000 0.000000 0.000000 0.000000 0.145636 0.000000
# 6 0.000000 0.000000 0.000000 0.000000 0.000000 0.030611
#
#
# Mechanical properties :
#
#
# Convention : Reuss Voigt Hill
#
# Bulk Modulus (GPa) = 8.81402 9.44269 9.12835
# Shear Modulus (GPa) = 18.38296 33.51109 25.94702
#
# Velocity S-wave (km/s) = 2.91059 3.92978 3.45794
# Velocity P-wave (km/s) = 3.91883 4.99424 4.48886
#
# Compressibility (1/GPa) = 0.11345566
#
# Stress axis : x y z
#
# Youngs Moduli (GPa) = 31.47604 36.96819 49.10956
#
# Poissons Ratio (x) = -0.25792 -0.39759
# Poissons Ratio (y) = -0.21960 -0.10133
# Poissons Ratio (z) = -0.25483 -0.07628
#
# Static dielectric constant tensor:
#      x y z
#    x 1.822170 0.000000 0.000000 
#    y 0.000000 1.731670 0.000000 
#    z 0.000000 0.000000 1.797090 
# 
# From -- ./inp_files/23677.got.cif
#   From: 2010.05.17/outbox.cif.g08.bks.cpg/sg51_12_cif.got.tgz:23677.got - 2010.06.03 11:52:47.
