data_PCOD9406290
_publ_section_title
;
Structure prediction by ZEFSAII (Michael W. Deem and Ramdas Pophale) SiO2 
 PCOD9406290
Probable space group: P M M A
;
_chemical_formula_sum "Si O2"
_cell_formula_units_Z 40
_cell_length_a 8.625897
_cell_length_b 26.539115
_cell_length_c 9.787979
_cell_angle_alpha 90.000000
_cell_angle_beta 90.000000
_cell_angle_gamma 90.000000
_cell_volume 2240.700099
_symmetry_space_group_name_H-M "P M M A"
_symmetry_group_IT_number 51
_symmetry_cell_setting 'orthorhombic'
loop_
_space_group_symop_operation_xyz
x,y,z
1/2-x,-y,z
1/2+x,-y,-z
-x,y,-z
-x,-y,-z
1/2+x,y,-z
1/2-x,y,z
x,-y,z
loop_
_atom_site_type_symbol
_atom_site_label
_atom_site_fract_x
_atom_site_fract_y
_atom_site_fract_z
Si Si1 0.435574 0.747665 0.653393
Si Si2 0.064322 0.942268 0.847097
Si Si3 0.564823 0.660038 0.845145
Si Si4 0.935039 0.856426 0.652033
Si Si5 0.563934 0.444931 0.155098
O O1 0.500000 0.739773 0.500000
O O2 0.250000 0.747182 0.650361
O O3 0.498900 0.704835 0.753342
O O4 0.495045 0.802802 0.698439
O O5 0.250000 0.936257 0.847274
O O6 0.988150 0.901453 0.748992
O O7 0.028893 0.000000 0.804767
O O8 0.000000 0.935792 0.000000
O O9 0.750000 0.661503 0.849773
O O10 0.509448 0.605865 0.786126
O O11 0.500000 0.664216 0.000000
O O12 0.750000 0.852596 0.647257
O O13 0.000000 0.865373 0.500000
O O14 0.750000 0.439933 0.151537
O O15 0.525997 0.500000 0.216973
O O16 0.500000 0.446507 0.000000
#
# Coordination Sequence:
#
# PCOD9406290 Si02
#       5
#     8   8   8   8   8
#     4  11  22  39  59  80 108 142 180 221 270 324
#     4  10  21  38  59  84 114 147 182 221 268 320
#     4  11  21  34  53  80 110 141 180 224 270 318
#     4  11  22  38  59  83 110 142 182 224 268 317
#     4   9  16  27  45  71 103 138 175 217 266 317
#
# _framework density 17.851562999999999
#
# number of rings (size 3 to 8) (size 9 to 14) (size 15 to 20)
#    0.000    1.600    0.000    9.000    0.000    3.600 
#    0.000    4.000    0.000    0.600    0.000    0.000 
#    0.000    0.000    0.000    0.000    0.000    0.000 
#
# Total GULP energy -223349.634370 kJ/mol
# GULP energy per Si atom -5583.740859 kJ/mol
# Density = 1.781093 g / cm^3
# Si number density = 17.851563 Si / 1000 Ang^3
#
#
#
# Elastic Constant Matrix: (Units=GPa)
#
#
# Indices 1 2 3 4 5 6 
#
# 1 179.2619 96.0331 46.6741 0.0000 0.0000 0.0000
# 2 96.0331 197.8724 86.2696 0.0000 0.0000 0.0000
# 3 46.6741 86.2696 51.9165 0.0000 0.0000 0.0000
# 4 0.0000 0.0000 0.0000 -12.7693 0.0000 0.0000
# 5 0.0000 0.0000 0.0000 0.0000 28.8001 0.0000
# 6 0.0000 0.0000 0.0000 0.0000 0.0000 50.6495
#
#
#
# Elastic Compliance Matrix: (Units=1/GPa)
#
#
# Indices 1 2 3 4 5 6 
#
# 1 0.007631 -0.002586 -0.002564 0.000000 0.000000 0.000000
# 2 -0.002586 0.019219 -0.029611 0.000000 0.000000 0.000000
# 3 -0.002564 -0.029611 0.070771 0.000000 0.000000 0.000000
# 4 0.000000 0.000000 0.000000 -0.078313 0.000000 0.000000
# 5 0.000000 0.000000 0.000000 0.000000 0.034722 0.000000
# 6 0.000000 0.000000 0.000000 0.000000 0.000000 0.019744
#
#
# Mechanical properties :
#
#
# Convention : Reuss Voigt Hill
#
# Bulk Modulus (GPa) = 35.58722 98.55604 67.07163
# Shear Modulus (GPa) = 32.75229 26.67434 29.71332
#
# Velocity S-wave (km/s) = 4.28799 3.86972 4.08421
# Velocity P-wave (km/s) = 6.67039 8.67726 7.73915
#
# Compressibility (1/GPa) = 0.02809997
#
# Stress axis : x y z
#
# Youngs Moduli (GPa) = 131.04024 52.03243 14.13010
#
# Poissons Ratio (x) = 0.13456 0.03622
# Poissons Ratio (y) = 0.33887 0.41841
# Poissons Ratio (z) = 0.33592 1.54073
#
# Static dielectric constant tensor:
#      x y z
#    x 1.591900 0.000000 0.000000 
#    y 0.000000 1.633910 0.000000 
#    z 0.000000 0.000000 1.577920 
# 
# From -- ./inp_files/5256.got.cif
#   From: 2010.05.17/outbox.cif.g08.bks.cpg/sg51_3_cif.got.tgz:5256.got - 2010.06.03 11:52:47.
