data_PCOD9406815
_publ_section_title
;
Structure prediction by ZEFSAII (Michael W. Deem and Ramdas Pophale) SiO2 
 PCOD9406815
Probable space group: P M M A
;
_chemical_formula_sum "Si O2"
_cell_formula_units_Z 48
_cell_length_a 16.677388
_cell_length_b 16.169756
_cell_length_c 8.993263
_cell_angle_alpha 90.000000
_cell_angle_beta 90.000000
_cell_angle_gamma 90.000000
_cell_volume 2425.206890
_symmetry_space_group_name_H-M "P M M A"
_symmetry_group_IT_number 51
_symmetry_cell_setting 'orthorhombic'
loop_
_space_group_symop_operation_xyz
x,y,z
1/2-x,-y,z
1/2+x,-y,-z
-x,y,-z
-x,-y,-z
1/2+x,y,-z
1/2-x,y,z
x,-y,z
loop_
_atom_site_type_symbol
_atom_site_label
_atom_site_fract_x
_atom_site_fract_y
_atom_site_fract_z
Si Si1 0.091673 0.909232 0.062210
Si Si2 0.587398 0.757300 0.430769
Si Si3 0.653884 0.591556 0.923333
Si Si4 0.846810 0.593989 0.581231
Si Si5 0.156417 0.093824 0.386445
Si Si6 0.086693 0.747480 0.920785
O O1 0.100932 0.897673 0.239594
O O2 0.126815 0.000000 0.028543
O O3 0.129509 0.828757 0.987534
O O4 0.000000 0.911510 0.000000
O O5 0.500000 0.766229 0.500000
O O6 0.621427 0.668656 0.482754
O O7 0.637870 0.833652 0.497879
O O8 0.581535 0.758715 0.254122
O O9 0.750000 0.588796 0.918841
O O10 0.624508 0.500000 0.966049
O O11 0.627418 0.608469 0.753087
O O12 0.628617 0.663020 0.033321
O O13 0.750000 0.595508 0.577480
O O14 0.871686 0.500000 0.539477
O O15 0.250000 0.099900 0.340400
O O16 0.143804 0.000000 0.445243
O O17 0.000000 0.743084 0.000000
#
# Coordination Sequence:
#
# PCOD9406815 Si02
#       6
#     8   8   8   8   8   8
#     4   9  18  36  61  86 115 152 194 238 286 346
#     4  12  24  37  58  86 118 157 198 245 299 357
#     4   9  19  37  60  83 109 146 189 233 287 349
#     4   9  19  38  62  85 113 151 193 240 296 356
#     4  10  22  41  64  90 121 158 200 247 300 357
#     4  11  23  37  55  82 115 151 191 237 288 343
#
# _framework density 19.792127000000001
#
# number of rings (size 3 to 8) (size 9 to 14) (size 15 to 20)
#    0.000    2.000    0.000    5.500    0.000    5.667 
#    0.000    1.667    0.000    2.000    0.000    0.000 
#    0.000    0.000    0.000    0.000    0.000    0.000 
#
# Total GULP energy -267807.736119 kJ/mol
# GULP energy per Si atom -5579.327836 kJ/mol
# Density = 1.974708 g / cm^3
# Si number density = 19.792127 Si / 1000 Ang^3
#
#
#
# Elastic Constant Matrix: (Units=GPa)
#
#
# Indices 1 2 3 4 5 6 
#
# 1 37.2106 22.7988 23.3722 0.0000 0.0000 0.0000
# 2 22.7988 160.7174 89.6700 0.0000 0.0000 0.0000
# 3 23.3722 89.6700 128.2376 0.0000 0.0000 0.0000
# 4 0.0000 0.0000 0.0000 -4.0499 0.0000 0.0000
# 5 0.0000 0.0000 0.0000 0.0000 24.5911 0.0000
# 6 0.0000 0.0000 0.0000 0.0000 0.0000 25.7166
#
#
#
# Elastic Compliance Matrix: (Units=1/GPa)
#
#
# Indices 1 2 3 4 5 6 
#
# 1 0.030745 -0.002025 -0.004187 0.000000 0.000000 0.000000
# 2 -0.002025 0.010336 -0.006858 0.000000 0.000000 0.000000
# 3 -0.004187 -0.006858 0.013357 0.000000 0.000000 0.000000
# 4 0.000000 0.000000 0.000000 -0.246920 0.000000 0.000000
# 5 0.000000 0.000000 0.000000 0.000000 0.040665 0.000000
# 6 0.000000 0.000000 0.000000 0.000000 0.000000 0.038885
#
#
# Mechanical properties :
#
#
# Convention : Reuss Voigt Hill
#
# Bulk Modulus (GPa) = 35.34052 66.42750 50.88401
# Shear Modulus (GPa) = -64.63431 21.93988 -21.34722
#
# Velocity S-wave (km/s) = -5.72079 3.33305 -3.28772
# Velocity P-wave (km/s) = 5.07366 6.96044 3.36940
#
# Compressibility (1/GPa) = 0.02829613
#
# Stress axis : x y z
#
# Youngs Moduli (GPa) = 32.52567 96.75089 74.86803
#
# Poissons Ratio (x) = 0.19592 0.31351
# Poissons Ratio (y) = 0.06586 0.51346
# Poissons Ratio (z) = 0.13620 0.66354
#
# Static dielectric constant tensor:
#      x y z
#    x 1.708650 0.000000 0.000000 
#    y 0.000000 1.744430 0.000000 
#    z 0.000000 0.000000 1.673700 
# 
# From -- ./inp_files/9559.got.cif
#   From: 2010.05.17/outbox.cif.g08.bks.cpg/sg51_5_cif.got.tgz:9559.got - 2010.06.03 11:52:47.
