data_PCOD9406759
_publ_section_title
;
Structure prediction by ZEFSAII (Michael W. Deem and Ramdas Pophale) SiO2 
 PCOD9406759
Probable space group: P M M A
;
_chemical_formula_sum "Si O2"
_cell_formula_units_Z 52
_cell_length_a 8.573576
_cell_length_b 24.169396
_cell_length_c 14.706704
_cell_angle_alpha 90.000000
_cell_angle_beta 90.000000
_cell_angle_gamma 90.000000
_cell_volume 3047.496047
_symmetry_space_group_name_H-M "P M M A"
_symmetry_group_IT_number 51
_symmetry_cell_setting 'orthorhombic'
loop_
_space_group_symop_operation_xyz
x,y,z
1/2-x,-y,z
1/2+x,-y,-z
-x,y,-z
-x,-y,-z
1/2+x,y,-z
1/2-x,y,z
x,-y,z
loop_
_atom_site_type_symbol
_atom_site_label
_atom_site_fract_x
_atom_site_fract_y
_atom_site_fract_z
Si Si1 0.061993 0.561272 0.782990
Si Si2 0.936139 0.731000 0.402843
Si Si3 0.562200 0.331691 0.102246
Si Si4 0.061410 0.121034 0.103035
Si Si5 0.061950 0.000000 0.103008
Si Si6 0.564112 0.394156 0.596918
Si Si7 0.937641 0.227821 0.783039
O O1 0.250000 0.563719 0.776097
O O2 0.018050 0.500000 0.816054
O O3 0.012879 0.611228 0.848642
O O4 0.993112 0.571447 0.683112
O O5 0.750000 0.728815 0.404374
O O6 0.000000 0.750894 0.500000
O O7 0.999798 0.668355 0.390858
O O8 0.995476 0.766311 0.318043
O O9 0.750000 0.329052 0.102146
O O10 0.496985 0.280286 0.159489
O O11 0.500000 0.329463 0.000000
O O12 0.250000 0.122086 0.098828
O O13 0.012538 0.060160 0.139813
O O14 0.011396 0.171829 0.165935
O O15 0.000000 0.127582 0.000000
O O16 0.250000 0.000000 0.102690
O O17 0.000000 0.000000 0.000000
O O18 0.500000 0.414758 0.500000
O O19 0.750000 0.392351 0.593645
O O20 0.750000 0.229133 0.779481
#
# Coordination Sequence:
#
# PCOD9406759 Si02
#       7
#     8   8   8   8   4   8   8
#     4  10  22  40  58  76 101 134 174 216 260 312
#     4  11  21  35  55  79 106 137 169 208 258 312
#     4  11  23  38  56  76 102 136 173 216 263 309
#     4   9  18  30  48  74 107 144 182 217 256 299
#     4   8  14  28  46  68 101 142 181 218 253 296
#     4  11  21  35  57  81 106 134 166 207 257 314
#     4  11  21  34  53  80 109 138 173 215 259 309
#
# _framework density 17.063188
#
# number of rings (size 3 to 8) (size 9 to 14) (size 15 to 20)
#    0.000    1.692    1.538    5.077    0.000    4.000 
#    0.000    0.000    0.000    0.000    0.000    0.538 
#    0.000    0.000    0.000    0.000    0.000    0.000 
#
# Total GULP energy -290309.767871 kJ/mol
# GULP energy per Si atom -5582.880151 kJ/mol
# Density = 1.702435 g / cm^3
# Si number density = 17.063188 Si / 1000 Ang^3
#
#
#
# Elastic Constant Matrix: (Units=GPa)
#
#
# Indices 1 2 3 4 5 6 
#
# 1 46.8377 34.0942 25.7885 0.0000 0.0000 0.0000
# 2 34.0942 147.4879 73.3001 0.0000 0.0000 0.0000
# 3 25.7885 73.3001 116.8335 0.0000 0.0000 0.0000
# 4 0.0000 0.0000 0.0000 26.8478 0.0000 0.0000
# 5 0.0000 0.0000 0.0000 0.0000 28.2208 0.0000
# 6 0.0000 0.0000 0.0000 0.0000 0.0000 18.2794
#
#
#
# Elastic Compliance Matrix: (Units=1/GPa)
#
#
# Indices 1 2 3 4 5 6 
#
# 1 0.026327 -0.004647 -0.002896 0.000000 0.000000 0.000000
# 2 -0.004647 0.010672 -0.005670 0.000000 0.000000 0.000000
# 3 -0.002896 -0.005670 0.012756 0.000000 0.000000 0.000000
# 4 0.000000 0.000000 0.000000 0.037247 0.000000 0.000000
# 5 0.000000 0.000000 0.000000 0.000000 0.035435 0.000000
# 6 0.000000 0.000000 0.000000 0.000000 0.000000 0.054706
#
#
# Mechanical properties :
#
#
# Convention : Reuss Voigt Hill
#
# Bulk Modulus (GPa) = 42.86327 64.16939 53.51633
# Shear Modulus (GPa) = 23.65796 26.53470 25.09633
#
# Velocity S-wave (km/s) = 3.72760 3.94773 3.83925
# Velocity P-wave (km/s) = 6.61071 7.64644 7.14736
#
# Compressibility (1/GPa) = 0.02333000
#
# Stress axis : x y z
#
# Youngs Moduli (GPa) = 37.98351 93.70012 78.39624
#
# Poissons Ratio (x) = 0.43540 0.22702
# Poissons Ratio (y) = 0.17650 0.44451
# Poissons Ratio (z) = 0.10999 0.53128
#
# Static dielectric constant tensor:
#      x y z
#    x 1.576080 0.000000 0.000000 
#    y 0.000000 1.601480 0.000000 
#    z 0.000000 0.000000 1.554830 
# 
# From -- ./inp_files/21573.got.cif
#   From: 2010.05.17/outbox.cif.g08.bks.cpg/sg51_11_cif.got.tgz:21573.got - 2010.06.03 11:52:47.
