data_PCOD9406530
_publ_section_title
;
Structure prediction by ZEFSAII (Michael W. Deem and Ramdas Pophale) SiO2 
 PCOD9406530
Probable space group: P M M A
;
_chemical_formula_sum "Si O2"
_cell_formula_units_Z 48
_cell_length_a 8.720544
_cell_length_b 31.583738
_cell_length_c 9.256932
_cell_angle_alpha 90.000000
_cell_angle_beta 90.000000
_cell_angle_gamma 90.000000
_cell_volume 2549.612499
_symmetry_space_group_name_H-M "P M M A"
_symmetry_group_IT_number 51
_symmetry_cell_setting 'orthorhombic'
loop_
_space_group_symop_operation_xyz
x,y,z
1/2-x,-y,z
1/2+x,-y,-z
-x,y,-z
-x,-y,-z
1/2+x,y,-z
1/2-x,y,z
x,-y,z
loop_
_atom_site_type_symbol
_atom_site_label
_atom_site_fract_x
_atom_site_fract_y
_atom_site_fract_z
Si Si1 0.566762 0.450553 0.159057
Si Si2 0.433617 0.212161 0.660499
Si Si3 0.066026 0.046327 0.836809
Si Si4 0.067102 0.375177 0.340420
Si Si5 0.433162 0.133606 0.162812
Si Si6 0.066534 0.702723 0.839845
O O1 0.750000 0.444619 0.157351
O O2 0.534585 0.500000 0.190357
O O3 0.491346 0.419171 0.272992
O O4 0.500000 0.441216 0.000000
O O5 0.500000 0.215410 0.500000
O O6 0.250000 0.207039 0.655213
O O7 0.506943 0.172438 0.742875
O O8 0.467977 0.254972 0.748902
O O9 0.250000 0.050749 0.842604
O O10 0.992660 0.088773 0.773446
O O11 0.030177 0.000000 0.771127
O O12 0.000000 0.045030 0.000000
O O13 0.250000 0.374468 0.345146
O O14 0.000000 0.369492 0.500000
O O15 0.006094 0.337539 0.239306
O O16 0.250000 0.133304 0.154979
O O17 0.500000 0.137647 0.000000
O O18 0.250000 0.697540 0.846313
O O19 0.000000 0.706751 0.000000
#
# Coordination Sequence:
#
# PCOD9406530 Si02
#       6
#     8   8   8   8   8   8
#     4  10  21  39  63  90 121 158 201 247 294 345
#     4  11  24  41  61  85 115 150 189 234 285 342
#     4   9  16  27  46  74 108 144 184 232 283 334
#     4  12  25  41  62  88 122 159 197 242 292 348
#     4  11  21  34  55  82 114 150 190 236 284 338
#     4  11  24  42  65  91 119 152 192 237 285 340
#
# _framework density 18.826391000000001
#
# number of rings (size 3 to 8) (size 9 to 14) (size 15 to 20)
#    0.000    1.333    0.000    7.500    0.000    7.667 
#    0.000    0.000    0.000    0.500    0.000    0.000 
#    0.000    0.000    0.000    0.000    0.000    0.000 
#
# Total GULP energy -268336.994065 kJ/mol
# GULP energy per Si atom -5590.354043 kJ/mol
# Density = 1.878354 g / cm^3
# Si number density = 18.826391 Si / 1000 Ang^3
#
#
#
# Elastic Constant Matrix: (Units=GPa)
#
#
# Indices 1 2 3 4 5 6 
#
# 1 128.5549 84.3812 65.9378 0.0000 0.0000 0.0000
# 2 84.3812 130.3101 80.1308 0.0000 0.0000 0.0000
# 3 65.9378 80.1308 127.2950 0.0000 0.0000 0.0000
# 4 0.0000 0.0000 0.0000 -10.9391 0.0000 0.0000
# 5 0.0000 0.0000 0.0000 0.0000 32.5877 0.0000
# 6 0.0000 0.0000 0.0000 0.0000 0.0000 -21.4194
#
#
#
# Elastic Compliance Matrix: (Units=1/GPa)
#
#
# Indices 1 2 3 4 5 6 
#
# 1 0.014009 -0.007520 -0.002523 0.000000 0.000000 0.000000
# 2 -0.007520 0.016557 -0.006527 0.000000 0.000000 0.000000
# 3 -0.002523 -0.006527 0.013271 0.000000 0.000000 0.000000
# 4 0.000000 0.000000 0.000000 -0.091415 0.000000 0.000000
# 5 0.000000 0.000000 0.000000 0.000000 0.030686 0.000000
# 6 0.000000 0.000000 0.000000 0.000000 0.000000 -0.046687
#
#
# Mechanical properties :
#
#
# Convention : Reuss Voigt Hill
#
# Bulk Modulus (GPa) = 93.48049 94.11773 93.79911
# Shear Modulus (GPa) = -186.06508 10.42651 -87.81928
#
# Velocity S-wave (km/s) = -9.95222 2.35590 -6.83726
# Velocity P-wave (km/s) = 9.07196 7.58296 3.52130
#
# Compressibility (1/GPa) = 0.01069742
#
# Stress axis : x y z
#
# Youngs Moduli (GPa) = 71.38455 60.39624 75.35004
#
# Poissons Ratio (x) = 0.45418 0.19008
# Poissons Ratio (y) = 0.53681 0.49184
# Poissons Ratio (z) = 0.18008 0.39423
#
# Static dielectric constant tensor:
#      x y z
#    x 1.624570 0.000000 0.000000 
#    y 0.000000 1.664930 0.000000 
#    z 0.000000 0.000000 1.606870 
# 
# From -- ./inp_files/6059.got.cif
#   From: 2010.05.17/outbox.cif.g08.bks.cpg/sg51_4_cif.got.tgz:6059.got - 2010.06.03 11:52:47.
