data_PCOD9406528
_publ_section_title
;
Structure prediction by ZEFSAII (Michael W. Deem and Ramdas Pophale) SiO2 
 PCOD9406528
Probable space group: P M M A
;
_chemical_formula_sum "Si O2"
_cell_formula_units_Z 28
_cell_length_a 9.046338
_cell_length_b 7.258820
_cell_length_c 20.517741
_cell_angle_alpha 90.000000
_cell_angle_beta 90.000000
_cell_angle_gamma 90.000000
_cell_volume 1347.312630
_symmetry_space_group_name_H-M "P M M A"
_symmetry_group_IT_number 51
_symmetry_cell_setting 'orthorhombic'
loop_
_space_group_symop_operation_xyz
x,y,z
1/2-x,-y,z
1/2+x,-y,-z
-x,y,-z
-x,-y,-z
1/2+x,y,-z
1/2-x,y,z
x,-y,z
loop_
_atom_site_type_symbol
_atom_site_label
_atom_site_fract_x
_atom_site_fract_y
_atom_site_fract_z
Si Si1 0.919863 0.723894 0.198689
Si Si2 0.573323 0.000000 0.429123
Si Si3 0.423696 0.720735 0.332975
Si Si4 0.420457 0.275405 0.066403
O O1 0.750000 0.783497 0.203756
O O2 0.919426 0.500000 0.197411
O O3 0.012714 0.776098 0.262323
O O4 0.994166 0.784069 0.131296
O O5 0.500000 0.000000 0.500000
O O6 0.514830 0.174709 0.388162
O O7 0.750000 0.000000 0.433551
O O8 0.250000 0.765462 0.337541
O O9 0.439365 0.500000 0.339085
O O10 0.250000 0.218669 0.067739
O O11 0.422009 0.500000 0.066494
O O12 0.500000 0.217009 0.000000
#
# Coordination Sequence:
#
# PCOD9406528 Si02
#       4
#     8   4   8   8
#     4   9  16  27  45  71 104 143 188 236 286 342
#     4  12  26  44  66  92 123 156 193 238 288 348
#     4  10  21  39  63  90 121 157 197 242 292 347
#     4   9  15  22  34  57  93 137 184 235 289 341
#
# _framework density 20.782109999999999
#
# number of rings (size 3 to 8) (size 9 to 14) (size 15 to 20)
#    0.000    2.286    0.000    3.857    0.000    9.143 
#    0.000    0.000    0.000    0.000    0.000    1.000 
#    0.000    0.000    0.000    0.000    0.000    0.000 
#
# Total GULP energy -156601.731593 kJ/mol
# GULP energy per Si atom -5592.918985 kJ/mol
# Density = 2.073481 g / cm^3
# Si number density = 20.782110 Si / 1000 Ang^3
#
#
#
# Elastic Constant Matrix: (Units=GPa)
#
#
# Indices 1 2 3 4 5 6 
#
# 1 224.3278 39.5718 121.0437 0.0000 0.0000 0.0000
# 2 39.5718 97.4999 40.2846 0.0000 0.0000 0.0000
# 3 121.0437 40.2846 216.0043 0.0000 0.0000 0.0000
# 4 0.0000 0.0000 0.0000 28.9996 0.0000 0.0000
# 5 0.0000 0.0000 0.0000 0.0000 46.1041 0.0000
# 6 0.0000 0.0000 0.0000 0.0000 0.0000 9.0267
#
#
#
# Elastic Compliance Matrix: (Units=1/GPa)
#
#
# Indices 1 2 3 4 5 6 
#
# 1 0.006524 -0.001232 -0.003426 0.000000 0.000000 0.000000
# 2 -0.001232 0.011345 -0.001425 0.000000 0.000000 0.000000
# 3 -0.003426 -0.001425 0.006815 0.000000 0.000000 0.000000
# 4 0.000000 0.000000 0.000000 0.034483 0.000000 0.000000
# 5 0.000000 0.000000 0.000000 0.000000 0.021690 0.000000
# 6 0.000000 0.000000 0.000000 0.000000 0.000000 0.110782
#
#
# Mechanical properties :
#
#
# Convention : Reuss Voigt Hill
#
# Bulk Modulus (GPa) = 79.88980 104.40358 92.14669
# Shear Modulus (GPa) = 24.04085 39.28821 31.66453
#
# Velocity S-wave (km/s) = 3.40487 4.35268 3.90762
# Velocity P-wave (km/s) = 7.34729 8.69525 8.04954
#
# Compressibility (1/GPa) = 0.01251724
#
# Stress axis : x y z
#
# Youngs Moduli (GPa) = 153.28721 88.14082 146.73137
#
# Poissons Ratio (x) = 0.10861 0.50269
# Poissons Ratio (y) = 0.18889 0.20915
# Poissons Ratio (z) = 0.52515 0.12564
#
# Static dielectric constant tensor:
#      x y z
#    x 1.688470 0.000000 0.000000 
#    y 0.000000 1.839800 0.000000 
#    z 0.000000 0.000000 1.679370 
# 
# From -- ./inp_files/26864.got.cif
#   From: 2010.05.17/outbox.cif.g08.bks.cpg/sg51_14_cif.got.tgz:26864.got - 2010.06.03 11:52:47.
