data_PCOD9406336
_publ_section_title
;
Structure prediction by ZEFSAII (Michael W. Deem and Ramdas Pophale) SiO2 
 PCOD9406336
Probable space group: P M M A
;
_chemical_formula_sum "Si O2"
_cell_formula_units_Z 56
_cell_length_a 21.519752
_cell_length_b 7.858353
_cell_length_c 14.074857
_cell_angle_alpha 90.000000
_cell_angle_beta 90.000000
_cell_angle_gamma 90.000000
_cell_volume 2380.196361
_symmetry_space_group_name_H-M "P M M A"
_symmetry_group_IT_number 51
_symmetry_cell_setting 'orthorhombic'
loop_
_space_group_symop_operation_xyz
x,y,z
1/2-x,-y,z
1/2+x,-y,-z
-x,y,-z
-x,-y,-z
1/2+x,y,-z
1/2-x,y,z
x,-y,z
loop_
_atom_site_type_symbol
_atom_site_label
_atom_site_fract_x
_atom_site_fract_y
_atom_site_fract_z
Si Si1 0.863373 0.809827 0.645108
Si Si2 0.819596 0.698742 0.844614
Si Si3 0.004966 0.197741 0.602483
Si Si4 0.318181 0.705799 0.775642
Si Si5 0.050412 0.696687 0.072274
Si Si6 0.051252 0.796639 0.789242
Si Si7 0.822823 0.693103 0.440081
O O1 0.833475 0.704965 0.730872
O O2 0.937651 0.801224 0.650162
O O3 0.851383 0.775564 0.533763
O O4 0.841684 0.000000 0.665138
O O5 0.750000 0.770571 0.862784
O O6 0.817309 0.500000 0.871033
O O7 0.881563 0.768736 0.899159
O O8 0.000000 0.280975 0.500000
O O9 0.051099 0.268295 0.680313
O O10 0.024391 0.000000 0.587011
O O11 0.250000 0.758957 0.812282
O O12 0.317928 0.500000 0.772673
O O13 0.380220 0.762045 0.829799
O O14 0.323484 0.770066 0.666089
O O15 0.060056 0.500000 0.041142
O O16 0.005954 0.702088 0.163436
O O17 0.000000 0.781045 0.000000
O O18 0.039926 0.000000 0.790901
O O19 0.750000 0.685188 0.463140
O O20 0.846783 0.500000 0.435073
#
# Coordination Sequence:
#
# PCOD9406336 Si02
#       7
#     8   8   8   8   8   8   8
#     4  11  20  31  49  77 114 154 197 240 290 347
#     4  10  21  38  60  85 115 149 187 237 296 357
#     4   9  18  31  47  73 113 155 192 232 280 335
#     4   9  19  36  56  79 112 156 203 249 293 342
#     4  10  22  42  66  89 115 151 197 245 296 361
#     4  11  21  36  59  86 118 153 191 242 300 354
#     4   9  18  32  48  70 107 154 200 243 288 337
#
# _framework density 23.527471999999999
#
# number of rings (size 3 to 8) (size 9 to 14) (size 15 to 20)
#    0.000    2.143    1.429    3.000    0.000    4.571 
#    0.000    2.143    0.000    6.000    0.000    0.000 
#    0.000    0.000    0.000    0.000    0.000    0.000 
#
# Total GULP energy -311960.503819 kJ/mol
# GULP energy per Si atom -5570.723282 kJ/mol
# Density = 2.347392 g / cm^3
# Si number density = 23.527472 Si / 1000 Ang^3
#
#
#
# Elastic Constant Matrix: (Units=GPa)
#
#
# Indices 1 2 3 4 5 6 
#
# 1 150.7616 13.2372 2.5319 0.0000 0.0000 0.0000
# 2 13.2372 37.7324 -2.2218 0.0000 0.0000 0.0000
# 3 2.5319 -2.2218 22.9901 0.0000 0.0000 0.0000
# 4 0.0000 0.0000 0.0000 -435.3776 0.0000 0.0000
# 5 0.0000 0.0000 0.0000 0.0000 15.2066 0.0000
# 6 0.0000 0.0000 0.0000 0.0000 0.0000 -0.0890
#
#
#
# Elastic Compliance Matrix: (Units=1/GPa)
#
#
# Indices 1 2 3 4 5 6 
#
# 1 0.006866 -0.002467 -0.000995 0.000000 0.000000 0.000000
# 2 -0.002467 0.027541 0.002933 0.000000 0.000000 0.000000
# 3 -0.000995 0.002933 0.043890 0.000000 0.000000 0.000000
# 4 0.000000 0.000000 0.000000 -0.002297 0.000000 0.000000
# 5 0.000000 0.000000 0.000000 0.000000 0.065761 0.000000
# 6 0.000000 0.000000 0.000000 0.000000 0.000000-11.231035
#
#
# Mechanical properties :
#
#
# Convention : Reuss Voigt Hill
#
# Bulk Modulus (GPa) = 12.94672 26.50875 19.72774
# Shear Modulus (GPa) = -0.45198 -70.85622 -35.65410
#
# Velocity S-wave (km/s) = -0.43878 -5.49379 -3.89707
# Velocity P-wave (km/s) = 2.29305 5.38059 3.44185
#
# Compressibility (1/GPa) = 0.07723964
#
# Stress axis : x y z
#
# Youngs Moduli (GPa) = 145.63808 36.30983 22.78421
#
# Poissons Ratio (x) = 0.08959 0.02266
# Poissons Ratio (y) = 0.35935 -0.06683
# Poissons Ratio (z) = 0.14486 -0.10651
#
# Static dielectric constant tensor:
#      x y z
#    x 1.942130 0.000000 0.000000 
#    y 0.000000 1.885500 0.000000 
#    z 0.000000 0.000000 2.001360 
# 
# From -- ./inp_files/25629.got.cif
#   From: 2010.05.17/outbox.cif.g08.bks.cpg/sg51_13_cif.got.tgz:25629.got - 2010.06.03 11:52:47.
