data_PCOD9406722
_publ_section_title
;
Structure prediction by ZEFSAII (Michael W. Deem and Ramdas Pophale) SiO2 
 PCOD9406722
Probable space group: P M M A
;
_chemical_formula_sum "Si O2"
_cell_formula_units_Z 56
_cell_length_a 21.122728
_cell_length_b 15.241698
_cell_length_c 9.582618
_cell_angle_alpha 90.000000
_cell_angle_beta 90.000000
_cell_angle_gamma 90.000000
_cell_volume 3085.087845
_symmetry_space_group_name_H-M "P M M A"
_symmetry_group_IT_number 51
_symmetry_cell_setting 'orthorhombic'
loop_
_space_group_symop_operation_xyz
x,y,z
1/2-x,-y,z
1/2+x,-y,-z
-x,y,-z
-x,-y,-z
1/2+x,y,-z
1/2-x,y,z
x,-y,z
loop_
_atom_site_type_symbol
_atom_site_label
_atom_site_fract_x
_atom_site_fract_y
_atom_site_fract_z
Si Si1 0.380252 0.289418 0.722507
Si Si2 0.893202 0.721244 0.743853
Si Si3 0.492758 0.598643 0.834369
Si Si4 0.674177 0.192970 0.009773
Si Si5 0.175462 0.400701 0.474049
Si Si6 0.172911 0.000000 0.580829
Si Si7 0.073183 0.149593 0.503081
Si Si8 0.325290 0.000000 0.916354
O O1 0.426473 0.358410 0.795317
O O2 0.341942 0.239045 0.842736
O O3 0.339827 0.344891 0.612175
O O4 0.419569 0.219350 0.629777
O O5 0.849446 0.655372 0.655783
O O6 0.913230 0.799441 0.640545
O O7 0.954073 0.663929 0.780141
O O8 0.859871 0.758214 0.882212
O O9 0.498937 0.500000 0.776967
O O10 0.500000 0.594255 0.000000
O O11 0.750000 0.193950 0.989628
O O12 0.650884 0.091757 0.021240
O O13 0.250000 0.407842 0.461498
O O14 0.148439 0.500000 0.479603
O O15 0.131307 0.918125 0.525312
O O16 0.250000 0.000000 0.549318
O O17 0.166919 0.000000 0.749077
O O18 0.000000 0.115886 0.500000
O O19 0.250000 0.000000 0.941444
#
# Coordination Sequence:
#
# PCOD9406722 Si02
#       8
#     8   8   8   8   8   4   8   4
#     4  11  21  38  64  89 118 162 212 251 306 370
#     4  11  23  39  62  90 123 162 204 254 323 373
#     4  11  22  38  62  90 122 159 207 260 308 367
#     4  11  22  39  63  91 125 160 206 261 310 378
#     4  10  22  39  57  85 125 162 201 252 311 377
#     4  11  23  40  65  93 126 169 215 257 310 377
#     4  11  23  40  64  93 129 167 205 262 313 372
#     4   9  20  38  61  89 118 157 203 255 306 361
#
# _framework density 18.151833
#
# number of rings (size 3 to 8) (size 9 to 14) (size 15 to 20)
#    0.000    1.286    4.286    1.929    0.000    3.429 
#    0.000    2.857    0.000    5.143    0.000    0.000 
#    0.000    0.000    0.000    0.000    0.000    0.000 
#
# Total GULP energy -312403.953462 kJ/mol
# GULP energy per Si atom -5578.642026 kJ/mol
# Density = 1.811052 g / cm^3
# Si number density = 18.151833 Si / 1000 Ang^3
#
#
#
# Elastic Constant Matrix: (Units=GPa)
#
#
# Indices 1 2 3 4 5 6 
#
# 1 69.9777 25.3332 -1.7287 0.0000 0.0000 0.0000
# 2 25.3332 119.7356 30.2850 0.0000 0.0000 0.0000
# 3 -1.7287 30.2850 57.7092 0.0000 0.0000 0.0000
# 4 0.0000 0.0000 0.0000 102.0887 0.0000 0.0000
# 5 0.0000 0.0000 0.0000 0.0000 18.3373 0.0000
# 6 0.0000 0.0000 0.0000 0.0000 0.0000 30.3629
#
#
#
# Elastic Compliance Matrix: (Units=1/GPa)
#
#
# Indices 1 2 3 4 5 6 
#
# 1 0.015799 -0.003992 0.002568 0.000000 0.000000 0.000000
# 2 -0.003992 0.010639 -0.005703 0.000000 0.000000 0.000000
# 3 0.002568 -0.005703 0.020398 0.000000 0.000000 0.000000
# 4 0.000000 0.000000 0.000000 0.009795 0.000000 0.000000
# 5 0.000000 0.000000 0.000000 0.000000 0.054534 0.000000
# 6 0.000000 0.000000 0.000000 0.000000 0.000000 0.032935
#
#
# Mechanical properties :
#
#
# Convention : Reuss Voigt Hill
#
# Bulk Modulus (GPa) = 30.69136 39.46683 35.07910
# Shear Modulus (GPa) = 29.54843 43.05998 36.30420
#
# Velocity S-wave (km/s) = 4.03904 4.87582 4.47702
# Velocity P-wave (km/s) = 6.22066 7.31355 6.78913
#
# Compressibility (1/GPa) = 0.03258246
#
# Stress axis : x y z
#
# Youngs Moduli (GPa) = 63.29508 93.99548 49.02466
#
# Poissons Ratio (x) = 0.37526 -0.12591
# Poissons Ratio (y) = 0.25269 0.27957
# Poissons Ratio (z) = -0.16257 0.53603
#
# Static dielectric constant tensor:
#      x y z
#    x 1.601500 0.000000 0.000000 
#    y 0.000000 1.676410 0.000000 
#    z 0.000000 0.000000 1.601650 
# 
# From -- ./inp_files/11070.got.cif
#   From: 2010.05.17/outbox.cif.g08.bks.cpg/sg51_6_cif.got.tgz:11070.got - 2010.06.03 11:52:47.
