data_PCOD9406633
_publ_section_title
;
Structure prediction by ZEFSAII (Michael W. Deem and Ramdas Pophale) SiO2 
 PCOD9406633
Probable space group: P M M A
;
_chemical_formula_sum "Si O2"
_cell_formula_units_Z 40
_cell_length_a 8.484835
_cell_length_b 26.327704
_cell_length_c 9.423826
_cell_angle_alpha 90.000000
_cell_angle_beta 90.000000
_cell_angle_gamma 90.000000
_cell_volume 2105.152909
_symmetry_space_group_name_H-M "P M M A"
_symmetry_group_IT_number 51
_symmetry_cell_setting 'orthorhombic'
loop_
_space_group_symop_operation_xyz
x,y,z
1/2-x,-y,z
1/2+x,-y,-z
-x,y,-z
-x,-y,-z
1/2+x,y,-z
1/2-x,y,z
x,-y,z
loop_
_atom_site_type_symbol
_atom_site_label
_atom_site_fract_x
_atom_site_fract_y
_atom_site_fract_z
Si Si1 0.940438 0.942504 0.158710
Si Si2 0.560802 0.653272 0.659676
Si Si3 0.060795 0.748455 0.839545
Si Si4 0.559693 0.557583 0.841800
Si Si5 0.940386 0.846825 0.340381
O O1 0.750000 0.941870 0.156208
O O2 0.994375 0.899246 0.267092
O O3 0.991329 0.000000 0.195925
O O4 0.000000 0.931410 0.000000
O O5 0.500000 0.658109 0.500000
O O6 0.750000 0.654047 0.658511
O O7 0.500704 0.699527 0.755508
O O8 0.507205 0.600330 0.731412
O O9 0.250000 0.747358 0.841238
O O10 0.009106 0.799111 0.755594
O O11 0.000000 0.748853 0.000000
O O12 0.750000 0.557874 0.844637
O O13 0.507695 0.500000 0.806877
O O14 0.500000 0.569661 0.000000
O O15 0.750000 0.847059 0.342682
O O16 0.000000 0.841898 0.500000
#
# Coordination Sequence:
#
# PCOD9406633 Si02
#       5
#     8   8   8   8   8
#     4   9  18  34  55  79 107 139 178 222 266 315
#     4  11  23  38  57  82 113 146 182 225 273 324
#     4  11  23  39  59  82 109 142 182 225 271 324
#     4   9  19  36  57  81 109 142 181 224 269 319
#     4  10  22  37  54  79 110 143 178 220 269 320
#
# _framework density 19.000993999999999
#
# number of rings (size 3 to 8) (size 9 to 14) (size 15 to 20)
#    0.000    2.000    0.000    3.000    0.000    8.000 
#    0.000    0.000    0.000    0.000    0.000    0.000 
#    0.000    0.000    0.000    0.000    0.000    0.000 
#
# Total GULP energy -223451.612969 kJ/mol
# GULP energy per Si atom -5586.290324 kJ/mol
# Density = 1.895775 g / cm^3
# Si number density = 19.000994 Si / 1000 Ang^3
#
#
#
# Elastic Constant Matrix: (Units=GPa)
#
#
# Indices 1 2 3 4 5 6 
#
# 1 21.8635 33.4898 30.0939 0.0000 0.0000 0.0000
# 2 33.4898 159.2011 131.2777 0.0000 0.0000 0.0000
# 3 30.0939 131.2777 194.2065 0.0000 0.0000 0.0000
# 4 0.0000 0.0000 0.0000 24.5255 0.0000 0.0000
# 5 0.0000 0.0000 0.0000 0.0000 37.3080 0.0000
# 6 0.0000 0.0000 0.0000 0.0000 0.0000 8.2376
#
#
#
# Elastic Compliance Matrix: (Units=1/GPa)
#
#
# Indices 1 2 3 4 5 6 
#
# 1 0.067810 -0.012652 -0.001955 0.000000 0.000000 0.000000
# 2 -0.012652 0.016553 -0.009229 0.000000 0.000000 0.000000
# 3 -0.001955 -0.009229 0.011690 0.000000 0.000000 0.000000
# 4 0.000000 0.000000 0.000000 0.040774 0.000000 0.000000
# 5 0.000000 0.000000 0.000000 0.000000 0.026804 0.000000
# 6 0.000000 0.000000 0.000000 0.000000 0.000000 0.121394
#
#
# Mechanical properties :
#
#
# Convention : Reuss Voigt Hill
#
# Bulk Modulus (GPa) = 20.66931 84.99934 52.83432
# Shear Modulus (GPa) = 14.33386 26.04153 20.18769
#
# Velocity S-wave (km/s) = 2.74957 3.70609 3.26307
# Velocity P-wave (km/s) = 4.58059 7.94637 6.48562
#
# Compressibility (1/GPa) = 0.04838090
#
# Stress axis : x y z
#
# Youngs Moduli (GPa) = 14.74711 60.41217 85.54008
#
# Poissons Ratio (x) = 0.76436 0.16723
# Poissons Ratio (y) = 0.18659 0.78942
# Poissons Ratio (z) = 0.02883 0.55753
#
# Static dielectric constant tensor:
#      x y z
#    x 1.655110 0.000000 0.000000 
#    y 0.000000 1.672700 0.000000 
#    z 0.000000 0.000000 1.603400 
# 
# From -- ./inp_files/5213.got.cif
#   From: 2010.05.17/outbox.cif.g08.bks.cpg/sg51_3_cif.got.tgz:5213.got - 2010.06.03 11:52:47.
