data_PCOD9406334
_publ_section_title
;
Structure prediction by ZEFSAII (Michael W. Deem and Ramdas Pophale) SiO2 
 PCOD9406334
Probable space group: P M M A
;
_chemical_formula_sum "Si O2"
_cell_formula_units_Z 40
_cell_length_a 9.249303
_cell_length_b 14.299130
_cell_length_c 15.168784
_cell_angle_alpha 90.000000
_cell_angle_beta 90.000000
_cell_angle_gamma 90.000000
_cell_volume 2006.177653
_symmetry_space_group_name_H-M "P M M A"
_symmetry_group_IT_number 51
_symmetry_cell_setting 'orthorhombic'
loop_
_space_group_symop_operation_xyz
x,y,z
1/2-x,-y,z
1/2+x,-y,-z
-x,y,-z
-x,-y,-z
1/2+x,y,-z
1/2-x,y,z
x,-y,z
loop_
_atom_site_type_symbol
_atom_site_label
_atom_site_fract_x
_atom_site_fract_y
_atom_site_fract_z
Si Si1 0.579553 0.608808 0.236264
Si Si2 0.084475 0.114003 0.588080
Si Si3 0.083034 0.112599 0.234188
Si Si4 0.914019 0.385854 0.586945
Si Si5 0.077369 0.765888 0.906229
O O1 0.750000 0.615422 0.257361
O O2 0.546083 0.500000 0.218401
O O3 0.491365 0.639744 0.322078
O O4 0.551612 0.672748 0.151899
O O5 0.250000 0.147769 0.590065
O O6 0.000000 0.141908 0.500000
O O7 0.996935 0.140621 0.675451
O O8 0.089692 0.000000 0.587297
O O9 0.250000 0.144427 0.232961
O O10 0.994187 0.152885 0.152370
O O11 0.083312 0.000000 0.231119
O O12 0.750000 0.352130 0.584410
O O13 0.911938 0.500000 0.585676
O O14 0.000000 0.356594 0.500000
O O15 0.250000 0.778992 0.915623
O O16 0.000000 0.760292 0.000000
#
# Coordination Sequence:
#
# PCOD9406334 Si02
#       5
#     8   8   8   8   8
#     4   9  19  37  59  83 113 148 185 226 274 329
#     4   9  16  28  50  81 116 152 188 226 271 326
#     4  10  21  38  60  85 114 149 188 231 280 333
#     4   9  16  27  48  79 113 149 186 224 269 322
#     4  11  24  41  61  84 111 144 184 233 286 337
#
# _framework density 19.938412
#
# number of rings (size 3 to 8) (size 9 to 14) (size 15 to 20)
#    0.000    2.400    0.000    2.400    0.000    8.400 
#    0.000    1.000    0.000    4.800    0.000    0.000 
#    0.000    0.000    0.000    0.000    0.000    0.000 
#
# Total GULP energy -223592.693108 kJ/mol
# GULP energy per Si atom -5589.817328 kJ/mol
# Density = 1.989303 g / cm^3
# Si number density = 19.938412 Si / 1000 Ang^3
#
#
#
# Elastic Constant Matrix: (Units=GPa)
#
#
# Indices 1 2 3 4 5 6 
#
# 1 163.3621 44.1679 129.2947 0.0000 0.0000 0.0000
# 2 44.1679 63.0504 36.6700 0.0000 0.0000 0.0000
# 3 129.2947 36.6700 211.8542 0.0000 0.0000 0.0000
# 4 0.0000 0.0000 0.0000 26.0868 0.0000 0.0000
# 5 0.0000 0.0000 0.0000 0.0000 44.2085 0.0000
# 6 0.0000 0.0000 0.0000 0.0000 0.0000 7.9905
#
#
#
# Elastic Compliance Matrix: (Units=1/GPa)
#
#
# Indices 1 2 3 4 5 6 
#
# 1 0.013144 -0.005051 -0.007147 0.000000 0.000000 0.000000
# 2 -0.005051 0.019576 -0.000306 0.000000 0.000000 0.000000
# 3 -0.007147 -0.000306 0.009135 0.000000 0.000000 0.000000
# 4 0.000000 0.000000 0.000000 0.038334 0.000000 0.000000
# 5 0.000000 0.000000 0.000000 0.000000 0.022620 0.000000
# 6 0.000000 0.000000 0.000000 0.000000 0.000000 0.125148
#
#
# Mechanical properties :
#
#
# Convention : Reuss Voigt Hill
#
# Bulk Modulus (GPa) = 59.35703 95.39245 77.37474
# Shear Modulus (GPa) = 19.33629 30.86610 25.10120
#
# Velocity S-wave (km/s) = 3.11754 3.93882 3.55200
# Velocity P-wave (km/s) = 6.54168 8.28452 7.46414
#
# Compressibility (1/GPa) = 0.01684720
#
# Stress axis : x y z
#
# Youngs Moduli (GPa) = 76.08134 51.08200 109.46511
#
# Poissons Ratio (x) = 0.25799 0.78240
# Poissons Ratio (y) = 0.38425 0.03351
# Poissons Ratio (z) = 0.54379 0.01564
#
# Static dielectric constant tensor:
#      x y z
#    x 1.676200 0.000000 0.000000 
#    y 0.000000 1.756540 0.000000 
#    z 0.000000 0.000000 1.640320 
# 
# From -- ./inp_files/14022.got.cif
#   From: 2010.05.17/outbox.cif.g08.bks.cpg/sg51_8_cif.got.tgz:14022.got - 2010.06.03 11:52:47.
