data_PCOD9406687
_publ_section_title
;
Structure prediction by ZEFSAII (Michael W. Deem and Ramdas Pophale) SiO2 
 PCOD9406687
Probable space group: P M M A
;
_chemical_formula_sum "Si O2"
_cell_formula_units_Z 32
_cell_length_a 10.738950
_cell_length_b 14.878646
_cell_length_c 9.772708
_cell_angle_alpha 90.000000
_cell_angle_beta 90.000000
_cell_angle_gamma 90.000000
_cell_volume 1561.493404
_symmetry_space_group_name_H-M "P M M A"
_symmetry_group_IT_number 51
_symmetry_cell_setting 'orthorhombic'
loop_
_space_group_symop_operation_xyz
x,y,z
1/2-x,-y,z
1/2+x,-y,-z
-x,y,-z
-x,-y,-z
1/2+x,y,-z
1/2-x,y,z
x,-y,z
loop_
_atom_site_type_symbol
_atom_site_label
_atom_site_fract_x
_atom_site_fract_y
_atom_site_fract_z
Si Si1 0.884407 0.106791 0.084653
Si Si2 0.392054 0.391656 0.104521
Si Si3 0.961845 0.097873 0.657328
Si Si4 0.611029 0.707751 0.611214
O O1 0.750000 0.146580 0.054121
O O2 0.919845 0.111739 0.243980
O O3 0.878187 0.000000 0.052585
O O4 0.000000 0.144463 0.000000
O O5 0.250000 0.366509 0.063315
O O6 0.396264 0.500000 0.111106
O O7 0.413756 0.352635 0.255905
O O8 0.500000 0.362300 0.000000
O O9 0.886075 0.189179 0.664810
O O10 0.000000 0.091434 0.500000
O O11 0.906516 0.000000 0.697290
O O12 0.500000 0.699882 0.500000
O O13 0.750000 0.686408 0.556243
#
# Coordination Sequence:
#
# PCOD9406687 Si02
#       4
#     8   8   8   8
#     4   9  18  33  52  74 101 135 178 228 280 332
#     4   9  19  38  63  89 116 146 183 228 278 335
#     4   9  19  35  54  76 106 147 193 237 278 322
#     4  10  22  38  56  83 116 149 188 233 281 334
#
# _framework density 20.493202
#
# number of rings (size 3 to 8) (size 9 to 14) (size 15 to 20)
#    0.000    2.750    0.000    0.000    0.000    8.000 
#    0.000   10.000    0.000    0.000    0.000    0.000 
#    0.000    0.000    0.000    0.000    0.000    0.000 
#
# Total GULP energy -178323.789710 kJ/mol
# GULP energy per Si atom -5572.618428 kJ/mol
# Density = 2.044656 g / cm^3
# Si number density = 20.493202 Si / 1000 Ang^3
#
#
#
# Elastic Constant Matrix: (Units=GPa)
#
#
# Indices 1 2 3 4 5 6 
#
# 1 210.5319 36.2042 96.4972 0.0000 0.0000 0.0000
# 2 36.2042 54.3659 29.5048 0.0000 0.0000 0.0000
# 3 96.4972 29.5048 97.7828 0.0000 0.0000 0.0000
# 4 0.0000 0.0000 0.0000 42.7703 0.0000 0.0000
# 5 0.0000 0.0000 0.0000 0.0000 21.6179 0.0000
# 6 0.0000 0.0000 0.0000 0.0000 0.0000 0.5511
#
#
#
# Elastic Compliance Matrix: (Units=1/GPa)
#
#
# Indices 1 2 3 4 5 6 
#
# 1 0.008757 -0.001365 -0.008230 0.000000 0.000000 0.000000
# 2 -0.001365 0.022209 -0.005354 0.000000 0.000000 0.000000
# 3 -0.008230 -0.005354 0.019964 0.000000 0.000000 0.000000
# 4 0.000000 0.000000 0.000000 0.023381 0.000000 0.000000
# 5 0.000000 0.000000 0.000000 0.000000 0.046258 0.000000
# 6 0.000000 0.000000 0.000000 0.000000 0.000000 1.814499
#
#
# Mechanical properties :
#
#
# Convention : Reuss Voigt Hill
#
# Bulk Modulus (GPa) = 47.54783 76.34368 61.94576
# Shear Modulus (GPa) = 2.53553 26.35282 14.44418
#
# Velocity S-wave (km/s) = 1.11353 3.58988 2.65774
# Velocity P-wave (km/s) = 4.99053 7.38356 6.30168
#
# Compressibility (1/GPa) = 0.02103145
#
# Stress axis : x y z
#
# Youngs Moduli (GPa) = 114.19850 45.02760 50.09091
#
# Poissons Ratio (x) = 0.06147 0.41223
# Poissons Ratio (y) = 0.15589 0.26819
# Poissons Ratio (z) = 0.93981 0.24108
#
# Static dielectric constant tensor:
#      x y z
#    x 1.753370 0.000000 0.000000 
#    y 0.000000 1.752170 0.000000 
#    z 0.000000 0.000000 1.706010 
# 
# From -- ./inp_files/6639.got.cif
#   From: 2010.05.17/outbox.cif.g08.bks.cpg/sg51_4_cif.got.tgz:6639.got - 2010.06.03 11:52:47.
