data_PCOD9406341
_publ_section_title
;
Structure prediction by ZEFSAII (Michael W. Deem and Ramdas Pophale) SiO2 
 PCOD9406341
Probable space group: P M M A
;
_chemical_formula_sum "Si O2"
_cell_formula_units_Z 56
_cell_length_a 23.661644
_cell_length_b 13.547904
_cell_length_c 9.247615
_cell_angle_alpha 90.000000
_cell_angle_beta 90.000000
_cell_angle_gamma 90.000000
_cell_volume 2964.468004
_symmetry_space_group_name_H-M "P M M A"
_symmetry_group_IT_number 51
_symmetry_cell_setting 'orthorhombic'
loop_
_space_group_symop_operation_xyz
x,y,z
1/2-x,-y,z
1/2+x,-y,-z
-x,y,-z
-x,-y,-z
1/2+x,y,-z
1/2-x,y,z
x,-y,z
loop_
_atom_site_type_symbol
_atom_site_label
_atom_site_fract_x
_atom_site_fract_y
_atom_site_fract_z
Si Si1 0.335917 0.612461 0.832255
Si Si2 0.887518 0.115173 0.260765
Si Si3 0.312576 0.812871 0.993231
Si Si4 0.561621 0.614602 0.973783
Si Si5 0.879747 0.752727 0.742915
Si Si6 0.012321 0.113969 0.328788
Si Si7 0.317200 0.730530 0.551448
O O1 0.317481 0.500000 0.862443
O O2 0.310181 0.700655 0.928915
O O3 0.325276 0.642088 0.666938
O O4 0.401459 0.618533 0.880045
O O5 0.857624 0.131985 0.107269
O O6 0.953026 0.147776 0.257779
O O7 0.850181 0.178213 0.372918
O O8 0.887523 0.000000 0.301106
O O9 0.250000 0.855532 0.979939
O O10 0.334776 0.809207 0.155935
O O11 0.555254 0.500000 0.933585
O O12 0.595107 0.668589 0.847022
O O13 0.500000 0.658448 0.000000
O O14 0.847758 0.714157 0.601098
O O15 0.932962 0.821265 0.703477
O O16 0.000000 0.116551 0.500000
O O17 0.022616 0.000000 0.286150
O O18 0.250000 0.748956 0.536553
#
# Coordination Sequence:
#
# PCOD9406341 Si02
#       7
#     8   8   8   8   8   8   8
#     4   9  19  37  59  83 112 150 194 233 275 328
#     4  10  21  39  61  84 111 148 192 237 282 333
#     4  10  22  38  57  85 116 151 194 232 277 340
#     4   9  20  37  58  85 117 150 188 231 281 343
#     4  11  23  36  60  83 120 153 183 231 299 331
#     4  10  21  38  60  86 115 145 188 236 283 344
#     4  11  23  37  56  86 116 149 193 234 279 340
#
# _framework density 18.890405999999999
#
# number of rings (size 3 to 8) (size 9 to 14) (size 15 to 20)
#    0.000    2.000    1.429    2.143    6.000    3.429 
#    0.000    1.429    0.000    8.143    0.000    0.000 
#    0.000    0.000    0.000    0.000    0.000    0.000 
#
# Total GULP energy -312339.153622 kJ/mol
# GULP energy per Si atom -5577.484886 kJ/mol
# Density = 1.884741 g / cm^3
# Si number density = 18.890406 Si / 1000 Ang^3
#
#
#
# Elastic Constant Matrix: (Units=GPa)
#
#
# Indices 1 2 3 4 5 6 
#
# 1 140.4511 21.6318 45.1210 0.0000 0.0000 0.0000
# 2 21.6318 49.4163 3.0949 0.0000 0.0000 0.0000
# 3 45.1210 3.0949 96.5712 0.0000 0.0000 0.0000
# 4 0.0000 0.0000 0.0000 13.7331 0.0000 0.0000
# 5 0.0000 0.0000 0.0000 0.0000 19.3677 0.0000
# 6 0.0000 0.0000 0.0000 0.0000 0.0000 7.6253
#
#
#
# Elastic Compliance Matrix: (Units=1/GPa)
#
#
# Indices 1 2 3 4 5 6 
#
# 1 0.009000 -0.003684 -0.004087 0.000000 0.000000 0.000000
# 2 -0.003684 0.021785 0.001023 0.000000 0.000000 0.000000
# 3 -0.004087 0.001023 0.012232 0.000000 0.000000 0.000000
# 4 0.000000 0.000000 0.000000 0.072817 0.000000 0.000000
# 5 0.000000 0.000000 0.000000 0.000000 0.051632 0.000000
# 6 0.000000 0.000000 0.000000 0.000000 0.000000 0.131142
#
#
# Mechanical properties :
#
#
# Convention : Reuss Voigt Hill
#
# Bulk Modulus (GPa) = 33.87413 47.34822 40.61117
# Shear Modulus (GPa) = 15.53063 22.58462 19.05763
#
# Velocity S-wave (km/s) = 2.87042 3.46144 3.17969
# Velocity P-wave (km/s) = 5.38113 6.41050 5.91824
#
# Compressibility (1/GPa) = 0.02952106
#
# Stress axis : x y z
#
# Youngs Moduli (GPa) = 111.10710 45.90363 81.75340
#
# Poissons Ratio (x) = 0.16910 0.33414
# Poissons Ratio (y) = 0.40931 -0.08364
# Poissons Ratio (z) = 0.45411 -0.04696
#
# Static dielectric constant tensor:
#      x y z
#    x 1.676080 0.000000 0.000000 
#    y 0.000000 1.665820 0.000000 
#    z 0.000000 0.000000 1.644810 
# 
# From -- ./inp_files/11043.got.cif
#   From: 2010.05.17/outbox.cif.g08.bks.cpg/sg51_6_cif.got.tgz:11043.got - 2010.06.03 11:52:47.
