data_PCOD9406907
_publ_section_title
;
Structure prediction by ZEFSAII (Michael W. Deem and Ramdas Pophale) SiO2 
 PCOD9406907
Probable space group: P M M A
;
_chemical_formula_sum "Si O2"
_cell_formula_units_Z 56
_cell_length_a 7.719732
_cell_length_b 20.964612
_cell_length_c 15.666852
_cell_angle_alpha 90.000000
_cell_angle_beta 90.000000
_cell_angle_gamma 90.000000
_cell_volume 2535.541911
_symmetry_space_group_name_H-M "P M M A"
_symmetry_group_IT_number 51
_symmetry_cell_setting 'orthorhombic'
loop_
_space_group_symop_operation_xyz
x,y,z
1/2-x,-y,z
1/2+x,-y,-z
-x,y,-z
-x,-y,-z
1/2+x,y,-z
1/2-x,y,z
x,-y,z
loop_
_atom_site_type_symbol
_atom_site_label
_atom_site_fract_x
_atom_site_fract_y
_atom_site_fract_z
Si Si1 0.043247 0.568532 0.149605
Si Si2 0.955600 0.843221 0.906272
Si Si3 0.544128 0.071817 0.254184
Si Si4 0.956675 0.431803 0.643049
Si Si5 0.043409 0.295956 0.349183
Si Si6 0.537765 0.706686 0.848408
Si Si7 0.544887 0.157698 0.406986
O O1 0.250000 0.567504 0.133366
O O2 0.971328 0.500000 0.119460
O O3 0.024765 0.569704 0.253230
O O4 0.976590 0.637299 0.118670
O O5 0.750000 0.840069 0.896705
O O6 0.023120 0.770604 0.894777
O O7 0.021202 0.889464 0.832818
O O8 0.000000 0.866898 0.000000
O O9 0.750000 0.066466 0.268733
O O10 0.469973 0.114640 0.331068
O O11 0.473101 0.000000 0.250461
O O12 0.750000 0.433665 0.625716
O O13 0.030281 0.500000 0.613080
O O14 0.026900 0.363054 0.614017
O O15 0.250000 0.304037 0.344008
O O16 0.983921 0.287304 0.251046
O O17 0.010698 0.231122 0.398434
O O18 0.750000 0.705328 0.850550
O O19 0.500000 0.132257 0.500000
O O20 0.750000 0.158455 0.398073
#
# Coordination Sequence:
#
# PCOD9406907 Si02
#       7
#     8   8   8   8   8   8   8
#     4   7   9  15  31  60  97 134 175 223 271 318
#     4  11  22  37  59  87 119 153 191 231 276 329
#     4  10  23  44  66  88 115 145 180 225 276 331
#     4   7  10  17  35  67 102 135 175 225 277 324
#     4   9  15  28  51  77 108 144 185 232 278 328
#     4   8  14  25  45  73 105 142 184 229 274 322
#     4  11  23  38  59  86 116 148 184 225 274 331
#
# _framework density 22.086006999999999
#
# number of rings (size 3 to 8) (size 9 to 14) (size 15 to 20)
#    0.000    3.000    1.429    3.429    0.000    1.429 
#    0.000    0.000    0.000    1.286    0.000    0.000 
#    0.000    1.714    0.000    0.000    0.000    0.429 
#
# Total GULP energy -312258.353639 kJ/mol
# GULP energy per Si atom -5576.042029 kJ/mol
# Density = 2.203574 g / cm^3
# Si number density = 22.086007 Si / 1000 Ang^3
#
#
#
# Elastic Constant Matrix: (Units=GPa)
#
#
# Indices 1 2 3 4 5 6 
#
# 1 31.5819 6.7793 -9.8374 0.0000 0.0000 0.0000
# 2 6.7793 200.6162 67.4212 0.0000 0.0000 0.0000
# 3 -9.8374 67.4212 94.2702 0.0000 0.0000 0.0000
# 4 0.0000 0.0000 0.0000 -9.7005 0.0000 0.0000
# 5 0.0000 0.0000 0.0000 0.0000 6.6204 0.0000
# 6 0.0000 0.0000 0.0000 0.0000 0.0000 14.8609
#
#
#
# Elastic Compliance Matrix: (Units=1/GPa)
#
#
# Indices 1 2 3 4 5 6 
#
# 1 0.034126 -0.003094 0.005774 0.000000 0.000000 0.000000
# 2 -0.003094 0.006842 -0.005216 0.000000 0.000000 0.000000
# 3 0.005774 -0.005216 0.014941 0.000000 0.000000 0.000000
# 4 0.000000 0.000000 0.000000 -0.103087 0.000000 0.000000
# 5 0.000000 0.000000 0.000000 0.000000 0.151049 0.000000
# 6 0.000000 0.000000 0.000000 0.000000 0.000000 0.067291
#
#
# Mechanical properties :
#
#
# Convention : Reuss Voigt Hill
#
# Bulk Modulus (GPa) = 19.67074 50.57717 35.12396
# Shear Modulus (GPa) = 25.88259 19.82982 22.85621
#
# Velocity S-wave (km/s) = 3.42702 2.99966 3.22043
# Velocity P-wave (km/s) = 4.95833 5.91161 5.45583
#
# Compressibility (1/GPa) = 0.05083692
#
# Stress axis : x y z
#
# Youngs Moduli (GPa) = 29.30304 146.15092 66.92994
#
# Poissons Ratio (x) = 0.45213 -0.38643
# Poissons Ratio (y) = 0.09065 0.34913
# Poissons Ratio (z) = -0.16919 0.76237
#
# Static dielectric constant tensor:
#      x y z
#    x 1.831800 0.000000 0.000000 
#    y 0.000000 1.872240 0.000000 
#    z 0.000000 0.000000 1.774100 
# 
# From -- ./inp_files/21867.got.cif
#   From: 2010.05.17/outbox.cif.g08.bks.cpg/sg51_11_cif.got.tgz:21867.got - 2010.06.03 11:52:47.
