data_PCOD9406131
_publ_section_title
;
Structure prediction by ZEFSAII (Michael W. Deem and Ramdas Pophale) SiO2 
 PCOD9406131
Probable space group: P M M A
;
_chemical_formula_sum "Si O2"
_cell_formula_units_Z 36
_cell_length_a 9.291858
_cell_length_b 7.816252
_cell_length_c 25.520441
_cell_angle_alpha 90.000000
_cell_angle_beta 90.000000
_cell_angle_gamma 90.000000
_cell_volume 1853.485923
_symmetry_space_group_name_H-M "P M M A"
_symmetry_group_IT_number 51
_symmetry_cell_setting 'orthorhombic'
loop_
_space_group_symop_operation_xyz
x,y,z
1/2-x,-y,z
1/2+x,-y,-z
-x,y,-z
-x,-y,-z
1/2+x,y,-z
1/2-x,y,z
x,-y,z
loop_
_atom_site_type_symbol
_atom_site_label
_atom_site_fract_x
_atom_site_fract_y
_atom_site_fract_z
Si Si1 0.414060 0.206039 0.242247
Si Si2 0.422028 0.798725 0.863743
Si Si3 0.912531 0.795613 0.549917
Si Si4 0.577591 0.500000 0.055494
Si Si5 0.413085 0.296632 0.653300
O O1 0.250000 0.270657 0.244617
O O2 0.493840 0.255559 0.188637
O O3 0.504370 0.256899 0.293054
O O4 0.408613 0.000000 0.241885
O O5 0.250000 0.785664 0.854319
O O6 0.458867 0.669095 0.910505
O O7 0.453376 0.000000 0.874898
O O8 0.750000 0.726516 0.552751
O O9 0.000000 0.726152 0.500000
O O10 0.998171 0.767446 0.603457
O O11 0.901391 0.000000 0.542786
O O12 0.750000 0.500000 0.047969
O O13 0.500000 0.500000 0.000000
O O14 0.250000 0.226761 0.654043
O O15 0.404649 0.500000 0.648413
#
# Coordination Sequence:
#
# PCOD9406131 Si02
#       5
#     8   8   8   4   8
#     4  10  21  37  58  85 114 145 185 234 287 341
#     4   9  19  37  59  83 115 155 195 239 290 344
#     4  10  21  38  60  83 107 140 184 232 282 338
#     4  10  22  38  58  86 118 154 197 240 287 344
#     4  11  24  38  54  80 113 149 187 228 279 338
#
# _framework density 19.422861000000001
#
# number of rings (size 3 to 8) (size 9 to 14) (size 15 to 20)
#    0.000    2.000    0.000    2.667    1.556    8.889 
#    0.000    0.000    0.000    0.000    0.000    0.000 
#    0.000    0.000    0.000    0.000    0.000    0.000 
#
# Total GULP energy -201078.083278 kJ/mol
# GULP energy per Si atom -5585.502313 kJ/mol
# Density = 1.937865 g / cm^3
# Si number density = 19.422861 Si / 1000 Ang^3
#
#
#
# Elastic Constant Matrix: (Units=GPa)
#
#
# Indices 1 2 3 4 5 6 
#
# 1 155.3790 38.8278 113.1993 0.0000 0.0000 0.0000
# 2 38.8278 50.9457 44.9107 0.0000 0.0000 0.0000
# 3 113.1993 44.9107 195.4372 0.0000 0.0000 0.0000
# 4 0.0000 0.0000 0.0000 40.6007 0.0000 0.0000
# 5 0.0000 0.0000 0.0000 0.0000 44.5003 0.0000
# 6 0.0000 0.0000 0.0000 0.0000 0.0000 3.2497
#
#
#
# Elastic Compliance Matrix: (Units=1/GPa)
#
#
# Indices 1 2 3 4 5 6 
#
# 1 0.011659 -0.003678 -0.005908 0.000000 0.000000 0.000000
# 2 -0.003678 0.025775 -0.003793 0.000000 0.000000 0.000000
# 3 -0.005908 -0.003793 0.009410 0.000000 0.000000 0.000000
# 4 0.000000 0.000000 0.000000 0.024630 0.000000 0.000000
# 5 0.000000 0.000000 0.000000 0.000000 0.022472 0.000000
# 6 0.000000 0.000000 0.000000 0.000000 0.000000 0.307717
#
#
# Mechanical properties :
#
#
# Convention : Reuss Voigt Hill
#
# Bulk Modulus (GPa) = 49.78218 88.40418 69.09318
# Shear Modulus (GPa) = 11.49118 31.32510 21.40814
#
# Velocity S-wave (km/s) = 2.43499 4.02032 3.32356
# Velocity P-wave (km/s) = 5.79585 8.19542 7.09778
#
# Compressibility (1/GPa) = 0.02008751
#
# Stress axis : x y z
#
# Youngs Moduli (GPa) = 85.77030 38.79681 106.26719
#
# Poissons Ratio (x) = 0.14269 0.62782
# Poissons Ratio (y) = 0.31544 0.40306
# Poissons Ratio (z) = 0.50672 0.14715
#
# Static dielectric constant tensor:
#      x y z
#    x 1.686510 0.000000 0.000000 
#    y 0.000000 1.697530 0.000000 
#    z 0.000000 0.000000 1.626720 
# 
# From -- ./inp_files/34320.got.cif
#   From: 2010.05.17/outbox.cif.g08.bks.cpg/sg51_18_cif.got.tgz:34320.got - 2010.06.03 11:52:47.
