data_PCOD9406407
_publ_section_title
;
Structure prediction by ZEFSAII (Michael W. Deem and Ramdas Pophale) SiO2 
 PCOD9406407
Probable space group: P M M A
;
_chemical_formula_sum "Si O2"
_cell_formula_units_Z 48
_cell_length_a 18.147116
_cell_length_b 8.898786
_cell_length_c 15.756403
_cell_angle_alpha 90.000000
_cell_angle_beta 90.000000
_cell_angle_gamma 90.000000
_cell_volume 2544.459007
_symmetry_space_group_name_H-M "P M M A"
_symmetry_group_IT_number 51
_symmetry_cell_setting 'orthorhombic'
loop_
_space_group_symop_operation_xyz
x,y,z
1/2-x,-y,z
1/2+x,-y,-z
-x,y,-z
-x,-y,-z
1/2+x,y,-z
1/2-x,y,z
x,-y,z
loop_
_atom_site_type_symbol
_atom_site_label
_atom_site_fract_x
_atom_site_fract_y
_atom_site_fract_z
Si Si1 0.163638 0.319356 0.839922
Si Si2 0.075466 0.319475 0.668623
Si Si3 0.663439 0.680269 0.503115
Si Si4 0.837247 0.320587 0.831192
Si Si5 0.913182 0.820393 0.996031
Si Si6 0.913728 0.820932 0.666624
O O1 0.250000 0.281254 0.833748
O O2 0.158355 0.500000 0.851555
O O3 0.121276 0.281323 0.753105
O O4 0.126419 0.239145 0.919579
O O5 0.063168 0.500000 0.668885
O O6 0.122357 0.283098 0.584667
O O7 0.997453 0.237615 0.667361
O O8 0.750000 0.716229 0.497777
O O9 0.656869 0.500000 0.516137
O O10 0.625698 0.762876 0.581544
O O11 0.750000 0.289496 0.835127
O O12 0.847499 0.500000 0.827722
O O13 0.876657 0.255535 0.914217
O O14 0.871981 0.247308 0.747685
O O15 0.905453 0.000000 0.989952
O O16 0.000000 0.784046 0.000000
O O17 0.912042 0.000000 0.670466
#
# Coordination Sequence:
#
# PCOD9406407 Si02
#       6
#     8   8   8   8   8   8
#     4  10  21  38  61  89 118 150 193 242 290 343
#     4  10  21  39  63  88 117 155 197 242 290 340
#     4  10  21  39  63  89 117 153 199 246 291 343
#     4  11  24  42  64  88 114 150 198 247 293 344
#     4  11  24  40  59  87 122 157 193 235 287 348
#     4  12  25  39  58  87 122 157 194 239 293 352
#
# _framework density 18.864519999999999
#
# number of rings (size 3 to 8) (size 9 to 14) (size 15 to 20)
#    0.000    1.333    0.000    5.500    0.000   15.333 
#    0.000    0.000    0.000    3.000    0.000    0.000 
#    0.000    0.000    0.000    0.000    0.000    0.000 
#
# Total GULP energy -268553.162735 kJ/mol
# GULP energy per Si atom -5594.857557 kJ/mol
# Density = 1.882158 g / cm^3
# Si number density = 18.864520 Si / 1000 Ang^3
#
#
#
# Elastic Constant Matrix: (Units=GPa)
#
#
# Indices 1 2 3 4 5 6 
#
# 1 -68.2010 -35.1882 -125.4040 0.0000 0.0000 0.0000
# 2 -35.1882 0.1354 -37.6283 0.0000 0.0000 0.0000
# 3 -125.4040 -37.6283 -22.2279 0.0000 0.0000 0.0000
# 4 0.0000 0.0000 0.0000 -44.8630 0.0000 0.0000
# 5 0.0000 0.0000 0.0000 0.0000 44.7053 0.0000
# 6 0.0000 0.0000 0.0000 0.0000 0.0000 -3.6077
#
#
#
# Elastic Compliance Matrix: (Units=1/GPa)
#
#
# Indices 1 2 3 4 5 6 
#
# 1 0.006759 -0.018752 -0.006388 0.000000 0.000000 0.000000
# 2 -0.018752 0.067692 -0.008796 0.000000 0.000000 0.000000
# 3 -0.006388 -0.008796 0.005942 0.000000 0.000000 0.000000
# 4 0.000000 0.000000 0.000000 -0.022290 0.000000 0.000000
# 5 0.000000 0.000000 0.000000 0.000000 0.022369 0.000000
# 6 0.000000 0.000000 0.000000 0.000000 0.000000 -0.277183
#
#
# Mechanical properties :
#
#
# Convention : Reuss Voigt Hill
#
# Bulk Modulus (GPa) = 79.86856 -54.08163 12.89346
# Shear Modulus (GPa) = -40.10767 6.44206 -16.83281
#
# Velocity S-wave (km/s) = -4.61596 1.84995 -2.99038
# Velocity P-wave (km/s) = 3.74439 4.91605 2.25245
#
# Compressibility (1/GPa) = 0.01252057
#
# Stress axis : x y z
#
# Youngs Moduli (GPa) = 147.94842 14.77276 168.28335
#
# Poissons Ratio (x) = 0.27703 1.07504
# Poissons Ratio (y) = 2.77439 1.48019
# Poissons Ratio (z) = 0.94513 0.12994
#
# Static dielectric constant tensor:
#      x y z
#    x 1.623320 0.000000 0.000000 
#    y 0.000000 1.629110 0.000000 
#    z 0.000000 0.000000 1.610310 
# 
# From -- ./inp_files/24701.got.cif
#   From: 2010.05.17/outbox.cif.g08.bks.cpg/sg51_13_cif.got.tgz:24701.got - 2010.06.03 11:52:47.
