data_PCOD9406949
_publ_section_title
;
Structure prediction by ZEFSAII (Michael W. Deem and Ramdas Pophale) SiO2 
 PCOD9406949
Probable space group: P M M A
;
_chemical_formula_sum "Si O2"
_cell_formula_units_Z 48
_cell_length_a 14.318503
_cell_length_b 11.429689
_cell_length_c 14.895423
_cell_angle_alpha 90.000000
_cell_angle_beta 90.000000
_cell_angle_gamma 90.000000
_cell_volume 2437.725886
_symmetry_space_group_name_H-M "P M M A"
_symmetry_group_IT_number 51
_symmetry_cell_setting 'orthorhombic'
loop_
_space_group_symop_operation_xyz
x,y,z
1/2-x,-y,z
1/2+x,-y,-z
-x,y,-z
-x,-y,-z
1/2+x,y,-z
1/2-x,y,z
x,-y,z
loop_
_atom_site_type_symbol
_atom_site_label
_atom_site_fract_x
_atom_site_fract_y
_atom_site_fract_z
Si Si1 0.451754 0.863715 0.120768
Si Si2 0.855138 0.500000 0.807953
Si Si3 0.054526 0.277280 0.284353
Si Si4 0.893046 0.632112 0.532549
Si Si5 0.149109 0.641162 0.666499
Si Si6 0.110346 0.500000 0.984289
Si Si7 0.643409 0.761103 0.050987
O O1 0.427042 0.834236 0.222986
O O2 0.558951 0.822200 0.104665
O O3 0.442968 0.000000 0.099898
O O4 0.386690 0.791300 0.051827
O O5 0.750000 0.500000 0.771930
O O6 0.909717 0.387242 0.773213
O O7 0.850034 0.500000 0.915281
O O8 0.105933 0.286627 0.380303
O O9 0.943543 0.296375 0.298580
O O10 0.863810 0.500000 0.558859
O O11 0.845105 0.667012 0.440166
O O12 0.000000 0.624053 0.500000
O O13 0.250000 0.671284 0.708107
O O14 0.135837 0.500000 0.674223
O O15 0.137315 0.379213 0.936489
O O16 0.000000 0.500000 0.000000
O O17 0.750000 0.799344 0.067772
#
# Coordination Sequence:
#
# PCOD9406949 Si02
#       7
#     8   4   8   8   8   4   8
#     4  11  25  40  57  81 108 150 203 240 275 320
#     4  12  22  32  52  85 117 143 176 221 291 356
#     4  11  19  35  54  78 116 148 179 231 281 330
#     4   8  14  27  48  74 106 143 171 209 271 338
#     4   9  17  30  52  83 115 146 180 219 276 346
#     4  12  20  38  60  88 116 142 173 227 293 360
#     4  11  22  40  63  84 113 147 184 231 287 343
#
# _framework density 19.690483
#
# number of rings (size 3 to 8) (size 9 to 14) (size 15 to 20)
#    0.000    1.667    5.000    2.750    0.000    2.667 
#    0.000    0.000    0.000    4.500    0.000    0.000 
#    0.000    0.000    0.000    0.000    0.000    0.000 
#
# Total GULP energy -267828.083576 kJ/mol
# GULP energy per Si atom -5579.751741 kJ/mol
# Density = 1.964567 g / cm^3
# Si number density = 19.690483 Si / 1000 Ang^3
#
#
#
# Elastic Constant Matrix: (Units=GPa)
#
#
# Indices 1 2 3 4 5 6 
#
# 1 96.3211 0.4797 -8.5024 0.0000 0.0000 0.0000
# 2 0.4797 71.7967 7.7722 0.0000 0.0000 0.0000
# 3 -8.5024 7.7722 61.1395 0.0000 0.0000 0.0000
# 4 0.0000 0.0000 0.0000 16.9079 0.0000 0.0000
# 5 0.0000 0.0000 0.0000 0.0000 9.7454 0.0000
# 6 0.0000 0.0000 0.0000 0.0000 0.0000 -1.7642
#
#
#
# Elastic Compliance Matrix: (Units=1/GPa)
#
#
# Indices 1 2 3 4 5 6 
#
# 1 0.010515 -0.000232 0.001492 0.000000 0.000000 0.000000
# 2 -0.000232 0.014128 -0.001828 0.000000 0.000000 0.000000
# 3 0.001492 -0.001828 0.016796 0.000000 0.000000 0.000000
# 4 0.000000 0.000000 0.000000 0.059144 0.000000 0.000000
# 5 0.000000 0.000000 0.000000 0.000000 0.102612 0.000000
# 6 0.000000 0.000000 0.000000 0.000000 0.000000 -0.566844
#
#
# Mechanical properties :
#
#
# Convention : Reuss Voigt Hill
#
# Bulk Modulus (GPa) = 24.81269 25.41734 25.11502
# Shear Modulus (GPa) = -14.32341 20.27836 2.97747
#
# Velocity S-wave (km/s) = -2.70001 3.21262 1.23102
# Velocity P-wave (km/s) = 1.70547 5.16698 3.84749
#
# Compressibility (1/GPa) = 0.04030195
#
# Stress axis : x y z
#
# Youngs Moduli (GPa) = 95.10427 70.78303 59.53840
#
# Poissons Ratio (x) = 0.01640 -0.08881
# Poissons Ratio (y) = 0.02204 0.10885
# Poissons Ratio (z) = -0.14187 0.12940
#
# Static dielectric constant tensor:
#      x y z
#    x 1.723600 0.000000 0.000000 
#    y 0.000000 1.659850 0.000000 
#    z 0.000000 0.000000 1.744830 
# 
# From -- ./inp_files/24062.got.cif
#   From: 2010.05.17/outbox.cif.g08.bks.cpg/sg51_13_cif.got.tgz:24062.got - 2010.06.03 11:52:47.
