data_PCOD9406555
_publ_section_title
;
Structure prediction by ZEFSAII (Michael W. Deem and Ramdas Pophale) SiO2 
 PCOD9406555
Probable space group: P M M A
;
_chemical_formula_sum "Si O2"
_cell_formula_units_Z 56
_cell_length_a 20.657855
_cell_length_b 9.284401
_cell_length_c 15.038204
_cell_angle_alpha 90.000000
_cell_angle_beta 90.000000
_cell_angle_gamma 90.000000
_cell_volume 2884.264511
_symmetry_space_group_name_H-M "P M M A"
_symmetry_group_IT_number 51
_symmetry_cell_setting 'orthorhombic'
loop_
_space_group_symop_operation_xyz
x,y,z
1/2-x,-y,z
1/2+x,-y,-z
-x,y,-z
-x,-y,-z
1/2+x,y,-z
1/2-x,y,z
x,-y,z
loop_
_atom_site_type_symbol
_atom_site_label
_atom_site_fract_x
_atom_site_fract_y
_atom_site_fract_z
Si Si1 0.130541 0.827048 0.502057
Si Si2 0.250000 0.664744 0.416302
Si Si3 0.530812 0.831630 0.647600
Si Si4 0.575022 0.664953 0.973887
Si Si5 0.750000 0.339928 0.796433
Si Si6 0.622061 0.834076 0.815392
Si Si7 0.101386 0.673883 0.683860
Si Si8 0.325535 0.674347 0.867791
O O1 0.187987 0.753026 0.447983
O O2 0.064294 0.798238 0.447010
O O3 0.131016 0.753305 0.598182
O O4 0.138035 0.000000 0.506944
O O5 0.250000 0.500000 0.451310
O O6 0.250000 0.655625 0.310314
O O7 0.587540 0.819086 0.720442
O O8 0.472496 0.730931 0.679556
O O9 0.509115 0.000000 0.645247
O O10 0.593191 0.500000 0.948640
O O11 0.625565 0.712321 0.051228
O O12 0.500000 0.660171 0.000000
O O13 0.577213 0.772343 0.891799
O O14 0.750000 0.500000 0.833600
O O15 0.813500 0.257040 0.823528
O O16 0.636986 0.000000 0.828593
O O17 0.103209 0.500000 0.675303
O O18 0.139793 0.714335 0.774195
O O19 0.250000 0.724185 0.875101
O O20 0.323113 0.500000 0.867877
#
# Coordination Sequence:
#
# PCOD9406555 Si02
#       8
#     8   4   8   8   4   8   8   8
#     4  11  23  40  61  86 123 167 203 243 308 375
#     4  11  23  39  61  90 121 156 205 259 300 350
#     4  10  22  40  60  85 123 166 198 239 306 377
#     4  10  21  39  64  93 122 158 206 257 311 371
#     4  11  23  39  61  90 123 160 201 251 306 362
#     4  11  23  39  62  91 125 162 200 246 305 371
#     4  11  23  38  62  90 117 156 209 264 303 351
#     4   9  20  39  60  84 120 161 201 253 316 367
#
# _framework density 19.415696000000001
#
# number of rings (size 3 to 8) (size 9 to 14) (size 15 to 20)
#    0.000    1.571    1.429    3.000    2.000    6.000 
#    0.000    1.429    0.000    1.714    0.000    0.000 
#    0.000    0.000    0.000    0.000    0.000    0.000 
#
# Total GULP energy -312598.682836 kJ/mol
# GULP energy per Si atom -5582.119336 kJ/mol
# Density = 1.937151 g / cm^3
# Si number density = 19.415696 Si / 1000 Ang^3
#
#
#
# Elastic Constant Matrix: (Units=GPa)
#
#
# Indices 1 2 3 4 5 6 
#
# 1 82.2711 27.2113 -6.1906 0.0000 0.0000 0.0000
# 2 27.2113 70.6328 10.9846 0.0000 0.0000 0.0000
# 3 -6.1906 10.9846 53.2988 0.0000 0.0000 0.0000
# 4 0.0000 0.0000 0.0000 25.8892 0.0000 0.0000
# 5 0.0000 0.0000 0.0000 0.0000 -37.7843 0.0000
# 6 0.0000 0.0000 0.0000 0.0000 0.0000 16.5247
#
#
#
# Elastic Compliance Matrix: (Units=1/GPa)
#
#
# Indices 1 2 3 4 5 6 
#
# 1 0.014351 -0.005980 0.002899 0.000000 0.000000 0.000000
# 2 -0.005980 0.017118 -0.004222 0.000000 0.000000 0.000000
# 3 0.002899 -0.004222 0.019969 0.000000 0.000000 0.000000
# 4 0.000000 0.000000 0.000000 0.038626 0.000000 0.000000
# 5 0.000000 0.000000 0.000000 0.000000 -0.026466 0.000000
# 6 0.000000 0.000000 0.000000 0.000000 0.000000 0.060516
#
#
# Mechanical properties :
#
#
# Convention : Reuss Voigt Hill
#
# Bulk Modulus (GPa) = 27.15005 30.02371 28.58688
# Shear Modulus (GPa) = 33.11332 12.53908 22.82620
#
# Velocity S-wave (km/s) = 4.13424 2.54406 3.43251
# Velocity P-wave (km/s) = 6.06656 4.91191 5.51951
#
# Compressibility (1/GPa) = 0.03683234
#
# Stress axis : x y z
#
# Youngs Moduli (GPa) = 69.68240 58.41802 50.07738
#
# Poissons Ratio (x) = 0.34931 -0.14518
# Poissons Ratio (y) = 0.41667 0.21145
# Poissons Ratio (z) = -0.20202 0.24667
#
# Static dielectric constant tensor:
#      x y z
#    x 1.674930 0.000000 0.000000 
#    y 0.000000 1.645970 0.000000 
#    z 0.000000 0.000000 1.687830 
# 
# From -- ./inp_files/25892.got.cif
#   From: 2010.05.17/outbox.cif.g08.bks.cpg/sg51_13_cif.got.tgz:25892.got - 2010.06.03 11:52:47.
