data_PCOD9406150
_publ_section_title
;
Structure prediction by ZEFSAII (Michael W. Deem and Ramdas Pophale) SiO2 
 PCOD9406150
Probable space group: P M M A
;
_chemical_formula_sum "Si O2"
_cell_formula_units_Z 64
_cell_length_a 14.114300
_cell_length_b 10.781381
_cell_length_c 20.535793
_cell_angle_alpha 90.000000
_cell_angle_beta 90.000000
_cell_angle_gamma 90.000000
_cell_volume 3124.965420
_symmetry_space_group_name_H-M "P M M A"
_symmetry_group_IT_number 51
_symmetry_cell_setting 'orthorhombic'
loop_
_space_group_symop_operation_xyz
x,y,z
1/2-x,-y,z
1/2+x,-y,-z
-x,y,-z
-x,-y,-z
1/2+x,y,-z
1/2-x,y,z
x,-y,z
loop_
_atom_site_type_symbol
_atom_site_label
_atom_site_fract_x
_atom_site_fract_y
_atom_site_fract_z
Si Si1 0.860301 0.139867 0.562986
Si Si2 0.356290 0.361908 0.250307
Si Si3 0.142145 0.852078 0.762243
Si Si4 0.856593 0.219662 0.882338
Si Si5 0.005844 0.262639 0.654123
Si Si6 0.059226 0.138027 0.905817
Si Si7 0.639253 0.359446 0.458475
Si Si8 0.860510 0.638168 0.010497
O O1 0.750000 0.148774 0.585360
O O2 0.938120 0.162800 0.618432
O O3 0.874751 0.250452 0.511175
O O4 0.871813 0.000000 0.535650
O O5 0.250000 0.345696 0.277186
O O6 0.362310 0.500000 0.222162
O O7 0.368469 0.266525 0.191334
O O8 0.432859 0.346912 0.306110
O O9 0.250000 0.805560 0.757817
O O10 0.101995 0.831729 0.834769
O O11 0.076202 0.794866 0.707163
O O12 0.143254 0.000000 0.752866
O O13 0.750000 0.167565 0.889757
O O14 0.945875 0.136228 0.899384
O O15 0.863342 0.333295 0.933499
O O16 0.068374 0.332920 0.600562
O O17 0.088818 0.248780 0.953271
O O18 0.092735 0.000000 0.925838
O O19 0.750000 0.351614 0.437820
O O20 0.624284 0.500000 0.484079
O O21 0.750000 0.642616 0.029724
O O22 0.896517 0.500000 0.025465
#
# Coordination Sequence:
#
# PCOD9406150 Si02
#       8
#     8   8   8   8   8   8   8   8
#     4  10  23  42  64  92 125 161 203 251 303 362
#     4  10  21  37  58  87 124 165 205 250 310 374
#     4  10  22  40  60  85 121 163 204 250 307 370
#     4  10  21  39  61  89 124 162 207 261 314 373
#     4  12  21  37  63  92 121 159 206 254 303 359
#     4  11  23  41  63  91 125 165 211 260 316 377
#     4  10  23  42  63  91 128 164 201 250 306 361
#     4  10  22  40  64  93 124 163 212 265 319 374
#
# _framework density 20.480228
#
# number of rings (size 3 to 8) (size 9 to 14) (size 15 to 20)
#    0.000    1.625    1.250    3.000    0.000    8.000 
#    0.000    3.750    0.000    2.250    0.000    0.000 
#    0.000    0.000    0.000    0.000    0.000    0.000 
#
# Total GULP energy -357388.253662 kJ/mol
# GULP energy per Si atom -5584.191463 kJ/mol
# Density = 2.043361 g / cm^3
# Si number density = 20.480228 Si / 1000 Ang^3
#
#
#
# Elastic Constant Matrix: (Units=GPa)
#
#
# Indices 1 2 3 4 5 6 
#
# 1 137.9112 46.4654 52.4674 0.0000 0.0000 0.0000
# 2 46.4654 117.3496 48.0653 0.0000 0.0000 0.0000
# 3 52.4674 48.0653 73.6928 0.0000 0.0000 0.0000
# 4 0.0000 0.0000 0.0000 13.3243 0.0000 0.0000
# 5 0.0000 0.0000 0.0000 0.0000 38.2240 0.0000
# 6 0.0000 0.0000 0.0000 0.0000 0.0000 -33.0507
#
#
#
# Elastic Compliance Matrix: (Units=1/GPa)
#
#
# Indices 1 2 3 4 5 6 
#
# 1 0.010120 -0.001441 -0.006266 0.000000 0.000000 0.000000
# 2 -0.001441 0.011833 -0.006692 0.000000 0.000000 0.000000
# 3 -0.006266 -0.006692 0.022396 0.000000 0.000000 0.000000
# 4 0.000000 0.000000 0.000000 0.075051 0.000000 0.000000
# 5 0.000000 0.000000 0.000000 0.000000 0.026162 0.000000
# 6 0.000000 0.000000 0.000000 0.000000 0.000000 -0.030257
#
#
# Mechanical properties :
#
#
# Convention : Reuss Voigt Hill
#
# Bulk Modulus (GPa) = 64.30113 69.21665 66.75889
# Shear Modulus (GPa) = 33.49279 15.82987 24.66133
#
# Velocity S-wave (km/s) = 4.04836 2.78319 3.47386
# Velocity P-wave (km/s) = 7.30186 6.64818 6.98267
#
# Compressibility (1/GPa) = 0.01555183
#
# Stress axis : x y z
#
# Youngs Moduli (GPa) = 98.81252 84.50856 44.65159
#
# Poissons Ratio (x) = 0.12176 0.27977
# Poissons Ratio (y) = 0.14237 0.29882
# Poissons Ratio (z) = 0.61911 0.56555
#
# Static dielectric constant tensor:
#      x y z
#    x 1.752260 0.000000 0.000000 
#    y 0.000000 1.718320 0.000000 
#    z 0.000000 0.000000 1.697300 
# 
# From -- ./inp_files/29840.got.cif
#   From: 2010.05.17/outbox.cif.g08.bks.cpg/sg51_15_cif.got.tgz:29840.got - 2010.06.03 11:52:47.
