data_PCOD9406206
_publ_section_title
;
Structure prediction by ZEFSAII (Michael W. Deem and Ramdas Pophale) SiO2 
 PCOD9406206
Probable space group: P M M A
;
_chemical_formula_sum "Si O2"
_cell_formula_units_Z 48
_cell_length_a 16.913706
_cell_length_b 15.329257
_cell_length_c 9.325838
_cell_angle_alpha 90.000000
_cell_angle_beta 90.000000
_cell_angle_gamma 90.000000
_cell_volume 2417.952414
_symmetry_space_group_name_H-M "P M M A"
_symmetry_group_IT_number 51
_symmetry_cell_setting 'orthorhombic'
loop_
_space_group_symop_operation_xyz
x,y,z
1/2-x,-y,z
1/2+x,-y,-z
-x,y,-z
-x,-y,-z
1/2+x,y,-z
1/2-x,y,z
x,-y,z
loop_
_atom_site_type_symbol
_atom_site_label
_atom_site_fract_x
_atom_site_fract_y
_atom_site_fract_z
Si Si1 0.156122 0.829667 0.136444
Si Si2 0.015592 0.500000 0.168206
Si Si3 0.618919 0.313669 0.391154
Si Si4 0.892465 0.000000 0.679516
Si Si5 0.436231 0.681833 0.293082
Si Si6 0.919017 0.000000 0.361560
Si Si7 0.836887 0.500000 0.289330
Si Si8 0.662109 0.152602 0.202233
O O1 0.250000 0.810657 0.157669
O O2 0.134547 0.915367 0.230304
O O3 0.098951 0.751569 0.184220
O O4 0.143699 0.840630 0.966095
O O5 0.062325 0.415422 0.226767
O O6 0.923881 0.500000 0.218296
O O7 0.000000 0.500000 0.000000
O O8 0.613196 0.301113 0.561520
O O9 0.528105 0.308015 0.336024
O O10 0.657214 0.408730 0.372529
O O11 0.660449 0.242730 0.290766
O O12 0.869361 0.000000 0.511216
O O13 0.986200 0.000000 0.648693
O O14 0.895862 0.086980 0.278951
O O15 0.750000 0.500000 0.213850
O O16 0.750000 0.115180 0.211533
#
# Coordination Sequence:
#
# PCOD9406206 Si02
#       8
#     8   4   8   4   8   4   4   8
#     4  11  25  41  61  91 128 164 205 261 319 377
#     4  10  23  41  65  95 128 170 211 263 315 377
#     4  10  21  39  63  90 122 162 209 260 307 372
#     4  11  24  43  64  92 124 157 210 261 317 376
#     4  10  22  40  63  91 124 163 212 258 310 376
#     4  11  24  41  64  90 118 161 208 259 310 381
#     4  10  21  37  63  91 121 161 208 258 314 371
#     4  11  24  40  60  90 125 162 207 256 314 377
#
# _framework density 19.851507999999999
#
# number of rings (size 3 to 8) (size 9 to 14) (size 15 to 20)
#    0.000    1.500    0.000    4.000    4.667   12.667 
#    0.000    0.417    0.000    0.000    0.000    0.000 
#    0.000    0.000    0.000    0.000    0.000    0.000 
#
# Total GULP energy -267527.501784 kJ/mol
# GULP energy per Si atom -5573.489620 kJ/mol
# Density = 1.980632 g / cm^3
# Si number density = 19.851508 Si / 1000 Ang^3
#
#
#
# Elastic Constant Matrix: (Units=GPa)
#
#
# Indices 1 2 3 4 5 6 
#
# 1 53.0301 35.1551 37.2783 0.0000 0.0000 0.0000
# 2 35.1551 92.7427 24.7981 0.0000 0.0000 0.0000
# 3 37.2783 24.7981 92.5784 0.0000 0.0000 0.0000
# 4 0.0000 0.0000 0.0000 -20.5666 0.0000 0.0000
# 5 0.0000 0.0000 0.0000 0.0000 16.6019 0.0000
# 6 0.0000 0.0000 0.0000 0.0000 0.0000 33.1484
#
#
#
# Elastic Compliance Matrix: (Units=1/GPa)
#
#
# Indices 1 2 3 4 5 6 
#
# 1 0.032614 -0.009534 -0.010579 0.000000 0.000000 0.000000
# 2 -0.009534 0.014401 -0.000019 0.000000 0.000000 0.000000
# 3 -0.010579 -0.000019 0.015066 0.000000 0.000000 0.000000
# 4 0.000000 0.000000 0.000000 -0.048623 0.000000 0.000000
# 5 0.000000 0.000000 0.000000 0.000000 0.060234 0.000000
# 6 0.000000 0.000000 0.000000 0.000000 0.000000 0.030167
#
#
# Mechanical properties :
#
#
# Convention : Reuss Voigt Hill
#
# Bulk Modulus (GPa) = 45.83144 48.09047 46.96095
# Shear Modulus (GPa) = 33.02577 15.24473 24.13525
#
# Velocity S-wave (km/s) = 4.08320 2.77418 3.49060
# Velocity P-wave (km/s) = 6.73552 5.87700 6.32085
#
# Compressibility (1/GPa) = 0.02181909
#
# Stress axis : x y z
#
# Youngs Moduli (GPa) = 30.66144 69.43721 66.37298
#
# Poissons Ratio (x) = 0.66202 0.70215
# Poissons Ratio (y) = 0.29233 0.00123
# Poissons Ratio (z) = 0.32436 0.00129
#
# Static dielectric constant tensor:
#      x y z
#    x 1.711850 0.000000 0.000000 
#    y 0.000000 1.700670 0.000000 
#    z 0.000000 0.000000 1.766190 
# 
# From -- ./inp_files/9777.got.cif
#   From: 2010.05.17/outbox.cif.g08.bks.cpg/sg51_5_cif.got.tgz:9777.got - 2010.06.03 11:52:47.
