data_PCOD9406799
_publ_section_title
;
Structure prediction by ZEFSAII (Michael W. Deem and Ramdas Pophale) SiO2 
 PCOD9406799
Probable space group: P M M A
;
_chemical_formula_sum "Si O2"
_cell_formula_units_Z 48
_cell_length_a 9.734271
_cell_length_b 14.539720
_cell_length_c 17.938432
_cell_angle_alpha 90.000000
_cell_angle_beta 90.000000
_cell_angle_gamma 90.000000
_cell_volume 2538.890406
_symmetry_space_group_name_H-M "P M M A"
_symmetry_group_IT_number 51
_symmetry_cell_setting 'orthorhombic'
loop_
_space_group_symop_operation_xyz
x,y,z
1/2-x,-y,z
1/2+x,-y,-z
-x,y,-z
-x,-y,-z
1/2+x,y,-z
1/2-x,y,z
x,-y,z
loop_
_atom_site_type_symbol
_atom_site_label
_atom_site_fract_x
_atom_site_fract_y
_atom_site_fract_z
Si Si1 0.409595 0.104098 0.071007
Si Si2 0.407087 0.271348 0.180627
Si Si3 0.983310 0.783631 0.653483
Si Si4 0.411981 0.601079 0.574998
Si Si5 0.911330 0.610808 0.074102
Si Si6 0.250000 0.890995 0.619151
Si Si7 0.750000 0.112051 0.559588
O O1 0.250000 0.105812 0.049030
O O2 0.428792 0.177710 0.134874
O O3 0.443292 0.000000 0.095167
O O4 0.500000 0.127414 0.000000
O O5 0.250000 0.304068 0.167832
O O6 0.423699 0.242958 0.266367
O O7 0.515267 0.342755 0.145345
O O8 0.031976 0.686859 0.619871
O O9 0.116891 0.847394 0.656738
O O10 0.878730 0.838496 0.599544
O O11 0.500000 0.599085 0.500000
O O12 0.250000 0.613264 0.559262
O O13 0.428142 0.500000 0.611670
O O14 0.750000 0.637594 0.066962
O O15 0.916117 0.500000 0.080753
O O16 0.000000 0.635871 0.000000
O O17 0.250000 0.870087 0.529555
O O18 0.250000 0.000000 0.625971
O O19 0.750000 0.000000 0.570034
#
# Coordination Sequence:
#
# PCOD9406799 Si02
#       7
#     8   8   8   8   8   4   4
#     4   9  19  37  59  83 113 152 197 241 289 349
#     4  11  24  40  59  90 126 168 210 256 314 372
#     4  12  24  41  62  95 129 167 212 269 331 386
#     4  10  22  40  64  91 120 158 203 255 315 382
#     4  10  22  41  68  98 130 170 213 259 310 369
#     4  11  24  42  65  93 122 163 219 275 331 396
#     4  11  24  44  69  91 122 167 219 273 333 398
#
# _framework density 18.905897
#
# number of rings (size 3 to 8) (size 9 to 14) (size 15 to 20)
#    0.000    1.500    1.667    3.000    2.333    6.333 
#    0.000    1.667    0.000    0.000    0.000    0.000 
#    0.000    0.000    0.000    0.000    0.000    0.000 
#
# Total GULP energy -267996.719123 kJ/mol
# GULP energy per Si atom -5583.264982 kJ/mol
# Density = 1.886287 g / cm^3
# Si number density = 18.905897 Si / 1000 Ang^3
#
#
#
# Elastic Constant Matrix: (Units=GPa)
#
#
# Indices 1 2 3 4 5 6 
#
# 1 107.2717 50.5237 24.9457 0.0000 0.0000 0.0000
# 2 50.5237 98.5846 37.5275 0.0000 0.0000 0.0000
# 3 24.9457 37.5275 47.6973 0.0000 0.0000 0.0000
# 4 0.0000 0.0000 0.0000 -11.7283 0.0000 0.0000
# 5 0.0000 0.0000 0.0000 0.0000 23.7064 0.0000
# 6 0.0000 0.0000 0.0000 0.0000 0.0000 20.2742
#
#
#
# Elastic Compliance Matrix: (Units=1/GPa)
#
#
# Indices 1 2 3 4 5 6 
#
# 1 0.012438 -0.005565 -0.002127 0.000000 0.000000 0.000000
# 2 -0.005565 0.016970 -0.010441 0.000000 0.000000 0.000000
# 3 -0.002127 -0.010441 0.030293 0.000000 0.000000 0.000000
# 4 0.000000 0.000000 0.000000 -0.085264 0.000000 0.000000
# 5 0.000000 0.000000 0.000000 0.000000 0.042183 0.000000
# 6 0.000000 0.000000 0.000000 0.000000 0.000000 0.049324
#
#
# Mechanical properties :
#
#
# Convention : Reuss Voigt Hill
#
# Bulk Modulus (GPa) = 42.67115 53.28303 47.97709
# Shear Modulus (GPa) = 45.44624 15.82092 30.63358
#
# Velocity S-wave (km/s) = 4.90819 2.89593 4.02969
# Velocity P-wave (km/s) = 7.39863 6.27904 6.86171
#
# Compressibility (1/GPa) = 0.02343503
#
# Stress axis : x y z
#
# Youngs Moduli (GPa) = 80.40184 58.92736 33.01096
#
# Poissons Ratio (x) = 0.32790 0.07020
# Poissons Ratio (y) = 0.44740 0.34468
# Poissons Ratio (z) = 0.17099 0.61529
#
# Static dielectric constant tensor:
#      x y z
#    x 1.661700 0.000000 0.000000 
#    y 0.000000 1.664030 0.000000 
#    z 0.000000 0.000000 1.606110 
# 
# From -- ./inp_files/27624.got.cif
#   From: 2010.05.17/outbox.cif.g08.bks.cpg/sg51_14_cif.got.tgz:27624.got - 2010.06.03 11:52:47.
