data_PCOD9406848
_publ_section_title
;
Structure prediction by ZEFSAII (Michael W. Deem and Ramdas Pophale) SiO2 
 PCOD9406848
Probable space group: P M M A
;
_chemical_formula_sum "Si O2"
_cell_formula_units_Z 30
_cell_length_a 10.144974
_cell_length_b 11.336842
_cell_length_c 14.192642
_cell_angle_alpha 90.000000
_cell_angle_beta 90.000000
_cell_angle_gamma 90.000000
_cell_volume 1632.323678
_symmetry_space_group_name_H-M "P M M A"
_symmetry_group_IT_number 51
_symmetry_cell_setting 'orthorhombic'
loop_
_space_group_symop_operation_xyz
x,y,z
1/2-x,-y,z
1/2+x,-y,-z
-x,y,-z
-x,-y,-z
1/2+x,y,-z
1/2-x,y,z
x,-y,z
loop_
_atom_site_type_symbol
_atom_site_label
_atom_site_fract_x
_atom_site_fract_y
_atom_site_fract_z
Si Si1 0.250000 0.357859 0.582707
Si Si2 0.979471 0.741162 0.285694
Si Si3 0.008958 0.000000 0.643768
Si Si4 0.750000 0.000000 0.509662
Si Si5 0.901808 0.358334 0.083294
Si Si6 0.750000 0.641978 0.635365
O O1 0.250000 0.500000 0.583843
O O2 0.376599 0.310231 0.637705
O O3 0.250000 0.315967 0.474109
O O4 0.981684 0.881082 0.296069
O O5 0.120798 0.688792 0.313443
O O6 0.936999 0.699956 0.182572
O O7 0.132618 0.000000 0.572096
O O8 0.868700 0.000000 0.589998
O O9 0.750000 0.333037 0.058716
O O10 0.914208 0.500000 0.095329
O O11 0.000000 0.322157 0.000000
O O12 0.750000 0.500000 0.634401
#
# Coordination Sequence:
#
# PCOD9406848 Si02
#       6
#     4   8   4   2   8   4
#     4  11  23  40  60  89 127 169 209 260 324 380
#     4  12  24  40  65  92 132 167 216 265 316 382
#     4  11  26  40  65  92 125 178 224 257 315 363
#     4  10  24  42  60  86 124 176 232 262 286 360
#     4  10  22  42  68  95 124 163 211 267 329 385
#     4  11  25  38  60  95 129 169 209 260 326 386
#
# _framework density 18.378706999999999
#
# number of rings (size 3 to 8) (size 9 to 14) (size 15 to 20)
#    0.000    1.067    1.333    4.800   13.067    2.133 
#    0.000    0.667    0.000    0.000    0.000    0.000 
#    0.000    0.000    0.000    0.000    0.000    0.000 
#
# Total GULP energy -167281.784256 kJ/mol
# GULP energy per Si atom -5576.059475 kJ/mol
# Density = 1.833688 g / cm^3
# Si number density = 18.378707 Si / 1000 Ang^3
#
#
#
# Elastic Constant Matrix: (Units=GPa)
#
#
# Indices 1 2 3 4 5 6 
#
# 1 182.3832 43.7906 61.0663 0.0000 0.0000 0.0000
# 2 43.7906 75.7061 42.5983 0.0000 0.0000 0.0000
# 3 61.0663 42.5983 115.3242 0.0000 0.0000 0.0000
# 4 0.0000 0.0000 0.0000 -2.4486 0.0000 0.0000
# 5 0.0000 0.0000 0.0000 0.0000 35.1911 0.0000
# 6 0.0000 0.0000 0.0000 0.0000 0.0000 17.1842
#
#
#
# Elastic Compliance Matrix: (Units=1/GPa)
#
#
# Indices 1 2 3 4 5 6 
#
# 1 0.007016 -0.002484 -0.002798 0.000000 0.000000 0.000000
# 2 -0.002484 0.017554 -0.005169 0.000000 0.000000 0.000000
# 3 -0.002798 -0.005169 0.012062 0.000000 0.000000 0.000000
# 4 0.000000 0.000000 0.000000 -0.408404 0.000000 0.000000
# 5 0.000000 0.000000 0.000000 0.000000 0.028416 0.000000
# 6 0.000000 0.000000 0.000000 0.000000 0.000000 0.058193
#
#
# Mechanical properties :
#
#
# Convention : Reuss Voigt Hill
#
# Bulk Modulus (GPa) = 63.56804 74.25822 68.91313
# Shear Modulus (GPa) = -19.30368 25.04923 2.87277
#
# Velocity S-wave (km/s) = -3.24439 3.69582 1.25160
# Velocity P-wave (km/s) = 4.54183 7.66187 6.29811
#
# Compressibility (1/GPa) = 0.01573117
#
# Stress axis : x y z
#
# Youngs Moduli (GPa) = 142.52906 56.96622 82.90650
#
# Poissons Ratio (x) = 0.14152 0.23194
# Poissons Ratio (y) = 0.35407 0.42852
# Poissons Ratio (z) = 0.39873 0.29444
#
# Static dielectric constant tensor:
#      x y z
#    x 1.703380 0.000000 0.000000 
#    y 0.000000 1.611850 0.000000 
#    z 0.000000 0.000000 1.591990 
# 
# From -- ./inp_files/20057.got.cif
#   From: 2010.05.17/outbox.cif.g08.bks.cpg/sg51_11_cif.got.tgz:20057.got - 2010.06.03 11:52:47.
