data_PCOD9406416
_publ_section_title
;
Structure prediction by ZEFSAII (Michael W. Deem and Ramdas Pophale) SiO2 
 PCOD9406416
Probable space group: P M M A
;
_chemical_formula_sum "Si O2"
_cell_formula_units_Z 40
_cell_length_a 18.147312
_cell_length_b 8.857590
_cell_length_c 12.877305
_cell_angle_alpha 90.000000
_cell_angle_beta 90.000000
_cell_angle_gamma 90.000000
_cell_volume 2069.916669
_symmetry_space_group_name_H-M "P M M A"
_symmetry_group_IT_number 51
_symmetry_cell_setting 'orthorhombic'
loop_
_space_group_symop_operation_xyz
x,y,z
1/2-x,-y,z
1/2+x,-y,-z
-x,y,-z
-x,-y,-z
1/2+x,y,-z
1/2-x,y,z
x,-y,z
loop_
_atom_site_type_symbol
_atom_site_label
_atom_site_fract_x
_atom_site_fract_y
_atom_site_fract_z
Si Si1 0.665409 0.180426 0.503004
Si Si2 0.337480 0.678719 0.079134
Si Si3 0.090638 0.820378 0.281202
Si Si4 0.567469 0.320891 0.325490
Si Si5 0.162152 0.178527 0.857536
O O1 0.750000 0.221617 0.480561
O O2 0.645793 0.209270 0.622917
O O3 0.609562 0.266666 0.428535
O O4 0.657356 0.000000 0.485036
O O5 0.250000 0.703742 0.096998
O O6 0.349442 0.500000 0.066345
O O7 0.381835 0.740871 0.176924
O O8 0.357221 0.763757 0.972635
O O9 0.011093 0.759502 0.314520
O O10 0.087498 0.000000 0.264677
O O11 0.557948 0.500000 0.325922
O O12 0.617311 0.268639 0.228577
O O13 0.250000 0.202144 0.843315
O O14 0.147500 0.000000 0.847638
#
# Coordination Sequence:
#
# PCOD9406416 Si02
#       5
#     8   8   8   8   8
#     4  10  22  41  64  88 115 151 196 242 288 345
#     4  10  21  38  61  90 123 155 191 240 295 348
#     4  11  23  40  62  87 118 157 200 242 287 344
#     4  12  25  39  58  87 122 156 193 241 298 352
#     4  10  21  39  63  88 116 154 200 244 287 344
#
# _framework density 19.324449000000001
#
# number of rings (size 3 to 8) (size 9 to 14) (size 15 to 20)
#    0.000    1.400    0.000    5.400    0.000   10.800 
#    0.000    4.000    0.000    0.000    0.000    0.000 
#    0.000    0.000    0.000    0.000    0.000    0.000 
#
# Total GULP energy -223776.477840 kJ/mol
# GULP energy per Si atom -5594.411946 kJ/mol
# Density = 1.928047 g / cm^3
# Si number density = 19.324449 Si / 1000 Ang^3
#
#
#
# Elastic Constant Matrix: (Units=GPa)
#
#
# Indices 1 2 3 4 5 6 
#
# 1 23.7218 3.9103 -7.3630 0.0000 0.0000 0.0000
# 2 3.9103 28.3882 2.4371 0.0000 0.0000 0.0000
# 3 -7.3630 2.4371 42.3440 0.0000 0.0000 0.0000
# 4 0.0000 0.0000 0.0000 72.0845 0.0000 0.0000
# 5 0.0000 0.0000 0.0000 0.0000 13.4726 0.0000
# 6 0.0000 0.0000 0.0000 0.0000 0.0000 29.6875
#
#
#
# Elastic Compliance Matrix: (Units=1/GPa)
#
#
# Indices 1 2 3 4 5 6 
#
# 1 0.045921 -0.007046 0.008391 0.000000 0.000000 0.000000
# 2 -0.007046 0.036482 -0.003325 0.000000 0.000000 0.000000
# 3 0.008391 -0.003325 0.025266 0.000000 0.000000 0.000000
# 4 0.000000 0.000000 0.000000 0.013873 0.000000 0.000000
# 5 0.000000 0.000000 0.000000 0.000000 0.074225 0.000000
# 6 0.000000 0.000000 0.000000 0.000000 0.000000 0.033684
#
#
# Mechanical properties :
#
#
# Convention : Reuss Voigt Hill
#
# Bulk Modulus (GPa) = 9.64234 10.26921 9.95578
# Shear Modulus (GPa) = 18.65806 29.41356 24.03581
#
# Velocity S-wave (km/s) = 3.11065 3.90563 3.53059
# Velocity P-wave (km/s) = 4.23108 5.06599 4.66724
#
# Compressibility (1/GPa) = 0.10370925
#
# Stress axis : x y z
#
# Youngs Moduli (GPa) = 21.77652 27.41094 39.57822
#
# Poissons Ratio (x) = 0.19313 -0.33208
# Poissons Ratio (y) = 0.15343 0.13159
# Poissons Ratio (z) = -0.18272 0.09114
#
# Static dielectric constant tensor:
#      x y z
#    x 1.652840 0.000000 0.000000 
#    y 0.000000 1.642000 0.000000 
#    z 0.000000 0.000000 1.644590 
# 
# From -- ./inp_files/17051.got.cif
#   From: 2010.05.17/outbox.cif.g08.bks.cpg/sg51_9_cif.got.tgz:17051.got - 2010.06.03 11:52:47.
