data_PCOD9406135
_publ_section_title
;
Structure prediction by ZEFSAII (Michael W. Deem and Ramdas Pophale) SiO2 
 PCOD9406135
Probable space group: P M M A
;
_chemical_formula_sum "Si O2"
_cell_formula_units_Z 64
_cell_length_a 29.483861
_cell_length_b 7.756137
_cell_length_c 12.978498
_cell_angle_alpha 90.000000
_cell_angle_beta 90.000000
_cell_angle_gamma 90.000000
_cell_volume 2967.934152
_symmetry_space_group_name_H-M "P M M A"
_symmetry_group_IT_number 51
_symmetry_cell_setting 'orthorhombic'
loop_
_space_group_symop_operation_xyz
x,y,z
1/2-x,-y,z
1/2+x,-y,-z
-x,y,-z
-x,-y,-z
1/2+x,y,-z
1/2-x,y,z
x,-y,z
loop_
_atom_site_type_symbol
_atom_site_label
_atom_site_fract_x
_atom_site_fract_y
_atom_site_fract_z
Si Si1 0.149456 0.204203 0.796604
Si Si2 0.022081 0.711141 0.108030
Si Si3 0.138466 0.300742 0.393084
Si Si4 0.553978 0.300259 0.265133
Si Si5 0.197715 0.290865 0.582131
Si Si6 0.699085 0.208212 0.999112
Si Si7 0.877386 0.293311 0.833875
Si Si8 0.550732 0.198123 0.492304
O O1 0.099795 0.287288 0.800870
O O2 0.172241 0.237942 0.686253
O O3 0.143197 0.000000 0.808458
O O4 0.181371 0.266953 0.889030
O O5 0.021728 0.500000 0.107078
O O6 0.073552 0.770076 0.126602
O O7 0.988980 0.764893 0.201070
O O8 0.000000 0.766968 0.000000
O O9 0.152602 0.500000 0.380840
O O10 0.171585 0.225073 0.480348
O O11 0.135749 0.223183 0.279115
O O12 0.088314 0.294111 0.441808
O O13 0.546109 0.500000 0.291528
O O14 0.562702 0.204205 0.371864
O O15 0.250000 0.235458 0.583931
O O16 0.196493 0.500000 0.579794
O O17 0.750000 0.271508 0.978004
O O18 0.662317 0.258877 0.914418
O O19 0.700770 0.000000 0.001489
O O20 0.882582 0.500000 0.823163
O O21 0.500000 0.270101 0.500000
O O22 0.549904 0.000000 0.528343
#
# Coordination Sequence:
#
# PCOD9406135 Si02
#       8
#     8   8   8   8   8   8   8   8
#     4  11  22  38  60  87 120 155 197 249 303 358
#     4   9  18  33  54  83 117 153 194 242 295 350
#     4  10  21  38  59  85 118 155 196 245 300 355
#     4  11  21  35  59  87 118 156 197 245 301 356
#     4  10  21  37  58  85 116 152 196 247 303 360
#     4  10  23  42  61  84 117 157 198 244 302 364
#     4  10  21  38  61  88 117 152 200 250 296 353
#     4  11  23  37  55  83 119 158 199 242 289 348
#
# _framework density 21.563821000000001
#
# number of rings (size 3 to 8) (size 9 to 14) (size 15 to 20)
#    0.000    1.750    1.250    3.000    0.000    6.000 
#    0.000    2.500    0.000    3.375    0.000    0.000 
#    0.000    0.000    0.000    0.000    0.000    0.000 
#
# Total GULP energy -357723.371908 kJ/mol
# GULP energy per Si atom -5589.427686 kJ/mol
# Density = 2.151474 g / cm^3
# Si number density = 21.563821 Si / 1000 Ang^3
#
#
#
# Elastic Constant Matrix: (Units=GPa)
#
#
# Indices 1 2 3 4 5 6 
#
# 1 166.9207 -4.7232 75.9020 0.0000 0.0000 0.0000
# 2 -4.7232 33.7931 -1.0959 0.0000 0.0000 0.0000
# 3 75.9020 -1.0959 158.1865 0.0000 0.0000 0.0000
# 4 0.0000 0.0000 0.0000 14.5447 0.0000 0.0000
# 5 0.0000 0.0000 0.0000 0.0000 37.3373 0.0000
# 6 0.0000 0.0000 0.0000 0.0000 0.0000 17.8090
#
#
#
# Elastic Compliance Matrix: (Units=1/GPa)
#
#
# Indices 1 2 3 4 5 6 
#
# 1 0.007694 0.000956 -0.003685 0.000000 0.000000 0.000000
# 2 0.000956 0.029717 -0.000253 0.000000 0.000000 0.000000
# 3 -0.003685 -0.000253 0.008088 0.000000 0.000000 0.000000
# 4 0.000000 0.000000 0.000000 0.068753 0.000000 0.000000
# 5 0.000000 0.000000 0.000000 0.000000 0.026783 0.000000
# 6 0.000000 0.000000 0.000000 0.000000 0.000000 0.056151
#
#
# Mechanical properties :
#
#
# Convention : Reuss Voigt Hill
#
# Bulk Modulus (GPa) = 25.29400 55.45178 40.37289
# Shear Modulus (GPa) = 23.11299 33.19270 28.15285
#
# Velocity S-wave (km/s) = 3.27745 3.92762 3.61717
# Velocity P-wave (km/s) = 5.10662 6.80730 6.01734
#
# Compressibility (1/GPa) = 0.03953506
#
# Stress axis : x y z
#
# Youngs Moduli (GPa) = 129.97953 33.65049 123.63954
#
# Poissons Ratio (x) = -0.03216 0.45560
# Poissons Ratio (y) = -0.12424 0.03125
# Poissons Ratio (z) = 0.47897 0.00851
#
# Static dielectric constant tensor:
#      x y z
#    x 1.762100 0.000000 0.000000 
#    y 0.000000 1.796440 0.000000 
#    z 0.000000 0.000000 1.768570 
# 
# From -- ./inp_files/19592.got.cif
#   From: 2010.05.17/outbox.cif.g08.bks.cpg/sg51_10_cif.got.tgz:19592.got - 2010.06.03 11:52:47.
