data_PCOD9406834
_publ_section_title
;
Structure prediction by ZEFSAII (Michael W. Deem and Ramdas Pophale) SiO2 
 PCOD9406834
Probable space group: P M M A
;
_chemical_formula_sum "Si O2"
_cell_formula_units_Z 48
_cell_length_a 15.943157
_cell_length_b 9.002257
_cell_length_c 17.140712
_cell_angle_alpha 90.000000
_cell_angle_beta 90.000000
_cell_angle_gamma 90.000000
_cell_volume 2460.110349
_symmetry_space_group_name_H-M "P M M A"
_symmetry_group_IT_number 51
_symmetry_cell_setting 'orthorhombic'
loop_
_space_group_symop_operation_xyz
x,y,z
1/2-x,-y,z
1/2+x,-y,-z
-x,y,-z
-x,-y,-z
1/2+x,y,-z
1/2-x,y,z
x,-y,z
loop_
_atom_site_type_symbol
_atom_site_label
_atom_site_fract_x
_atom_site_fract_y
_atom_site_fract_z
Si Si1 0.848950 0.672220 0.155360
Si Si2 0.909870 0.822475 0.310360
Si Si3 0.149878 0.328084 0.163648
Si Si4 0.750000 0.821184 0.417027
Si Si5 0.402253 0.823319 0.319936
Si Si6 0.750000 0.322732 0.586535
Si Si7 0.399325 0.828872 0.004091
O O1 0.750000 0.681026 0.173390
O O2 0.871817 0.500000 0.144233
O O3 0.897599 0.741150 0.228202
O O4 0.865702 0.760301 0.075983
O O5 0.833137 0.783767 0.367304
O O6 0.001985 0.790079 0.344221
O O7 0.905773 0.000000 0.296329
O O8 0.250000 0.322454 0.175870
O O9 0.123120 0.500000 0.170101
O O10 0.107907 0.229567 0.230640
O O11 0.129813 0.264865 0.078497
O O12 0.750000 0.737512 0.498669
O O13 0.750000 0.000000 0.430003
O O14 0.332193 0.739664 0.369756
O O15 0.388433 0.000000 0.325527
O O16 0.750000 0.500000 0.589592
O O17 0.372006 0.000000 0.012517
O O18 0.500000 0.825607 0.000000
#
# Coordination Sequence:
#
# PCOD9406834 Si02
#       7
#     8   8   8   4   8   4   8
#     4  11  23  38  59  89 125 165 209 258 315 374
#     4  10  22  41  68  97 126 165 212 258 311 373
#     4  11  23  39  60  88 123 162 208 259 315 375
#     4  10  22  44  70  95 128 165 204 256 312 373
#     4  11  23  41  67  97 127 165 212 259 310 374
#     4  12  26  44  66  95 130 167 206 254 314 377
#     4  11  24  39  56  83 119 162 215 265 311 368
#
# _framework density 19.511319
#
# number of rings (size 3 to 8) (size 9 to 14) (size 15 to 20)
#    0.000    1.167    1.667    4.250    0.000   12.000 
#    0.000    3.333    0.000    0.000    0.000    0.000 
#    0.000    0.000    0.000    0.000    0.000    0.000 
#
# Total GULP energy -268514.187940 kJ/mol
# GULP energy per Si atom -5594.045582 kJ/mol
# Density = 1.946691 g / cm^3
# Si number density = 19.511319 Si / 1000 Ang^3
#
#
#
# Elastic Constant Matrix: (Units=GPa)
#
#
# Indices 1 2 3 4 5 6 
#
# 1 121.4989 57.8550 51.6449 0.0000 0.0000 0.0000
# 2 57.8550 86.1047 48.6763 0.0000 0.0000 0.0000
# 3 51.6449 48.6763 110.3596 0.0000 0.0000 0.0000
# 4 0.0000 0.0000 0.0000 63.5312 0.0000 0.0000
# 5 0.0000 0.0000 0.0000 0.0000 -0.4177 0.0000
# 6 0.0000 0.0000 0.0000 0.0000 0.0000 19.3657
#
#
#
# Elastic Compliance Matrix: (Units=1/GPa)
#
#
# Indices 1 2 3 4 5 6 
#
# 1 0.012772 -0.006931 -0.002920 0.000000 0.000000 0.000000
# 2 -0.006931 0.019233 -0.005239 0.000000 0.000000 0.000000
# 3 -0.002920 -0.005239 0.012739 0.000000 0.000000 0.000000
# 4 0.000000 0.000000 0.000000 0.015740 0.000000 0.000000
# 5 0.000000 0.000000 0.000000 0.000000 -2.394071 0.000000
# 6 0.000000 0.000000 0.000000 0.000000 0.000000 0.051638
#
#
# Mechanical properties :
#
#
# Convention : Reuss Voigt Hill
#
# Bulk Modulus (GPa) = 68.66847 70.47949 69.57398
# Shear Modulus (GPa) = -2.22527 27.14831 12.46152
#
# Velocity S-wave (km/s) = -1.06910 3.73421 2.52996
# Velocity P-wave (km/s) = 5.80918 7.40224 6.65356
#
# Compressibility (1/GPa) = 0.01456272
#
# Stress axis : x y z
#
# Youngs Moduli (GPa) = 78.29566 51.99435 78.50126
#
# Poissons Ratio (x) = 0.36038 0.22921
# Poissons Ratio (y) = 0.54268 0.41130
# Poissons Ratio (z) = 0.22861 0.27242
#
# Static dielectric constant tensor:
#      x y z
#    x 1.701140 0.000000 0.000000 
#    y 0.000000 1.656100 0.000000 
#    z 0.000000 0.000000 1.633610 
# 
# From -- ./inp_files/29521.got.cif
#   From: 2010.05.17/outbox.cif.g08.bks.cpg/sg51_15_cif.got.tgz:29521.got - 2010.06.03 11:52:47.
