data_PCOD9406235
_publ_section_title
;
Structure prediction by ZEFSAII (Michael W. Deem and Ramdas Pophale) SiO2 
 PCOD9406235
Probable space group: P M M A
;
_chemical_formula_sum "Si O2"
_cell_formula_units_Z 58
_cell_length_a 41.012227
_cell_length_b 7.673055
_cell_length_c 6.977772
_cell_angle_alpha 90.000000
_cell_angle_beta 90.000000
_cell_angle_gamma 90.000000
_cell_volume 2195.828605
_symmetry_space_group_name_H-M "P M M A"
_symmetry_group_IT_number 51
_symmetry_cell_setting 'orthorhombic'
loop_
_space_group_symop_operation_xyz
x,y,z
1/2-x,-y,z
1/2+x,-y,-z
-x,y,-z
-x,-y,-z
1/2+x,y,-z
1/2-x,y,z
x,-y,z
loop_
_atom_site_type_symbol
_atom_site_label
_atom_site_fract_x
_atom_site_fract_y
_atom_site_fract_z
Si Si1 0.715852 0.294928 0.376019
Si Si2 0.872621 0.708805 0.881628
Si Si3 0.490263 0.296622 0.711651
Si Si4 0.577965 0.202529 0.364466
Si Si5 0.558832 0.795587 0.787270
Si Si6 0.750000 0.000000 0.784521
Si Si7 0.799231 0.705407 0.935804
Si Si8 0.144775 0.707015 0.545124
O O1 0.750000 0.208846 0.440255
O O2 0.716674 0.500000 0.432435
O O3 0.680715 0.217699 0.425669
O O4 0.715790 0.292828 0.146530
O O5 0.874344 0.500000 0.890831
O O6 0.909443 0.770266 0.919488
O O7 0.837403 0.755123 0.968338
O O8 0.866924 0.768921 0.661632
O O9 0.500000 0.222560 0.500000
O O10 0.484149 0.500000 0.691582
O O11 0.454863 0.220672 0.759010
O O12 0.523069 0.276315 0.835109
O O13 0.568128 0.280775 0.574907
O O14 0.614059 0.270540 0.312885
O O15 0.583706 0.000000 0.390701
O O16 0.553839 0.000000 0.766776
O O17 0.721060 0.156154 0.812743
O O18 0.798386 0.500000 0.867957
O O19 0.149483 0.500000 0.537916
#
# Coordination Sequence:
#
# PCOD9406235 Si02
#       8
#     8   8   8   8   8   2   8   8
#     4   9  17  34  55  74  98 128 165 210 254 298
#     4   9  18  32  50  74 103 134 169 207 251 303
#     4   9  15  23  38  61  89 125 167 203 238 289
#     4   9  16  26  39  62  95 130 161 201 247 293
#     4   9  16  25  41  63  96 130 162 201 248 294
#     4  12  22  36  60  80 100 132 170 218 258 310
#     4  10  21  38  58  79 103 133 171 213 256 305
#     4   9  17  31  51  73  99 134 168 203 253 305
#
# _framework density 26.413719
#
# number of rings (size 3 to 8) (size 9 to 14) (size 15 to 20)
#    0.000    2.759    0.690    1.448    0.966    4.966 
#    2.483    0.000    0.000    0.828    0.000    0.966 
#    0.000    7.724    0.000    0.000    0.000    0.000 
#
# Total GULP energy -323292.426435 kJ/mol
# GULP energy per Si atom -5574.007352 kJ/mol
# Density = 2.635360 g / cm^3
# Si number density = 26.413719 Si / 1000 Ang^3
#
#
#
# Elastic Constant Matrix: (Units=GPa)
#
#
# Indices 1 2 3 4 5 6 
#
# 1 325.1971 31.8755 44.7935 0.0000 0.0000 0.0000
# 2 31.8755 91.8012 -8.6977 0.0000 0.0000 0.0000
# 3 44.7935 -8.6977 61.1233 0.0000 0.0000 0.0000
# 4 0.0000 0.0000 0.0000 -11.2658 0.0000 0.0000
# 5 0.0000 0.0000 0.0000 0.0000 52.4574 0.0000
# 6 0.0000 0.0000 0.0000 0.0000 0.0000 171.9757
#
#
#
# Elastic Compliance Matrix: (Units=1/GPa)
#
#
# Indices 1 2 3 4 5 6 
#
# 1 0.003620 -0.001529 -0.002871 0.000000 0.000000 0.000000
# 2 -0.001529 0.011688 0.002784 0.000000 0.000000 0.000000
# 3 -0.002871 0.002784 0.018860 0.000000 0.000000 0.000000
# 4 0.000000 0.000000 0.000000 -0.088765 0.000000 0.000000
# 5 0.000000 0.000000 0.000000 0.000000 0.019063 0.000000
# 6 0.000000 0.000000 0.000000 0.000000 0.000000 0.005815
#
#
# Mechanical properties :
#
#
# Convention : Reuss Voigt Hill
#
# Bulk Modulus (GPa) = 32.32453 68.22934 50.27694
# Shear Modulus (GPa) = -309.13781 69.97682 -119.58049
#
# Velocity S-wave (km/s) = -10.83009 5.15268 -6.73576
# Velocity P-wave (km/s) = 12.00515 7.82862 6.43569
#
# Compressibility (1/GPa) = 0.03093625
#
# Stress axis : x y z
#
# Youngs Moduli (GPa) = 276.21600 85.55950 53.02150
#
# Poissons Ratio (x) = 0.13083 0.15221
# Poissons Ratio (y) = 0.42235 -0.14760
# Poissons Ratio (z) = 0.79294 -0.23817
#
# Static dielectric constant tensor:
#      x y z
#    x 2.146770 0.000000 0.000000 
#    y 0.000000 1.956160 0.000000 
#    z 0.000000 0.000000 2.166670 
# 
# From -- ./inp_files/19402.got.cif
#   From: 2010.05.17/outbox.cif.g08.bks.cpg/sg51_10_cif.got.tgz:19402.got - 2010.06.03 11:52:47.
