data_PCOD9406957
_publ_section_title
;
Structure prediction by ZEFSAII (Michael W. Deem and Ramdas Pophale) SiO2 
 PCOD9406957
Probable space group: P M M A
;
_chemical_formula_sum "Si O2"
_cell_formula_units_Z 48
_cell_length_a 8.683862
_cell_length_b 24.898179
_cell_length_c 13.975955
_cell_angle_alpha 90.000000
_cell_angle_beta 90.000000
_cell_angle_gamma 90.000000
_cell_volume 3021.774081
_symmetry_space_group_name_H-M "P M M A"
_symmetry_group_IT_number 51
_symmetry_cell_setting 'orthorhombic'
loop_
_space_group_symop_operation_xyz
x,y,z
1/2-x,-y,z
1/2+x,-y,-z
-x,y,-z
-x,-y,-z
1/2+x,y,-z
1/2-x,y,z
x,-y,z
loop_
_atom_site_type_symbol
_atom_site_label
_atom_site_fract_x
_atom_site_fract_y
_atom_site_fract_z
Si Si1 0.064911 0.113665 0.603064
Si Si2 0.064123 0.224812 0.701434
Si Si3 0.935381 0.168558 0.102365
Si Si4 0.566920 0.669363 0.607671
Si Si5 0.065424 0.441326 0.608190
Si Si6 0.937797 0.940290 0.200188
O O1 0.250000 0.112073 0.599146
O O2 0.020743 0.174500 0.633319
O O3 0.016863 0.075806 0.691464
O O4 0.000000 0.099179 0.500000
O O5 0.250000 0.230032 0.697075
O O6 0.021558 0.206864 0.808973
O O7 0.987704 0.279370 0.667150
O O8 0.750000 0.167973 0.098609
O O9 0.987834 0.108269 0.131668
O O10 0.000000 0.184309 0.000000
O O11 0.500000 0.674762 0.500000
O O12 0.750000 0.667125 0.601465
O O13 0.504272 0.613124 0.650391
O O14 0.250000 0.436734 0.604495
O O15 0.026743 0.500000 0.651323
O O16 0.000000 0.442531 0.500000
O O17 0.750000 0.940205 0.198750
O O18 0.990832 0.000000 0.174767
#
# Coordination Sequence:
#
# PCOD9406957 Si02
#       6
#     8   8   8   8   8   8
#     4   9  17  28  43  61  82 112 145 176 212 253
#     4   9  18  32  45  60  85 114 146 181 218 263
#     4   9  18  32  50  68  86 110 138 175 223 270
#     4  11  20  28  42  64  90 121 154 187 221 255
#     4   9  16  26  40  58  84 120 157 188 217 250
#     4   8  15  29  46  63  85 113 142 170 208 262
#
# _framework density 15.884708
#
# number of rings (size 3 to 8) (size 9 to 14) (size 15 to 20)
#    0.000    2.833    0.000    5.500    0.000    4.333 
#    0.000    2.500    0.000    1.000    0.000    0.000 
#    0.000    0.667    0.000    2.167    0.000    3.000 
#
# Total GULP energy -267410.001838 kJ/mol
# GULP energy per Si atom -5571.041705 kJ/mol
# Density = 1.584855 g / cm^3
# Si number density = 15.884708 Si / 1000 Ang^3
#
#
#
# Elastic Constant Matrix: (Units=GPa)
#
#
# Indices 1 2 3 4 5 6 
#
# 1 37.7552 31.9848 13.2520 0.0000 0.0000 0.0000
# 2 31.9848 115.2969 18.7400 0.0000 0.0000 0.0000
# 3 13.2520 18.7400 59.6530 0.0000 0.0000 0.0000
# 4 0.0000 0.0000 0.0000 10.8974 0.0000 0.0000
# 5 0.0000 0.0000 0.0000 0.0000 22.4534 0.0000
# 6 0.0000 0.0000 0.0000 0.0000 0.0000 17.8470
#
#
#
# Elastic Compliance Matrix: (Units=1/GPa)
#
#
# Indices 1 2 3 4 5 6 
#
# 1 0.036054 -0.009168 -0.005129 0.000000 0.000000 0.000000
# 2 -0.009168 0.011471 -0.001567 0.000000 0.000000 0.000000
# 3 -0.005129 -0.001567 0.018395 0.000000 0.000000 0.000000
# 4 0.000000 0.000000 0.000000 0.091765 0.000000 0.000000
# 5 0.000000 0.000000 0.000000 0.000000 0.044537 0.000000
# 6 0.000000 0.000000 0.000000 0.000000 0.000000 0.056032
#
#
# Mechanical properties :
#
#
# Convention : Reuss Voigt Hill
#
# Bulk Modulus (GPa) = 29.24683 37.85095 33.54889
# Shear Modulus (GPa) = 16.59039 20.15479 18.37259
#
# Velocity S-wave (km/s) = 3.23526 3.56591 3.40460
# Velocity P-wave (km/s) = 5.69279 6.39019 6.05154
#
# Compressibility (1/GPa) = 0.03419174
#
# Stress axis : x y z
#
# Youngs Moduli (GPa) = 27.73645 87.17417 54.36154
#
# Poissons Ratio (x) = 0.79922 0.27883
# Poissons Ratio (y) = 0.25429 0.08519
# Poissons Ratio (z) = 0.14227 0.13660
#
# Static dielectric constant tensor:
#      x y z
#    x 1.534930 0.000000 0.000000 
#    y 0.000000 1.563910 0.000000 
#    z 0.000000 0.000000 1.505680 
# 
# From -- ./inp_files/21991.got.cif
#   From: 2010.05.17/outbox.cif.g08.bks.cpg/sg51_11_cif.got.tgz:21991.got - 2010.06.03 11:52:47.
