data_PCOD9406391
_publ_section_title
;
Structure prediction by ZEFSAII (Michael W. Deem and Ramdas Pophale) SiO2 
 PCOD9406391
Probable space group: P M M A
;
_chemical_formula_sum "Si O2"
_cell_formula_units_Z 48
_cell_length_a 8.637265
_cell_length_b 9.510164
_cell_length_c 31.806721
_cell_angle_alpha 90.000000
_cell_angle_beta 90.000000
_cell_angle_gamma 90.000000
_cell_volume 2612.661527
_symmetry_space_group_name_H-M "P M M A"
_symmetry_group_IT_number 51
_symmetry_cell_setting 'orthorhombic'
loop_
_space_group_symop_operation_xyz
x,y,z
1/2-x,-y,z
1/2+x,-y,-z
-x,y,-z
-x,-y,-z
1/2+x,y,-z
1/2-x,y,z
x,-y,z
loop_
_atom_site_type_symbol
_atom_site_label
_atom_site_fract_x
_atom_site_fract_y
_atom_site_fract_z
Si Si1 0.935400 0.837007 0.797437
Si Si2 0.436806 0.836425 0.544351
Si Si3 0.061415 0.337971 0.624735
Si Si4 0.064302 0.337088 0.876083
Si Si5 0.935497 0.836564 0.953797
Si Si6 0.936768 0.334104 0.280693
O O1 0.750000 0.834278 0.800383
O O2 0.003849 0.750821 0.836445
O O3 0.988185 0.761346 0.754733
O O4 0.986204 0.000000 0.798457
O O5 0.500000 0.780552 0.500000
O O6 0.250000 0.829883 0.543236
O O7 0.491938 0.754336 0.585595
O O8 0.482575 0.000000 0.547621
O O9 0.250000 0.334577 0.624702
O O10 0.015197 0.500000 0.619004
O O11 0.014885 0.293363 0.671788
O O12 0.250000 0.334049 0.876109
O O13 0.014174 0.500000 0.873349
O O14 0.002817 0.264172 0.918299
O O15 0.750000 0.827076 0.954139
O O16 0.977653 0.000000 0.944698
O O17 0.000000 0.802481 0.000000
O O18 0.750000 0.322306 0.277905
O O19 0.973915 0.500000 0.274713
#
# Coordination Sequence:
#
# PCOD9406391 Si02
#       6
#     8   8   8   8   8   8
#     4  11  24  39  55  79 110 142 177 217 263 316
#     4   9  17  29  45  66  93 126 163 202 246 296
#     4   8  15  29  49  72  97 125 160 204 250 298
#     4  11  24  40  59  84 112 144 184 227 270 317
#     4  10  21  38  61  88 117 150 187 226 270 319
#     4   9  18  34  56  80 104 132 170 215 262 313
#
# _framework density 18.372070000000001
#
# number of rings (size 3 to 8) (size 9 to 14) (size 15 to 20)
#    0.000    2.333    0.000    3.500    0.000    9.333 
#    0.000    2.500    0.000    3.000    0.000    0.000 
#    0.000    0.000    0.000    0.000    0.000    0.000 
#
# Total GULP energy -267929.560582 kJ/mol
# GULP energy per Si atom -5581.865845 kJ/mol
# Density = 1.833025 g / cm^3
# Si number density = 18.372070 Si / 1000 Ang^3
#
#
#
# Elastic Constant Matrix: (Units=GPa)
#
#
# Indices 1 2 3 4 5 6 
#
# 1 27.2832 39.7645 41.1823 0.0000 0.0000 0.0000
# 2 39.7645 127.6384 123.8968 0.0000 0.0000 0.0000
# 3 41.1823 123.8968 195.8804 0.0000 0.0000 0.0000
# 4 0.0000 0.0000 0.0000 42.2615 0.0000 0.0000
# 5 0.0000 0.0000 0.0000 0.0000 32.0664 0.0000
# 6 0.0000 0.0000 0.0000 0.0000 0.0000 23.2453
#
#
#
# Elastic Compliance Matrix: (Units=1/GPa)
#
#
# Indices 1 2 3 4 5 6 
#
# 1 0.067537 -0.018801 -0.002307 0.000000 0.000000 0.000000
# 2 -0.018801 0.025529 -0.012195 0.000000 0.000000 0.000000
# 3 -0.002307 -0.012195 0.013304 0.000000 0.000000 0.000000
# 4 0.000000 0.000000 0.000000 0.023662 0.000000 0.000000
# 5 0.000000 0.000000 0.000000 0.000000 0.031185 0.000000
# 6 0.000000 0.000000 0.000000 0.000000 0.000000 0.043019
#
#
# Mechanical properties :
#
#
# Convention : Reuss Voigt Hill
#
# Bulk Modulus (GPa) = 25.14840 84.49880 54.82360
# Shear Modulus (GPa) = 17.59960 29.24520 23.42240
#
# Velocity S-wave (km/s) = 3.09844 3.99410 3.57444
# Velocity P-wave (km/s) = 5.14962 8.20752 6.85135
#
# Compressibility (1/GPa) = 0.03976395
#
# Stress axis : x y z
#
# Youngs Moduli (GPa) = 14.80667 39.17098 75.16753
#
# Poissons Ratio (x) = 0.73644 0.17344
# Poissons Ratio (y) = 0.27838 0.91665
# Poissons Ratio (z) = 0.03417 0.47768
#
# Static dielectric constant tensor:
#      x y z
#    x 1.625880 0.000000 0.000000 
#    y 0.000000 1.620960 0.000000 
#    z 0.000000 0.000000 1.614230 
# 
# From -- ./inp_files/37015.got.cif
#   From: 2010.05.17/outbox.cif.g08.bks.cpg/sg51_19_cif.got.tgz:37015.got - 2010.06.03 11:52:47.
