data_PCOD9406735
_publ_section_title
;
Structure prediction by ZEFSAII (Michael W. Deem and Ramdas Pophale) SiO2 
 PCOD9406735
Probable space group: P M M A
;
_chemical_formula_sum "Si O2"
_cell_formula_units_Z 38
_cell_length_a 9.438543
_cell_length_b 10.097660
_cell_length_c 19.958700
_cell_angle_alpha 90.000000
_cell_angle_beta 90.000000
_cell_angle_gamma 90.000000
_cell_volume 1902.207775
_symmetry_space_group_name_H-M "P M M A"
_symmetry_group_IT_number 51
_symmetry_cell_setting 'orthorhombic'
loop_
_space_group_symop_operation_xyz
x,y,z
1/2-x,-y,z
1/2+x,-y,-z
-x,y,-z
-x,-y,-z
1/2+x,y,-z
1/2-x,y,z
x,-y,z
loop_
_atom_site_type_symbol
_atom_site_label
_atom_site_fract_x
_atom_site_fract_y
_atom_site_fract_z
Si Si1 0.918620 0.651931 0.430793
Si Si2 0.550603 0.000000 0.905323
Si Si3 0.080730 0.157993 0.693394
Si Si4 0.406536 0.346084 0.939708
Si Si5 0.250000 0.000000 0.964295
Si Si6 0.910585 0.260433 0.820459
O O1 0.750000 0.657137 0.443027
O O2 0.951782 0.500000 0.408496
O O3 0.950892 0.761336 0.374663
O O4 0.000000 0.675969 0.500000
O O5 0.596037 0.873561 0.862980
O O6 0.630634 0.000000 0.975208
O O7 0.380104 0.000000 0.909520
O O8 0.250000 0.172784 0.707086
O O9 0.988146 0.225252 0.751566
O O10 0.051607 0.000000 0.688691
O O11 0.250000 0.280763 0.938484
O O12 0.387432 0.500000 0.956854
O O13 0.487250 0.343352 0.869541
O O14 0.500000 0.286732 0.000000
O O15 0.750000 0.312989 0.812491
#
# Coordination Sequence:
#
# PCOD9406735 Si02
#       6
#     8   4   8   8   2   8
#     4   9  19  38  64  93 123 156 197 245 295 355
#     4  11  24  38  54  86 111 148 194 250 304 358
#     4  10  22  39  59  86 122 165 205 245 300 363
#     4  10  23  41  60  82 110 148 196 250 307 364
#     4  10  24  38  56  78 114 146 198 250 304 358
#     4  12  24  38  58  82 118 153 195 246 299 359
#
# _framework density 19.976787999999999
#
# number of rings (size 3 to 8) (size 9 to 14) (size 15 to 20)
#    0.000    1.684    2.105    1.263    5.895    3.368 
#    0.000    2.105    0.000    0.000    0.000    0.000 
#    0.000    0.000    0.000    0.000    0.000    0.000 
#
# Total GULP energy -211665.311568 kJ/mol
# GULP energy per Si atom -5570.139778 kJ/mol
# Density = 1.993132 g / cm^3
# Si number density = 19.976788 Si / 1000 Ang^3
#
#
#
# Elastic Constant Matrix: (Units=GPa)
#
#
# Indices 1 2 3 4 5 6 
#
# 1 168.9041 38.5503 82.4724 0.0000 0.0000 0.0000
# 2 38.5503 53.6323 39.1143 0.0000 0.0000 0.0000
# 3 82.4724 39.1143 136.9143 0.0000 0.0000 0.0000
# 4 0.0000 0.0000 0.0000 104.8600 0.0000 0.0000
# 5 0.0000 0.0000 0.0000 0.0000 42.5395 0.0000
# 6 0.0000 0.0000 0.0000 0.0000 0.0000 14.9084
#
#
#
# Elastic Compliance Matrix: (Units=1/GPa)
#
#
# Indices 1 2 3 4 5 6 
#
# 1 0.008777 -0.003099 -0.004402 0.000000 0.000000 0.000000
# 2 -0.003099 0.024647 -0.005175 0.000000 0.000000 0.000000
# 3 -0.004402 -0.005175 0.011434 0.000000 0.000000 0.000000
# 4 0.000000 0.000000 0.000000 0.009537 0.000000 0.000000
# 5 0.000000 0.000000 0.000000 0.000000 0.023508 0.000000
# 6 0.000000 0.000000 0.000000 0.000000 0.000000 0.067076
#
#
# Mechanical properties :
#
#
# Convention : Reuss Voigt Hill
#
# Bulk Modulus (GPa) = 51.26306 75.52497 63.39402
# Shear Modulus (GPa) = 28.27573 45.74917 37.01245
#
# Velocity S-wave (km/s) = 3.76630 4.79071 4.30905
# Velocity P-wave (km/s) = 6.68060 8.27585 7.52064
#
# Compressibility (1/GPa) = 0.01950722
#
# Stress axis : x y z
#
# Youngs Moduli (GPa) = 113.93393 40.57352 87.46135
#
# Poissons Ratio (x) = 0.12572 0.38498
# Poissons Ratio (y) = 0.35304 0.45258
# Poissons Ratio (z) = 0.50151 0.20995
#
# Static dielectric constant tensor:
#      x y z
#    x 1.777800 0.000000 0.000000 
#    y 0.000000 2.503410 0.000000 
#    z 0.000000 0.000000 1.646410 
# 
# From -- ./inp_files/27082.got.cif
#   From: 2010.05.17/outbox.cif.g08.bks.cpg/sg51_14_cif.got.tgz:27082.got - 2010.06.03 11:52:47.
