data_PCOD9406378
_publ_section_title
;
Structure prediction by ZEFSAII (Michael W. Deem and Ramdas Pophale) SiO2 
 PCOD9406378
Probable space group: P M M A
;
_chemical_formula_sum "Si O2"
_cell_formula_units_Z 48
_cell_length_a 9.394937
_cell_length_b 8.960743
_cell_length_c 31.985232
_cell_angle_alpha 90.000000
_cell_angle_beta 90.000000
_cell_angle_gamma 90.000000
_cell_volume 2692.696457
_symmetry_space_group_name_H-M "P M M A"
_symmetry_group_IT_number 51
_symmetry_cell_setting 'orthorhombic'
loop_
_space_group_symop_operation_xyz
x,y,z
1/2-x,-y,z
1/2+x,-y,-z
-x,y,-z
-x,-y,-z
1/2+x,y,-z
1/2-x,y,z
x,-y,z
loop_
_atom_site_type_symbol
_atom_site_label
_atom_site_fract_x
_atom_site_fract_y
_atom_site_fract_z
Si Si1 0.415038 0.817923 0.540555
Si Si2 0.916385 0.821142 0.120083
Si Si3 0.581313 0.320600 0.803206
Si Si4 0.916790 0.320163 0.957496
Si Si5 0.414195 0.679493 0.291536
Si Si6 0.920774 0.176173 0.367325
O O1 0.500000 0.766043 0.500000
O O2 0.250000 0.775437 0.536735
O O3 0.468802 0.770363 0.586447
O O4 0.419673 0.000000 0.540962
O O5 0.750000 0.777723 0.117198
O O6 0.986603 0.759556 0.162431
O O7 0.004898 0.754265 0.081533
O O8 0.924821 0.000000 0.119333
O O9 0.750000 0.288971 0.809352
O O10 0.564814 0.500000 0.806900
O O11 0.542962 0.275998 0.755641
O O12 0.750000 0.278470 0.959683
O O13 0.923612 0.500000 0.952818
O O14 0.000000 0.280577 0.000000
O O15 0.250000 0.725892 0.297521
O O16 0.418298 0.500000 0.292434
O O17 0.508565 0.742714 0.328543
O O18 0.750000 0.193047 0.366231
O O19 0.952239 0.000000 0.364290
#
# Coordination Sequence:
#
# PCOD9406378 Si02
#       6
#     8   8   8   8   8   8
#     4   8  14  25  41  63  92 124 158 198 243 291
#     4  11  24  38  53  79 113 144 174 211 257 306
#     4   9  19  37  58  77  99 131 172 215 257 302
#     4  10  21  38  61  86 110 140 179 219 258 302
#     4   9  19  35  53  74 100 130 167 210 253 300
#     4   9  18  31  47  71 102 131 161 202 251 301
#
# _framework density 17.825998999999999
#
# number of rings (size 3 to 8) (size 9 to 14) (size 15 to 20)
#    0.000    2.667    0.000    3.500    0.000    7.667 
#    0.000    6.667    0.000    0.500    0.000    0.000 
#    0.000    0.000    0.000    0.000    0.000    0.000 
#
# Total GULP energy -267701.458772 kJ/mol
# GULP energy per Si atom -5577.113724 kJ/mol
# Density = 1.778543 g / cm^3
# Si number density = 17.825999 Si / 1000 Ang^3
#
#
#
# Elastic Constant Matrix: (Units=GPa)
#
#
# Indices 1 2 3 4 5 6 
#
# 1 98.8549 36.3584 97.2696 0.0000 0.0000 0.0000
# 2 36.3584 17.4506 47.6393 0.0000 0.0000 0.0000
# 3 97.2696 47.6393 189.6533 0.0000 0.0000 0.0000
# 4 0.0000 0.0000 0.0000 28.4291 0.0000 0.0000
# 5 0.0000 0.0000 0.0000 0.0000 40.3298 0.0000
# 6 0.0000 0.0000 0.0000 0.0000 0.0000 27.8152
#
#
#
# Elastic Compliance Matrix: (Units=1/GPa)
#
#
# Indices 1 2 3 4 5 6 
#
# 1 0.043411 -0.094397 0.001447 0.000000 0.000000 0.000000
# 2 -0.094397 0.387617 -0.048952 0.000000 0.000000 0.000000
# 3 0.001447 -0.048952 0.016827 0.000000 0.000000 0.000000
# 4 0.000000 0.000000 0.000000 0.035175 0.000000 0.000000
# 5 0.000000 0.000000 0.000000 0.000000 0.024796 0.000000
# 6 0.000000 0.000000 0.000000 0.000000 0.000000 0.035952
#
#
# Mechanical properties :
#
#
# Convention : Reuss Voigt Hill
#
# Bulk Modulus (GPa) = 6.09565 74.27704 40.18634
# Shear Modulus (GPa) = 5.66724 27.62760 16.64742
#
# Velocity S-wave (km/s) = 1.78497 3.94108 3.05927
# Velocity P-wave (km/s) = 2.77039 7.90366 5.92211
#
# Compressibility (1/GPa) = 0.16405153
#
# Stress axis : x y z
#
# Youngs Moduli (GPa) = 23.03586 2.57986 59.42927
#
# Poissons Ratio (x) = 0.24353 -0.08601
# Poissons Ratio (y) = 2.17452 2.90916
# Poissons Ratio (z) = -0.03334 0.12629
#
# Static dielectric constant tensor:
#      x y z
#    x 1.592370 0.000000 0.000000 
#    y 0.000000 1.601170 0.000000 
#    z 0.000000 0.000000 1.605450 
# 
# From -- ./inp_files/37016.got.cif
#   From: 2010.05.17/outbox.cif.g08.bks.cpg/sg51_19_cif.got.tgz:37016.got - 2010.06.03 11:52:47.
