data_PCOD9406637
_publ_section_title
;
Structure prediction by ZEFSAII (Michael W. Deem and Ramdas Pophale) SiO2 
 PCOD9406637
Probable space group: P M M A
;
_chemical_formula_sum "Si O2"
_cell_formula_units_Z 64
_cell_length_a 14.911666
_cell_length_b 17.975662
_cell_length_c 12.230374
_cell_angle_alpha 90.000000
_cell_angle_beta 90.000000
_cell_angle_gamma 90.000000
_cell_volume 3278.315890
_symmetry_space_group_name_H-M "P M M A"
_symmetry_group_IT_number 51
_symmetry_cell_setting 'orthorhombic'
loop_
_space_group_symop_operation_xyz
x,y,z
1/2-x,-y,z
1/2+x,-y,-z
-x,y,-z
-x,-y,-z
1/2+x,y,-z
1/2-x,y,z
x,-y,z
loop_
_atom_site_type_symbol
_atom_site_label
_atom_site_fract_x
_atom_site_fract_y
_atom_site_fract_z
Si Si1 0.647786 0.305565 0.325191
Si Si2 0.101882 0.309674 0.038011
Si Si3 0.606886 0.585005 0.519670
Si Si4 0.355470 0.582611 0.857089
Si Si5 0.647546 0.145697 0.009645
Si Si6 0.003815 0.812662 0.373660
Si Si7 0.006981 0.911322 0.166628
Si Si8 0.144769 0.307102 0.292585
O O1 0.750000 0.283096 0.299714
O O2 0.647691 0.359284 0.430493
O O3 0.608184 0.356424 0.227502
O O4 0.584253 0.236150 0.346513
O O5 0.113667 0.313825 0.167463
O O6 0.135586 0.383381 0.977246
O O7 0.149585 0.235230 0.994824
O O8 0.000000 0.300268 0.000000
O O9 0.500000 0.587349 0.500000
O O10 0.636939 0.500000 0.505785
O O11 0.628605 0.618030 0.638244
O O12 0.250000 0.577457 0.830508
O O13 0.394891 0.500000 0.846472
O O14 0.750000 0.118040 0.013984
O O15 0.583410 0.118774 0.107847
O O16 0.591964 0.119464 0.902502
O O17 0.000000 0.834788 0.500000
O O18 0.010693 0.879418 0.288270
O O19 0.086587 0.756701 0.351283
O O20 0.007386 0.000000 0.161426
O O21 0.250000 0.289033 0.293846
#
# Coordination Sequence:
#
# PCOD9406637 Si02
#       8
#     8   8   8   8   8   8   8   8
#     4  11  21  39  65  90 119 166 221 267 317 373
#     4  12  23  39  63  91 127 166 216 261 309 378
#     4  11  23  39  62  92 128 166 216 278 333 373
#     4  10  22  37  54  83 123 165 211 260 316 375
#     4  11  21  41  71 100 131 167 208 260 317 380
#     4  12  24  43  65  93 126 168 216 267 318 381
#     4  11  25  43  66 101 134 163 205 257 317 394
#     4  12  23  40  64  91 125 170 217 266 318 375
#
# _framework density 19.522220000000001
#
# number of rings (size 3 to 8) (size 9 to 14) (size 15 to 20)
#    0.000    0.750    5.000    4.125    0.000    5.000 
#    0.000    0.000    0.000    0.000    0.000    3.500 
#    0.000    0.000    0.000    0.000    0.000    0.000 
#
# Total GULP energy -357854.508113 kJ/mol
# GULP energy per Si atom -5591.476689 kJ/mol
# Density = 1.947779 g / cm^3
# Si number density = 19.522220 Si / 1000 Ang^3
#
#
#
# Elastic Constant Matrix: (Units=GPa)
#
#
# Indices 1 2 3 4 5 6 
#
# 1 125.6669 11.0494 19.9537 0.0000 0.0000 0.0000
# 2 11.0494 55.6948 14.0323 0.0000 0.0000 0.0000
# 3 19.9537 14.0323 110.4234 0.0000 0.0000 0.0000
# 4 0.0000 0.0000 0.0000 12.8936 0.0000 0.0000
# 5 0.0000 0.0000 0.0000 0.0000 5.2774 0.0000
# 6 0.0000 0.0000 0.0000 0.0000 0.0000 36.3225
#
#
#
# Elastic Compliance Matrix: (Units=1/GPa)
#
#
# Indices 1 2 3 4 5 6 
#
# 1 0.008284 -0.001308 -0.001331 0.000000 0.000000 0.000000
# 2 -0.001308 0.018755 -0.002147 0.000000 0.000000 0.000000
# 3 -0.001331 -0.002147 0.009569 0.000000 0.000000 0.000000
# 4 0.000000 0.000000 0.000000 0.077558 0.000000 0.000000
# 5 0.000000 0.000000 0.000000 0.000000 0.189488 0.000000
# 6 0.000000 0.000000 0.000000 0.000000 0.000000 0.027531
#
#
# Mechanical properties :
#
#
# Convention : Reuss Voigt Hill
#
# Bulk Modulus (GPa) = 36.98641 42.42843 39.70742
# Shear Modulus (GPa) = 14.29513 27.34868 20.82191
#
# Velocity S-wave (km/s) = 2.70895 3.74692 3.26939
# Velocity P-wave (km/s) = 5.36390 6.36395 5.88520
#
# Compressibility (1/GPa) = 0.02703695
#
# Stress axis : x y z
#
# Youngs Moduli (GPa) = 120.71679 53.31777 104.50045
#
# Poissons Ratio (x) = 0.06975 0.13905
# Poissons Ratio (y) = 0.15792 0.22436
# Poissons Ratio (z) = 0.16063 0.11447
#
# Static dielectric constant tensor:
#      x y z
#    x 1.716560 0.000000 0.000000 
#    y 0.000000 1.662110 0.000000 
#    z 0.000000 0.000000 1.691880 
# 
# From -- ./inp_files/16854.got.cif
#   From: 2010.05.17/outbox.cif.g08.bks.cpg/sg51_9_cif.got.tgz:16854.got - 2010.06.03 11:52:47.
