data_PCOD9406062
_publ_section_title
;
Structure prediction by ZEFSAII (Michael W. Deem and Ramdas Pophale) SiO2 
 PCOD9406062
Probable space group: P M M A
;
_chemical_formula_sum "Si O2"
_cell_formula_units_Z 56
_cell_length_a 31.762731
_cell_length_b 15.773037
_cell_length_c 5.373421
_cell_angle_alpha 90.000000
_cell_angle_beta 90.000000
_cell_angle_gamma 90.000000
_cell_volume 2692.055610
_symmetry_space_group_name_H-M "P M M A"
_symmetry_group_IT_number 51
_symmetry_cell_setting 'orthorhombic'
loop_
_space_group_symop_operation_xyz
x,y,z
1/2-x,-y,z
1/2+x,-y,-z
-x,y,-z
-x,-y,-z
1/2+x,y,-z
1/2-x,y,z
x,-y,z
loop_
_atom_site_type_symbol
_atom_site_label
_atom_site_fract_x
_atom_site_fract_y
_atom_site_fract_z
Si Si1 0.084410 0.900256 0.468630
Si Si2 0.534365 0.407207 0.234386
Si Si3 0.614760 0.237341 0.912904
Si Si4 0.703339 0.818064 0.917226
Si Si5 0.589162 0.409354 0.729129
Si Si6 0.031371 0.779679 0.790424
Si Si7 0.321754 0.904426 0.600329
O O1 0.100818 0.848690 0.228875
O O2 0.044982 0.847111 0.579417
O O3 0.127324 0.896880 0.634764
O O4 0.074845 0.000000 0.427680
O O5 0.512295 0.500000 0.248052
O O6 0.564750 0.408467 0.470341
O O7 0.512330 0.314683 0.256548
O O8 0.559075 0.408695 0.972517
O O9 0.662776 0.236098 0.997669
O O10 0.612330 0.319843 0.739363
O O11 0.577932 0.244442 0.112740
O O12 0.750000 0.780537 0.923965
O O13 0.693729 0.848132 0.633817
O O14 0.700501 0.888121 0.136327
O O15 0.612741 0.500000 0.742651
O O16 0.000000 0.817221 0.000000
O O17 0.313760 0.000000 0.517516
#
# Coordination Sequence:
#
# PCOD9406062 Si02
#       7
#     8   8   8   8   8   8   8
#     4  10  21  38  57  79 110 155 199 239 290 337
#     4   9  18  34  55  85 115 143 181 232 291 349
#     4  10  21  39  57  79 119 148 191 241 292 342
#     4  11  22  35  57  85 112 148 185 229 292 350
#     4   9  17  32  59  83 108 147 188 228 283 344
#     4  11  22  37  58  82 112 154 198 243 291 343
#     4  10  21  37  57  81 113 146 185 238 291 342
#
# _framework density 20.801946999999998
#
# number of rings (size 3 to 8) (size 9 to 14) (size 15 to 20)
#    0.000    2.000    2.857    0.857    0.000    4.000 
#    0.000    0.714    0.000    4.714    0.000    0.000 
#    0.000    6.571    0.000    0.000    0.000    1.571 
#
# Total GULP energy -311738.743943 kJ/mol
# GULP energy per Si atom -5566.763285 kJ/mol
# Density = 2.075460 g / cm^3
# Si number density = 20.801947 Si / 1000 Ang^3
#
#
#
# Elastic Constant Matrix: (Units=GPa)
#
#
# Indices 1 2 3 4 5 6 
#
# 1 108.3958 13.3213 23.9149 0.0000 0.0000 0.0000
# 2 13.3213 115.4103 5.2586 0.0000 0.0000 0.0000
# 3 23.9149 5.2586 79.5674 0.0000 0.0000 0.0000
# 4 0.0000 0.0000 0.0000 42.9445 0.0000 0.0000
# 5 0.0000 0.0000 0.0000 0.0000 24.4509 0.0000
# 6 0.0000 0.0000 0.0000 0.0000 0.0000 -3.1527
#
#
#
# Elastic Compliance Matrix: (Units=1/GPa)
#
#
# Indices 1 2 3 4 5 6 
#
# 1 0.009999 -0.001020 -0.002938 0.000000 0.000000 0.000000
# 2 -0.001020 0.008795 -0.000275 0.000000 0.000000 0.000000
# 3 -0.002938 -0.000275 0.013469 0.000000 0.000000 0.000000
# 4 0.000000 0.000000 0.000000 0.023286 0.000000 0.000000
# 5 0.000000 0.000000 0.000000 0.000000 0.040898 0.000000
# 6 0.000000 0.000000 0.000000 0.000000 0.000000 -0.317190
#
#
# Mechanical properties :
#
#
# Convention : Reuss Voigt Hill
#
# Bulk Modulus (GPa) = 42.02104 43.15146 42.58625
# Shear Modulus (GPa) = -24.46852 30.24045 2.88596
#
# Velocity S-wave (km/s) = -3.43339 3.81692 1.17914
# Velocity P-wave (km/s) = 2.12764 6.34146 4.72975
#
# Compressibility (1/GPa) = 0.02379760
#
# Stress axis : x y z
#
# Youngs Moduli (GPa) = 100.00988 113.70075 74.24389
#
# Poissons Ratio (x) = 0.11601 0.21812
# Poissons Ratio (y) = 0.10204 0.02039
# Poissons Ratio (z) = 0.29382 0.03122
#
# Static dielectric constant tensor:
#      x y z
#    x 1.801300 0.000000 0.000000 
#    y 0.000000 1.810940 0.000000 
#    z 0.000000 0.000000 1.841070 
# 
# From -- ./inp_files/4004.got.cif
#   From: 2010.05.17/outbox.cif.g08.bks.cpg/sg51_3_cif.got.tgz:4004.got - 2010.06.03 11:52:47.
