data_PCOD9406487
_publ_section_title
;
Structure prediction by ZEFSAII (Michael W. Deem and Ramdas Pophale) SiO2 
 PCOD9406487
Probable space group: P M M A
;
_chemical_formula_sum "Si O2"
_cell_formula_units_Z 56
_cell_length_a 22.587488
_cell_length_b 8.892707
_cell_length_c 14.912028
_cell_angle_alpha 90.000000
_cell_angle_beta 90.000000
_cell_angle_gamma 90.000000
_cell_volume 2995.288290
_symmetry_space_group_name_H-M "P M M A"
_symmetry_group_IT_number 51
_symmetry_cell_setting 'orthorhombic'
loop_
_space_group_symop_operation_xyz
x,y,z
1/2-x,-y,z
1/2+x,-y,-z
-x,y,-z
-x,-y,-z
1/2+x,y,-z
1/2-x,y,z
x,-y,z
loop_
_atom_site_type_symbol
_atom_site_label
_atom_site_fract_x
_atom_site_fract_y
_atom_site_fract_z
Si Si1 0.250000 0.182838 0.829636
Si Si2 0.250000 0.320221 0.029311
Si Si3 0.850396 0.180483 0.311592
Si Si4 0.392713 0.319689 0.334229
Si Si5 0.183439 0.180608 0.486993
Si Si6 0.523655 0.677663 0.277354
Si Si7 0.985247 0.826444 0.899517
Si Si8 0.151303 0.825776 0.154005
O O1 0.192478 0.228001 0.770238
O O2 0.250000 0.000000 0.837013
O O3 0.250000 0.251890 0.928918
O O4 0.250000 0.500000 0.024358
O O5 0.305804 0.261164 0.086846
O O6 0.823087 0.219587 0.408258
O O7 0.916365 0.244525 0.308275
O O8 0.853179 0.000000 0.306888
O O9 0.390630 0.500000 0.327813
O O10 0.364389 0.262499 0.425897
O O11 0.461761 0.272468 0.323621
O O12 0.355633 0.249160 0.251722
O O13 0.250000 0.219060 0.456897
O O14 0.176177 0.000000 0.478832
O O15 0.528951 0.500000 0.289639
O O16 0.514752 0.720588 0.173546
O O17 0.914980 0.822970 0.885385
O O18 0.005165 0.000000 0.885184
O O19 0.000000 0.782342 0.000000
O O20 0.170022 0.000000 0.162585
#
# Coordination Sequence:
#
# PCOD9406487 Si02
#       8
#     4   4   8   8   8   8   8   8
#     4  10  22  42  63  84 115 156 199 244 294 350
#     4  12  26  40  57  86 123 158 195 238 290 350
#     4  10  21  40  65  88 116 153 199 250 296 348
#     4  10  22  40  60  87 124 160 193 239 299 358
#     4  10  21  39  63  90 117 152 199 249 298 350
#     4  10  22  38  57  85 121 157 192 238 297 355
#     4   9  19  36  59  85 111 147 197 245 288 341
#     4  10  21  39  61  86 117 154 198 243 287 342
#
# _framework density 18.69603
#
# number of rings (size 3 to 8) (size 9 to 14) (size 15 to 20)
#    0.000    2.000    0.714    1.929    3.000    4.571 
#    0.000    2.857    0.000    0.000    0.000    0.000 
#    0.000    0.000    0.000    0.000    0.000    0.000 
#
# Total GULP energy -312643.460803 kJ/mol
# GULP energy per Si atom -5582.918943 kJ/mol
# Density = 1.865348 g / cm^3
# Si number density = 18.696030 Si / 1000 Ang^3
#
#
#
# Elastic Constant Matrix: (Units=GPa)
#
#
# Indices 1 2 3 4 5 6 
#
# 1 93.3695 38.3770 58.8649 0.0000 0.0000 0.0000
# 2 38.3770 50.2894 37.2187 0.0000 0.0000 0.0000
# 3 58.8649 37.2187 83.3171 0.0000 0.0000 0.0000
# 4 0.0000 0.0000 0.0000 -49.3388 0.0000 0.0000
# 5 0.0000 0.0000 0.0000 0.0000 17.2789 0.0000
# 6 0.0000 0.0000 0.0000 0.0000 0.0000 24.7013
#
#
#
# Elastic Compliance Matrix: (Units=1/GPa)
#
#
# Indices 1 2 3 4 5 6 
#
# 1 0.021077 -0.007564 -0.011512 0.000000 0.000000 0.000000
# 2 -0.007564 0.032421 -0.009138 0.000000 0.000000 0.000000
# 3 -0.011512 -0.009138 0.024218 0.000000 0.000000 0.000000
# 4 0.000000 0.000000 0.000000 -0.020268 0.000000 0.000000
# 5 0.000000 0.000000 0.000000 0.000000 0.057874 0.000000
# 6 0.000000 0.000000 0.000000 0.000000 0.000000 0.040484
#
#
# Mechanical properties :
#
#
# Convention : Reuss Voigt Hill
#
# Bulk Modulus (GPa) = 46.97919 55.09967 51.03943
# Shear Modulus (GPa) = 22.79662 4.69599 13.74631
#
# Velocity S-wave (km/s) = 3.49568 1.58657 2.71450
# Velocity P-wave (km/s) = 6.44014 5.73512 6.09783
#
# Compressibility (1/GPa) = 0.02128602
#
# Stress axis : x y z
#
# Youngs Moduli (GPa) = 47.44460 30.84460 41.29135
#
# Poissons Ratio (x) = 0.23332 0.47536
# Poissons Ratio (y) = 0.35889 0.37733
# Poissons Ratio (z) = 0.54620 0.28187
#
# Static dielectric constant tensor:
#      x y z
#    x 1.659250 0.000000 0.000000 
#    y 0.000000 1.633470 0.000000 
#    z 0.000000 0.000000 1.619890 
# 
# From -- ./inp_files/25808.got.cif
#   From: 2010.05.17/outbox.cif.g08.bks.cpg/sg51_13_cif.got.tgz:25808.got - 2010.06.03 11:52:47.
