data_PCOD9406213
_publ_section_title
;
Structure prediction by ZEFSAII (Michael W. Deem and Ramdas Pophale) SiO2 
 PCOD9406213
Probable space group: P M M A
;
_chemical_formula_sum "Si O2"
_cell_formula_units_Z 52
_cell_length_a 29.797332
_cell_length_b 17.746209
_cell_length_c 5.359369
_cell_angle_alpha 90.000000
_cell_angle_beta 90.000000
_cell_angle_gamma 90.000000
_cell_volume 2833.979026
_symmetry_space_group_name_H-M "P M M A"
_symmetry_group_IT_number 51
_symmetry_cell_setting 'orthorhombic'
loop_
_space_group_symop_operation_xyz
x,y,z
1/2-x,-y,z
1/2+x,-y,-z
-x,y,-z
-x,-y,-z
1/2+x,y,-z
1/2-x,y,z
x,-y,z
loop_
_atom_site_type_symbol
_atom_site_label
_atom_site_fract_x
_atom_site_fract_y
_atom_site_fract_z
Si Si1 0.873957 0.277025 0.321629
Si Si2 0.699061 0.691727 0.930991
Si Si3 0.947547 0.649424 0.048004
Si Si4 0.372615 0.589736 0.314181
Si Si5 0.829311 0.829172 0.635622
Si Si6 0.802067 0.910031 0.123751
Si Si7 0.028898 0.500000 0.745015
O O1 0.830779 0.268507 0.144331
O O2 0.919226 0.282507 0.162684
O O3 0.867016 0.358827 0.444007
O O4 0.873954 0.212543 0.531065
O O5 0.750000 0.674429 0.001953
O O6 0.669432 0.619143 0.853352
O O7 0.698982 0.754262 0.710668
O O8 0.945705 0.578304 0.236956
O O9 0.918805 0.618364 0.814908
O O10 0.000000 0.665429 0.000000
O O11 0.373235 0.500000 0.344291
O O12 0.812153 0.876782 0.398897
O O13 0.830188 0.878280 0.887507
O O14 0.750000 0.891599 0.064025
O O15 0.806936 0.000000 0.134691
O O16 0.000000 0.500000 0.500000
O O17 0.000000 0.500000 0.000000
#
# Coordination Sequence:
#
# PCOD9406213 Si02
#       7
#     8   8   8   8   8   8   4
#     4  10  23  35  57  82 112 155 201 240 296 352
#     4  10  21  38  56  76 106 158 207 245 290 337
#     4  10  22  36  56  82 113 146 193 249 310 370
#     4  10  22  37  52  79 112 151 200 257 303 351
#     4  11  21  38  57  82 119 158 193 233 283 344
#     4  11  22  35  58  91 121 152 190 233 282 340
#     4  10  22  34  54  86 107 144 187 236 310 378
#
# _framework density 18.348759999999999
#
# number of rings (size 3 to 8) (size 9 to 14) (size 15 to 20)
#    0.000    1.692    2.308    1.846    5.385    5.231 
#    0.000    0.000    0.000    0.000    0.000    0.000 
#    0.000    3.692    0.000    0.000    0.000    0.000 
#
# Total GULP energy -289721.428248 kJ/mol
# GULP energy per Si atom -5571.565928 kJ/mol
# Density = 1.830700 g / cm^3
# Si number density = 18.348760 Si / 1000 Ang^3
#
#
#
# Elastic Constant Matrix: (Units=GPa)
#
#
# Indices 1 2 3 4 5 6 
#
# 1 110.6777 25.8106 37.1415 0.0000 0.0000 0.0000
# 2 25.8106 83.7554 47.3341 0.0000 0.0000 0.0000
# 3 37.1415 47.3341 116.3156 0.0000 0.0000 0.0000
# 4 0.0000 0.0000 0.0000 38.2078 0.0000 0.0000
# 5 0.0000 0.0000 0.0000 0.0000 18.1750 0.0000
# 6 0.0000 0.0000 0.0000 0.0000 0.0000 10.7486
#
#
#
# Elastic Compliance Matrix: (Units=1/GPa)
#
#
# Indices 1 2 3 4 5 6 
#
# 1 0.010305 -0.001709 -0.002595 0.000000 0.000000 0.000000
# 2 -0.001709 0.015789 -0.005880 0.000000 0.000000 0.000000
# 3 -0.002595 -0.005880 0.011819 0.000000 0.000000 0.000000
# 4 0.000000 0.000000 0.000000 0.026173 0.000000 0.000000
# 5 0.000000 0.000000 0.000000 0.000000 0.055021 0.000000
# 6 0.000000 0.000000 0.000000 0.000000 0.000000 0.093035
#
#
# Mechanical properties :
#
#
# Convention : Reuss Voigt Hill
#
# Bulk Modulus (GPa) = 56.99578 59.03567 58.01573
# Shear Modulus (GPa) = 20.97702 26.79045 23.88374
#
# Velocity S-wave (km/s) = 3.38485 3.82523 3.61176
# Velocity P-wave (km/s) = 6.81221 7.19402 7.00571
#
# Compressibility (1/GPa) = 0.01754516
#
# Stress axis : x y z
#
# Youngs Moduli (GPa) = 97.04391 63.33520 84.61259
#
# Poissons Ratio (x) = 0.10824 0.21957
# Poissons Ratio (y) = 0.16585 0.49748
# Poissons Ratio (z) = 0.25183 0.37238
#
# Static dielectric constant tensor:
#      x y z
#    x 1.682120 0.000000 0.000000 
#    y 0.000000 1.502740 0.000000 
#    z 0.000000 0.000000 1.699510 
# 
# From -- ./inp_files/4070.got.cif
#   From: 2010.05.17/outbox.cif.g08.bks.cpg/sg51_3_cif.got.tgz:4070.got - 2010.06.03 11:52:47.
