data_PCOD9406338
_publ_section_title
;
Structure prediction by ZEFSAII (Michael W. Deem and Ramdas Pophale) SiO2 
 PCOD9406338
Probable space group: P M M A
;
_chemical_formula_sum "Si O2"
_cell_formula_units_Z 46
_cell_length_a 8.072807
_cell_length_b 12.787389
_cell_length_c 22.859303
_cell_angle_alpha 90.000000
_cell_angle_beta 90.000000
_cell_angle_gamma 90.000000
_cell_volume 2359.768670
_symmetry_space_group_name_H-M "P M M A"
_symmetry_group_IT_number 51
_symmetry_cell_setting 'orthorhombic'
loop_
_space_group_symop_operation_xyz
x,y,z
1/2-x,-y,z
1/2+x,-y,-z
-x,y,-z
-x,-y,-z
1/2+x,y,-z
1/2-x,y,z
x,-y,z
loop_
_atom_site_type_symbol
_atom_site_label
_atom_site_fract_x
_atom_site_fract_y
_atom_site_fract_z
Si Si1 0.449014 0.384292 0.432107
Si Si2 0.447250 0.116428 0.742176
Si Si3 0.946494 0.843091 0.395350
Si Si4 0.054804 0.000000 0.932110
Si Si5 0.944413 0.383665 0.061868
Si Si6 0.057763 0.203509 0.140625
Si Si7 0.750000 0.000000 0.570818
O O1 0.500000 0.384510 0.500000
O O2 0.250000 0.375443 0.427136
O O3 0.497101 0.500000 0.408264
O O4 0.530656 0.280271 0.406218
O O5 0.250000 0.116315 0.751626
O O6 0.473173 0.138101 0.673926
O O7 0.523044 0.190436 0.790746
O O8 0.513320 0.000000 0.753977
O O9 0.750000 0.871769 0.409292
O O10 0.096800 0.908738 0.426015
O O11 0.001254 0.897741 0.895689
O O12 0.250000 0.000000 0.933016
O O13 0.000000 0.000000 0.000000
O O14 0.750000 0.394807 0.057678
O O15 0.020429 0.500000 0.067566
O O16 0.979949 0.307452 0.114647
O O17 0.000000 0.336165 0.000000
O O18 0.250000 0.211526 0.130288
#
# Coordination Sequence:
#
# PCOD9406338 Si02
#       7
#     8   8   8   4   8   8   2
#     4  10  21  40  68  99 132 172 218 269 323 381
#     4  10  21  38  60  85 118 161 203 244 297 360
#     4  11  23  40  66  94 129 171 218 265 320 380
#     4  12  24  39  56  78 115 149 187 239 290 350
#     4  10  21  39  61  81 107 144 186 234 292 357
#     4  12  24  36  57  86 114 148 191 238 293 353
#     4  12  22  38  64  90 132 170 210 264 308 378
#
# _framework density 19.493435000000002
#
# number of rings (size 3 to 8) (size 9 to 14) (size 15 to 20)
#    0.000    1.217    2.609    4.174    1.217    2.087 
#    0.000    1.304    0.000    1.043    0.000    0.000 
#    0.000    0.000    0.000    0.000    0.000    0.000 
#
# Total GULP energy -256164.092445 kJ/mol
# GULP energy per Si atom -5568.784618 kJ/mol
# Density = 1.944907 g / cm^3
# Si number density = 19.493435 Si / 1000 Ang^3
#
#
#
# Elastic Constant Matrix: (Units=GPa)
#
#
# Indices 1 2 3 4 5 6 
#
# 1 100.5003 21.9858 0.5909 0.0000 0.0000 0.0000
# 2 21.9858 108.1406 11.5164 0.0000 0.0000 0.0000
# 3 0.5909 11.5164 12.9207 0.0000 0.0000 0.0000
# 4 0.0000 0.0000 0.0000 33.5280 0.0000 0.0000
# 5 0.0000 0.0000 0.0000 0.0000 27.2815 0.0000
# 6 0.0000 0.0000 0.0000 0.0000 0.0000 20.5831
#
#
#
# Elastic Compliance Matrix: (Units=1/GPa)
#
#
# Indices 1 2 3 4 5 6 
#
# 1 0.010442 -0.002289 0.001563 0.000000 0.000000 0.000000
# 2 -0.002289 0.010719 -0.009449 0.000000 0.000000 0.000000
# 3 0.001563 -0.009449 0.085746 0.000000 0.000000 0.000000
# 4 0.000000 0.000000 0.000000 0.029826 0.000000 0.000000
# 5 0.000000 0.000000 0.000000 0.000000 0.036655 0.000000
# 6 0.000000 0.000000 0.000000 0.000000 0.000000 0.048584
#
#
# Mechanical properties :
#
#
# Convention : Reuss Voigt Hill
#
# Bulk Modulus (GPa) = 11.55325 32.19420 21.87372
# Shear Modulus (GPa) = 18.43830 28.77641 23.60735
#
# Velocity S-wave (km/s) = 3.07884 3.84632 3.48378
# Velocity P-wave (km/s) = 4.31029 6.02302 5.23715
#
# Compressibility (1/GPa) = 0.08655575
#
# Stress axis : x y z
#
# Youngs Moduli (GPa) = 95.76836 93.29257 11.66232
#
# Poissons Ratio (x) = 0.21358 -0.01823
# Poissons Ratio (y) = 0.21925 0.11020
# Poissons Ratio (z) = -0.14968 0.88155
#
# Static dielectric constant tensor:
#      x y z
#    x 1.694560 0.000000 0.000000 
#    y 0.000000 1.683130 0.000000 
#    z 0.000000 0.000000 1.682400 
# 
# From -- ./inp_files/34587.got.cif
#   From: 2010.05.17/outbox.cif.g08.bks.cpg/sg51_18_cif.got.tgz:34587.got - 2010.06.03 11:52:47.
