data_PCOD9406449
_publ_section_title
;
Structure prediction by ZEFSAII (Michael W. Deem and Ramdas Pophale) SiO2 
 PCOD9406449
Probable space group: P M M A
;
_chemical_formula_sum "Si O2"
_cell_formula_units_Z 64
_cell_length_a 8.489711
_cell_length_b 24.461921
_cell_length_c 15.926691
_cell_angle_alpha 90.000000
_cell_angle_beta 90.000000
_cell_angle_gamma 90.000000
_cell_volume 3307.569817
_symmetry_space_group_name_H-M "P M M A"
_symmetry_group_IT_number 51
_symmetry_cell_setting 'orthorhombic'
loop_
_space_group_symop_operation_xyz
x,y,z
1/2-x,-y,z
1/2+x,-y,-z
-x,y,-z
-x,-y,-z
1/2+x,y,-z
1/2-x,y,z
x,-y,z
loop_
_atom_site_type_symbol
_atom_site_label
_atom_site_fract_x
_atom_site_fract_y
_atom_site_fract_z
Si Si1 0.438441 0.675875 0.089515
Si Si2 0.060896 0.133206 0.251679
Si Si3 0.061112 0.743585 0.752202
Si Si4 0.059545 0.440017 0.653152
Si Si5 0.939843 0.675748 0.411111
Si Si6 0.440405 0.560114 0.155593
Si Si7 0.059997 0.936860 0.091117
Si Si8 0.561179 0.063516 0.407716
O O1 0.250000 0.676076 0.089074
O O2 0.497092 0.712523 0.166261
O O3 0.494716 0.613301 0.105201
O O4 0.500000 0.695556 0.000000
O O5 0.250000 0.134937 0.250675
O O6 0.006996 0.100306 0.168554
O O7 0.995533 0.194312 0.250487
O O8 0.005767 0.100995 0.334218
O O9 0.250000 0.741851 0.754357
O O10 0.007973 0.711470 0.668397
O O11 0.250000 0.439287 0.653918
O O12 0.007766 0.500000 0.621755
O O13 0.004621 0.386836 0.603055
O O14 0.001373 0.434766 0.749012
O O15 0.750000 0.675748 0.412016
O O16 0.000000 0.696718 0.500000
O O17 0.250000 0.560811 0.157283
O O18 0.491085 0.500000 0.123871
O O19 0.250000 0.936476 0.089813
O O20 0.008321 0.000000 0.103192
O O21 0.000000 0.918376 0.000000
O O22 0.500000 0.079545 0.500000
O O23 0.750000 0.066231 0.407200
O O24 0.513527 0.000000 0.393820
#
# Coordination Sequence:
#
# PCOD9406449 Si02
#       8
#     8   8   8   8   8   8   8   8
#     4  11  23  39  61  86 114 151 194 241 296 357
#     4  11  23  39  61  88 120 159 201 245 296 352
#     4  11  24  43  61  82 115 153 200 252 296 344
#     4   9  17  32  55  82 112 145 182 227 285 349
#     4  10  22  38  58  83 111 147 189 236 291 347
#     4   9  18  33  55  84 115 146 183 231 288 351
#     4   9  19  36  59  88 121 154 188 229 279 336
#     4  10  21  38  62  93 127 162 200 244 296 352
#
# _framework density 19.349554000000001
#
# number of rings (size 3 to 8) (size 9 to 14) (size 15 to 20)
#    0.000    2.000    1.250    1.875    0.000    5.750 
#    0.000    3.750    0.000    0.000    0.000    0.000 
#    0.000    0.000    0.000    0.000    0.000    0.000 
#
# Total GULP energy -357443.600741 kJ/mol
# GULP energy per Si atom -5585.056262 kJ/mol
# Density = 1.930551 g / cm^3
# Si number density = 19.349554 Si / 1000 Ang^3
#
#
#
# Elastic Constant Matrix: (Units=GPa)
#
#
# Indices 1 2 3 4 5 6 
#
# 1 28.1272 31.1126 31.2468 0.0000 0.0000 0.0000
# 2 31.1126 132.9967 103.9808 0.0000 0.0000 0.0000
# 3 31.2468 103.9808 178.4916 0.0000 0.0000 0.0000
# 4 0.0000 0.0000 0.0000 -2.4492 0.0000 0.0000
# 5 0.0000 0.0000 0.0000 0.0000 32.8853 0.0000
# 6 0.0000 0.0000 0.0000 0.0000 0.0000 21.3796
#
#
#
# Elastic Compliance Matrix: (Units=1/GPa)
#
#
# Indices 1 2 3 4 5 6 
#
# 1 0.049126 -0.008757 -0.003499 0.000000 0.000000 0.000000
# 2 -0.008757 0.015369 -0.007420 0.000000 0.000000 0.000000
# 3 -0.003499 -0.007420 0.010538 0.000000 0.000000 0.000000
# 4 0.000000 0.000000 0.000000 -0.408297 0.000000 0.000000
# 5 0.000000 0.000000 0.000000 0.000000 0.030409 0.000000
# 6 0.000000 0.000000 0.000000 0.000000 0.000000 0.046774
#
#
# Mechanical properties :
#
#
# Convention : Reuss Voigt Hill
#
# Bulk Modulus (GPa) = 28.02626 74.69956 51.36291
# Shear Modulus (GPa) = -24.40967 21.91482 -1.24743
#
# Velocity S-wave (km/s) = -3.55563 3.36903 -0.80379
# Velocity P-wave (km/s) = 1.53004 7.33641 5.07355
#
# Compressibility (1/GPa) = 0.03568082
#
# Stress axis : x y z
#
# Youngs Moduli (GPa) = 20.35590 65.06652 94.89806
#
# Poissons Ratio (x) = 0.56979 0.33201
# Poissons Ratio (y) = 0.17826 0.70416
# Poissons Ratio (z) = 0.07122 0.48281
#
# Static dielectric constant tensor:
#      x y z
#    x 1.665280 0.000000 0.000000 
#    y 0.000000 1.679770 0.000000 
#    z 0.000000 0.000000 1.648000 
# 
# From -- ./inp_files/22332.got.cif
#   From: 2010.05.17/outbox.cif.g08.bks.cpg/sg51_12_cif.got.tgz:22332.got - 2010.06.03 11:52:47.
