data_PCOD9406146
_publ_section_title
;
Structure prediction by ZEFSAII (Michael W. Deem and Ramdas Pophale) SiO2 
 PCOD9406146
Probable space group: P M M A
;
_chemical_formula_sum "Si O2"
_cell_formula_units_Z 40
_cell_length_a 23.915307
_cell_length_b 8.109441
_cell_length_c 10.176346
_cell_angle_alpha 90.000000
_cell_angle_beta 90.000000
_cell_angle_gamma 90.000000
_cell_volume 1973.598214
_symmetry_space_group_name_H-M "P M M A"
_symmetry_group_IT_number 51
_symmetry_cell_setting 'orthorhombic'
loop_
_space_group_symop_operation_xyz
x,y,z
1/2-x,-y,z
1/2+x,-y,-z
-x,y,-z
-x,-y,-z
1/2+x,y,-z
1/2-x,y,z
x,-y,z
loop_
_atom_site_type_symbol
_atom_site_label
_atom_site_fract_x
_atom_site_fract_y
_atom_site_fract_z
Si Si1 0.816030 0.000000 0.270209
Si Si2 0.816336 0.309860 0.788363
Si Si3 0.420503 0.305318 0.378589
Si Si4 0.317367 0.000000 0.035710
Si Si5 0.415369 0.815480 0.667114
Si Si6 0.500737 0.308196 0.853271
O O1 0.848383 0.158423 0.328606
O O2 0.750000 0.000000 0.287581
O O3 0.832168 0.000000 0.116457
O O4 0.750000 0.292075 0.761816
O O5 0.825514 0.500000 0.834105
O O6 0.855812 0.285459 0.662601
O O7 0.834062 0.168628 0.891346
O O8 0.432669 0.500000 0.388910
O O9 0.432294 0.232443 0.520737
O O10 0.456718 0.237999 0.256376
O O11 0.250000 0.000000 0.039485
O O12 0.441191 0.703363 0.779955
O O13 0.436768 0.000000 0.695814
O O14 0.517276 0.500000 0.869189
O O15 0.500000 0.234894 0.000000
#
# Coordination Sequence:
#
# PCOD9406146 Si02
#       6
#     4   8   8   4   8   8
#     4   9  22  41  58  86 122 158 196 247 307 365
#     4   9  19  35  58  90 122 158 207 253 305 373
#     4  10  21  37  58  86 123 160 197 249 305 365
#     4   9  18  35  58  83 119 160 194 248 311 353
#     4  10  23  38  58  87 113 161 196 248 293 364
#     4  10  22  40  62  87 119 157 198 249 310 367
#
# _framework density 20.267548000000001
#
# number of rings (size 3 to 8) (size 9 to 14) (size 15 to 20)
#    0.600    1.800    0.000    1.200    4.200    4.400 
#    0.000    1.000    0.000    3.000    0.000    0.000 
#    0.000    0.000    0.000    0.000    0.000    0.000 
#
# Total GULP energy -222765.072877 kJ/mol
# GULP energy per Si atom -5569.126822 kJ/mol
# Density = 2.022142 g / cm^3
# Si number density = 20.267548 Si / 1000 Ang^3
#
#
#
# Elastic Constant Matrix: (Units=GPa)
#
#
# Indices 1 2 3 4 5 6 
#
# 1 94.7814 8.2253 39.5785 0.0000 0.0000 0.0000
# 2 8.2253 42.2820 21.9889 0.0000 0.0000 0.0000
# 3 39.5785 21.9889 143.7479 0.0000 0.0000 0.0000
# 4 0.0000 0.0000 0.0000 7.0500 0.0000 0.0000
# 5 0.0000 0.0000 0.0000 0.0000 25.4764 0.0000
# 6 0.0000 0.0000 0.0000 0.0000 0.0000 22.0439
#
#
#
# Elastic Compliance Matrix: (Units=1/GPa)
#
#
# Indices 1 2 3 4 5 6 
#
# 1 0.011938 -0.000666 -0.003185 0.000000 0.000000 0.000000
# 2 -0.000666 0.025732 -0.003753 0.000000 0.000000 0.000000
# 3 -0.003185 -0.003753 0.008408 0.000000 0.000000 0.000000
# 4 0.000000 0.000000 0.000000 0.141844 0.000000 0.000000
# 5 0.000000 0.000000 0.000000 0.000000 0.039252 0.000000
# 6 0.000000 0.000000 0.000000 0.000000 0.000000 0.045364
#
#
# Mechanical properties :
#
#
# Convention : Reuss Voigt Hill
#
# Bulk Modulus (GPa) = 32.39377 46.71076 39.55226
# Shear Modulus (GPa) = 16.77649 24.98197 20.87923
#
# Velocity S-wave (km/s) = 2.88019 3.51466 3.21312
# Velocity P-wave (km/s) = 5.20369 6.29028 5.77261
#
# Compressibility (1/GPa) = 0.03087014
#
# Stress axis : x y z
#
# Youngs Moduli (GPa) = 83.76298 38.86218 118.93906
#
# Poissons Ratio (x) = 0.02588 0.37884
# Poissons Ratio (y) = 0.05578 0.44636
# Poissons Ratio (z) = 0.26680 0.14584
#
# Static dielectric constant tensor:
#      x y z
#    x 1.767150 0.000000 0.000000 
#    y 0.000000 1.741410 0.000000 
#    z 0.000000 0.000000 1.707690 
# 
# From -- ./inp_files/12160.got.cif
#   From: 2010.05.17/outbox.cif.g08.bks.cpg/sg51_7_cif.got.tgz:12160.got - 2010.06.03 11:52:47.
