data_PCOD9406070
_publ_section_title
;
Structure prediction by ZEFSAII (Michael W. Deem and Ramdas Pophale) SiO2 
 PCOD9406070
Probable space group: P M M A
;
_chemical_formula_sum "Si O2"
_cell_formula_units_Z 40
_cell_length_a 14.206384
_cell_length_b 9.459293
_cell_length_c 15.122869
_cell_angle_alpha 90.000000
_cell_angle_beta 90.000000
_cell_angle_gamma 90.000000
_cell_volume 2032.246656
_symmetry_space_group_name_H-M "P M M A"
_symmetry_group_IT_number 51
_symmetry_cell_setting 'orthorhombic'
loop_
_space_group_symop_operation_xyz
x,y,z
1/2-x,-y,z
1/2+x,-y,-z
-x,y,-z
-x,-y,-z
1/2+x,y,-z
1/2-x,y,z
x,-y,z
loop_
_atom_site_type_symbol
_atom_site_label
_atom_site_fract_x
_atom_site_fract_y
_atom_site_fract_z
Si Si1 0.639482 0.335730 0.747635
Si Si2 0.364733 0.338779 0.908357
Si Si3 0.017132 0.333522 0.602280
Si Si4 0.364738 0.160842 0.079755
Si Si5 0.136778 0.162571 0.734745
O O1 0.750000 0.312064 0.728931
O O2 0.629103 0.500000 0.775287
O O3 0.576494 0.313709 0.661314
O O4 0.610451 0.236027 0.828484
O O5 0.250000 0.343924 0.909232
O O6 0.399241 0.500000 0.907350
O O7 0.391487 0.254294 0.820263
O O8 0.393243 0.253756 0.995623
O O9 0.043425 0.500000 0.608279
O O10 0.094605 0.236733 0.648647
O O11 0.000000 0.299905 0.500000
O O12 0.250000 0.156779 0.077771
O O13 0.398918 0.000000 0.074441
O O14 0.250000 0.163401 0.731142
O O15 0.105657 0.000000 0.743213
#
# Coordination Sequence:
#
# PCOD9406070 Si02
#       5
#     8   8   8   8   8
#     4   9  18  34  55  79 109 144 181 222 270 325
#     4   9  16  28  50  79 110 145 182 220 265 318
#     4  10  22  39  59  83 109 140 182 232 282 329
#     4   9  16  27  47  77 111 145 180 218 263 318
#     4  10  21  37  57  82 113 148 184 224 272 325
#
# _framework density 19.682649000000001
#
# number of rings (size 3 to 8) (size 9 to 14) (size 15 to 20)
#    0.000    2.600    0.000    1.800    0.000    8.000 
#    0.000    3.000    0.000    8.400    0.000    0.000 
#    0.000    0.000    0.000    0.000    0.000    0.000 
#
# Total GULP energy -223526.145958 kJ/mol
# GULP energy per Si atom -5588.153649 kJ/mol
# Density = 1.963785 g / cm^3
# Si number density = 19.682649 Si / 1000 Ang^3
#
#
#
# Elastic Constant Matrix: (Units=GPa)
#
#
# Indices 1 2 3 4 5 6 
#
# 1 57.0535 40.9905 25.8916 0.0000 0.0000 0.0000
# 2 40.9905 166.5155 120.3043 0.0000 0.0000 0.0000
# 3 25.8916 120.3043 176.3556 0.0000 0.0000 0.0000
# 4 0.0000 0.0000 0.0000 -263.1942 0.0000 0.0000
# 5 0.0000 0.0000 0.0000 0.0000 35.7883 0.0000
# 6 0.0000 0.0000 0.0000 0.0000 0.0000 16.0492
#
#
#
# Elastic Compliance Matrix: (Units=1/GPa)
#
#
# Indices 1 2 3 4 5 6 
#
# 1 0.021364 -0.005902 0.000889 0.000000 0.000000 0.000000
# 2 -0.005902 0.013472 -0.008324 0.000000 0.000000 0.000000
# 3 0.000889 -0.008324 0.011218 0.000000 0.000000 0.000000
# 4 0.000000 0.000000 0.000000 -0.003799 0.000000 0.000000
# 5 0.000000 0.000000 0.000000 0.000000 0.027942 0.000000
# 6 0.000000 0.000000 0.000000 0.000000 0.000000 0.062308
#
#
# Mechanical properties :
#
#
# Convention : Reuss Voigt Hill
#
# Bulk Modulus (GPa) = 51.59457 86.03303 68.81380
# Shear Modulus (GPa) = 30.18644 -28.08880 1.04882
#
# Velocity S-wave (km/s) = 3.92044 -3.78178 0.73077
# Velocity P-wave (km/s) = 6.83837 4.97352 5.97910
#
# Compressibility (1/GPa) = 0.01938188
#
# Stress axis : x y z
#
# Youngs Moduli (GPa) = 46.80798 74.22832 89.14275
#
# Poissons Ratio (x) = 0.43807 -0.07928
# Poissons Ratio (y) = 0.27624 0.74200
# Poissons Ratio (z) = -0.04163 0.61785
#
# Static dielectric constant tensor:
#      x y z
#    x 1.734540 0.000000 0.000000 
#    y 0.000000 1.672490 0.000000 
#    z 0.000000 0.000000 1.634300 
# 
# From -- ./inp_files/17087.got.cif
#   From: 2010.05.17/outbox.cif.g08.bks.cpg/sg51_9_cif.got.tgz:17087.got - 2010.06.03 11:52:47.
