data_PCOD9406527
_publ_section_title
;
Structure prediction by ZEFSAII (Michael W. Deem and Ramdas Pophale) SiO2 
 PCOD9406527
Probable space group: P M M A
;
_chemical_formula_sum "Si O2"
_cell_formula_units_Z 40
_cell_length_a 8.678968
_cell_length_b 25.930925
_cell_length_c 9.412220
_cell_angle_alpha 90.000000
_cell_angle_beta 90.000000
_cell_angle_gamma 90.000000
_cell_volume 2118.254638
_symmetry_space_group_name_H-M "P M M A"
_symmetry_group_IT_number 51
_symmetry_cell_setting 'orthorhombic'
loop_
_space_group_symop_operation_xyz
x,y,z
1/2-x,-y,z
1/2+x,-y,-z
-x,y,-z
-x,-y,-z
1/2+x,y,-z
1/2-x,y,z
x,-y,z
loop_
_atom_site_type_symbol
_atom_site_label
_atom_site_fract_x
_atom_site_fract_y
_atom_site_fract_z
Si Si1 0.435295 0.755214 0.341110
Si Si2 0.436082 0.441410 0.342986
Si Si3 0.934015 0.060586 0.655941
Si Si4 0.935700 0.655045 0.842363
Si Si5 0.566162 0.150427 0.158054
O O1 0.500000 0.754019 0.500000
O O2 0.250000 0.758426 0.345471
O O3 0.479786 0.703367 0.256207
O O4 0.500996 0.803942 0.256322
O O5 0.500000 0.430238 0.500000
O O6 0.250000 0.439975 0.349499
O O7 0.482568 0.500000 0.304780
O O8 0.487659 0.398037 0.232327
O O9 0.750000 0.068166 0.655993
O O10 0.000000 0.073625 0.500000
O O11 0.010963 0.096988 0.771972
O O12 0.965712 0.000000 0.681397
O O13 0.750000 0.654283 0.849809
O O14 0.000000 0.660552 0.000000
O O15 0.750000 0.152768 0.154370
O O16 0.500000 0.155775 0.000000
#
# Coordination Sequence:
#
# PCOD9406527 Si02
#       5
#     8   8   8   8   8
#     4  11  23  40  61  85 113 147 190 235 283 339
#     4   9  18  34  55  80 110 144 185 231 278 331
#     4  10  21  39  63  90 120 155 195 237 282 334
#     4  10  22  37  55  81 113 148 185 230 282 336
#     4  12  25  41  61  86 118 153 191 236 287 340
#
# _framework density 18.883471
#
# number of rings (size 3 to 8) (size 9 to 14) (size 15 to 20)
#    0.000    1.600    0.000    4.800    0.000    6.000 
#    0.000    0.000    0.000    0.000    0.000    0.000 
#    0.000    0.000    0.000    0.000    0.000    0.000 
#
# Total GULP energy -223635.048278 kJ/mol
# GULP energy per Si atom -5590.876207 kJ/mol
# Density = 1.884049 g / cm^3
# Si number density = 18.883471 Si / 1000 Ang^3
#
#
#
# Elastic Constant Matrix: (Units=GPa)
#
#
# Indices 1 2 3 4 5 6 
#
# 1 71.1934 56.6521 61.3596 0.0000 0.0000 0.0000
# 2 56.6521 114.9786 106.6381 0.0000 0.0000 0.0000
# 3 61.3596 106.6381 191.9697 0.0000 0.0000 0.0000
# 4 0.0000 0.0000 0.0000 -102.6458 0.0000 0.0000
# 5 0.0000 0.0000 0.0000 0.0000 40.1565 0.0000
# 6 0.0000 0.0000 0.0000 0.0000 0.0000 2.1099
#
#
#
# Elastic Compliance Matrix: (Units=1/GPa)
#
#
# Indices 1 2 3 4 5 6 
#
# 1 0.023560 -0.009538 -0.002232 0.000000 0.000000 0.000000
# 2 -0.009538 0.021802 -0.009062 0.000000 0.000000 0.000000
# 3 -0.002232 -0.009062 0.010956 0.000000 0.000000 0.000000
# 4 0.000000 0.000000 0.000000 -0.009742 0.000000 0.000000
# 5 0.000000 0.000000 0.000000 0.000000 0.024903 0.000000
# 6 0.000000 0.000000 0.000000 0.000000 0.000000 0.473964
#
#
# Mechanical properties :
#
#
# Convention : Reuss Voigt Hill
#
# Bulk Modulus (GPa) = 68.24316 91.93793 80.09054
# Shear Modulus (GPa) = 8.44607 -1.84308 3.30149
#
# Velocity S-wave (km/s) = 2.11718 -0.98901 1.32369
# Velocity P-wave (km/s) = 6.49570 6.89119 6.69637
#
# Compressibility (1/GPa) = 0.01465348
#
# Stress axis : x y z
#
# Youngs Moduli (GPa) = 42.44459 45.86827 91.27080
#
# Poissons Ratio (x) = 0.43751 0.20372
# Poissons Ratio (y) = 0.40485 0.82708
# Poissons Ratio (z) = 0.09474 0.41565
#
# Static dielectric constant tensor:
#      x y z
#    x 1.633080 0.000000 0.000000 
#    y 0.000000 1.657340 0.000000 
#    z 0.000000 0.000000 1.603470 
# 
# From -- ./inp_files/5193.got.cif
#   From: 2010.05.17/outbox.cif.g08.bks.cpg/sg51_3_cif.got.tgz:5193.got - 2010.06.03 11:52:47.
