data_PCOD9406077
_publ_section_title
;
Structure prediction by ZEFSAII (Michael W. Deem and Ramdas Pophale) SiO2 
 PCOD9406077
Probable space group: P M M A
;
_chemical_formula_sum "Si O2"
_cell_formula_units_Z 56
_cell_length_a 14.638114
_cell_length_b 14.679085
_cell_length_c 12.411534
_cell_angle_alpha 90.000000
_cell_angle_beta 90.000000
_cell_angle_gamma 90.000000
_cell_volume 2666.917442
_symmetry_space_group_name_H-M "P M M A"
_symmetry_group_IT_number 51
_symmetry_cell_setting 'orthorhombic'
loop_
_space_group_symop_operation_xyz
x,y,z
1/2-x,-y,z
1/2+x,-y,-z
-x,y,-z
-x,-y,-z
1/2+x,y,-z
1/2-x,y,z
x,-y,z
loop_
_atom_site_type_symbol
_atom_site_label
_atom_site_fract_x
_atom_site_fract_y
_atom_site_fract_z
Si Si1 0.596686 0.599813 0.437520
Si Si2 0.139695 0.895991 0.760977
Si Si3 0.895118 0.200808 0.464243
Si Si4 0.642147 0.267178 0.814689
Si Si5 0.357534 0.253067 0.931375
Si Si6 0.023133 0.395586 0.804726
Si Si7 0.354745 0.100318 0.325458
O O1 0.500000 0.597266 0.500000
O O2 0.640287 0.500000 0.456626
O O3 0.642514 0.695777 0.468924
O O4 0.573464 0.607790 0.310831
O O5 0.250000 0.899389 0.758763
O O6 0.111415 0.841579 0.653955
O O7 0.114456 0.837087 0.865725
O O8 0.106463 0.000000 0.762268
O O9 0.852859 0.132882 0.551331
O O10 0.000000 0.206816 0.500000
O O11 0.750000 0.283613 0.790723
O O12 0.577169 0.352381 0.791525
O O13 0.605466 0.182453 0.744429
O O14 0.634009 0.243709 0.940774
O O15 0.250000 0.271145 0.907754
O O16 0.419442 0.334740 0.887501
O O17 0.017605 0.500000 0.839488
O O18 0.250000 0.093737 0.287466
O O19 0.396764 0.000000 0.316293
#
# Coordination Sequence:
#
# PCOD9406077 Si02
#       7
#     8   8   8   8   8   8   8
#     4   9  18  33  56  84 115 156 198 238 292 353
#     4  10  21  37  57  82 115 156 197 241 296 354
#     4  11  20  34  57  85 119 152 190 246 296 350
#     4  10  22  40  61  87 120 156 198 248 297 350
#     4  10  22  40  60  86 120 156 199 248 295 353
#     4  11  22  40  64  89 121 158 198 247 301 355
#     4  10  22  39  59  84 116 157 200 243 297 356
#
# _framework density 20.998025999999999
#
# number of rings (size 3 to 8) (size 9 to 14) (size 15 to 20)
#    0.000    1.857    1.429    3.000    0.000    4.571 
#    0.000    4.286    0.000    4.286    0.000    4.000 
#    0.000    0.000    0.000    0.000    0.000    0.000 
#
# Total GULP energy -312775.845253 kJ/mol
# GULP energy per Si atom -5585.282951 kJ/mol
# Density = 2.095023 g / cm^3
# Si number density = 20.998026 Si / 1000 Ang^3
#
#
#
# Elastic Constant Matrix: (Units=GPa)
#
#
# Indices 1 2 3 4 5 6 
#
# 1 61.8742 30.9783 0.4176 0.0000 0.0000 0.0000
# 2 30.9783 171.6325 10.0338 0.0000 0.0000 0.0000
# 3 0.4176 10.0338 37.1451 0.0000 0.0000 0.0000
# 4 0.0000 0.0000 0.0000 10.4334 0.0000 0.0000
# 5 0.0000 0.0000 0.0000 0.0000 21.6843 0.0000
# 6 0.0000 0.0000 0.0000 0.0000 0.0000 13.6447
#
#
#
# Elastic Compliance Matrix: (Units=1/GPa)
#
#
# Indices 1 2 3 4 5 6 
#
# 1 0.017784 -0.003250 0.000678 0.000000 0.000000 0.000000
# 2 -0.003250 0.006514 -0.001723 0.000000 0.000000 0.000000
# 3 0.000678 -0.001723 0.027379 0.000000 0.000000 0.000000
# 4 0.000000 0.000000 0.000000 0.095846 0.000000 0.000000
# 5 0.000000 0.000000 0.000000 0.000000 0.046116 0.000000
# 6 0.000000 0.000000 0.000000 0.000000 0.000000 0.073289
#
#
# Mechanical properties :
#
#
# Convention : Reuss Voigt Hill
#
# Bulk Modulus (GPa) = 23.20844 39.27903 31.24373
# Shear Modulus (GPa) = 17.24852 24.43394 20.84123
#
# Velocity S-wave (km/s) = 2.86918 3.41490 3.15387
# Velocity P-wave (km/s) = 4.69605 5.85623 5.30793
#
# Compressibility (1/GPa) = 0.04308777
#
# Stress axis : x y z
#
# Youngs Moduli (GPa) = 56.22972 153.52388 36.52403
#
# Poissons Ratio (x) = 0.49888 -0.02476
# Poissons Ratio (y) = 0.18272 0.06293
# Poissons Ratio (z) = -0.03812 0.26452
#
# Static dielectric constant tensor:
#      x y z
#    x 1.781500 0.000000 0.000000 
#    y 0.000000 1.767440 0.000000 
#    z 0.000000 0.000000 1.723790 
# 
# From -- ./inp_files/16567.got.cif
#   From: 2010.05.17/outbox.cif.g08.bks.cpg/sg51_9_cif.got.tgz:16567.got - 2010.06.03 11:52:47.
