data_PCOD9406855
_publ_section_title
;
Structure prediction by ZEFSAII (Michael W. Deem and Ramdas Pophale) SiO2 
 PCOD9406855
Probable space group: P M M A
;
_chemical_formula_sum "Si O2"
_cell_formula_units_Z 54
_cell_length_a 14.896377
_cell_length_b 30.599738
_cell_length_c 4.960131
_cell_angle_alpha 90.000000
_cell_angle_beta 90.000000
_cell_angle_gamma 90.000000
_cell_volume 2260.952871
_symmetry_space_group_name_H-M "P M M A"
_symmetry_group_IT_number 51
_symmetry_cell_setting 'orthorhombic'
loop_
_space_group_symop_operation_xyz
x,y,z
1/2-x,-y,z
1/2+x,-y,-z
-x,y,-z
-x,-y,-z
1/2+x,y,-z
1/2-x,y,z
x,-y,z
loop_
_atom_site_type_symbol
_atom_site_label
_atom_site_fract_x
_atom_site_fract_y
_atom_site_fract_z
Si Si1 0.095922 0.591055 0.034360
Si Si2 0.143261 0.735402 0.244059
Si Si3 0.895222 0.923609 0.951344
Si Si4 0.500000 0.201006 0.500000
Si Si5 0.853375 0.134259 0.444360
Si Si6 0.750000 0.000000 0.847746
Si Si7 0.145238 0.677589 0.743078
Si Si8 0.350179 0.547508 0.530810
O O1 0.096406 0.638242 0.894174
O O2 0.154039 0.560815 0.840919
O O3 0.113127 0.587162 0.350123
O O4 0.000000 0.570174 0.000000
O O5 0.250000 0.747375 0.289533
O O6 0.123979 0.694386 0.444748
O O7 0.066880 0.770243 0.315833
O O8 0.135572 0.719487 0.937986
O O9 0.885299 0.885082 0.730728
O O10 0.858799 0.905133 0.233108
O O11 0.000000 0.935520 0.000000
O O12 0.829529 0.962066 0.857384
O O13 0.426455 0.170072 0.645419
O O14 0.750000 0.149846 0.459767
O O15 0.250000 0.664415 0.744415
O O16 0.250000 0.543933 0.427927
O O17 0.393834 0.500000 0.493436
#
# Coordination Sequence:
#
# PCOD9406855 Si02
#       8
#     8   8   8   4   8   2   8   8
#     4  12  25  39  66  98 129 172 213 275 344 394
#     4  10  24  42  65  99 128 174 224 284 343 404
#     4  12  25  47  72 107 141 191 238 291 346 411
#     4  12  26  44  76  95 144 182 231 284 346 422
#     4  12  25  47  72 104 146 187 237 286 348 409
#     4  12  26  46  80 104 156 182 246 294 364 384
#     4  10  22  43  66  91 131 167 220 275 332 407
#     4  11  24  43  65  91 128 175 224 267 325 407
#
# _framework density 23.883734
#
# number of rings (size 3 to 8) (size 9 to 14) (size 15 to 20)
#    0.000    0.741    2.963    3.778    2.074    7.704 
#    0.000    4.444    0.000    0.000    0.000    0.000 
#    0.000    0.000    0.000    0.000    0.000    0.000 
#
# Total GULP energy -301137.405423 kJ/mol
# GULP energy per Si atom -5576.618619 kJ/mol
# Density = 2.382937 g / cm^3
# Si number density = 23.883734 Si / 1000 Ang^3
#
#
#
# Elastic Constant Matrix: (Units=GPa)
#
#
# Indices 1 2 3 4 5 6 
#
# 1 157.5139 40.3615 15.1468 0.0000 0.0000 0.0000
# 2 40.3615 75.1457 -0.1721 0.0000 0.0000 0.0000
# 3 15.1468 -0.1721 83.9246 0.0000 0.0000 0.0000
# 4 0.0000 0.0000 0.0000 59.9894 0.0000 0.0000
# 5 0.0000 0.0000 0.0000 0.0000 29.3575 0.0000
# 6 0.0000 0.0000 0.0000 0.0000 0.0000 21.5440
#
#
#
# Elastic Compliance Matrix: (Units=1/GPa)
#
#
# Indices 1 2 3 4 5 6 
#
# 1 0.007515 -0.004039 -0.001365 0.000000 0.000000 0.000000
# 2 -0.004039 0.015479 0.000761 0.000000 0.000000 0.000000
# 3 -0.001365 0.000761 0.012163 0.000000 0.000000 0.000000
# 4 0.000000 0.000000 0.000000 0.016670 0.000000 0.000000
# 5 0.000000 0.000000 0.000000 0.000000 0.034063 0.000000
# 6 0.000000 0.000000 0.000000 0.000000 0.000000 0.046417
#
#
# Mechanical properties :
#
#
# Convention : Reuss Voigt Hill
#
# Bulk Modulus (GPa) = 38.65393 47.47292 43.06343
# Shear Modulus (GPa) = 33.28532 39.59470 36.44001
#
# Velocity S-wave (km/s) = 3.73720 4.07604 3.91029
# Velocity P-wave (km/s) = 5.90267 6.48629 6.20135
#
# Compressibility (1/GPa) = 0.02587059
#
# Stress axis : x y z
#
# Youngs Moduli (GPa) = 133.06814 64.60417 82.21449
#
# Poissons Ratio (x) = 0.26097 0.11219
# Poissons Ratio (y) = 0.53753 -0.06255
# Poissons Ratio (z) = 0.18158 -0.04915
#
# Static dielectric constant tensor:
#      x y z
#    x 1.898530 0.000000 0.000000 
#    y 0.000000 1.986410 0.000000 
#    z 0.000000 0.000000 1.909540 
# 
# From -- ./inp_files/1509.got.cif
#   From: 2010.05.17/outbox.cif.g08.bks.cpg/sg51_1_cif.got.tgz:1509.got - 2010.06.03 11:52:47.
