data_PCOD9406495
_publ_section_title
;
Structure prediction by ZEFSAII (Michael W. Deem and Ramdas Pophale) SiO2 
 PCOD9406495
Probable space group: P M M A
;
_chemical_formula_sum "Si O2"
_cell_formula_units_Z 48
_cell_length_a 8.186555
_cell_length_b 15.234323
_cell_length_c 21.120793
_cell_angle_alpha 90.000000
_cell_angle_beta 90.000000
_cell_angle_gamma 90.000000
_cell_volume 2634.113981
_symmetry_space_group_name_H-M "P M M A"
_symmetry_group_IT_number 51
_symmetry_cell_setting 'orthorhombic'
loop_
_space_group_symop_operation_xyz
x,y,z
1/2-x,-y,z
1/2+x,-y,-z
-x,y,-z
-x,-y,-z
1/2+x,y,-z
1/2-x,y,z
x,-y,z
loop_
_atom_site_type_symbol
_atom_site_label
_atom_site_fract_x
_atom_site_fract_y
_atom_site_fract_z
Si Si1 0.444764 0.500000 0.429125
Si Si2 0.442454 0.596710 0.206228
Si Si3 0.944484 0.843429 0.667423
Si Si4 0.049703 0.206471 0.191232
Si Si5 0.441805 0.350062 0.658692
Si Si6 0.053102 0.899322 0.068056
Si Si7 0.557184 0.000000 0.425543
O O1 0.250000 0.500000 0.420960
O O2 0.500000 0.500000 0.500000
O O3 0.522376 0.414727 0.397682
O O4 0.250000 0.594846 0.190727
O O5 0.510664 0.500000 0.187941
O O6 0.507150 0.692021 0.183850
O O7 0.464851 0.608573 0.281376
O O8 0.750000 0.853445 0.669900
O O9 0.001666 0.838598 0.741854
O O10 0.992842 0.746629 0.644466
O O11 0.006124 0.916464 0.618177
O O12 0.250000 0.208620 0.193284
O O13 0.997233 0.152718 0.129841
O O14 0.250000 0.346122 0.673772
O O15 0.250000 0.900249 0.069488
O O16 0.994188 0.000000 0.071352
O O17 0.000000 0.862425 0.000000
O O18 0.500000 0.000000 0.500000
O O19 0.750000 0.000000 0.429648
#
# Coordination Sequence:
#
# PCOD9406495 Si02
#       7
#     4   8   8   8   8   8   4
#     4  12  24  38  54  76 104 138 179 220 269 330
#     4   9  16  29  51  75 101 134 175 220 265 317
#     4  10  21  39  62  85 108 142 185 230 277 328
#     4   8  16  30  52  80 105 137 181 223 267 321
#     4  11  21  35  54  79 109 139 172 218 274 326
#     4   9  17  30  49  73 105 142 180 220 267 323
#     4  12  26  44  62  84 111 144 183 226 277 334
#
# _framework density 18.222446999999999
#
# number of rings (size 3 to 8) (size 9 to 14) (size 15 to 20)
#    0.000    2.167    0.833    4.500    1.167    0.667 
#    0.000    7.500    0.000    0.500    0.000    0.000 
#    0.000    0.000    0.000    0.000    0.000    0.000 
#
# Total GULP energy -267351.455931 kJ/mol
# GULP energy per Si atom -5569.821999 kJ/mol
# Density = 1.818097 g / cm^3
# Si number density = 18.222447 Si / 1000 Ang^3
#
#
#
# Elastic Constant Matrix: (Units=GPa)
#
#
# Indices 1 2 3 4 5 6 
#
# 1 39.0866 15.9352 11.5319 0.0000 0.0000 0.0000
# 2 15.9352 135.2292 96.1409 0.0000 0.0000 0.0000
# 3 11.5319 96.1409 141.3665 0.0000 0.0000 0.0000
# 4 0.0000 0.0000 0.0000 80.7930 0.0000 0.0000
# 5 0.0000 0.0000 0.0000 0.0000 22.0049 0.0000
# 6 0.0000 0.0000 0.0000 0.0000 0.0000 84.6837
#
#
#
# Elastic Compliance Matrix: (Units=1/GPa)
#
#
# Indices 1 2 3 4 5 6 
#
# 1 0.026876 -0.003114 -0.000075 0.000000 0.000000 0.000000
# 2 -0.003114 0.014678 -0.009728 0.000000 0.000000 0.000000
# 3 -0.000075 -0.009728 0.013696 0.000000 0.000000 0.000000
# 4 0.000000 0.000000 0.000000 0.012377 0.000000 0.000000
# 5 0.000000 0.000000 0.000000 0.000000 0.045444 0.000000
# 6 0.000000 0.000000 0.000000 0.000000 0.000000 0.011809
#
#
# Mechanical properties :
#
#
# Convention : Reuss Voigt Hill
#
# Bulk Modulus (GPa) = 33.99504 62.54426 48.26965
# Shear Modulus (GPa) = 31.14891 50.30127 40.72509
#
# Velocity S-wave (km/s) = 4.13894 5.25965 4.73259
# Velocity P-wave (km/s) = 6.44493 8.44289 7.51064
#
# Compressibility (1/GPa) = 0.02941606
#
# Stress axis : x y z
#
# Youngs Moduli (GPa) = 37.20825 68.12865 73.01426
#
# Poissons Ratio (x) = 0.21215 0.00545
# Poissons Ratio (y) = 0.11586 0.71031
# Poissons Ratio (z) = 0.00278 0.66278
#
# Static dielectric constant tensor:
#      x y z
#    x 1.651400 0.000000 0.000000 
#    y 0.000000 1.660150 0.000000 
#    z 0.000000 0.000000 1.609950 
# 
# From -- ./inp_files/27630.got.cif
#   From: 2010.05.17/outbox.cif.g08.bks.cpg/sg51_14_cif.got.tgz:27630.got - 2010.06.03 11:52:47.
