data_PCOD9406385
_publ_section_title
;
Structure prediction by ZEFSAII (Michael W. Deem and Ramdas Pophale) SiO2 
 PCOD9406385
Probable space group: P M M A
;
_chemical_formula_sum "Si O2"
_cell_formula_units_Z 38
_cell_length_a 9.401062
_cell_length_b 9.420828
_cell_length_c 22.880912
_cell_angle_alpha 90.000000
_cell_angle_beta 90.000000
_cell_angle_gamma 90.000000
_cell_volume 2026.466004
_symmetry_space_group_name_H-M "P M M A"
_symmetry_group_IT_number 51
_symmetry_cell_setting 'orthorhombic'
loop_
_space_group_symop_operation_xyz
x,y,z
1/2-x,-y,z
1/2+x,-y,-z
-x,y,-z
-x,-y,-z
1/2+x,y,-z
1/2-x,y,z
x,-y,z
loop_
_atom_site_type_symbol
_atom_site_label
_atom_site_fract_x
_atom_site_fract_y
_atom_site_fract_z
Si Si1 0.920030 0.842762 0.620263
Si Si2 0.919647 0.331801 0.733433
Si Si3 0.081124 0.332888 0.061521
Si Si4 0.500000 0.729607 0.500000
Si Si5 0.750000 0.500000 0.502724
Si Si6 0.919416 0.830162 0.163989
O O1 0.750000 0.835021 0.609631
O O2 0.953695 0.724324 0.668462
O O3 0.998636 0.819726 0.559366
O O4 0.950539 0.000000 0.644346
O O5 0.750000 0.306275 0.743459
O O6 0.944090 0.500000 0.738414
O O7 0.012450 0.245121 0.779567
O O8 0.250000 0.301156 0.056644
O O9 0.069011 0.500000 0.078283
O O10 0.003314 0.236421 0.109173
O O11 0.000000 0.315444 0.000000
O O12 0.630587 0.624434 0.503128
O O13 0.750000 0.801491 0.159788
O O14 0.938980 0.000000 0.166477
#
# Coordination Sequence:
#
# PCOD9406385 Si02
#       6
#     8   8   8   4   2   8
#     4  10  21  38  61  87 117 153 194 239 296 357
#     4  10  22  39  63  88 112 149 198 245 292 352
#     4  10  21  38  63  93 123 158 200 244 290 345
#     4  11  21  40  58  88 118 156 192 248 292 356
#     4  10  24  34  62  86 120 150 198 242 294 346
#     4  11  24  41  59  85 122 159 197 243 295 349
#
# _framework density 18.751856
#
# number of rings (size 3 to 8) (size 9 to 14) (size 15 to 20)
#    0.000    1.684    1.053    2.842    2.947    7.158 
#    1.895    0.000    0.000    0.000    0.000    0.000 
#    0.000    0.000    0.000    0.000    0.000    0.000 
#
# Total GULP energy -211627.648444 kJ/mol
# GULP energy per Si atom -5569.148643 kJ/mol
# Density = 1.870918 g / cm^3
# Si number density = 18.751856 Si / 1000 Ang^3
#
#
#
# Elastic Constant Matrix: (Units=GPa)
#
#
# Indices 1 2 3 4 5 6 
#
# 1 101.2290 62.2871 40.7122 0.0000 0.0000 0.0000
# 2 62.2871 110.0375 61.5597 0.0000 0.0000 0.0000
# 3 40.7122 61.5597 101.7508 0.0000 0.0000 0.0000
# 4 0.0000 0.0000 0.0000 -12.7922 0.0000 0.0000
# 5 0.0000 0.0000 0.0000 0.0000 43.6082 0.0000
# 6 0.0000 0.0000 0.0000 0.0000 0.0000 37.3182
#
#
#
# Elastic Compliance Matrix: (Units=1/GPa)
#
#
# Indices 1 2 3 4 5 6 
#
# 1 0.015276 -0.007903 -0.001331 0.000000 0.000000 0.000000
# 2 -0.007903 0.017825 -0.007623 0.000000 0.000000 0.000000
# 3 -0.001331 -0.007623 0.014972 0.000000 0.000000 0.000000
# 4 0.000000 0.000000 0.000000 -0.078172 0.000000 0.000000
# 5 0.000000 0.000000 0.000000 0.000000 0.022931 0.000000
# 6 0.000000 0.000000 0.000000 0.000000 0.000000 0.026797
#
#
# Mechanical properties :
#
#
# Convention : Reuss Voigt Hill
#
# Bulk Modulus (GPa) = 69.63079 71.34837 70.48958
# Shear Modulus (GPa) = 86.01436 23.52405 54.76921
#
# Velocity S-wave (km/s) = 6.78007 3.54572 5.41025
# Velocity P-wave (km/s) = 9.92501 7.40906 8.75785
#
# Compressibility (1/GPa) = 0.01436146
#
# Stress axis : x y z
#
# Youngs Moduli (GPa) = 65.46003 56.09959 66.79003
#
# Poissons Ratio (x) = 0.44333 0.08892
# Poissons Ratio (y) = 0.51730 0.50911
# Poissons Ratio (z) = 0.08715 0.42762
#
# Static dielectric constant tensor:
#      x y z
#    x 1.620040 0.000000 0.000000 
#    y 0.000000 1.636210 0.000000 
#    z 0.000000 0.000000 1.650180 
# 
# From -- ./inp_files/34378.got.cif
#   From: 2010.05.17/outbox.cif.g08.bks.cpg/sg51_18_cif.got.tgz:34378.got - 2010.06.03 11:52:47.
