data_PCOD9406897
_publ_section_title
;
Structure prediction by ZEFSAII (Michael W. Deem and Ramdas Pophale) SiO2 
 PCOD9406897
Probable space group: P M M A
;
_chemical_formula_sum "Si O2"
_cell_formula_units_Z 56
_cell_length_a 8.137292
_cell_length_b 21.001094
_cell_length_c 16.050151
_cell_angle_alpha 90.000000
_cell_angle_beta 90.000000
_cell_angle_gamma 90.000000
_cell_volume 2742.842954
_symmetry_space_group_name_H-M "P M M A"
_symmetry_group_IT_number 51
_symmetry_cell_setting 'orthorhombic'
loop_
_space_group_symop_operation_xyz
x,y,z
1/2-x,-y,z
1/2+x,-y,-z
-x,y,-z
-x,-y,-z
1/2+x,y,-z
1/2-x,y,z
x,-y,z
loop_
_atom_site_type_symbol
_atom_site_label
_atom_site_fract_x
_atom_site_fract_y
_atom_site_fract_z
Si Si1 0.048864 0.569167 0.227254
Si Si2 0.945804 0.828758 0.908712
Si Si3 0.551141 0.071359 0.231113
Si Si4 0.947333 0.394194 0.587871
Si Si5 0.052688 0.254097 0.368314
Si Si6 0.551414 0.706456 0.821177
Si Si7 0.558680 0.115233 0.409959
O O1 0.250000 0.570455 0.226154
O O2 0.996462 0.500000 0.194885
O O3 0.999299 0.575130 0.324771
O O4 0.991309 0.633456 0.181200
O O5 0.750000 0.825463 0.907411
O O6 0.011715 0.757674 0.887356
O O7 0.997735 0.876917 0.836204
O O8 0.000000 0.849614 0.000000
O O9 0.750000 0.073015 0.233797
O O10 0.486372 0.087020 0.324246
O O11 0.499808 0.000000 0.207535
O O12 0.750000 0.394114 0.590166
O O13 0.003880 0.320501 0.591774
O O14 0.000000 0.422851 0.500000
O O15 0.250000 0.248205 0.378984
O O16 0.019658 0.263182 0.269940
O O17 0.970527 0.191127 0.403274
O O18 0.750000 0.702652 0.828968
O O19 0.500000 0.092387 0.500000
O O20 0.750000 0.101437 0.407402
#
# Coordination Sequence:
#
# PCOD9406897 Si02
#       7
#     8   8   8   8   8   8   8
#     4   8  14  26  45  69  97 134 179 222 266 317
#     4  11  22  38  63  91 117 144 180 225 278 337
#     4  10  23  43  62  83 115 150 186 230 276 325
#     4   9  17  26  39  62  94 131 173 223 272 317
#     4   9  16  30  49  70 100 136 179 229 275 320
#     4   8  15  29  51  77 105 138 176 223 271 320
#     4  11  22  34  53  80 110 146 188 230 274 322
#
# _framework density 20.416772999999999
#
# number of rings (size 3 to 8) (size 9 to 14) (size 15 to 20)
#    0.000    2.571    1.429    3.000    0.000    3.429 
#    0.000    0.000    0.000    0.429    0.000    0.000 
#    0.000    0.000    0.000    0.000    0.000    0.143 
#
# Total GULP energy -312321.999794 kJ/mol
# GULP energy per Si atom -5577.178568 kJ/mol
# Density = 2.037030 g / cm^3
# Si number density = 20.416773 Si / 1000 Ang^3
#
#
#
# Elastic Constant Matrix: (Units=GPa)
#
#
# Indices 1 2 3 4 5 6 
#
# 1 12.8507 11.1007 14.4079 0.0000 0.0000 0.0000
# 2 11.1007 125.9369 57.5735 0.0000 0.0000 0.0000
# 3 14.4079 57.5735 102.0660 0.0000 0.0000 0.0000
# 4 0.0000 0.0000 0.0000 30.7390 0.0000 0.0000
# 5 0.0000 0.0000 0.0000 0.0000 18.2277 0.0000
# 6 0.0000 0.0000 0.0000 0.0000 0.0000 7.0546
#
#
#
# Elastic Compliance Matrix: (Units=1/GPa)
#
#
# Indices 1 2 3 4 5 6 
#
# 1 0.093264 -0.002967 -0.011492 0.000000 0.000000 0.000000
# 2 -0.002967 0.010794 -0.005670 0.000000 0.000000 0.000000
# 3 -0.011492 -0.005670 0.014618 0.000000 0.000000 0.000000
# 4 0.000000 0.000000 0.000000 0.032532 0.000000 0.000000
# 5 0.000000 0.000000 0.000000 0.000000 0.054861 0.000000
# 6 0.000000 0.000000 0.000000 0.000000 0.000000 0.141752
#
#
# Mechanical properties :
#
#
# Convention : Reuss Voigt Hill
#
# Bulk Modulus (GPa) = 12.75209 45.22420 28.98815
# Shear Modulus (GPa) = 12.07093 21.72236 16.89665
#
# Velocity S-wave (km/s) = 2.43415 3.26536 2.87990
# Velocity P-wave (km/s) = 3.76292 6.03451 5.02866
#
# Compressibility (1/GPa) = 0.07841850
#
# Stress axis : x y z
#
# Youngs Moduli (GPa) = 10.72227 92.64335 68.40851
#
# Poissons Ratio (x) = 0.27489 0.78613
# Poissons Ratio (y) = 0.03181 0.38787
# Poissons Ratio (z) = 0.12322 0.52528
#
# Static dielectric constant tensor:
#      x y z
#    x 1.718220 0.000000 0.000000 
#    y 0.000000 1.748830 0.000000 
#    z 0.000000 0.000000 1.734290 
# 
# From -- ./inp_files/21866.got.cif
#   From: 2010.05.17/outbox.cif.g08.bks.cpg/sg51_11_cif.got.tgz:21866.got - 2010.06.03 11:52:47.
