data_PCOD9406441
_publ_section_title
;
Structure prediction by ZEFSAII (Michael W. Deem and Ramdas Pophale) SiO2 
 PCOD9406441
Probable space group: P M M A
;
_chemical_formula_sum "Si O2"
_cell_formula_units_Z 38
_cell_length_a 9.419520
_cell_length_b 22.235415
_cell_length_c 9.447133
_cell_angle_alpha 90.000000
_cell_angle_beta 90.000000
_cell_angle_gamma 90.000000
_cell_volume 1978.673064
_symmetry_space_group_name_H-M "P M M A"
_symmetry_group_IT_number 51
_symmetry_cell_setting 'orthorhombic'
loop_
_space_group_symop_operation_xyz
x,y,z
1/2-x,-y,z
1/2+x,-y,-z
-x,y,-z
-x,-y,-z
1/2+x,y,-z
1/2-x,y,z
x,-y,z
loop_
_atom_site_type_symbol
_atom_site_label
_atom_site_fract_x
_atom_site_fract_y
_atom_site_fract_z
Si Si1 0.081436 0.343985 0.146464
Si Si2 0.082747 0.128389 0.142975
Si Si3 0.916226 0.427644 0.356108
Si Si4 0.750000 0.000000 0.458305
Si Si5 0.030781 0.000000 0.277593
Si Si6 0.916475 0.230624 0.644250
O O1 0.250000 0.355897 0.125370
O O2 0.068558 0.286287 0.248727
O O3 0.000987 0.397701 0.227627
O O4 0.000000 0.332914 0.000000
O O5 0.250000 0.140119 0.122102
O O6 0.034785 0.171038 0.272299
O O7 0.060215 0.059662 0.186991
O O8 0.000000 0.142861 0.000000
O O9 0.750000 0.408871 0.361523
O O10 0.918911 0.500000 0.344483
O O11 0.000000 0.411061 0.500000
O O12 0.873042 0.000000 0.336538
O O13 0.869403 0.000000 0.585515
O O14 0.750000 0.223635 0.610307
O O15 0.000000 0.240227 0.500000
#
# Coordination Sequence:
#
# PCOD9406441 Si02
#       6
#     8   8   8   2   4   8
#     4  11  23  40  61  87 122 160 201 247 300 356
#     4  11  24  41  61  89 122 156 199 243 298 359
#     4  10  21  38  62  91 123 159 201 248 297 351
#     4  10  24  38  62  92 120 154 196 250 294 352
#     4  11  23  40  63  88 123 155 198 247 299 354
#     4  10  24  41  62  89 118 154 199 247 296 355
#
# _framework density 19.204788000000001
#
# number of rings (size 3 to 8) (size 9 to 14) (size 15 to 20)
#    0.000    1.474    1.053    2.842    4.421    5.895 
#    0.000    0.000    0.000    0.000    0.000    0.000 
#    0.000    0.000    0.000    0.000    0.000    0.000 
#
# Total GULP energy -211830.523365 kJ/mol
# GULP energy per Si atom -5574.487457 kJ/mol
# Density = 1.916108 g / cm^3
# Si number density = 19.204788 Si / 1000 Ang^3
#
#
#
# Elastic Constant Matrix: (Units=GPa)
#
#
# Indices 1 2 3 4 5 6 
#
# 1 157.0140 34.1168 79.0652 0.0000 0.0000 0.0000
# 2 34.1168 50.4041 31.1257 0.0000 0.0000 0.0000
# 3 79.0652 31.1257 143.3989 0.0000 0.0000 0.0000
# 4 0.0000 0.0000 0.0000 37.9911 0.0000 0.0000
# 5 0.0000 0.0000 0.0000 0.0000 45.9742 0.0000
# 6 0.0000 0.0000 0.0000 0.0000 0.0000 16.1625
#
#
#
# Elastic Compliance Matrix: (Units=1/GPa)
#
#
# Indices 1 2 3 4 5 6 
#
# 1 0.009360 -0.003636 -0.004372 0.000000 0.000000 0.000000
# 2 -0.003636 0.024323 -0.003275 0.000000 0.000000 0.000000
# 3 -0.004372 -0.003275 0.010095 0.000000 0.000000 0.000000
# 4 0.000000 0.000000 0.000000 0.026322 0.000000 0.000000
# 5 0.000000 0.000000 0.000000 0.000000 0.021751 0.000000
# 6 0.000000 0.000000 0.000000 0.000000 0.000000 0.061872
#
#
# Mechanical properties :
#
#
# Convention : Reuss Voigt Hill
#
# Bulk Modulus (GPa) = 47.14058 71.04805 59.09431
# Shear Modulus (GPa) = 27.26894 33.79286 30.53090
#
# Velocity S-wave (km/s) = 3.77225 4.19932 3.99150
# Velocity P-wave (km/s) = 6.60096 7.78381 7.21666
#
# Compressibility (1/GPa) = 0.02121315
#
# Stress axis : x y z
#
# Youngs Moduli (GPa) = 106.83395 41.11346 99.06118
#
# Poissons Ratio (x) = 0.14949 0.43307
# Poissons Ratio (y) = 0.38845 0.32439
# Poissons Ratio (z) = 0.46705 0.13463
#
# Static dielectric constant tensor:
#      x y z
#    x 1.650460 0.000000 0.000000 
#    y 0.000000 1.681950 0.000000 
#    z 0.000000 0.000000 1.632650 
# 
# From -- ./inp_files/5303.got.cif
#   From: 2010.05.17/outbox.cif.g08.bks.cpg/sg51_3_cif.got.tgz:5303.got - 2010.06.03 11:52:47.
