data_PCOD9406205
_publ_section_title
;
Structure prediction by ZEFSAII (Michael W. Deem and Ramdas Pophale) SiO2 
 PCOD9406205
Probable space group: P M M A
;
_chemical_formula_sum "Si O2"
_cell_formula_units_Z 26
_cell_length_a 22.806264
_cell_length_b 7.772056
_cell_length_c 7.213057
_cell_angle_alpha 90.000000
_cell_angle_beta 90.000000
_cell_angle_gamma 90.000000
_cell_volume 1278.525613
_symmetry_space_group_name_H-M "P M M A"
_symmetry_group_IT_number 51
_symmetry_cell_setting 'orthorhombic'
loop_
_space_group_symop_operation_xyz
x,y,z
1/2-x,-y,z
1/2+x,-y,-z
-x,y,-z
-x,-y,-z
1/2+x,y,-z
1/2-x,y,z
x,-y,z
loop_
_atom_site_type_symbol
_atom_site_label
_atom_site_fract_x
_atom_site_fract_y
_atom_site_fract_z
Si Si1 0.750000 0.000000 0.551958
Si Si2 0.425099 0.702104 0.849899
Si Si3 0.155176 0.697480 0.514680
Si Si4 0.052569 0.195263 0.260065
O O1 0.800685 0.846142 0.546162
O O2 0.424045 0.500000 0.893728
O O3 0.370408 0.741440 0.718676
O O4 0.485893 0.739051 0.743012
O O5 0.427462 0.798454 0.044894
O O6 0.177894 0.500000 0.517324
O O7 0.098723 0.700691 0.380361
O O8 0.053100 0.000000 0.327513
#
# Coordination Sequence:
#
# PCOD9406205 Si02
#       4
#     2   8   8   8
#     4  12  26  44  64  86 116 162 218 262 290 342
#     4  10  21  37  62  94 127 159 192 244 309 373
#     4  11  24  43  64  88 121 162 205 251 304 355
#     4  11  21  35  63  97 127 158 193 244 307 373
#
# _framework density 20.335925
#
# number of rings (size 3 to 8) (size 9 to 14) (size 15 to 20)
#    0.000    1.231    1.538    6.923    4.308    3.692 
#    0.000    3.077    0.000    3.692    0.000    0.000 
#    0.000    0.000    0.000    0.000    0.000    0.000 
#
# Total GULP energy -144757.375006 kJ/mol
# GULP energy per Si atom -5567.591346 kJ/mol
# Density = 2.028964 g / cm^3
# Si number density = 20.335925 Si / 1000 Ang^3
#
#
#
# Elastic Constant Matrix: (Units=GPa)
#
#
# Indices 1 2 3 4 5 6 
#
# 1 52.6000 21.0717 20.7828 0.0000 0.0000 0.0000
# 2 21.0717 108.8981 8.2832 0.0000 0.0000 0.0000
# 3 20.7828 8.2832 41.4747 0.0000 0.0000 0.0000
# 4 0.0000 0.0000 0.0000 -24.4084 0.0000 0.0000
# 5 0.0000 0.0000 0.0000 0.0000 -7.3521 0.0000
# 6 0.0000 0.0000 0.0000 0.0000 0.0000 59.5026
#
#
#
# Elastic Compliance Matrix: (Units=1/GPa)
#
#
# Indices 1 2 3 4 5 6 
#
# 1 0.025306 -0.003993 -0.011883 0.000000 0.000000 0.000000
# 2 -0.003993 0.009955 0.000013 0.000000 0.000000 0.000000
# 3 -0.011883 0.000013 0.030063 0.000000 0.000000 0.000000
# 4 0.000000 0.000000 0.000000 -0.040969 0.000000 0.000000
# 5 0.000000 0.000000 0.000000 0.000000 -0.136016 0.000000
# 6 0.000000 0.000000 0.000000 0.000000 0.000000 0.016806
#
#
# Mechanical properties :
#
#
# Convention : Reuss Voigt Hill
#
# Bulk Modulus (GPa) = 29.76458 33.69423 31.72941
# Shear Modulus (GPa) = -96.28534 15.73741 -40.27397
#
# Velocity S-wave (km/s) = -6.88841 2.78487 -4.45504
# Velocity P-wave (km/s) = 6.97128 5.19090 3.29038
#
# Compressibility (1/GPa) = 0.03359698
#
# Stress axis : x y z
#
# Youngs Moduli (GPa) = 39.51595 100.45667 33.26313
#
# Poissons Ratio (x) = 0.40111 0.39528
# Poissons Ratio (y) = 0.15778 -0.00042
# Poissons Ratio (z) = 0.46959 -0.00128
#
# Static dielectric constant tensor:
#      x y z
#    x 1.694980 0.000000 0.000000 
#    y 0.000000 1.704170 0.000000 
#    z 0.000000 0.000000 1.754160 
# 
# From -- ./inp_files/8991.got.cif
#   From: 2010.05.17/outbox.cif.g08.bks.cpg/sg51_5_cif.got.tgz:8991.got - 2010.06.03 11:52:47.
