data_PCOD9406942
_publ_section_title
;
Structure prediction by ZEFSAII (Michael W. Deem and Ramdas Pophale) SiO2 
 PCOD9406942
Probable space group: P M M A
;
_chemical_formula_sum "Si O2"
_cell_formula_units_Z 48
_cell_length_a 20.204442
_cell_length_b 10.134704
_cell_length_c 13.922061
_cell_angle_alpha 90.000000
_cell_angle_beta 90.000000
_cell_angle_gamma 90.000000
_cell_volume 2850.765288
_symmetry_space_group_name_H-M "P M M A"
_symmetry_group_IT_number 51
_symmetry_cell_setting 'orthorhombic'
loop_
_space_group_symop_operation_xyz
x,y,z
1/2-x,-y,z
1/2+x,-y,-z
-x,y,-z
-x,-y,-z
1/2+x,y,-z
1/2-x,y,z
x,-y,z
loop_
_atom_site_type_symbol
_atom_site_label
_atom_site_fract_x
_atom_site_fract_y
_atom_site_fract_z
Si Si1 0.045491 0.500000 0.359825
Si Si2 0.895583 0.500000 0.435620
Si Si3 0.328681 0.757312 0.654581
Si Si4 0.448656 0.000000 0.348784
Si Si5 0.901960 0.839773 0.155174
Si Si6 0.950684 0.247114 0.776546
Si Si7 0.079465 0.346554 0.019515
Si Si8 0.403953 0.000000 0.567436
O O1 0.097391 0.500000 0.448328
O O2 0.049859 0.372664 0.292620
O O3 0.971506 0.500000 0.401725
O O4 0.859551 0.374638 0.389736
O O5 0.250000 0.755143 0.649005
O O6 0.352133 0.788712 0.763089
O O7 0.361219 0.874001 0.593781
O O8 0.426796 0.874287 0.287536
O O9 0.421329 0.000000 0.456005
O O10 0.528541 0.000000 0.368620
O O11 0.975345 0.797410 0.191262
O O12 0.898844 0.000000 0.143654
O O13 0.891287 0.755385 0.058114
O O14 0.912986 0.287681 0.873700
O O15 0.102083 0.500000 0.011860
O O16 0.000000 0.350316 0.000000
#
# Coordination Sequence:
#
# PCOD9406942 Si02
#       8
#     4   4   8   4   8   8   8   4
#     4  11  20  34  58  78 116 149 180 227 287 343
#     4  11  23  36  53  85 110 149 189 229 276 333
#     4  12  23  38  56  78 113 149 187 233 274 329
#     4  11  20  32  58  82 116 145 184 233 279 345
#     4  11  21  34  51  79 111 146 185 222 272 337
#     4  11  18  33  52  82 113 147 175 221 283 339
#     4   9  20  31  50  75 112 145 173 213 269 330
#     4  11  21  38  53  81 112 153 187 227 284 331
#
# _framework density 16.837584
#
# number of rings (size 3 to 8) (size 9 to 14) (size 15 to 20)
#    0.000    1.167    5.833    1.500    3.500    3.667 
#    0.000    0.000    0.000    0.000    0.000    7.000 
#    0.000    0.000    0.000    0.000    0.000    0.000 
#
# Total GULP energy -267710.553964 kJ/mol
# GULP energy per Si atom -5577.303208 kJ/mol
# Density = 1.679926 g / cm^3
# Si number density = 16.837584 Si / 1000 Ang^3
#
#
#
# Elastic Constant Matrix: (Units=GPa)
#
#
# Indices 1 2 3 4 5 6 
#
# 1 64.0589 47.2358 39.6663 0.0000 0.0000 0.0000
# 2 47.2358 205.3021 102.8711 0.0000 0.0000 0.0000
# 3 39.6663 102.8711 164.4767 0.0000 0.0000 0.0000
# 4 0.0000 0.0000 0.0000 55.9495 0.0000 0.0000
# 5 0.0000 0.0000 0.0000 0.0000 13.7291 0.0000
# 6 0.0000 0.0000 0.0000 0.0000 0.0000 -122.2373
#
#
#
# Elastic Compliance Matrix: (Units=1/GPa)
#
#
# Indices 1 2 3 4 5 6 
#
# 1 0.019637 -0.003124 -0.002782 0.000000 0.000000 0.000000
# 2 -0.003124 0.007591 -0.003994 0.000000 0.000000 0.000000
# 3 -0.002782 -0.003994 0.009249 0.000000 0.000000 0.000000
# 4 0.000000 0.000000 0.000000 0.017873 0.000000 0.000000
# 5 0.000000 0.000000 0.000000 0.000000 0.072838 0.000000
# 6 0.000000 0.000000 0.000000 0.000000 0.000000 -0.008181
#
#
# Mechanical properties :
#
#
# Convention : Reuss Voigt Hill
#
# Bulk Modulus (GPa) = 59.96506 90.37598 75.17052
# Shear Modulus (GPa) = 34.63390 5.75920 20.19655
#
# Velocity S-wave (km/s) = 4.54027 1.85145 3.46713
# Velocity P-wave (km/s) = 7.94837 7.63951 7.79547
#
# Compressibility (1/GPa) = 0.01667638
#
# Stress axis : x y z
#
# Youngs Moduli (GPa) = 50.92465 131.73211 108.11935
#
# Poissons Ratio (x) = 0.41155 0.30076
# Poissons Ratio (y) = 0.15910 0.43187
# Poissons Ratio (z) = 0.14166 0.52619
#
# Static dielectric constant tensor:
#      x y z
#    x 1.533340 0.000000 0.000000 
#    y 0.000000 1.536780 0.000000 
#    z 0.000000 0.000000 1.726320 
# 
# From -- ./inp_files/25029.got.cif
#   From: 2010.05.17/outbox.cif.g08.bks.cpg/sg51_13_cif.got.tgz:25029.got - 2010.06.03 11:52:47.
