data_PCOD9406411
_publ_section_title
;
Structure prediction by ZEFSAII (Michael W. Deem and Ramdas Pophale) SiO2 
 PCOD9406411
Probable space group: P M M A
;
_chemical_formula_sum "Si O2"
_cell_formula_units_Z 64
_cell_length_a 9.013990
_cell_length_b 13.833957
_cell_length_c 24.231596
_cell_angle_alpha 90.000000
_cell_angle_beta 90.000000
_cell_angle_gamma 90.000000
_cell_volume 3021.659426
_symmetry_space_group_name_H-M "P M M A"
_symmetry_group_IT_number 51
_symmetry_cell_setting 'orthorhombic'
loop_
_space_group_symop_operation_xyz
x,y,z
1/2-x,-y,z
1/2+x,-y,-z
-x,y,-z
-x,-y,-z
1/2+x,y,-z
1/2-x,y,z
x,-y,z
loop_
_atom_site_type_symbol
_atom_site_label
_atom_site_fract_x
_atom_site_fract_y
_atom_site_fract_z
Si Si1 0.574435 0.293064 0.555583
Si Si2 0.572933 0.793830 0.055239
Si Si3 0.418137 0.882690 0.282605
Si Si4 0.919175 0.383343 0.339493
Si Si5 0.920723 0.382422 0.771499
Si Si6 0.921488 0.116633 0.172206
Si Si7 0.925579 0.886751 0.396359
Si Si8 0.928878 0.386971 0.896205
O O1 0.500000 0.332592 0.500000
O O2 0.750000 0.296515 0.551272
O O3 0.517729 0.348632 0.609672
O O4 0.516914 0.183768 0.564563
O O5 0.750000 0.795288 0.050254
O O6 0.530676 0.848401 0.111798
O O7 0.512286 0.685405 0.063776
O O8 0.500000 0.835335 0.000000
O O9 0.250000 0.850134 0.294009
O O10 0.478100 0.849337 0.223270
O O11 0.525141 0.860937 0.333822
O O12 0.414741 0.000000 0.279746
O O13 0.750000 0.350071 0.346812
O O14 0.919133 0.500000 0.338846
O O15 0.983966 0.350322 0.280632
O O16 0.750000 0.351257 0.765652
O O17 0.919005 0.500000 0.770180
O O18 0.974017 0.359829 0.833272
O O19 0.750000 0.147005 0.181137
O O20 0.923675 0.000000 0.172396
O O21 0.750000 0.872833 0.403391
O O22 0.959384 0.000000 0.405056
O O23 0.750000 0.375624 0.899940
O O24 0.962204 0.500000 0.905470
#
# Coordination Sequence:
#
# PCOD9406411 Si02
#       8
#     8   8   8   8   8   8   8   8
#     4  12  26  43  62  84 114 152 197 245 287 337
#     4  11  24  39  56  79 107 143 188 235 280 331
#     4   9  17  31  55  88 120 149 185 228 277 335
#     4  10  21  38  61  89 121 155 191 234 284 339
#     4   8  15  31  56  85 115 147 184 226 278 338
#     4   9  19  37  58  80 110 148 187 229 280 335
#     4  10  21  39  63  89 119 154 190 233 285 339
#     4   9  19  37  60  84 112 146 182 224 275 330
#
# _framework density 21.180415
#
# number of rings (size 3 to 8) (size 9 to 14) (size 15 to 20)
#    0.000    2.250    0.000    3.375    0.000    6.750 
#    0.000    3.750    0.000    0.000    0.000    0.000 
#    0.000    0.000    0.000    0.000    0.000    0.000 
#
# Total GULP energy -357818.437908 kJ/mol
# GULP energy per Si atom -5590.913092 kJ/mol
# Density = 2.113221 g / cm^3
# Si number density = 21.180415 Si / 1000 Ang^3
#
#
#
# Elastic Constant Matrix: (Units=GPa)
#
#
# Indices 1 2 3 4 5 6 
#
# 1 98.1322 3.2755 45.1984 0.0000 0.0000 0.0000
# 2 3.2755 37.3675 2.2455 0.0000 0.0000 0.0000
# 3 45.1984 2.2455 104.2737 0.0000 0.0000 0.0000
# 4 0.0000 0.0000 0.0000 23.9894 0.0000 0.0000
# 5 0.0000 0.0000 0.0000 0.0000 39.7602 0.0000
# 6 0.0000 0.0000 0.0000 0.0000 0.0000 24.0773
#
#
#
# Elastic Compliance Matrix: (Units=1/GPa)
#
#
# Indices 1 2 3 4 5 6 
#
# 1 0.012755 -0.000787 -0.005512 0.000000 0.000000 0.000000
# 2 -0.000787 0.026844 -0.000237 0.000000 0.000000 0.000000
# 3 -0.005512 -0.000237 0.011984 0.000000 0.000000 0.000000
# 4 0.000000 0.000000 0.000000 0.041685 0.000000 0.000000
# 5 0.000000 0.000000 0.000000 0.000000 0.025151 0.000000
# 6 0.000000 0.000000 0.000000 0.000000 0.000000 0.041533
#
#
# Mechanical properties :
#
#
# Convention : Reuss Voigt Hill
#
# Bulk Modulus (GPa) = 25.96557 37.91246 31.93901
# Shear Modulus (GPa) = 26.90167 30.16900 28.53534
#
# Velocity S-wave (km/s) = 3.56774 3.77819 3.67447
# Velocity P-wave (km/s) = 5.40902 6.08043 5.75453
#
# Compressibility (1/GPa) = 0.03851254
#
# Stress axis : x y z
#
# Youngs Moduli (GPa) = 78.39857 37.25170 83.44137
#
# Poissons Ratio (x) = 0.02931 0.45993
# Poissons Ratio (y) = 0.06169 0.01978
# Poissons Ratio (z) = 0.43213 0.00883
#
# Static dielectric constant tensor:
#      x y z
#    x 1.716390 0.000000 0.000000 
#    y 0.000000 1.812480 0.000000 
#    z 0.000000 0.000000 1.747050 
# 
# From -- ./inp_files/34880.got.cif
#   From: 2010.05.17/outbox.cif.g08.bks.cpg/sg51_18_cif.got.tgz:34880.got - 2010.06.03 11:52:47.
