data_PCOD9406817
_publ_section_title
;
Structure prediction by ZEFSAII (Michael W. Deem and Ramdas Pophale) SiO2 
 PCOD9406817
Probable space group: P M M A
;
_chemical_formula_sum "Si O2"
_cell_formula_units_Z 48
_cell_length_a 9.763452
_cell_length_b 31.084123
_cell_length_c 7.773669
_cell_angle_alpha 90.000000
_cell_angle_beta 90.000000
_cell_angle_gamma 90.000000
_cell_volume 2359.217923
_symmetry_space_group_name_H-M "P M M A"
_symmetry_group_IT_number 51
_symmetry_cell_setting 'orthorhombic'
loop_
_space_group_symop_operation_xyz
x,y,z
1/2-x,-y,z
1/2+x,-y,-z
-x,y,-z
-x,-y,-z
1/2+x,y,-z
1/2-x,y,z
x,-y,z
loop_
_atom_site_type_symbol
_atom_site_label
_atom_site_fract_x
_atom_site_fract_y
_atom_site_fract_z
Si Si1 0.250000 0.662885 0.025828
Si Si2 0.518949 0.780312 0.207927
Si Si3 0.409883 0.551441 0.663029
Si Si4 0.413012 0.126190 0.829570
Si Si5 0.250000 0.736310 0.309631
Si Si6 0.500000 0.602827 0.000000
Si Si7 0.414534 0.952418 0.324865
Si Si8 0.750000 0.713652 0.310928
O O1 0.250000 0.705464 0.142637
O O2 0.380866 0.634151 0.063921
O O3 0.250000 0.674293 0.822015
O O4 0.572815 0.827500 0.262720
O O5 0.378616 0.767827 0.298145
O O6 0.621803 0.743100 0.261474
O O7 0.500000 0.777895 0.000000
O O8 0.500000 0.565847 0.500000
O O9 0.250000 0.559324 0.627878
O O10 0.429779 0.500000 0.682651
O O11 0.450584 0.574250 0.840224
O O12 0.250000 0.116829 0.851432
O O13 0.499473 0.086002 0.759009
O O14 0.500000 0.134873 0.000000
O O15 0.250000 0.708121 0.483699
O O16 0.500000 0.956832 0.500000
O O17 0.250000 0.943043 0.346144
O O18 0.421565 0.000000 0.238458
#
# Coordination Sequence:
#
# PCOD9406817 Si02
#       8
#     4   8   8   8   4   4   8   4
#     4  12  26  44  67  98 138 184 231 290 344 404
#     4  11  22  43  68  92 131 168 214 282 345 400
#     4  10  23  44  72 107 144 184 234 291 346 406
#     4  11  24  40  65  96 126 166 210 267 332 395
#     4  12  26  42  72  95 123 180 224 283 345 410
#     4  12  25  44  70  98 142 190 234 284 347 412
#     4  10  22  41  64  91 130 173 210 257 317 389
#     4  12  24  46  66  95 129 172 228 277 341 410
#
# _framework density 20.345724000000001
#
# number of rings (size 3 to 8) (size 9 to 14) (size 15 to 20)
#    0.000    1.000    3.333    2.750    5.833    4.000 
#    0.000    0.000    0.000    0.000    0.000    0.000 
#    0.000    0.000    0.000    0.000    0.000    0.000 
#
# Total GULP energy -267774.762240 kJ/mol
# GULP energy per Si atom -5578.640880 kJ/mol
# Density = 2.029942 g / cm^3
# Si number density = 20.345724 Si / 1000 Ang^3
#
#
#
# Elastic Constant Matrix: (Units=GPa)
#
#
# Indices 1 2 3 4 5 6 
#
# 1 170.5505 44.8507 12.3668 0.0000 0.0000 0.0000
# 2 44.8507 65.3987 20.2538 0.0000 0.0000 0.0000
# 3 12.3668 20.2538 73.9528 0.0000 0.0000 0.0000
# 4 0.0000 0.0000 0.0000 -485.8844 0.0000 0.0000
# 5 0.0000 0.0000 0.0000 0.0000 36.3979 0.0000
# 6 0.0000 0.0000 0.0000 0.0000 0.0000 25.5857
#
#
#
# Elastic Compliance Matrix: (Units=1/GPa)
#
#
# Indices 1 2 3 4 5 6 
#
# 1 0.007155 -0.004957 0.000161 0.000000 0.000000 0.000000
# 2 -0.004957 0.020142 -0.004687 0.000000 0.000000 0.000000
# 3 0.000161 -0.004687 0.014779 0.000000 0.000000 0.000000
# 4 0.000000 0.000000 0.000000 -0.002058 0.000000 0.000000
# 5 0.000000 0.000000 0.000000 0.000000 0.027474 0.000000
# 6 0.000000 0.000000 0.000000 0.000000 0.000000 0.039084
#
#
# Mechanical properties :
#
#
# Convention : Reuss Voigt Hill
#
# Bulk Modulus (GPa) = 43.27223 51.64938 47.46080
# Shear Modulus (GPa) = 37.52444 -69.28476 -15.88016
#
# Velocity S-wave (km/s) = 4.29924 -5.84189 -2.79680
# Velocity P-wave (km/s) = 6.77932 4.47912 3.59838
#
# Compressibility (1/GPa) = 0.02310951
#
# Stress axis : x y z
#
# Youngs Moduli (GPa) = 139.75742 49.64739 67.66368
#
# Poissons Ratio (x) = 0.24610 -0.01090
# Poissons Ratio (y) = 0.69278 0.31717
# Poissons Ratio (z) = -0.02251 0.23272
#
# Static dielectric constant tensor:
#      x y z
#    x 1.782980 0.000000 0.000000 
#    y 0.000000 1.782230 0.000000 
#    z 0.000000 0.000000 1.685930 
# 
# From -- ./inp_files/6306.got.cif
#   From: 2010.05.17/outbox.cif.g08.bks.cpg/sg51_4_cif.got.tgz:6306.got - 2010.06.03 11:52:47.
