data_PCOD9406932
_publ_section_title
;
Structure prediction by ZEFSAII (Michael W. Deem and Ramdas Pophale) SiO2 
 PCOD9406932
Probable space group: P M M A
;
_chemical_formula_sum "Si O2"
_cell_formula_units_Z 32
_cell_length_a 14.212772
_cell_length_b 14.014032
_cell_length_c 8.238475
_cell_angle_alpha 90.000000
_cell_angle_beta 90.000000
_cell_angle_gamma 90.000000
_cell_volume 1640.924964
_symmetry_space_group_name_H-M "P M M A"
_symmetry_group_IT_number 51
_symmetry_cell_setting 'orthorhombic'
loop_
_space_group_symop_operation_xyz
x,y,z
1/2-x,-y,z
1/2+x,-y,-z
-x,y,-z
-x,-y,-z
1/2+x,y,-z
1/2-x,y,z
x,-y,z
loop_
_atom_site_type_symbol
_atom_site_label
_atom_site_fract_x
_atom_site_fract_y
_atom_site_fract_z
Si Si1 0.250000 0.113932 0.973524
Si Si2 0.750000 0.000000 0.411470
Si Si3 0.750000 0.500000 0.614686
Si Si4 0.034968 0.000000 0.685267
Si Si5 0.561581 0.817815 0.852250
Si Si6 0.601945 0.671670 0.564399
Si Si7 0.750000 0.202039 0.388070
O O1 0.157816 0.144399 0.071077
O O2 0.250000 0.000000 0.962506
O O3 0.250000 0.165880 0.797328
O O4 0.647877 0.000000 0.324391
O O5 0.750000 0.895983 0.495294
O O6 0.668150 0.583790 0.608337
O O7 0.000000 0.000000 0.500000
O O8 0.995684 0.093503 0.774675
O O9 0.584228 0.740171 0.717200
O O10 0.500000 0.777310 0.000000
O O11 0.500000 0.641864 0.500000
O O12 0.658813 0.735991 0.432620
#
# Coordination Sequence:
#
# PCOD9406932 Si02
#       7
#     4   2   2   4   8   8   4
#     4  12  23  40  61  89 142 186 226 276 317 381
#     4  12  20  34  56  88 132 172 214 272 298 372
#     4  10  24  44  74 100 120 160 224 292 358 402
#     4  12  25  39  61  96 137 190 237 265 313 390
#     4  12  25  42  64  98 139 184 223 269 335 402
#     4  11  23  45  69  98 128 168 223 284 342 409
#     4  11  23  38  65  96 131 179 228 265 328 391
#
# _framework density 19.501194999999999
#
# number of rings (size 3 to 8) (size 9 to 14) (size 15 to 20)
#    0.000    0.500    1.875    9.000    0.000    1.000 
#    2.250    0.625    0.000   19.500    0.000    0.000 
#    0.000    0.000    0.000    0.000    0.000    0.000 
#
# Total GULP energy -178488.096162 kJ/mol
# GULP energy per Si atom -5577.753005 kJ/mol
# Density = 1.945681 g / cm^3
# Si number density = 19.501195 Si / 1000 Ang^3
#
#
#
# Elastic Constant Matrix: (Units=GPa)
#
#
# Indices 1 2 3 4 5 6 
#
# 1 208.3188 68.9989 60.8865 0.0000 0.0000 0.0000
# 2 68.9989 148.8203 40.3160 0.0000 0.0000 0.0000
# 3 60.8865 40.3160 106.7471 0.0000 0.0000 0.0000
# 4 0.0000 0.0000 0.0000 -0.2234 0.0000 0.0000
# 5 0.0000 0.0000 0.0000 0.0000 36.7189 0.0000
# 6 0.0000 0.0000 0.0000 0.0000 0.0000 19.1087
#
#
#
# Elastic Compliance Matrix: (Units=1/GPa)
#
#
# Indices 1 2 3 4 5 6 
#
# 1 0.006339 -0.002183 -0.002791 0.000000 0.000000 0.000000
# 2 -0.002183 0.008237 -0.001866 0.000000 0.000000 0.000000
# 3 -0.002791 -0.001866 0.011665 0.000000 0.000000 0.000000
# 4 0.000000 0.000000 0.000000 -4.476939 0.000000 0.000000
# 5 0.000000 0.000000 0.000000 0.000000 0.027234 0.000000
# 6 0.000000 0.000000 0.000000 0.000000 0.000000 0.052332
#
#
# Mechanical properties :
#
#
# Convention : Reuss Voigt Hill
#
# Bulk Modulus (GPa) = 79.61268 89.36544 84.48906
# Shear Modulus (GPa) = -1.14856 30.69984 14.77564
#
# Velocity S-wave (km/s) = -0.76828 3.97199 2.75558
# Velocity P-wave (km/s) = 6.33452 8.18295 7.31734
#
# Compressibility (1/GPa) = 0.01256081
#
# Stress axis : x y z
#
# Youngs Moduli (GPa) = 157.74889 121.40241 85.72847
#
# Poissons Ratio (x) = 0.26501 0.23929
# Poissons Ratio (y) = 0.34435 0.15996
# Poissons Ratio (z) = 0.44033 0.22652
#
# Static dielectric constant tensor:
#      x y z
#    x 1.693270 0.000000 0.000000 
#    y 0.000000 1.649320 0.000000 
#    z 0.000000 0.000000 1.718370 
# 
# From -- ./inp_files/7679.got.cif
#   From: 2010.05.17/outbox.cif.g08.bks.cpg/sg51_4_cif.got.tgz:7679.got - 2010.06.03 11:52:47.
