data_PCOD9406709
_publ_section_title
;
Structure prediction by ZEFSAII (Michael W. Deem and Ramdas Pophale) SiO2 
 PCOD9406709
Probable space group: P M M A
;
_chemical_formula_sum "Si O2"
_cell_formula_units_Z 48
_cell_length_a 15.520700
_cell_length_b 10.297419
_cell_length_c 14.260331
_cell_angle_alpha 90.000000
_cell_angle_beta 90.000000
_cell_angle_gamma 90.000000
_cell_volume 2279.131036
_symmetry_space_group_name_H-M "P M M A"
_symmetry_group_IT_number 51
_symmetry_cell_setting 'orthorhombic'
loop_
_space_group_symop_operation_xyz
x,y,z
1/2-x,-y,z
1/2+x,-y,-z
-x,y,-z
-x,-y,-z
1/2+x,y,-z
1/2-x,y,z
x,-y,z
loop_
_atom_site_type_symbol
_atom_site_label
_atom_site_fract_x
_atom_site_fract_y
_atom_site_fract_z
Si Si1 0.352266 0.857562 0.743425
Si Si2 0.144377 0.775450 0.538611
Si Si3 0.854783 0.000000 0.820453
Si Si4 0.855027 0.000000 0.602697
Si Si5 0.350445 0.500000 0.250828
Si Si6 0.355909 0.500000 0.461550
Si Si7 0.596793 0.281344 0.893314
Si Si8 0.604848 0.651272 0.099048
O O1 0.250000 0.869563 0.730977
O O2 0.387041 0.819503 0.640918
O O3 0.363618 0.747555 0.820762
O O4 0.386259 0.000000 0.772528
O O5 0.250000 0.778019 0.539763
O O6 0.117177 0.630546 0.513682
O O7 0.117574 0.874577 0.456956
O O8 0.881374 0.000000 0.710879
O O9 0.889110 0.131250 0.868454
O O10 0.750000 0.000000 0.825479
O O11 0.750000 0.000000 0.603805
O O12 0.250000 0.500000 0.268094
O O13 0.389862 0.500000 0.354656
O O14 0.369519 0.372864 0.189613
O O15 0.250000 0.500000 0.461780
O O16 0.497389 0.322455 0.901531
O O17 0.637573 0.314097 0.994652
O O18 0.622291 0.500000 0.118524
#
# Coordination Sequence:
#
# PCOD9406709 Si02
#       8
#     8   8   4   4   4   4   8   8
#     4  10  22  38  61  92 120 152 199 254 304 348
#     4   9  16  31  53  81 119 155 191 238 293 355
#     4  11  24  37  61 101 126 149 198 252 299 348
#     4   9  16  32  55  81 119 159 190 231 290 358
#     4  11  20  37  63  91 120 155 200 254 303 338
#     4   9  18  28  51  87 117 151 194 237 292 356
#     4  11  23  43  63  85 121 163 200 242 296 368
#     4  11  24  44  65  84 115 164 210 241 294 369
#
# _framework density 21.060658
#
# number of rings (size 3 to 8) (size 9 to 14) (size 15 to 20)
#    0.000    1.833    2.500    2.000    3.500    5.000 
#    0.000    0.000    0.000    6.000    0.000    0.000 
#    0.000    0.000    0.000    0.000    0.000    0.000 
#
# Total GULP energy -268101.307479 kJ/mol
# GULP energy per Si atom -5585.443906 kJ/mol
# Density = 2.101272 g / cm^3
# Si number density = 21.060658 Si / 1000 Ang^3
#
#
#
# Elastic Constant Matrix: (Units=GPa)
#
#
# Indices 1 2 3 4 5 6 
#
# 1 11.7032 2.1507 5.1133 0.0000 0.0000 0.0000
# 2 2.1507 237.7179 98.3202 0.0000 0.0000 0.0000
# 3 5.1133 98.3202 141.8138 0.0000 0.0000 0.0000
# 4 0.0000 0.0000 0.0000 32.9281 0.0000 0.0000
# 5 0.0000 0.0000 0.0000 0.0000 27.1422 0.0000
# 6 0.0000 0.0000 0.0000 0.0000 0.0000 28.8404
#
#
#
# Elastic Compliance Matrix: (Units=1/GPa)
#
#
# Indices 1 2 3 4 5 6 
#
# 1 0.086901 0.000715 -0.003629 0.000000 0.000000 0.000000
# 2 0.000715 0.005904 -0.004119 0.000000 0.000000 0.000000
# 3 -0.003629 -0.004119 0.010038 0.000000 0.000000 0.000000
# 4 0.000000 0.000000 0.000000 0.030369 0.000000 0.000000
# 5 0.000000 0.000000 0.000000 0.000000 0.036843 0.000000
# 6 0.000000 0.000000 0.000000 0.000000 0.000000 0.034674
#
#
# Mechanical properties :
#
#
# Convention : Reuss Voigt Hill
#
# Bulk Modulus (GPa) = 11.26428 66.93371 39.09899
# Shear Modulus (GPa) = 20.12995 36.82554 28.47774
#
# Velocity S-wave (km/s) = 3.09497 4.18610 3.68119
# Velocity P-wave (km/s) = 4.25815 7.43068 6.05586
#
# Compressibility (1/GPa) = 0.08877623
#
# Stress axis : x y z
#
# Youngs Moduli (GPa) = 11.50741 169.38333 99.62166
#
# Poissons Ratio (x) = -0.12105 0.36151
# Poissons Ratio (y) = -0.00822 0.41033
# Poissons Ratio (z) = 0.04176 0.69767
#
# Static dielectric constant tensor:
#      x y z
#    x 1.721170 0.000000 0.000000 
#    y 0.000000 1.719630 0.000000 
#    z 0.000000 0.000000 1.758170 
# 
# From -- ./inp_files/25013.got.cif
#   From: 2010.05.17/outbox.cif.g08.bks.cpg/sg51_13_cif.got.tgz:25013.got - 2010.06.03 11:52:47.
