data_PCOD9406472
_publ_section_title
;
Structure prediction by ZEFSAII (Michael W. Deem and Ramdas Pophale) SiO2 
 PCOD9406472
Probable space group: P M M A
;
_chemical_formula_sum "Si O2"
_cell_formula_units_Z 36
_cell_length_a 8.646302
_cell_length_b 16.405040
_cell_length_c 13.814536
_cell_angle_alpha 90.000000
_cell_angle_beta 90.000000
_cell_angle_gamma 90.000000
_cell_volume 1959.494265
_symmetry_space_group_name_H-M "P M M A"
_symmetry_group_IT_number 51
_symmetry_cell_setting 'orthorhombic'
loop_
_space_group_symop_operation_xyz
x,y,z
1/2-x,-y,z
1/2+x,-y,-z
-x,y,-z
-x,-y,-z
1/2+x,y,-z
1/2-x,y,z
x,-y,z
loop_
_atom_site_type_symbol
_atom_site_label
_atom_site_fract_x
_atom_site_fract_y
_atom_site_fract_z
Si Si1 0.935374 0.755329 0.603275
Si Si2 0.563702 0.833444 0.805605
Si Si3 0.565334 0.330700 0.104031
Si Si4 0.437041 0.408909 0.296096
Si Si5 0.434912 0.000000 0.891303
O O1 0.750000 0.755110 0.597949
O O2 0.978736 0.811445 0.694687
O O3 0.986968 0.663543 0.632153
O O4 0.000000 0.780329 0.500000
O O5 0.750000 0.833414 0.813597
O O6 0.497889 0.759674 0.870403
O O7 0.496435 0.919086 0.838836
O O8 0.750000 0.329859 0.102413
O O9 0.504877 0.387468 0.190937
O O10 0.500000 0.355894 0.000000
O O11 0.250000 0.405035 0.289130
O O12 0.481457 0.500000 0.326306
O O13 0.250000 0.000000 0.893491
O O14 0.500000 0.000000 0.000000
#
# Coordination Sequence:
#
# PCOD9406472 Si02
#       5
#     8   8   8   8   4
#     4   9  19  35  57  81 107 141 179 222 272 321
#     4  10  21  39  58  80 111 145 181 222 267 315
#     4  11  21  34  53  77 106 142 182 223 270 324
#     4   9  19  36  54  75 106 142 181 226 273 321
#     4  12  24  38  59  88 117 146 179 218 264 314
#
# _framework density 18.372085999999999
#
# number of rings (size 3 to 8) (size 9 to 14) (size 15 to 20)
#    0.000    2.000    0.000    5.667    0.000    5.778 
#    0.000    0.556    0.000    0.000    0.000    0.000 
#    0.000    0.000    0.000    0.000    0.000    0.000 
#
# Total GULP energy -201059.306276 kJ/mol
# GULP energy per Si atom -5584.980730 kJ/mol
# Density = 1.833027 g / cm^3
# Si number density = 18.372086 Si / 1000 Ang^3
#
#
#
# Elastic Constant Matrix: (Units=GPa)
#
#
# Indices 1 2 3 4 5 6 
#
# 1 55.4769 23.6248 17.5177 0.0000 0.0000 0.0000
# 2 23.6248 99.2910 23.7342 0.0000 0.0000 0.0000
# 3 17.5177 23.7342 100.6055 0.0000 0.0000 0.0000
# 4 0.0000 0.0000 0.0000 5.4161 0.0000 0.0000
# 5 0.0000 0.0000 0.0000 0.0000 33.1707 0.0000
# 6 0.0000 0.0000 0.0000 0.0000 0.0000 27.6403
#
#
#
# Elastic Compliance Matrix: (Units=1/GPa)
#
#
# Indices 1 2 3 4 5 6 
#
# 1 0.020673 -0.004301 -0.002585 0.000000 0.000000 0.000000
# 2 -0.004301 0.011568 -0.001980 0.000000 0.000000 0.000000
# 3 -0.002585 -0.001980 0.010857 0.000000 0.000000 0.000000
# 4 0.000000 0.000000 0.000000 0.184636 0.000000 0.000000
# 5 0.000000 0.000000 0.000000 0.000000 0.030147 0.000000
# 6 0.000000 0.000000 0.000000 0.000000 0.000000 0.036179
#
#
# Mechanical properties :
#
#
# Convention : Reuss Voigt Hill
#
# Bulk Modulus (GPa) = 39.42263 42.79186 41.10724
# Shear Modulus (GPa) = 15.61287 25.94520 20.77904
#
# Velocity S-wave (km/s) = 2.91832 3.76201 3.36670
# Velocity P-wave (km/s) = 5.73236 6.49713 6.12669
#
# Compressibility (1/GPa) = 0.02536614
#
# Stress axis : x y z
#
# Youngs Moduli (GPa) = 48.37142 86.44466 92.10589
#
# Poissons Ratio (x) = 0.37180 0.23810
# Poissons Ratio (y) = 0.20805 0.18239
# Poissons Ratio (z) = 0.12504 0.17117
#
# Static dielectric constant tensor:
#      x y z
#    x 1.614200 0.000000 0.000000 
#    y 0.000000 1.626650 0.000000 
#    z 0.000000 0.000000 1.609680 
# 
# From -- ./inp_files/20302.got.cif
#   From: 2010.05.17/outbox.cif.g08.bks.cpg/sg51_11_cif.got.tgz:20302.got - 2010.06.03 11:52:47.
