data_PCOD9406580
_publ_section_title
;
Structure prediction by ZEFSAII (Michael W. Deem and Ramdas Pophale) SiO2 
 PCOD9406580
Probable space group: P M M A
;
_chemical_formula_sum "Si O2"
_cell_formula_units_Z 58
_cell_length_a 25.545806
_cell_length_b 9.432601
_cell_length_c 12.577536
_cell_angle_alpha 90.000000
_cell_angle_beta 90.000000
_cell_angle_gamma 90.000000
_cell_volume 3030.725778
_symmetry_space_group_name_H-M "P M M A"
_symmetry_group_IT_number 51
_symmetry_cell_setting 'orthorhombic'
loop_
_space_group_symop_operation_xyz
x,y,z
1/2-x,-y,z
1/2+x,-y,-z
-x,y,-z
-x,-y,-z
1/2+x,y,-z
1/2-x,y,z
x,-y,z
loop_
_atom_site_type_symbol
_atom_site_label
_atom_site_fract_x
_atom_site_fract_y
_atom_site_fract_z
Si Si1 0.994703 0.757649 0.671485
Si Si2 0.688683 0.830888 0.170790
Si Si3 0.884835 0.839336 0.593388
Si Si4 0.386234 0.165981 0.641389
Si Si5 0.308130 0.666227 0.261802
Si Si6 0.958963 0.830671 0.902993
Si Si7 0.146492 0.667501 0.032062
Si Si8 0.000000 0.500000 0.500000
O O1 0.946291 0.842093 0.619974
O O2 0.979358 0.751995 0.796433
O O3 0.997535 0.621689 0.595054
O O4 0.052763 0.821553 0.668997
O O5 0.750000 0.815978 0.196613
O O6 0.651548 0.779130 0.266711
O O7 0.678626 0.000000 0.152291
O O8 0.673933 0.741228 0.067548
O O9 0.877814 0.772924 0.476261
O O10 0.853571 0.748773 0.678445
O O11 0.865014 0.000000 0.596159
O O12 0.373888 0.000000 0.632198
O O13 0.250000 0.717638 0.290607
O O14 0.311817 0.500000 0.288756
O O15 0.317163 0.678275 0.136035
O O16 0.906060 0.754428 0.940697
O O17 0.951224 0.000000 0.879510
O O18 0.000000 0.821747 0.000000
O O19 0.135830 0.500000 0.013591
#
# Coordination Sequence:
#
# PCOD9406580 Si02
#       8
#     8   8   8   8   8   8   8   2
#     4  12  23  41  63  93 132 176 216 267 325 394
#     4  10  22  42  67  92 124 169 219 270 323 385
#     4  11  22  37  63  93 123 161 211 265 318 380
#     4  10  21  40  64  92 124 164 213 266 323 381
#     4  10  23  41  61  85 120 163 203 253 318 380
#     4  11  24  42  66  97 134 174 219 273 334 398
#     4  11  23  40  63  92 127 166 210 265 325 393
#     4  12  28  40  64  96 138 184 226 270 324 406
#
# _framework density 19.137331
#
# number of rings (size 3 to 8) (size 9 to 14) (size 15 to 20)
#    0.000    1.241    2.759    2.897    1.931    5.793 
#    3.724    1.379    0.000    0.000    0.000    0.000 
#    0.000    0.000    0.000    0.000    0.000    0.000 
#
# Total GULP energy -323124.486114 kJ/mol
# GULP energy per Si atom -5571.111830 kJ/mol
# Density = 1.909377 g / cm^3
# Si number density = 19.137331 Si / 1000 Ang^3
#
#
#
# Elastic Constant Matrix: (Units=GPa)
#
#
# Indices 1 2 3 4 5 6 
#
# 1 89.5620 40.4966 57.8038 0.0000 0.0000 0.0000
# 2 40.4966 68.2753 46.8109 0.0000 0.0000 0.0000
# 3 57.8038 46.8109 130.5961 0.0000 0.0000 0.0000
# 4 0.0000 0.0000 0.0000 31.2179 0.0000 0.0000
# 5 0.0000 0.0000 0.0000 0.0000 -2.6405 0.0000
# 6 0.0000 0.0000 0.0000 0.0000 0.0000 -55.8179
#
#
#
# Elastic Compliance Matrix: (Units=1/GPa)
#
#
# Indices 1 2 3 4 5 6 
#
# 1 0.017736 -0.006812 -0.005409 0.000000 0.000000 0.000000
# 2 -0.006812 0.022035 -0.004883 0.000000 0.000000 0.000000
# 3 -0.005409 -0.004883 0.011802 0.000000 0.000000 0.000000
# 4 0.000000 0.000000 0.000000 0.032033 0.000000 0.000000
# 5 0.000000 0.000000 0.000000 0.000000 -0.378721 0.000000
# 6 0.000000 0.000000 0.000000 0.000000 0.000000 -0.017915
#
#
# Mechanical properties :
#
#
# Convention : Reuss Voigt Hill
#
# Bulk Modulus (GPa) = 57.58595 64.29510 60.94053
# Shear Modulus (GPa) = -18.31266 4.10671 -7.10297
#
# Velocity S-wave (km/s) = -3.09675 1.46648 -1.92864
# Velocity P-wave (km/s) = 4.16770 6.04459 5.19167
#
# Compressibility (1/GPa) = 0.01736535
#
# Stress axis : x y z
#
# Youngs Moduli (GPa) = 56.38156 45.38260 84.73463
#
# Poissons Ratio (x) = 0.30913 0.45831
# Poissons Ratio (y) = 0.38405 0.41378
# Poissons Ratio (z) = 0.30496 0.22161
#
# Static dielectric constant tensor:
#      x y z
#    x 1.659500 0.000000 0.000000 
#    y 0.000000 1.653780 0.000000 
#    z 0.000000 0.000000 1.681990 
# 
# From -- ./inp_files/19155.got.cif
#   From: 2010.05.17/outbox.cif.g08.bks.cpg/sg51_10_cif.got.tgz:19155.got - 2010.06.03 11:52:47.
