data_PCOD9406349
_publ_section_title
;
Structure prediction by ZEFSAII (Michael W. Deem and Ramdas Pophale) SiO2 
 PCOD9406349
Probable space group: P M M A
;
_chemical_formula_sum "Si O2"
_cell_formula_units_Z 52
_cell_length_a 20.151003
_cell_length_b 19.523799
_cell_length_c 6.566022
_cell_angle_alpha 90.000000
_cell_angle_beta 90.000000
_cell_angle_gamma 90.000000
_cell_volume 2583.231507
_symmetry_space_group_name_H-M "P M M A"
_symmetry_group_IT_number 51
_symmetry_cell_setting 'orthorhombic'
loop_
_space_group_symop_operation_xyz
x,y,z
1/2-x,-y,z
1/2+x,-y,-z
-x,y,-z
-x,-y,-z
1/2+x,y,-z
1/2-x,y,z
x,-y,z
loop_
_atom_site_type_symbol
_atom_site_label
_atom_site_fract_x
_atom_site_fract_y
_atom_site_fract_z
Si Si1 0.000000 0.803212 0.500000
Si Si2 0.437402 0.115542 0.119053
Si Si3 0.323016 0.661423 0.817250
Si Si4 0.427336 0.421240 0.560555
Si Si5 0.827832 0.077012 0.567583
Si Si6 0.377696 0.196385 0.737222
Si Si7 0.676451 0.425225 0.798932
O O1 0.028146 0.847614 0.312046
O O2 0.063395 0.768956 0.602700
O O3 0.375300 0.080004 0.232787
O O4 0.500000 0.080367 0.000000
O O5 0.406539 0.165609 0.947515
O O6 0.250000 0.637999 0.744592
O O7 0.384394 0.623196 0.714296
O O8 0.328407 0.742362 0.786205
O O9 0.327354 0.638117 0.050312
O O10 0.500000 0.395201 0.500000
O O11 0.435220 0.500000 0.634867
O O12 0.381855 0.422788 0.360754
O O13 0.750000 0.087051 0.619007
O O14 0.849467 0.134585 0.402844
O O15 0.835360 0.000000 0.480224
O O16 0.750000 0.423627 0.703213
O O17 0.672345 0.500000 0.907602
#
# Coordination Sequence:
#
# PCOD9406349 Si02
#       7
#     4   8   8   8   8   8   8
#     4   8  18  38  59  84 117 152 194 244 298 358
#     4   9  19  39  62  87 118 157 202 253 307 366
#     4  11  23  37  58  88 119 157 202 246 299 358
#     4  10  22  40  61  88 119 156 200 246 300 358
#     4  10  22  39  60  89 124 163 208 258 309 364
#     4  10  21  38  60  86 121 158 202 248 305 364
#     4   9  19  37  59  84 117 155 196 242 291 350
#
# _framework density 20.129825
#
# number of rings (size 3 to 8) (size 9 to 14) (size 15 to 20)
#    0.000    2.308    0.000    1.385    1.077    6.769 
#    5.538   18.462    0.000    0.000    0.000    0.000 
#    0.000    0.000    0.000    0.000    0.000    0.000 
#
# Total GULP energy -289473.788328 kJ/mol
# GULP energy per Si atom -5566.803622 kJ/mol
# Density = 2.008401 g / cm^3
# Si number density = 20.129825 Si / 1000 Ang^3
#
#
#
# Elastic Constant Matrix: (Units=GPa)
#
#
# Indices 1 2 3 4 5 6 
#
# 1 138.3943 15.4747 31.5583 0.0000 0.0000 0.0000
# 2 15.4747 42.6238 20.1756 0.0000 0.0000 0.0000
# 3 31.5583 20.1756 78.9584 0.0000 0.0000 0.0000
# 4 0.0000 0.0000 0.0000 42.5797 0.0000 0.0000
# 5 0.0000 0.0000 0.0000 0.0000 28.6147 0.0000
# 6 0.0000 0.0000 0.0000 0.0000 0.0000 13.4521
#
#
#
# Elastic Compliance Matrix: (Units=1/GPa)
#
#
# Indices 1 2 3 4 5 6 
#
# 1 0.008044 -0.001591 -0.002809 0.000000 0.000000 0.000000
# 2 -0.001591 0.027004 -0.006264 0.000000 0.000000 0.000000
# 3 -0.002809 -0.006264 0.015388 0.000000 0.000000 0.000000
# 4 0.000000 0.000000 0.000000 0.023485 0.000000 0.000000
# 5 0.000000 0.000000 0.000000 0.000000 0.034947 0.000000
# 6 0.000000 0.000000 0.000000 0.000000 0.000000 0.074338
#
#
# Mechanical properties :
#
#
# Convention : Reuss Voigt Hill
#
# Bulk Modulus (GPa) = 34.35428 43.82152 39.08790
# Shear Modulus (GPa) = 23.33871 29.78050 26.55960
#
# Velocity S-wave (km/s) = 3.40870 3.85050 3.63632
# Velocity P-wave (km/s) = 5.70927 6.44866 6.09019
#
# Compressibility (1/GPa) = 0.02910845
#
# Stress axis : x y z
#
# Youngs Moduli (GPa) = 124.31525 37.03189 64.98551
#
# Poissons Ratio (x) = 0.05892 0.18251
# Poissons Ratio (y) = 0.19779 0.40708
# Poissons Ratio (z) = 0.34914 0.23197
#
# Static dielectric constant tensor:
#      x y z
#    x 1.742180 0.000000 0.000000 
#    y 0.000000 1.727830 0.000000 
#    z 0.000000 0.000000 1.692080 
# 
# From -- ./inp_files/2585.got.cif
#   From: 2010.05.17/outbox.cif.g08.bks.cpg/sg51_2_cif.got.tgz:2585.got - 2010.06.03 11:52:47.
