data_PCOD9406611
_publ_section_title
;
Structure prediction by ZEFSAII (Michael W. Deem and Ramdas Pophale) SiO2 
 PCOD9406611
Probable space group: P M M A
;
_chemical_formula_sum "Si O2"
_cell_formula_units_Z 64
_cell_length_a 14.561426
_cell_length_b 18.859366
_cell_length_c 10.292116
_cell_angle_alpha 90.000000
_cell_angle_beta 90.000000
_cell_angle_gamma 90.000000
_cell_volume 2826.413305
_symmetry_space_group_name_H-M "P M M A"
_symmetry_group_IT_number 51
_symmetry_cell_setting 'orthorhombic'
loop_
_space_group_symop_operation_xyz
x,y,z
1/2-x,-y,z
1/2+x,-y,-z
-x,y,-z
-x,-y,-z
1/2+x,y,-z
1/2-x,y,z
x,-y,z
loop_
_atom_site_type_symbol
_atom_site_label
_atom_site_fract_x
_atom_site_fract_y
_atom_site_fract_z
Si Si1 0.641437 0.227653 0.357805
Si Si2 0.587166 0.075369 0.405368
Si Si3 0.958435 0.577527 0.174168
Si Si4 0.141275 0.216509 0.192527
Si Si5 0.526107 0.920209 0.848548
Si Si6 0.141024 0.617625 0.568534
Si Si7 0.360643 0.282329 0.913932
Si Si8 0.857345 0.628545 0.724028
O O1 0.750000 0.234390 0.349554
O O2 0.626096 0.153413 0.426992
O O3 0.610114 0.299928 0.424580
O O4 0.607902 0.234637 0.208635
O O5 0.500000 0.072232 0.500000
O O6 0.557735 0.076449 0.253510
O O7 0.637828 0.000000 0.426883
O O8 0.939481 0.500000 0.119772
O O9 0.917054 0.580200 0.320683
O O10 0.908797 0.642219 0.102467
O O11 0.066624 0.593063 0.186228
O O12 0.250000 0.202940 0.201881
O O13 0.088711 0.142893 0.207273
O O14 0.122605 0.286384 0.279069
O O15 0.118279 0.244574 0.048120
O O16 0.568471 0.000000 0.843596
O O17 0.500000 0.908024 0.000000
O O18 0.250000 0.612231 0.601192
O O19 0.132145 0.596087 0.419524
O O20 0.250000 0.291834 0.909260
O O21 0.750000 0.621734 0.764467
#
# Coordination Sequence:
#
# PCOD9406611 Si02
#       8
#     8   8   8   8   8   8   8   8
#     4   9  18  33  56  81 108 147 193 241 292 346
#     4  10  22  36  51  81 122 159 197 244 301 359
#     4  11  23  38  62  90 113 153 199 238 302 367
#     4  10  22  39  61  85 115 157 198 240 298 355
#     4  10  22  38  59  89 120 155 202 253 303 358
#     4   9  20  37  57  87 119 146 193 250 298 352
#     4   9  20  39  60  90 119 143 191 253 299 352
#     4  10  23  39  55  84 121 157 197 243 291 351
#
# _framework density 22.643539000000001
#
# number of rings (size 3 to 8) (size 9 to 14) (size 15 to 20)
#    0.000    2.250    0.000    2.250    7.000    2.750 
#    0.000    2.500    0.000    9.000    0.000    0.000 
#    0.000    0.000    0.000    0.000    0.000    0.000 
#
# Total GULP energy -357334.405845 kJ/mol
# GULP energy per Si atom -5583.350091 kJ/mol
# Density = 2.259200 g / cm^3
# Si number density = 22.643539 Si / 1000 Ang^3
#
#
#
# Elastic Constant Matrix: (Units=GPa)
#
#
# Indices 1 2 3 4 5 6 
#
# 1 57.7358 23.8865 6.1097 0.0000 0.0000 0.0000
# 2 23.8865 139.1842 -14.7386 0.0000 0.0000 0.0000
# 3 6.1097 -14.7386 54.4304 0.0000 0.0000 0.0000
# 4 0.0000 0.0000 0.0000 -1.9796 0.0000 0.0000
# 5 0.0000 0.0000 0.0000 0.0000 19.3333 0.0000
# 6 0.0000 0.0000 0.0000 0.0000 0.0000 151.2584
#
#
#
# Elastic Compliance Matrix: (Units=1/GPa)
#
#
# Indices 1 2 3 4 5 6 
#
# 1 0.019148 -0.003617 -0.003129 0.000000 0.000000 0.000000
# 2 -0.003617 0.008080 0.002594 0.000000 0.000000 0.000000
# 3 -0.003129 0.002594 0.019426 0.000000 0.000000 0.000000
# 4 0.000000 0.000000 0.000000 -0.505146 0.000000 0.000000
# 5 0.000000 0.000000 0.000000 0.000000 0.051724 0.000000
# 6 0.000000 0.000000 0.000000 0.000000 0.000000 0.006611
#
#
# Mechanical properties :
#
#
# Convention : Reuss Voigt Hill
#
# Bulk Modulus (GPa) = 26.07607 31.31838 28.69723
# Shear Modulus (GPa) = -13.19021 49.46192 18.13586
#
# Velocity S-wave (km/s) = -2.41615 4.67880 2.83314
# Velocity P-wave (km/s) = 1.93834 6.56119 4.83769
#
# Compressibility (1/GPa) = 0.03834933
#
# Stress axis : x y z
#
# Youngs Moduli (GPa) = 52.22475 123.75884 51.47818
#
# Poissons Ratio (x) = 0.44769 0.16107
# Poissons Ratio (y) = 0.18892 -0.13354
# Poissons Ratio (z) = 0.16340 -0.32103
#
# Static dielectric constant tensor:
#      x y z
#    x 1.834150 0.000000 0.000000 
#    y 0.000000 1.868830 0.000000 
#    z 0.000000 0.000000 1.872020 
# 
# From -- ./inp_files/16892.got.cif
#   From: 2010.05.17/outbox.cif.g08.bks.cpg/sg51_9_cif.got.tgz:16892.got - 2010.06.03 11:52:47.
