data_PCOD9406021
_publ_section_title
;
Structure prediction by ZEFSAII (Michael W. Deem and Ramdas Pophale) SiO2 
 PCOD9406021
Probable space group: P M M A
;
_chemical_formula_sum "Si O2"
_cell_formula_units_Z 64
_cell_length_a 8.343232
_cell_length_b 24.556003
_cell_length_c 15.649155
_cell_angle_alpha 90.000000
_cell_angle_beta 90.000000
_cell_angle_gamma 90.000000
_cell_volume 3206.143009
_symmetry_space_group_name_H-M "P M M A"
_symmetry_group_IT_number 51
_symmetry_cell_setting 'orthorhombic'
loop_
_space_group_symop_operation_xyz
x,y,z
1/2-x,-y,z
1/2+x,-y,-z
-x,y,-z
-x,-y,-z
1/2+x,y,-z
1/2-x,y,z
x,-y,z
loop_
_atom_site_type_symbol
_atom_site_label
_atom_site_fract_x
_atom_site_fract_y
_atom_site_fract_z
Si Si1 0.056757 0.557903 0.097505
Si Si2 0.940533 0.205497 0.407675
Si Si3 0.942271 0.321541 0.338262
Si Si4 0.434341 0.221665 0.909648
Si Si5 0.056996 0.560480 0.402015
Si Si6 0.938214 0.326033 0.847071
Si Si7 0.436604 0.149646 0.235114
Si Si8 0.943478 0.063257 0.904267
O O1 0.250000 0.557571 0.099215
O O2 0.999784 0.500000 0.133293
O O3 0.004884 0.611963 0.144349
O O4 0.000000 0.561217 0.000000
O O5 0.750000 0.205003 0.408395
O O6 0.990127 0.269372 0.395965
O O7 0.000000 0.185750 0.500000
O O8 0.992437 0.169383 0.325569
O O9 0.750000 0.319098 0.326540
O O10 0.987496 0.382809 0.366377
O O11 0.032451 0.310763 0.250152
O O12 0.250000 0.206604 0.897912
O O13 0.457217 0.286365 0.904715
O O14 0.538364 0.198264 0.832552
O O15 0.500000 0.202316 0.000000
O O16 0.250000 0.564028 0.396559
O O17 0.011986 0.500000 0.365445
O O18 0.000000 0.559244 0.500000
O O19 0.750000 0.321667 0.869813
O O20 0.250000 0.139145 0.250284
O O21 0.501994 0.099402 0.176429
O O22 0.750000 0.067258 0.904917
O O23 0.989306 0.000000 0.892846
O O24 0.000000 0.079424 0.000000
#
# Coordination Sequence:
#
# PCOD9406021 Si02
#       8
#     8   8   8   8   8   8   8   8
#     4   9  19  35  53  73  97 130 175 226 280 340
#     4  11  24  41  62  88 120 158 203 257 310 367
#     4  11  23  38  57  82 112 146 187 240 299 364
#     4  12  24  38  56  82 118 157 198 244 296 354
#     4  10  21  37  57  80 106 138 179 232 294 363
#     4  11  22  36  55  78 108 143 183 235 291 354
#     4  11  22  38  62  91 124 163 206 252 301 354
#     4   9  19  36  60  94 134 174 213 252 297 351
#
# _framework density 19.961679
#
# number of rings (size 3 to 8) (size 9 to 14) (size 15 to 20)
#    0.000    1.500    1.250    4.125    0.000    7.750 
#    0.000    1.250    0.000    0.375    0.000    0.000 
#    0.000    0.000    0.000    0.000    0.000    0.000 
#
# Total GULP energy -357059.558002 kJ/mol
# GULP energy per Si atom -5579.055594 kJ/mol
# Density = 1.991625 g / cm^3
# Si number density = 19.961679 Si / 1000 Ang^3
#
#
#
# Elastic Constant Matrix: (Units=GPa)
#
#
# Indices 1 2 3 4 5 6 
#
# 1 29.9392 19.0365 10.0521 0.0000 0.0000 0.0000
# 2 19.0365 126.5492 55.0180 0.0000 0.0000 0.0000
# 3 10.0521 55.0180 128.7961 0.0000 0.0000 0.0000
# 4 0.0000 0.0000 0.0000 51.6211 0.0000 0.0000
# 5 0.0000 0.0000 0.0000 0.0000 29.7175 0.0000
# 6 0.0000 0.0000 0.0000 0.0000 0.0000 18.8897
#
#
#
# Elastic Compliance Matrix: (Units=1/GPa)
#
#
# Indices 1 2 3 4 5 6 
#
# 1 0.036975 -0.005290 -0.000626 0.000000 0.000000 0.000000
# 2 -0.005290 0.010461 -0.004056 0.000000 0.000000 0.000000
# 3 -0.000626 -0.004056 0.009546 0.000000 0.000000 0.000000
# 4 0.000000 0.000000 0.000000 0.019372 0.000000 0.000000
# 5 0.000000 0.000000 0.000000 0.000000 0.033650 0.000000
# 6 0.000000 0.000000 0.000000 0.000000 0.000000 0.052939
#
#
# Mechanical properties :
#
#
# Convention : Reuss Voigt Hill
#
# Bulk Modulus (GPa) = 26.99938 50.38864 38.69401
# Shear Modulus (GPa) = 25.61059 33.45753 29.53406
#
# Velocity S-wave (km/s) = 3.58577 4.09845 3.85065
# Velocity P-wave (km/s) = 5.54063 6.90607 6.26069
#
# Compressibility (1/GPa) = 0.03703789
#
# Stress axis : x y z
#
# Youngs Moduli (GPa) = 27.04554 95.59229 104.76022
#
# Poissons Ratio (x) = 0.50567 0.06559
# Poissons Ratio (y) = 0.14307 0.42489
# Poissons Ratio (z) = 0.01693 0.38771
#
# Static dielectric constant tensor:
#      x y z
#    x 1.698250 0.000000 0.000000 
#    y 0.000000 1.774800 0.000000 
#    z 0.000000 0.000000 1.686600 
# 
# From -- ./inp_files/22399.got.cif
#   From: 2010.05.17/outbox.cif.g08.bks.cpg/sg51_12_cif.got.tgz:22399.got - 2010.06.03 11:52:47.
