data_PCOD9406247
_publ_section_title
;
Structure prediction by ZEFSAII (Michael W. Deem and Ramdas Pophale) SiO2 
 PCOD9406247
Probable space group: P M M A
;
_chemical_formula_sum "Si O2"
_cell_formula_units_Z 32
_cell_length_a 29.840780
_cell_length_b 8.406810
_cell_length_c 5.239239
_cell_angle_alpha 90.000000
_cell_angle_beta 90.000000
_cell_angle_gamma 90.000000
_cell_volume 1314.345714
_symmetry_space_group_name_H-M "P M M A"
_symmetry_group_IT_number 51
_symmetry_cell_setting 'orthorhombic'
loop_
_space_group_symop_operation_xyz
x,y,z
1/2-x,-y,z
1/2+x,-y,-z
-x,y,-z
-x,-y,-z
1/2+x,y,-z
1/2-x,y,z
x,-y,z
loop_
_atom_site_type_symbol
_atom_site_label
_atom_site_fract_x
_atom_site_fract_y
_atom_site_fract_z
Si Si1 0.886401 0.500000 0.728121
Si Si2 0.798668 0.825813 0.418040
Si Si3 0.398261 0.176497 0.402760
Si Si4 0.172467 0.500000 0.784852
Si Si5 0.025235 0.809859 0.753023
O O1 0.911092 0.667894 0.755443
O O2 0.848167 0.500000 0.937647
O O3 0.864983 0.500000 0.442509
O O4 0.750000 0.820512 0.552317
O O5 0.801736 0.665773 0.253702
O O6 0.800466 0.000000 0.283671
O O7 0.844353 0.824096 0.581312
O O8 0.422144 0.203258 0.678081
O O9 0.412449 0.000000 0.310908
O O10 0.000000 0.749431 0.500000
O O11 0.018557 0.000000 0.760959
O O12 0.000000 0.744492 0.000000
#
# Coordination Sequence:
#
# PCOD9406247 Si02
#       5
#     4   8   8   4   8
#     4  10  22  38  59  87 114 150 198 237 287 354
#     4   9  18  35  60  89 119 154 196 240 293 355
#     4   9  19  37  61  88 122 159 197 249 301 349
#     4  10  21  38  58  83 118 154 192 239 286 340
#     4   9  18  33  55  83 114 152 197 241 292 352
#
# _framework density 24.346717000000002
#
# number of rings (size 3 to 8) (size 9 to 14) (size 15 to 20)
#    0.000    2.750    0.000    0.375    0.000    5.000 
#    0.000   18.750    0.000   12.000    0.000    0.000 
#    0.000    0.000    0.000    0.000    0.000    0.000 
#
# Total GULP energy -178168.741556 kJ/mol
# GULP energy per Si atom -5567.773174 kJ/mol
# Density = 2.429130 g / cm^3
# Si number density = 24.346717 Si / 1000 Ang^3
#
#
#
# Elastic Constant Matrix: (Units=GPa)
#
#
# Indices 1 2 3 4 5 6 
#
# 1 151.4077 10.4568 23.8144 0.0000 0.0000 0.0000
# 2 10.4568 219.8254 14.3486 0.0000 0.0000 0.0000
# 3 23.8144 14.3486 64.6845 0.0000 0.0000 0.0000
# 4 0.0000 0.0000 0.0000 -1.5443 0.0000 0.0000
# 5 0.0000 0.0000 0.0000 0.0000 17.8938 0.0000
# 6 0.0000 0.0000 0.0000 0.0000 0.0000 13.9867
#
#
#
# Elastic Compliance Matrix: (Units=1/GPa)
#
#
# Indices 1 2 3 4 5 6 
#
# 1 0.007017 -0.000168 -0.002546 0.000000 0.000000 0.000000
# 2 -0.000168 0.004620 -0.000963 0.000000 0.000000 0.000000
# 3 -0.002546 -0.000963 0.016611 0.000000 0.000000 0.000000
# 4 0.000000 0.000000 0.000000 -0.647537 0.000000 0.000000
# 5 0.000000 0.000000 0.000000 0.000000 0.055885 0.000000
# 6 0.000000 0.000000 0.000000 0.000000 0.000000 0.071497
#
#
# Mechanical properties :
#
#
# Convention : Reuss Voigt Hill
#
# Bulk Modulus (GPa) = 47.86134 59.23967 53.55050
# Shear Modulus (GPa) = -10.46925 31.88708 10.70891
#
# Velocity S-wave (km/s) = -2.07591 3.62291 2.09954
# Velocity P-wave (km/s) = 3.73564 6.47188 5.28395
#
# Compressibility (1/GPa) = 0.02089369
#
# Stress axis : x y z
#
# Youngs Moduli (GPa) = 142.51654 216.45481 60.20219
#
# Poissons Ratio (x) = 0.03627 0.15328
# Poissons Ratio (y) = 0.02388 0.05798
# Poissons Ratio (z) = 0.36286 0.20847
#
# Static dielectric constant tensor:
#      x y z
#    x 1.993890 0.000000 0.000000 
#    y 0.000000 1.998900 0.000000 
#    z 0.000000 0.000000 1.924600 
# 
# From -- ./inp_files/3805.got.cif
#   From: 2010.05.17/outbox.cif.g08.bks.cpg/sg51_2_cif.got.tgz:3805.got - 2010.06.03 11:52:47.
