data_PCOD9406273
_publ_section_title
;
Structure prediction by ZEFSAII (Michael W. Deem and Ramdas Pophale) SiO2 
 PCOD9406273
Probable space group: P M M A
;
_chemical_formula_sum "Si O2"
_cell_formula_units_Z 64
_cell_length_a 15.727650
_cell_length_b 8.210505
_cell_length_c 24.937519
_cell_angle_alpha 90.000000
_cell_angle_beta 90.000000
_cell_angle_gamma 90.000000
_cell_volume 3220.230431
_symmetry_space_group_name_H-M "P M M A"
_symmetry_group_IT_number 51
_symmetry_cell_setting 'orthorhombic'
loop_
_space_group_symop_operation_xyz
x,y,z
1/2-x,-y,z
1/2+x,-y,-z
-x,y,-z
-x,-y,-z
1/2+x,y,-z
1/2-x,y,z
x,-y,z
loop_
_atom_site_type_symbol
_atom_site_label
_atom_site_fract_x
_atom_site_fract_y
_atom_site_fract_z
Si Si1 0.599104 0.198226 0.996882
Si Si2 0.344076 0.800885 0.120625
Si Si3 0.843252 0.198932 0.113283
Si Si4 0.489013 0.807166 0.687904
Si Si5 0.652143 0.306530 0.395027
Si Si6 0.004092 0.800377 0.810046
Si Si7 0.847828 0.309425 0.625539
Si Si8 0.647015 0.184359 0.510732
O O1 0.642384 0.252908 0.051937
O O2 0.604291 0.000000 0.996442
O O3 0.500000 0.241180 0.000000
O O4 0.637431 0.253174 0.940419
O O5 0.250000 0.750102 0.137125
O O6 0.417485 0.747708 0.160924
O O7 0.346143 0.000000 0.119778
O O8 0.750000 0.248343 0.131984
O O9 0.917829 0.252422 0.152561
O O10 0.846137 0.000000 0.112391
O O11 0.413552 0.736334 0.651585
O O12 0.487853 0.744732 0.748968
O O13 0.580897 0.773330 0.661719
O O14 0.475762 0.000000 0.689430
O O15 0.750000 0.246472 0.385807
O O16 0.656765 0.500000 0.400112
O O17 0.618561 0.240191 0.452147
O O18 0.003810 0.000000 0.809636
O O19 0.750000 0.246746 0.631405
O O20 0.846844 0.500000 0.638154
O O21 0.874157 0.287580 0.563183
O O22 0.750000 0.188492 0.507511
O O23 0.619152 0.000000 0.520783
#
# Coordination Sequence:
#
# PCOD9406273 Si02
#       8
#     8   8   8   8   8   8   8   8
#     4   9  13  19  33  52  79 113 154 205 252 302
#     4   9  15  23  36  54  79 116 161 206 254 308
#     4   9  15  23  36  54  79 116 161 206 254 308
#     4  11  23  36  53  77 106 142 186 231 274 321
#     4  10  21  38  59  82 110 144 181 222 269 322
#     4   9  18  30  40  57  87 124 167 215 260 305
#     4  10  21  38  59  82 110 144 181 222 269 322
#     4   9  17  32  57  88 118 143 171 214 269 326
#
# _framework density 19.874352999999999
#
# number of rings (size 3 to 8) (size 9 to 14) (size 15 to 20)
#    0.000    2.500    1.250    1.875    0.000    6.000 
#    0.000    5.000    0.000    0.000    0.000    0.000 
#    0.000    0.000    0.000    9.000    0.000   44.000 
#
# Total GULP energy -357076.275262 kJ/mol
# GULP energy per Si atom -5579.316801 kJ/mol
# Density = 1.982912 g / cm^3
# Si number density = 19.874353 Si / 1000 Ang^3
#
#
#
# Elastic Constant Matrix: (Units=GPa)
#
#
# Indices 1 2 3 4 5 6 
#
# 1 88.2028 -10.2849 24.2327 0.0000 0.0000 0.0000
# 2 -10.2849 11.0181 -10.8264 0.0000 0.0000 0.0000
# 3 24.2327 -10.8264 89.0560 0.0000 0.0000 0.0000
# 4 0.0000 0.0000 0.0000 -26.2625 0.0000 0.0000
# 5 0.0000 0.0000 0.0000 0.0000 -24.7878 0.0000
# 6 0.0000 0.0000 0.0000 0.0000 0.0000 13.8689
#
#
#
# Elastic Compliance Matrix: (Units=1/GPa)
#
#
# Indices 1 2 3 4 5 6 
#
# 1 0.013148 0.009946 -0.002369 0.000000 0.000000 0.000000
# 2 0.009946 0.110596 0.010739 0.000000 0.000000 0.000000
# 3 -0.002369 0.010739 0.013179 0.000000 0.000000 0.000000
# 4 0.000000 0.000000 0.000000 -0.038077 0.000000 0.000000
# 5 0.000000 0.000000 0.000000 0.000000 -0.040342 0.000000
# 6 0.000000 0.000000 0.000000 0.000000 0.000000 0.072104
#
#
# Mechanical properties :
#
#
# Convention : Reuss Voigt Hill
#
# Bulk Modulus (GPa) = 5.76188 21.61330 13.68759
# Shear Modulus (GPa) = 32.93233 4.90743 18.91988
#
# Velocity S-wave (km/s) = 4.07508 1.57308 3.08876
# Velocity P-wave (km/s) = 5.00471 3.76803 4.42974
#
# Compressibility (1/GPa) = 0.17355436
#
# Stress axis : x y z
#
# Youngs Moduli (GPa) = 76.05734 9.04193 75.87901
#
# Poissons Ratio (x) = -0.08993 0.17972
# Poissons Ratio (y) = -0.75645 -0.81484
# Poissons Ratio (z) = 0.18015 -0.09710
#
# Static dielectric constant tensor:
#      x y z
#    x 1.702510 0.000000 0.000000 
#    y 0.000000 1.691020 0.000000 
#    z 0.000000 0.000000 1.683930 
# 
# From -- ./inp_files/35789.got.cif
#   From: 2010.05.17/outbox.cif.g08.bks.cpg/sg51_18_cif.got.tgz:35789.got - 2010.06.03 11:52:47.
