data_PCOD9406953
_publ_section_title
;
Structure prediction by ZEFSAII (Michael W. Deem and Ramdas Pophale) SiO2 
 PCOD9406953
Probable space group: P M M A
;
_chemical_formula_sum "Si O2"
_cell_formula_units_Z 48
_cell_length_a 14.517444
_cell_length_b 28.651663
_cell_length_c 5.155214
_cell_angle_alpha 90.000000
_cell_angle_beta 90.000000
_cell_angle_gamma 90.000000
_cell_volume 2144.305660
_symmetry_space_group_name_H-M "P M M A"
_symmetry_group_IT_number 51
_symmetry_cell_setting 'orthorhombic'
loop_
_space_group_symop_operation_xyz
x,y,z
1/2-x,-y,z
1/2+x,-y,-z
-x,y,-z
-x,-y,-z
1/2+x,y,-z
1/2-x,y,z
x,-y,z
loop_
_atom_site_type_symbol
_atom_site_label
_atom_site_fract_x
_atom_site_fract_y
_atom_site_fract_z
Si Si1 0.250000 0.311752 0.376101
Si Si2 0.250000 0.249862 0.878348
Si Si3 0.500000 0.115091 0.000000
Si Si4 0.909864 0.190925 0.373073
Si Si5 0.599572 0.946686 0.636747
Si Si6 0.358053 0.446330 0.916108
Si Si7 0.250000 0.127057 0.468957
Si Si8 0.402501 0.611764 0.404380
O O1 0.250000 0.290816 0.664069
O O2 0.163280 0.345437 0.341038
O O3 0.250000 0.271088 0.163915
O O4 0.156869 0.220548 0.816230
O O5 0.540810 0.149444 0.214774
O O6 0.419665 0.080869 0.097018
O O7 0.833223 0.166760 0.558422
O O8 0.000000 0.215587 0.500000
O O9 0.500000 0.947341 0.500000
O O10 0.671658 0.914038 0.496109
O O11 0.629373 0.000000 0.672626
O O12 0.250000 0.445915 0.991044
O O13 0.387273 0.500000 0.884888
O O14 0.366345 0.419119 0.645247
O O15 0.409119 0.420759 0.151664
O O16 0.500000 0.629977 0.500000
#
# Coordination Sequence:
#
# PCOD9406953 Si02
#       8
#     4   4   4   8   8   8   4   8
#     4  12  26  54  71 107 148 182 243 304 367 454
#     4  11  30  48  80 104 136 182 235 306 374 448
#     4  12  21  44  70  94 136 172 220 288 343 412
#     4  11  25  45  71 103 132 172 227 294 367 429
#     4  11  23  40  61  95 138 180 223 269 323 405
#     4  11  22  41  70 108 153 199 251 304 349 413
#     4  11  19  44  62  93 132 180 211 272 342 406
#     4  12  25  44  74 103 145 202 242 298 370 430
#
# _framework density 22.384867
#
# number of rings (size 3 to 8) (size 9 to 14) (size 15 to 20)
#    0.000    0.667    5.000    2.500    2.333    5.333 
#    0.000    0.000    0.000    0.000    0.000    0.000 
#    0.000    0.000    0.000    0.000    0.000    0.000 
#
# Total GULP energy -267234.644094 kJ/mol
# GULP energy per Si atom -5567.388419 kJ/mol
# Density = 2.233392 g / cm^3
# Si number density = 22.384867 Si / 1000 Ang^3
#
#
#
# Elastic Constant Matrix: (Units=GPa)
#
#
# Indices 1 2 3 4 5 6 
#
# 1 167.3205 35.0942 14.4746 0.0000 0.0000 0.0000
# 2 35.0942 95.8811 13.1346 0.0000 0.0000 0.0000
# 3 14.4746 13.1346 72.8070 0.0000 0.0000 0.0000
# 4 0.0000 0.0000 0.0000 29.9877 0.0000 0.0000
# 5 0.0000 0.0000 0.0000 0.0000 -96.7407 0.0000
# 6 0.0000 0.0000 0.0000 0.0000 0.0000 43.4009
#
#
#
# Elastic Compliance Matrix: (Units=1/GPa)
#
#
# Indices 1 2 3 4 5 6 
#
# 1 0.006529 -0.002268 -0.000889 0.000000 0.000000 0.000000
# 2 -0.002268 0.011482 -0.001620 0.000000 0.000000 0.000000
# 3 -0.000889 -0.001620 0.014204 0.000000 0.000000 0.000000
# 4 0.000000 0.000000 0.000000 0.033347 0.000000 0.000000
# 5 0.000000 0.000000 0.000000 0.000000 -0.010337 0.000000
# 6 0.000000 0.000000 0.000000 0.000000 0.000000 0.023041
#
#
# Mechanical properties :
#
#
# Convention : Reuss Voigt Hill
#
# Bulk Modulus (GPa) = 44.13033 51.26839 47.69936
# Shear Modulus (GPa) = 52.42518 13.54992 32.98755
#
# Velocity S-wave (km/s) = 4.84466 2.46299 3.84298
# Velocity P-wave (km/s) = 7.14503 5.57147 6.40675
#
# Compressibility (1/GPa) = 0.02266015
#
# Stress axis : x y z
#
# Youngs Moduli (GPa) = 153.15924 87.09506 70.40277
#
# Poissons Ratio (x) = 0.19753 0.06258
# Poissons Ratio (y) = 0.34737 0.11408
# Poissons Ratio (z) = 0.13614 0.14113
#
# Static dielectric constant tensor:
#      x y z
#    x 1.843990 0.000000 0.000000 
#    y 0.000000 1.796500 0.000000 
#    z 0.000000 0.000000 1.871790 
# 
# From -- ./inp_files/1472.got.cif
#   From: 2010.05.17/outbox.cif.g08.bks.cpg/sg51_1_cif.got.tgz:1472.got - 2010.06.03 11:52:47.
