data_PCOD9406250
_publ_section_title
;
Structure prediction by ZEFSAII (Michael W. Deem and Ramdas Pophale) SiO2 
 PCOD9406250
Probable space group: P M M A
;
_chemical_formula_sum "Si O2"
_cell_formula_units_Z 56
_cell_length_a 21.426376
_cell_length_b 14.695719
_cell_length_c 9.464906
_cell_angle_alpha 90.000000
_cell_angle_beta 90.000000
_cell_angle_gamma 90.000000
_cell_volume 2980.271750
_symmetry_space_group_name_H-M "P M M A"
_symmetry_group_IT_number 51
_symmetry_cell_setting 'orthorhombic'
loop_
_space_group_symop_operation_xyz
x,y,z
1/2-x,-y,z
1/2+x,-y,-z
-x,y,-z
-x,-y,-z
1/2+x,y,-z
1/2-x,y,z
x,-y,z
loop_
_atom_site_type_symbol
_atom_site_label
_atom_site_fract_x
_atom_site_fract_y
_atom_site_fract_z
Si Si1 0.677951 0.609170 0.304719
Si Si2 0.003464 0.101126 0.830221
Si Si3 0.679771 0.265770 0.037260
Si Si4 0.149030 0.104633 0.761374
Si Si5 0.572590 0.608446 0.537231
Si Si6 0.899377 0.241008 0.758395
Si Si7 0.676575 0.895273 0.562036
O O1 0.750000 0.633756 0.347972
O O2 0.676502 0.500000 0.288626
O O3 0.665788 0.658149 0.155580
O O4 0.623351 0.633339 0.415765
O O5 0.074563 0.109009 0.781099
O O6 0.962656 0.183554 0.774368
O O7 0.980404 0.000000 0.786396
O O8 0.000000 0.103650 0.000000
O O9 0.750000 0.281189 0.982739
O O10 0.677637 0.171689 0.124304
O O11 0.631493 0.260202 0.909707
O O12 0.165756 0.130866 0.601564
O O13 0.168854 0.000000 0.782527
O O14 0.500000 0.627551 0.500000
O O15 0.577974 0.500000 0.560057
O O16 0.589536 0.666617 0.673984
O O17 0.855741 0.174634 0.666434
O O18 0.750000 0.895239 0.589134
O O19 0.653778 0.000000 0.578375
#
# Coordination Sequence:
#
# PCOD9406250 Si02
#       7
#     8   8   8   8   8   8   8
#     4   9  20  42  68  88 114 157 204 248 297 360
#     4  10  21  38  58  84 119 155 201 248 286 345
#     4  11  23  37  58  90 120 150 195 244 295 357
#     4  10  21  38  59  82 114 159 205 244 285 340
#     4  10  24  43  63  91 124 157 200 254 308 364
#     4  12  24  36  61  87 123 158 197 239 312 360
#     4  10  22  39  58  86 123 159 200 249 299 355
#
# _framework density 18.790230999999999
#
# number of rings (size 3 to 8) (size 9 to 14) (size 15 to 20)
#    0.000    1.714    1.429    2.143    4.000    4.286 
#    0.000    2.143    0.000    3.000    0.000    0.000 
#    0.000    0.000    0.000    0.000    0.000    0.000 
#
# Total GULP energy -312773.537618 kJ/mol
# GULP energy per Si atom -5585.241743 kJ/mol
# Density = 1.874746 g / cm^3
# Si number density = 18.790231 Si / 1000 Ang^3
#
#
#
# Elastic Constant Matrix: (Units=GPa)
#
#
# Indices 1 2 3 4 5 6 
#
# 1 90.5311 38.7576 42.4512 0.0000 0.0000 0.0000
# 2 38.7576 60.0515 45.9414 0.0000 0.0000 0.0000
# 3 42.4512 45.9414 81.0401 0.0000 0.0000 0.0000
# 4 0.0000 0.0000 0.0000 16.1118 0.0000 0.0000
# 5 0.0000 0.0000 0.0000 0.0000 25.9324 0.0000
# 6 0.0000 0.0000 0.0000 0.0000 0.0000 24.6301
#
#
#
# Elastic Compliance Matrix: (Units=1/GPa)
#
#
# Indices 1 2 3 4 5 6 
#
# 1 0.016143 -0.006974 -0.004503 0.000000 0.000000 0.000000
# 2 -0.006974 0.032418 -0.014725 0.000000 0.000000 0.000000
# 3 -0.004503 -0.014725 0.023045 0.000000 0.000000 0.000000
# 4 0.000000 0.000000 0.000000 0.062066 0.000000 0.000000
# 5 0.000000 0.000000 0.000000 0.000000 0.038562 0.000000
# 6 0.000000 0.000000 0.000000 0.000000 0.000000 0.040601
#
#
# Mechanical properties :
#
#
# Convention : Reuss Voigt Hill
#
# Bulk Modulus (GPa) = 52.07197 53.99144 53.03170
# Shear Modulus (GPa) = 18.40674 20.29968 19.35321
#
# Velocity S-wave (km/s) = 3.13324 3.29041 3.21278
# Velocity P-wave (km/s) = 6.39234 6.57509 6.48436
#
# Compressibility (1/GPa) = 0.01920419
#
# Stress axis : x y z
#
# Youngs Moduli (GPa) = 61.94649 30.84678 43.39259
#
# Poissons Ratio (x) = 0.21513 0.19538
# Poissons Ratio (y) = 0.43203 0.63894
# Poissons Ratio (z) = 0.27892 0.45420
#
# Static dielectric constant tensor:
#      x y z
#    x 1.663630 0.000000 0.000000 
#    y 0.000000 1.651240 0.000000 
#    z 0.000000 0.000000 1.611610 
# 
# From -- ./inp_files/10961.got.cif
#   From: 2010.05.17/outbox.cif.g08.bks.cpg/sg51_6_cif.got.tgz:10961.got - 2010.06.03 11:52:47.
