data_PCOD9406292
_publ_section_title
;
Structure prediction by ZEFSAII (Michael W. Deem and Ramdas Pophale) SiO2 
 PCOD9406292
Probable space group: P M M A
;
_chemical_formula_sum "Si O2"
_cell_formula_units_Z 48
_cell_length_a 31.837154
_cell_length_b 8.487868
_cell_length_c 9.179859
_cell_angle_alpha 90.000000
_cell_angle_beta 90.000000
_cell_angle_gamma 90.000000
_cell_volume 2480.669264
_symmetry_space_group_name_H-M "P M M A"
_symmetry_group_IT_number 51
_symmetry_cell_setting 'orthorhombic'
loop_
_space_group_symop_operation_xyz
x,y,z
1/2-x,-y,z
1/2+x,-y,-z
-x,y,-z
-x,-y,-z
1/2+x,y,-z
1/2-x,y,z
x,-y,z
loop_
_atom_site_type_symbol
_atom_site_label
_atom_site_fract_x
_atom_site_fract_y
_atom_site_fract_z
Si Si1 0.499578 0.309357 0.168417
Si Si2 0.083676 0.690483 0.663011
Si Si3 0.917340 0.811187 0.666489
Si Si4 0.166360 0.809285 0.162540
Si Si5 0.750000 0.189202 0.330487
Si Si6 0.250000 0.192078 0.333286
Si Si7 0.332509 0.689011 0.832901
O O1 0.498628 0.500000 0.170208
O O2 0.541877 0.258024 0.251133
O O3 0.458608 0.248704 0.251067
O O4 0.500000 0.258190 0.000000
O O5 0.083509 0.500000 0.660240
O O6 0.083355 0.750781 0.498527
O O7 0.125549 0.742154 0.747894
O O8 0.875502 0.758155 0.752174
O O9 0.917553 0.000000 0.664925
O O10 0.208079 0.757260 0.248826
O O11 0.166683 0.000000 0.158598
O O12 0.166588 0.747647 0.998490
O O13 0.750000 0.243173 0.498764
O O14 0.791377 0.248572 0.248590
O O15 0.750000 0.000000 0.328865
O O16 0.250000 0.000000 0.333852
O O17 0.331760 0.500000 0.832437
#
# Coordination Sequence:
#
# PCOD9406292 Si02
#       7
#     8   8   8   8   4   4   8
#     4  10  21  39  61  83 112 154 198 237 286 347
#     4  10  22  39  59  83 114 153 195 239 287 341
#     4  11  23  37  57  87 119 150 190 241 292 345
#     4  10  21  38  59  84 114 150 191 234 287 345
#     4  11  22  39  62  86 118 157 190 229 286 346
#     4   9  19  37  60  82 108 149 194 227 268 338
#     4  11  23  39  60  88 117 148 193 242 284 334
#
# _framework density 19.349616000000001
#
# number of rings (size 3 to 8) (size 9 to 14) (size 15 to 20)
#    0.000    1.667    0.000    4.250    0.000    9.000 
#    0.000    1.667    0.000    0.000    0.000    0.000 
#    0.000    0.000    0.000    0.000    0.000    0.000 
#
# Total GULP energy -268390.551204 kJ/mol
# GULP energy per Si atom -5591.469817 kJ/mol
# Density = 1.930558 g / cm^3
# Si number density = 19.349616 Si / 1000 Ang^3
#
#
#
# Elastic Constant Matrix: (Units=GPa)
#
#
# Indices 1 2 3 4 5 6 
#
# 1 247.1651 37.1479 152.0126 0.0000 0.0000 0.0000
# 2 37.1479 18.2604 33.8543 0.0000 0.0000 0.0000
# 3 152.0126 33.8543 244.7704 0.0000 0.0000 0.0000
# 4 0.0000 0.0000 0.0000 32.5085 0.0000 0.0000
# 5 0.0000 0.0000 0.0000 0.0000 47.2546 0.0000
# 6 0.0000 0.0000 0.0000 0.0000 0.0000 26.5853
#
#
#
# Elastic Compliance Matrix: (Units=1/GPa)
#
#
# Indices 1 2 3 4 5 6 
#
# 1 0.007484 -0.008887 -0.003419 0.000000 0.000000 0.000000
# 2 -0.008887 0.084201 -0.006127 0.000000 0.000000 0.000000
# 3 -0.003419 -0.006127 0.007056 0.000000 0.000000 0.000000
# 4 0.000000 0.000000 0.000000 0.030761 0.000000 0.000000
# 5 0.000000 0.000000 0.000000 0.000000 0.021162 0.000000
# 6 0.000000 0.000000 0.000000 0.000000 0.000000 0.037615
#
#
# Mechanical properties :
#
#
# Convention : Reuss Voigt Hill
#
# Bulk Modulus (GPa) = 16.16121 106.24725 61.20423
# Shear Modulus (GPa) = 20.34419 40.41510 30.37964
#
# Velocity S-wave (km/s) = 3.24605 4.57516 3.96667
# Velocity P-wave (km/s) = 4.73492 9.10703 7.25801
#
# Compressibility (1/GPa) = 0.06187656
#
# Stress axis : x y z
#
# Youngs Moduli (GPa) = 133.61400 11.87629 141.72137
#
# Poissons Ratio (x) = 0.10555 0.48453
# Poissons Ratio (y) = 1.18743 0.86828
# Poissons Ratio (z) = 0.45681 0.07276
#
# Static dielectric constant tensor:
#      x y z
#    x 1.651480 0.000000 0.000000 
#    y 0.000000 1.669640 0.000000 
#    z 0.000000 0.000000 1.628580 
# 
# From -- ./inp_files/12871.got.cif
#   From: 2010.05.17/outbox.cif.g08.bks.cpg/sg51_7_cif.got.tgz:12871.got - 2010.06.03 11:52:47.
