data_PCOD9406466
_publ_section_title
;
Structure prediction by ZEFSAII (Michael W. Deem and Ramdas Pophale) SiO2 
 PCOD9406466
Probable space group: P M M A
;
_chemical_formula_sum "Si O2"
_cell_formula_units_Z 38
_cell_length_a 7.982647
_cell_length_b 25.924063
_cell_length_c 8.868323
_cell_angle_alpha 90.000000
_cell_angle_beta 90.000000
_cell_angle_gamma 90.000000
_cell_volume 1835.234207
_symmetry_space_group_name_H-M "P M M A"
_symmetry_group_IT_number 51
_symmetry_cell_setting 'orthorhombic'
loop_
_space_group_symop_operation_xyz
x,y,z
1/2-x,-y,z
1/2+x,-y,-z
-x,y,-z
-x,-y,-z
1/2+x,y,-z
1/2-x,y,z
x,-y,z
loop_
_atom_site_type_symbol
_atom_site_label
_atom_site_fract_x
_atom_site_fract_y
_atom_site_fract_z
Si Si1 0.452226 0.179178 0.826090
Si Si2 0.447493 0.500000 0.827766
Si Si3 0.945881 0.605805 0.673344
Si Si4 0.551001 0.925016 0.675542
Si Si5 0.553202 0.716667 0.324925
Si Si6 0.250000 0.000000 0.772250
O O1 0.250000 0.176302 0.812163
O O2 0.531822 0.134135 0.725343
O O3 0.515641 0.235050 0.768555
O O4 0.500000 0.171566 0.000000
O O5 0.250000 0.500000 0.812630
O O6 0.510599 0.447281 0.753799
O O7 0.500000 0.500000 0.000000
O O8 0.750000 0.612949 0.676471
O O9 0.000000 0.601145 0.500000
O O10 0.018209 0.659322 0.736588
O O11 0.500000 0.932422 0.500000
O O12 0.750000 0.939834 0.695254
O O13 0.403490 0.955854 0.763647
O O14 0.500000 0.718471 0.500000
O O15 0.750000 0.723061 0.324373
#
# Coordination Sequence:
#
# PCOD9406466 Si02
#       6
#     8   4   8   8   8   2
#     4  11  24  43  64  92 130 170 213 261 317 383
#     4  12  25  42  61  86 124 166 212 258 313 378
#     4  11  22  39  63  92 125 163 210 261 316 371
#     4  12  24  41  70  98 131 168 211 267 318 378
#     4  10  21  38  64  94 126 161 211 265 319 372
#     4  12  24  44  68 100 136 158 224 256 328 360
#
# _framework density 20.705803
#
# number of rings (size 3 to 8) (size 9 to 14) (size 15 to 20)
#    0.000    0.842    2.105    6.947    0.000    5.895 
#    0.000    2.632    0.000    0.000    0.000    0.000 
#    0.000    0.000    0.000    0.000    0.000    0.000 
#
# Total GULP energy -211725.295169 kJ/mol
# GULP energy per Si atom -5571.718294 kJ/mol
# Density = 2.065868 g / cm^3
# Si number density = 20.705803 Si / 1000 Ang^3
#
#
#
# Elastic Constant Matrix: (Units=GPa)
#
#
# Indices 1 2 3 4 5 6 
#
# 1 126.6949 23.0817 6.2450 0.0000 0.0000 0.0000
# 2 23.0817 162.7278 27.2507 0.0000 0.0000 0.0000
# 3 6.2450 27.2507 23.1820 0.0000 0.0000 0.0000
# 4 0.0000 0.0000 0.0000 -15.7561 0.0000 0.0000
# 5 0.0000 0.0000 0.0000 0.0000 27.2731 0.0000
# 6 0.0000 0.0000 0.0000 0.0000 0.0000 14.3034
#
#
#
# Elastic Compliance Matrix: (Units=1/GPa)
#
#
# Indices 1 2 3 4 5 6 
#
# 1 0.008122 -0.000978 -0.001038 0.000000 0.000000 0.000000
# 2 -0.000978 0.007769 -0.008869 0.000000 0.000000 0.000000
# 3 -0.001038 -0.008869 0.053843 0.000000 0.000000 0.000000
# 4 0.000000 0.000000 0.000000 -0.063468 0.000000 0.000000
# 5 0.000000 0.000000 0.000000 0.000000 0.036666 0.000000
# 6 0.000000 0.000000 0.000000 0.000000 0.000000 0.069914
#
#
# Mechanical properties :
#
#
# Convention : Reuss Voigt Hill
#
# Bulk Modulus (GPa) = 20.84949 47.30661 34.07805
# Shear Modulus (GPa) = 33.19928 22.23255 27.71591
#
# Velocity S-wave (km/s) = 4.00857 3.28034 3.66260
# Velocity P-wave (km/s) = 5.61392 6.10280 5.86346
#
# Compressibility (1/GPa) = 0.04796281
#
# Stress axis : x y z
#
# Youngs Moduli (GPa) = 123.11672 128.71232 18.57263
#
# Poissons Ratio (x) = 0.12591 0.01928
# Poissons Ratio (y) = 0.12044 0.16473
# Poissons Ratio (z) = 0.12782 1.14159
#
# Static dielectric constant tensor:
#      x y z
#    x 1.733110 0.000000 0.000000 
#    y 0.000000 1.735410 0.000000 
#    z 0.000000 0.000000 1.743550 
# 
# From -- ./inp_files/5298.got.cif
#   From: 2010.05.17/outbox.cif.g08.bks.cpg/sg51_3_cif.got.tgz:5298.got - 2010.06.03 11:52:47.
