data_PCOD9406134
_publ_section_title
;
Structure prediction by ZEFSAII (Michael W. Deem and Ramdas Pophale) SiO2 
 PCOD9406134
Probable space group: P M M A
;
_chemical_formula_sum "Si O2"
_cell_formula_units_Z 56
_cell_length_a 8.832693
_cell_length_b 15.445458
_cell_length_c 20.560856
_cell_angle_alpha 90.000000
_cell_angle_beta 90.000000
_cell_angle_gamma 90.000000
_cell_volume 2805.014549
_symmetry_space_group_name_H-M "P M M A"
_symmetry_group_IT_number 51
_symmetry_cell_setting 'orthorhombic'
loop_
_space_group_symop_operation_xyz
x,y,z
1/2-x,-y,z
1/2+x,-y,-z
-x,y,-z
-x,-y,-z
1/2+x,y,-z
1/2-x,y,z
x,-y,z
loop_
_atom_site_type_symbol
_atom_site_label
_atom_site_fract_x
_atom_site_fract_y
_atom_site_fract_z
Si Si1 0.580457 0.897471 0.300147
Si Si2 0.080567 0.397106 0.304342
Si Si3 0.430209 0.849203 0.434446
Si Si4 0.068320 0.601322 0.830260
Si Si5 0.930033 0.657284 0.435635
Si Si6 0.069040 0.897049 0.165243
Si Si7 0.068186 0.754043 0.928231
O O1 0.750000 0.859205 0.306002
O O2 0.488579 0.885744 0.366389
O O3 0.495988 0.867026 0.235278
O O4 0.595291 0.000000 0.291361
O O5 0.250000 0.360606 0.314710
O O6 0.093287 0.500000 0.297192
O O7 0.008157 0.367058 0.236727
O O8 0.977263 0.382450 0.367049
O O9 0.500000 0.890518 0.500000
O O10 0.250000 0.851653 0.438482
O O11 0.492998 0.751524 0.433809
O O12 0.250000 0.603812 0.821794
O O13 0.027322 0.500000 0.842624
O O14 0.027542 0.667112 0.887791
O O15 0.750000 0.663202 0.442333
O O16 0.000000 0.612746 0.500000
O O17 0.250000 0.887921 0.164969
O O18 0.995543 0.836851 0.110599
O O19 0.035049 0.000000 0.156174
O O20 0.250000 0.759434 0.931105
O O21 0.000000 0.750826 0.000000
#
# Coordination Sequence:
#
# PCOD9406134 Si02
#       7
#     8   8   8   8   8   8   8
#     4  10  21  38  60  86 116 152 196 243 294 354
#     4  10  21  37  58  85 115 150 195 243 294 354
#     4  11  22  37  56  80 113 152 196 246 298 354
#     4   9  20  40  63  89 123 162 203 249 301 359
#     4  11  22  37  56  79 112 151 195 245 299 356
#     4  10  22  41  64  91 124 162 204 252 305 361
#     4  11  24  41  64  94 126 161 203 247 299 365
#
# _framework density 19.964247
#
# number of rings (size 3 to 8) (size 9 to 14) (size 15 to 20)
#    0.000    1.714    0.000    5.143    2.000    4.857 
#    0.000    0.000    0.000    0.000    0.000    0.000 
#    0.000    0.000    0.000    0.000    0.000    0.000 
#
# Total GULP energy -312747.665989 kJ/mol
# GULP energy per Si atom -5584.779750 kJ/mol
# Density = 1.991881 g / cm^3
# Si number density = 19.964247 Si / 1000 Ang^3
#
#
#
# Elastic Constant Matrix: (Units=GPa)
#
#
# Indices 1 2 3 4 5 6 
#
# 1 146.2957 42.8718 92.0725 0.0000 0.0000 0.0000
# 2 42.8718 60.9512 56.6200 0.0000 0.0000 0.0000
# 3 92.0725 56.6200 208.6154 0.0000 0.0000 0.0000
# 4 0.0000 0.0000 0.0000 33.8872 0.0000 0.0000
# 5 0.0000 0.0000 0.0000 0.0000 49.9725 0.0000
# 6 0.0000 0.0000 0.0000 0.0000 0.0000 12.7526
#
#
#
# Elastic Compliance Matrix: (Units=1/GPa)
#
#
# Indices 1 2 3 4 5 6 
#
# 1 0.010137 -0.003977 -0.003395 0.000000 0.000000 0.000000
# 2 -0.003977 0.023498 -0.004622 0.000000 0.000000 0.000000
# 3 -0.003395 -0.004622 0.007546 0.000000 0.000000 0.000000
# 4 0.000000 0.000000 0.000000 0.029510 0.000000 0.000000
# 5 0.000000 0.000000 0.000000 0.000000 0.020011 0.000000
# 6 0.000000 0.000000 0.000000 0.000000 0.000000 0.078415
#
#
# Mechanical properties :
#
#
# Convention : Reuss Voigt Hill
#
# Bulk Modulus (GPa) = 58.16155 88.77679 73.46917
# Shear Modulus (GPa) = 25.14632 34.27568 29.71100
#
# Velocity S-wave (km/s) = 3.55289 4.14799 3.86192
# Velocity P-wave (km/s) = 6.78431 8.21617 7.53433
#
# Compressibility (1/GPa) = 0.01719349
#
# Stress axis : x y z
#
# Youngs Moduli (GPa) = 98.64424 42.55752 132.51477
#
# Poissons Ratio (x) = 0.16925 0.44986
# Poissons Ratio (y) = 0.39230 0.61252
# Poissons Ratio (z) = 0.33488 0.19671
#
# Static dielectric constant tensor:
#      x y z
#    x 1.699270 0.000000 0.000000 
#    y 0.000000 1.760280 0.000000 
#    z 0.000000 0.000000 1.707380 
# 
# From -- ./inp_files/32045.got.cif
#   From: 2010.05.17/outbox.cif.g08.bks.cpg/sg51_17_cif.got.tgz:32045.got - 2010.06.03 11:52:47.
