data_PCOD9406494
_publ_section_title
;
Structure prediction by ZEFSAII (Michael W. Deem and Ramdas Pophale) SiO2 
 PCOD9406494
Probable space group: P M M A
;
_chemical_formula_sum "Si O2"
_cell_formula_units_Z 56
_cell_length_a 8.328330
_cell_length_b 15.365092
_cell_length_c 20.486114
_cell_angle_alpha 90.000000
_cell_angle_beta 90.000000
_cell_angle_gamma 90.000000
_cell_volume 2621.516982
_symmetry_space_group_name_H-M "P M M A"
_symmetry_group_IT_number 51
_symmetry_cell_setting 'orthorhombic'
loop_
_space_group_symop_operation_xyz
x,y,z
1/2-x,-y,z
1/2+x,-y,-z
-x,y,-z
-x,-y,-z
1/2+x,y,-z
1/2-x,y,z
x,-y,z
loop_
_atom_site_type_symbol
_atom_site_label
_atom_site_fract_x
_atom_site_fract_y
_atom_site_fract_z
Si Si1 0.442204 0.906937 0.924612
Si Si2 0.557278 0.596764 0.181806
Si Si3 0.070922 0.103589 0.434142
Si Si4 0.447145 0.713148 0.698088
Si Si5 0.064222 0.903008 0.704402
Si Si6 0.056135 0.601109 0.573842
Si Si7 0.060908 0.725054 0.074412
O O1 0.250000 0.900987 0.923984
O O2 0.513321 0.819265 0.896372
O O3 0.489367 0.000000 0.894491
O O4 0.500000 0.909187 0.000000
O O5 0.750000 0.592691 0.186186
O O6 0.491462 0.500000 0.177959
O O7 0.502231 0.645426 0.246732
O O8 0.514427 0.651187 0.118323
O O9 0.250000 0.136832 0.418294
O O10 0.000000 0.143256 0.500000
O O11 0.949690 0.108234 0.374065
O O12 0.088929 0.000000 0.445124
O O13 0.250000 0.718705 0.696566
O O14 0.505636 0.808664 0.722290
O O15 0.497007 0.672391 0.628031
O O16 0.250000 0.906033 0.725621
O O17 0.994501 0.000000 0.719293
O O18 0.250000 0.601865 0.574801
O O19 0.007014 0.500000 0.589567
O O20 0.000000 0.619817 0.500000
O O21 0.250000 0.717364 0.073471
O O22 0.000000 0.721322 0.000000
#
# Coordination Sequence:
#
# PCOD9406494 Si02
#       7
#     8   8   8   8   8   8   8
#     4   9  16  28  50  81 117 156 196 236 276 321
#     4  10  21  39  62  84 108 143 188 237 289 345
#     4   9  16  26  41  62  90 126 168 212 257 306
#     4   9  18  34  56  79 104 138 181 223 267 329
#     4   9  17  30  48  70  98 132 169 211 258 312
#     4   9  17  31  52  77 103 132 170 219 273 324
#     4  11  22  37  59  87 121 156 191 234 281 334
#
# _framework density 21.361678000000001
#
# number of rings (size 3 to 8) (size 9 to 14) (size 15 to 20)
#    0.000    2.571    0.000    3.429    0.000    5.429 
#    0.000    4.286    0.000    4.286    0.000    0.000 
#    0.000    0.000    0.000    0.000    0.000    0.000 
#
# Total GULP energy -312127.682331 kJ/mol
# GULP energy per Si atom -5573.708613 kJ/mol
# Density = 2.131306 g / cm^3
# Si number density = 21.361678 Si / 1000 Ang^3
#
#
#
# Elastic Constant Matrix: (Units=GPa)
#
#
# Indices 1 2 3 4 5 6 
#
# 1 9.9886 -1.8313 -4.4681 0.0000 0.0000 0.0000
# 2 -1.8313 187.3012 55.8616 0.0000 0.0000 0.0000
# 3 -4.4681 55.8616 68.1298 0.0000 0.0000 0.0000
# 4 0.0000 0.0000 0.0000 -72.5633 0.0000 0.0000
# 5 0.0000 0.0000 0.0000 0.0000 13.5067 0.0000
# 6 0.0000 0.0000 0.0000 0.0000 0.0000 15.0865
#
#
#
# Elastic Compliance Matrix: (Units=1/GPa)
#
#
# Indices 1 2 3 4 5 6 
#
# 1 0.103392 -0.001339 0.007878 0.000000 0.000000 0.000000
# 2 -0.001339 0.007085 -0.005897 0.000000 0.000000 0.000000
# 3 0.007878 -0.005897 0.020029 0.000000 0.000000 0.000000
# 4 0.000000 0.000000 0.000000 -0.013781 0.000000 0.000000
# 5 0.000000 0.000000 0.000000 0.000000 0.074037 0.000000
# 6 0.000000 0.000000 0.000000 0.000000 0.000000 0.066284
#
#
# Mechanical properties :
#
#
# Convention : Reuss Voigt Hill
#
# Bulk Modulus (GPa) = 7.58770 40.50490 24.04630
# Shear Modulus (GPa) = 16.68381 5.59647 11.14014
#
# Velocity S-wave (km/s) = 2.79770 1.62036 2.28612
# Velocity P-wave (km/s) = 3.74111 4.74377 4.27196
#
# Compressibility (1/GPa) = 0.13179230
#
# Stress axis : x y z
#
# Youngs Moduli (GPa) = 9.67189 141.15240 49.92673
#
# Poissons Ratio (x) = 0.18897 -0.39334
# Poissons Ratio (y) = 0.01295 0.29440
# Poissons Ratio (z) = -0.07620 0.83232
#
# Static dielectric constant tensor:
#      x y z
#    x 1.754690 0.000000 0.000000 
#    y 0.000000 1.840610 0.000000 
#    z 0.000000 0.000000 1.751370 
# 
# From -- ./inp_files/31896.got.cif
#   From: 2010.05.17/outbox.cif.g08.bks.cpg/sg51_16_cif.got.tgz:31896.got - 2010.06.03 11:52:47.
