data_PCOD9406354
_publ_section_title
;
Structure prediction by ZEFSAII (Michael W. Deem and Ramdas Pophale) SiO2 
 PCOD9406354
Probable space group: P M M A
;
_chemical_formula_sum "Si O2"
_cell_formula_units_Z 48
_cell_length_a 8.924910
_cell_length_b 14.353346
_cell_length_c 20.932912
_cell_angle_alpha 90.000000
_cell_angle_beta 90.000000
_cell_angle_gamma 90.000000
_cell_volume 2681.554618
_symmetry_space_group_name_H-M "P M M A"
_symmetry_group_IT_number 51
_symmetry_cell_setting 'orthorhombic'
loop_
_space_group_symop_operation_xyz
x,y,z
1/2-x,-y,z
1/2+x,-y,-z
-x,y,-z
-x,-y,-z
1/2+x,y,-z
1/2-x,y,z
x,-y,z
loop_
_atom_site_type_symbol
_atom_site_label
_atom_site_fract_x
_atom_site_fract_y
_atom_site_fract_z
Si Si1 0.428157 0.210458 0.310704
Si Si2 0.572280 0.793099 0.934020
Si Si3 0.426984 0.393050 0.891608
Si Si4 0.925334 0.111542 0.188812
Si Si5 0.926955 0.606820 0.261777
Si Si6 0.071430 0.110019 0.568864
O O1 0.250000 0.201501 0.311502
O O2 0.496440 0.152924 0.251372
O O3 0.477263 0.316687 0.298081
O O4 0.497956 0.170303 0.375471
O O5 0.750000 0.802849 0.935375
O O6 0.525554 0.685087 0.924831
O O7 0.503003 0.847157 0.873923
O O8 0.500000 0.827017 0.000000
O O9 0.250000 0.377409 0.905044
O O10 0.463157 0.500000 0.908724
O O11 0.446994 0.383349 0.814893
O O12 0.750000 0.138871 0.189106
O O13 0.934934 0.000000 0.189137
O O14 0.750000 0.621697 0.274289
O O15 0.963890 0.500000 0.278238
O O16 0.250000 0.124245 0.567156
O O17 0.000000 0.131047 0.500000
O O18 0.044122 0.000000 0.581985
#
# Coordination Sequence:
#
# PCOD9406354 Si02
#       6
#     8   8   8   8   8   8
#     4  12  23  35  58  91 123 155 191 235 283 338
#     4  12  25  40  59  82 111 148 187 234 289 348
#     4   9  18  35  59  84 112 146 185 232 285 341
#     4  11  24  42  62  83 110 146 190 240 289 338
#     4   9  18  34  58  85 115 152 191 234 284 337
#     4  10  21  38  60  87 121 160 199 240 286 337
#
# _framework density 17.900065000000001
#
# number of rings (size 3 to 8) (size 9 to 14) (size 15 to 20)
#    0.000    1.500    1.667    5.500    0.000    5.667 
#    0.000    1.667    0.000    0.500    0.000    0.000 
#    0.000    0.000    0.000    0.000    0.000    0.000 
#
# Total GULP energy -268371.275281 kJ/mol
# GULP energy per Si atom -5591.068235 kJ/mol
# Density = 1.785932 g / cm^3
# Si number density = 17.900065 Si / 1000 Ang^3
#
#
#
# Elastic Constant Matrix: (Units=GPa)
#
#
# Indices 1 2 3 4 5 6 
#
# 1 136.0269 63.9252 75.3040 0.0000 0.0000 0.0000
# 2 63.9252 77.8645 56.2442 0.0000 0.0000 0.0000
# 3 75.3040 56.2442 121.7315 0.0000 0.0000 0.0000
# 4 0.0000 0.0000 0.0000 -434.9779 0.0000 0.0000
# 5 0.0000 0.0000 0.0000 0.0000 31.9492 0.0000
# 6 0.0000 0.0000 0.0000 0.0000 0.0000 319.0269
#
#
#
# Elastic Compliance Matrix: (Units=1/GPa)
#
#
# Indices 1 2 3 4 5 6 
#
# 1 0.013683 -0.007684 -0.004914 0.000000 0.000000 0.000000
# 2 -0.007684 0.023591 -0.006147 0.000000 0.000000 0.000000
# 3 -0.004914 -0.006147 0.014095 0.000000 0.000000 0.000000
# 4 0.000000 0.000000 0.000000 -0.002299 0.000000 0.000000
# 5 0.000000 0.000000 0.000000 0.000000 0.031300 0.000000
# 6 0.000000 0.000000 0.000000 0.000000 0.000000 0.003135
#
#
# Mechanical properties :
#
#
# Convention : Reuss Voigt Hill
#
# Bulk Modulus (GPa) = 72.04892 80.72999 76.38946
# Shear Modulus (GPa) = 39.80281 -7.45707 16.17287
#
# Velocity S-wave (km/s) = 4.72064 -2.04328 3.00910
# Velocity P-wave (km/s) = 8.36962 6.29537 7.40548
#
# Compressibility (1/GPa) = 0.01387946
#
# Stress axis : x y z
#
# Youngs Moduli (GPa) = 73.08404 42.38923 70.94856
#
# Poissons Ratio (x) = 0.32571 0.34866
# Poissons Ratio (y) = 0.56155 0.43610
# Poissons Ratio (z) = 0.35915 0.26055
#
# Static dielectric constant tensor:
#      x y z
#    x 1.591390 0.000000 0.000000 
#    y 0.000000 1.614190 0.000000 
#    z 0.000000 0.000000 1.585800 
# 
# From -- ./inp_files/27579.got.cif
#   From: 2010.05.17/outbox.cif.g08.bks.cpg/sg51_14_cif.got.tgz:27579.got - 2010.06.03 11:52:47.
