data_PCOD9406842
_publ_section_title
;
Structure prediction by ZEFSAII (Michael W. Deem and Ramdas Pophale) SiO2 
 PCOD9406842
Probable space group: P M M A
;
_chemical_formula_sum "Si O2"
_cell_formula_units_Z 32
_cell_length_a 14.439782
_cell_length_b 7.584744
_cell_length_c 14.054349
_cell_angle_alpha 90.000000
_cell_angle_beta 90.000000
_cell_angle_gamma 90.000000
_cell_volume 1539.261112
_symmetry_space_group_name_H-M "P M M A"
_symmetry_group_IT_number 51
_symmetry_cell_setting 'orthorhombic'
loop_
_space_group_symop_operation_xyz
x,y,z
1/2-x,-y,z
1/2+x,-y,-z
-x,y,-z
-x,-y,-z
1/2+x,y,-z
1/2-x,y,z
x,-y,z
loop_
_atom_site_type_symbol
_atom_site_label
_atom_site_fract_x
_atom_site_fract_y
_atom_site_fract_z
Si Si1 0.643758 0.785462 0.247429
Si Si2 0.639177 0.500000 0.705763
Si Si3 0.979792 0.209729 0.611075
Si Si4 0.859016 0.196083 0.041085
Si Si5 0.079496 0.500000 0.081395
O O1 0.750000 0.724472 0.262992
O O2 0.571297 0.738003 0.328593
O O3 0.646905 0.000000 0.243563
O O4 0.606300 0.730065 0.142856
O O5 0.750000 0.500000 0.720857
O O6 0.604201 0.671230 0.647986
O O7 0.583539 0.500000 0.805721
O O8 0.000000 0.237987 0.500000
O O9 0.963453 0.000000 0.625956
O O10 0.750000 0.182041 0.059152
O O11 0.870867 0.320827 0.952067
O O12 0.896247 0.000000 0.024743
O O13 0.000000 0.500000 0.000000
#
# Coordination Sequence:
#
# PCOD9406842 Si02
#       5
#     8   4   8   8   4
#     4   8  15  31  58  90 118 145 190 257 321 373
#     4  12  27  43  59  89 133 171 210 260 312 372
#     4  10  22  42  66  89 118 159 206 256 313 377
#     4   9  18  34  55  79 110 146 186 237 294 352
#     4  12  24  37  58  85 117 161 208 250 294 356
#
# _framework density 20.789197000000001
#
# number of rings (size 3 to 8) (size 9 to 14) (size 15 to 20)
#    0.000    2.250    0.000    4.500    0.000    3.000 
#    0.000    4.375    0.000    0.000    0.000    0.000 
#    0.000    0.000    0.000    0.000    0.000    0.000 
#
# Total GULP energy -178457.414169 kJ/mol
# GULP energy per Si atom -5576.794193 kJ/mol
# Density = 2.074188 g / cm^3
# Si number density = 20.789197 Si / 1000 Ang^3
#
#
#
# Elastic Constant Matrix: (Units=GPa)
#
#
# Indices 1 2 3 4 5 6 
#
# 1 78.8522 29.7514 23.2556 0.0000 0.0000 0.0000
# 2 29.7514 88.2336 59.9207 0.0000 0.0000 0.0000
# 3 23.2556 59.9207 125.8546 0.0000 0.0000 0.0000
# 4 0.0000 0.0000 0.0000 27.3414 0.0000 0.0000
# 5 0.0000 0.0000 0.0000 0.0000 30.5061 0.0000
# 6 0.0000 0.0000 0.0000 0.0000 0.0000 20.2035
#
#
#
# Elastic Compliance Matrix: (Units=1/GPa)
#
#
# Indices 1 2 3 4 5 6 
#
# 1 0.014554 -0.004553 -0.000521 0.000000 0.000000 0.000000
# 2 -0.004553 0.018174 -0.007811 0.000000 0.000000 0.000000
# 3 -0.000521 -0.007811 0.011761 0.000000 0.000000 0.000000
# 4 0.000000 0.000000 0.000000 0.036575 0.000000 0.000000
# 5 0.000000 0.000000 0.000000 0.000000 0.032780 0.000000
# 6 0.000000 0.000000 0.000000 0.000000 0.000000 0.049496
#
#
# Mechanical properties :
#
#
# Convention : Reuss Voigt Hill
#
# Bulk Modulus (GPa) = 53.42887 57.64400 55.53643
# Shear Modulus (GPa) = 25.59503 27.61105 26.60304
#
# Velocity S-wave (km/s) = 3.51261 3.64832 3.58111
# Velocity P-wave (km/s) = 6.49672 6.74797 6.62353
#
# Compressibility (1/GPa) = 0.01871647
#
# Stress axis : x y z
#
# Youngs Moduli (GPa) = 68.71104 55.02481 85.02634
#
# Poissons Ratio (x) = 0.25054 0.04433
# Poissons Ratio (y) = 0.31286 0.66417
# Poissons Ratio (z) = 0.03583 0.42982
#
# Static dielectric constant tensor:
#      x y z
#    x 1.797250 0.000000 0.000000 
#    y 0.000000 1.718620 0.000000 
#    z 0.000000 0.000000 1.739090 
# 
# From -- ./inp_files/15914.got.cif
#   From: 2010.05.17/outbox.cif.g08.bks.cpg/sg51_8_cif.got.tgz:15914.got - 2010.06.03 11:52:47.
