data_PCOD9406147
_publ_section_title
;
Structure prediction by ZEFSAII (Michael W. Deem and Ramdas Pophale) SiO2 
 PCOD9406147
Probable space group: P M M A
;
_chemical_formula_sum "Si O2"
_cell_formula_units_Z 64
_cell_length_a 8.618466
_cell_length_b 24.367475
_cell_length_c 15.859728
_cell_angle_alpha 90.000000
_cell_angle_beta 90.000000
_cell_angle_gamma 90.000000
_cell_volume 3330.705518
_symmetry_space_group_name_H-M "P M M A"
_symmetry_group_IT_number 51
_symmetry_cell_setting 'orthorhombic'
loop_
_space_group_symop_operation_xyz
x,y,z
1/2-x,-y,z
1/2+x,-y,-z
-x,y,-z
-x,-y,-z
1/2+x,y,-z
1/2-x,y,z
x,-y,z
loop_
_atom_site_type_symbol
_atom_site_label
_atom_site_fract_x
_atom_site_fract_y
_atom_site_fract_z
Si Si1 0.560728 0.062933 0.248282
Si Si2 0.436948 0.133728 0.591240
Si Si3 0.062927 0.436001 0.246088
Si Si4 0.563982 0.633696 0.589339
Si Si5 0.935415 0.746565 0.848503
Si Si6 0.436741 0.746643 0.658130
Si Si7 0.936470 0.862412 0.090142
Si Si8 0.434512 0.631653 0.910963
O O1 0.750000 0.062872 0.248877
O O2 0.510387 0.094049 0.333186
O O3 0.513942 0.097704 0.166320
O O4 0.508799 0.000000 0.245350
O O5 0.500000 0.118240 0.500000
O O6 0.250000 0.132168 0.589101
O O7 0.482749 0.196102 0.614533
O O8 0.250000 0.431526 0.237979
O O9 0.021902 0.500000 0.249608
O O10 0.018700 0.404836 0.332174
O O11 0.987338 0.406189 0.166480
O O12 0.500000 0.613616 0.500000
O O13 0.750000 0.636536 0.586218
O O14 0.497060 0.694097 0.607828
O O15 0.750000 0.746705 0.850787
O O16 0.993725 0.744966 0.751991
O O17 0.000442 0.801688 0.890454
O O18 0.997828 0.692259 0.893903
O O19 0.250000 0.745027 0.663964
O O20 0.750000 0.860562 0.088424
O O21 0.000000 0.881045 0.000000
O O22 0.250000 0.634644 0.914359
O O23 0.500000 0.611047 0.000000
#
# Coordination Sequence:
#
# PCOD9406147 Si02
#       8
#     8   8   8   8   8   8   8   8
#     4   9  19  38  61  83 115 160 203 246 300 359
#     4  10  21  37  58  87 119 156 199 242 297 356
#     4  10  23  44  66  90 124 165 210 258 306 358
#     4  11  23  39  62  92 126 165 206 253 305 364
#     4  12  23  38  62  92 125 160 197 245 305 367
#     4  11  21  37  61  90 123 160 199 248 306 370
#     4  11  22  39  61  89 121 157 200 247 300 361
#     4  12  25  42  66  94 126 162 204 252 304 365
#
# _framework density 19.215149
#
# number of rings (size 3 to 8) (size 9 to 14) (size 15 to 20)
#    0.000    1.250    2.500    4.125    0.000    3.750 
#    0.000    0.000    0.000    2.625    0.000    0.000 
#    0.000    0.000    0.000    0.000    0.000    0.000 
#
# Total GULP energy -357935.437912 kJ/mol
# GULP energy per Si atom -5592.741217 kJ/mol
# Density = 1.917141 g / cm^3
# Si number density = 19.215149 Si / 1000 Ang^3
#
#
#
# Elastic Constant Matrix: (Units=GPa)
#
#
# Indices 1 2 3 4 5 6 
#
# 1 67.8049 47.2751 54.1338 0.0000 0.0000 0.0000
# 2 47.2751 143.7795 80.7792 0.0000 0.0000 0.0000
# 3 54.1338 80.7792 194.4360 0.0000 0.0000 0.0000
# 4 0.0000 0.0000 0.0000 10.3983 0.0000 0.0000
# 5 0.0000 0.0000 0.0000 0.0000 35.1482 0.0000
# 6 0.0000 0.0000 0.0000 0.0000 0.0000 97.7531
#
#
#
# Elastic Compliance Matrix: (Units=1/GPa)
#
#
# Indices 1 2 3 4 5 6 
#
# 1 0.021204 -0.004768 -0.003923 0.000000 0.000000 0.000000
# 2 -0.004768 0.010145 -0.002887 0.000000 0.000000 0.000000
# 3 -0.003923 -0.002887 0.007435 0.000000 0.000000 0.000000
# 4 0.000000 0.000000 0.000000 0.096169 0.000000 0.000000
# 5 0.000000 0.000000 0.000000 0.000000 0.028451 0.000000
# 6 0.000000 0.000000 0.000000 0.000000 0.000000 0.010230
#
#
# Mechanical properties :
#
#
# Convention : Reuss Voigt Hill
#
# Bulk Modulus (GPa) = 63.98791 85.59964 74.79377
# Shear Modulus (GPa) = 24.75247 43.58207 34.16727
#
# Velocity S-wave (km/s) = 3.59301 4.76763 4.22138
# Velocity P-wave (km/s) = 7.11238 8.65747 7.92268
#
# Compressibility (1/GPa) = 0.01562795
#
# Stress axis : x y z
#
# Youngs Moduli (GPa) = 47.15987 98.57038 134.50400
#
# Poissons Ratio (x) = 0.47001 0.52761
# Poissons Ratio (y) = 0.22487 0.38835
# Poissons Ratio (z) = 0.18499 0.28460
#
# Static dielectric constant tensor:
#      x y z
#    x 1.650490 0.000000 0.000000 
#    y 0.000000 1.647330 0.000000 
#    z 0.000000 0.000000 1.677740 
# 
# From -- ./inp_files/22407.got.cif
#   From: 2010.05.17/outbox.cif.g08.bks.cpg/sg51_12_cif.got.tgz:22407.got - 2010.06.03 11:52:47.
