data_PCOD9406091
_publ_section_title
;
Structure prediction by ZEFSAII (Michael W. Deem and Ramdas Pophale) SiO2 
 PCOD9406091
Probable space group: P M M A
;
_chemical_formula_sum "Si O2"
_cell_formula_units_Z 64
_cell_length_a 15.967040
_cell_length_b 7.893702
_cell_length_c 24.571254
_cell_angle_alpha 90.000000
_cell_angle_beta 90.000000
_cell_angle_gamma 90.000000
_cell_volume 3096.937649
_symmetry_space_group_name_H-M "P M M A"
_symmetry_group_IT_number 51
_symmetry_cell_setting 'orthorhombic'
loop_
_space_group_symop_operation_xyz
x,y,z
1/2-x,-y,z
1/2+x,-y,-z
-x,y,-z
-x,-y,-z
1/2+x,y,-z
1/2-x,y,z
x,-y,z
loop_
_atom_site_type_symbol
_atom_site_label
_atom_site_fract_x
_atom_site_fract_y
_atom_site_fract_z
Si Si1 0.656089 0.795489 0.364984
Si Si2 0.001010 0.296436 0.438291
Si Si3 0.658973 0.800553 0.872967
Si Si4 0.656200 0.297845 0.138053
Si Si5 0.076989 0.800488 0.748695
Si Si6 0.342920 0.292764 0.366029
Si Si7 0.612333 0.695763 0.754289
Si Si8 0.002413 0.795035 0.937714
O O1 0.750000 0.733823 0.377218
O O2 0.585009 0.741741 0.407182
O O3 0.627176 0.741411 0.304530
O O4 0.658433 0.000000 0.364689
O O5 0.009613 0.500000 0.440760
O O6 0.000000 0.231064 0.500000
O O7 0.080457 0.232752 0.403368
O O8 0.750000 0.726451 0.887087
O O9 0.644545 0.784579 0.808442
O O10 0.578398 0.729601 0.904367
O O11 0.661653 0.000000 0.886052
O O12 0.750000 0.239863 0.123754
O O13 0.657046 0.500000 0.143907
O O14 0.628415 0.223822 0.196138
O O15 0.586907 0.252778 0.093491
O O16 0.988238 0.708115 0.753210
O O17 0.058514 0.000000 0.742130
O O18 0.250000 0.244288 0.385161
O O19 0.346354 0.500000 0.365147
O O20 0.355821 0.236645 0.303613
O O21 0.638157 0.500000 0.758381
O O22 0.999157 0.000000 0.937760
O O23 0.000000 0.736572 0.000000
#
# Coordination Sequence:
#
# PCOD9406091 Si02
#       8
#     8   8   8   8   8   8   8   8
#     4  10  22  39  59  84 116 153 191 234 288 348
#     4  10  21  37  58  84 113 149 194 240 286 334
#     4  10  21  37  57  84 118 152 188 235 287 341
#     4  11  24  40  60  89 122 155 192 239 294 349
#     4  11  21  36  60  87 117 153 192 236 293 352
#     4   9  18  33  53  79 113 148 184 228 279 338
#     4  11  20  33  57  85 114 150 189 232 291 350
#     4  10  22  40  62  87 116 155 200 242 285 337
#
# _framework density 20.665576999999999
#
# number of rings (size 3 to 8) (size 9 to 14) (size 15 to 20)
#    0.000    1.750    2.500    1.875    0.000    4.500 
#    0.000    2.500    0.000    1.125    0.000    0.000 
#    0.000    0.000    0.000    0.000    0.000    0.000 
#
# Total GULP energy -357602.682629 kJ/mol
# GULP energy per Si atom -5587.541916 kJ/mol
# Density = 2.061854 g / cm^3
# Si number density = 20.665577 Si / 1000 Ang^3
#
#
#
# Elastic Constant Matrix: (Units=GPa)
#
#
# Indices 1 2 3 4 5 6 
#
# 1 189.7246 -2.9066 79.1518 0.0000 0.0000 0.0000
# 2 -2.9066 22.7634 -1.7371 0.0000 0.0000 0.0000
# 3 79.1518 -1.7371 142.8179 0.0000 0.0000 0.0000
# 4 0.0000 0.0000 0.0000 32.1376 0.0000 0.0000
# 5 0.0000 0.0000 0.0000 0.0000 -1.6195 0.0000
# 6 0.0000 0.0000 0.0000 0.0000 0.0000 15.8555
#
#
#
# Elastic Compliance Matrix: (Units=1/GPa)
#
#
# Indices 1 2 3 4 5 6 
#
# 1 0.006864 0.000587 -0.003797 0.000000 0.000000 0.000000
# 2 0.000587 0.044021 0.000210 0.000000 0.000000 0.000000
# 3 -0.003797 0.000210 0.009109 0.000000 0.000000 0.000000
# 4 0.000000 0.000000 0.000000 0.031116 0.000000 0.000000
# 5 0.000000 0.000000 0.000000 0.000000 -0.617460 0.000000
# 6 0.000000 0.000000 0.000000 0.000000 0.000000 0.063070
#
#
# Mechanical properties :
#
#
# Convention : Reuss Voigt Hill
#
# Bulk Modulus (GPa) = 18.52059 56.03577 37.27818
# Shear Modulus (GPa) = -11.38219 27.99457 8.30619
#
# Velocity S-wave (km/s) = -2.34942 3.68455 2.00700
# Velocity P-wave (km/s) = 1.27351 6.72871 4.84238
#
# Compressibility (1/GPa) = 0.05399395
#
# Stress axis : x y z
#
# Youngs Moduli (GPa) = 145.69136 22.71633 109.78423
#
# Poissons Ratio (x) = -0.01333 0.41684
# Poissons Ratio (y) = -0.08547 -0.02309
# Poissons Ratio (z) = 0.55317 -0.00478
#
# Static dielectric constant tensor:
#      x y z
#    x 1.739450 0.000000 0.000000 
#    y 0.000000 1.754570 0.000000 
#    z 0.000000 0.000000 1.703800 
# 
# From -- ./inp_files/35716.got.cif
#   From: 2010.05.17/outbox.cif.g08.bks.cpg/sg51_18_cif.got.tgz:35716.got - 2010.06.03 11:52:47.
