data_PCOD9406409
_publ_section_title
;
Structure prediction by ZEFSAII (Michael W. Deem and Ramdas Pophale) SiO2 
 PCOD9406409
Probable space group: P M M A
;
_chemical_formula_sum "Si O2"
_cell_formula_units_Z 34
_cell_length_a 7.446958
_cell_length_b 10.139855
_cell_length_c 20.435946
_cell_angle_alpha 90.000000
_cell_angle_beta 90.000000
_cell_angle_gamma 90.000000
_cell_volume 1543.140237
_symmetry_space_group_name_H-M "P M M A"
_symmetry_group_IT_number 51
_symmetry_cell_setting 'orthorhombic'
loop_
_space_group_symop_operation_xyz
x,y,z
1/2-x,-y,z
1/2+x,-y,-z
-x,y,-z
-x,-y,-z
1/2+x,y,-z
1/2-x,y,z
x,-y,z
loop_
_atom_site_type_symbol
_atom_site_label
_atom_site_fract_x
_atom_site_fract_y
_atom_site_fract_z
Si Si1 0.532440 0.355921 0.209329
Si Si2 0.039593 0.852062 0.687259
Si Si3 0.037371 0.240975 0.929813
Si Si4 0.537258 0.646641 0.576647
Si Si5 0.750000 0.000000 0.927078
O O1 0.750000 0.357640 0.216224
O O2 0.466647 0.500000 0.230057
O O3 0.462270 0.237688 0.254518
O O4 0.496126 0.328391 0.133529
O O5 0.250000 0.866776 0.701932
O O6 0.028420 0.764707 0.621885
O O7 0.964248 0.000000 0.681539
O O8 0.250000 0.204467 0.926620
O O9 0.908146 0.114826 0.927329
O O10 0.000000 0.306682 0.000000
O O11 0.500000 0.668403 0.500000
O O12 0.750000 0.642215 0.585300
O O13 0.464574 0.500000 0.593885
#
# Coordination Sequence:
#
# PCOD9406409 Si02
#       5
#     8   8   8   8   2
#     4   9  20  40  64  88 119 161 204 252 309 369
#     4  10  21  38  61  91 121 158 202 248 301 361
#     4  11  23  39  62  93 123 165 211 259 311 379
#     4  10  21  38  61  89 119 157 201 246 297 358
#     4  12  24  40  60  94 128 166 202 258 322 378
#
# _framework density 22.032993999999999
#
# number of rings (size 3 to 8) (size 9 to 14) (size 15 to 20)
#    0.000    1.882    1.176    2.118    1.647    3.765 
#    2.118    0.588    0.000    0.000    0.000    0.000 
#    0.000    0.000    0.000    0.000    0.000    0.000 
#
# Total GULP energy -189383.601113 kJ/mol
# GULP energy per Si atom -5570.105915 kJ/mol
# Density = 2.198285 g / cm^3
# Si number density = 22.032994 Si / 1000 Ang^3
#
#
#
# Elastic Constant Matrix: (Units=GPa)
#
#
# Indices 1 2 3 4 5 6 
#
# 1 106.5748 16.9557 -0.2017 0.0000 0.0000 0.0000
# 2 16.9557 200.8286 104.2664 0.0000 0.0000 0.0000
# 3 -0.2017 104.2664 123.4534 0.0000 0.0000 0.0000
# 4 0.0000 0.0000 0.0000 -35.6459 0.0000 0.0000
# 5 0.0000 0.0000 0.0000 0.0000 17.6098 0.0000
# 6 0.0000 0.0000 0.0000 0.0000 0.0000 -34.6966
#
#
#
# Elastic Compliance Matrix: (Units=1/GPa)
#
#
# Indices 1 2 3 4 5 6 
#
# 1 0.009618 -0.001461 0.001249 0.000000 0.000000 0.000000
# 2 -0.001461 0.009090 -0.007679 0.000000 0.000000 0.000000
# 3 0.001249 -0.007679 0.014588 0.000000 0.000000 0.000000
# 4 0.000000 0.000000 0.000000 -0.028054 0.000000 0.000000
# 5 0.000000 0.000000 0.000000 0.000000 0.056787 0.000000
# 6 0.000000 0.000000 0.000000 0.000000 0.000000 -0.028821
#
#
# Mechanical properties :
#
#
# Convention : Reuss Voigt Hill
#
# Bulk Modulus (GPa) = 57.09621 74.76640 65.93131
# Shear Modulus (GPa) = 91.19652 10.10920 50.65286
#
# Velocity S-wave (km/s) = 6.44055 2.14433 4.79994
# Velocity P-wave (km/s) = 9.01542 6.33549 7.79154
#
# Compressibility (1/GPa) = 0.01751430
#
# Stress axis : x y z
#
# Youngs Moduli (GPa) = 103.97355 110.01509 68.54903
#
# Poissons Ratio (x) = 0.16070 -0.08564
# Poissons Ratio (y) = 0.15187 0.52641
# Poissons Ratio (z) = -0.12990 0.84484
#
# Static dielectric constant tensor:
#      x y z
#    x 1.832290 0.000000 0.000000 
#    y 0.000000 1.809150 0.000000 
#    z 0.000000 0.000000 1.816120 
# 
# From -- ./inp_files/31177.got.cif
#   From: 2010.05.17/outbox.cif.g08.bks.cpg/sg51_16_cif.got.tgz:31177.got - 2010.06.03 11:52:47.
