data_PCOD9406693
_publ_section_title
;
Structure prediction by ZEFSAII (Michael W. Deem and Ramdas Pophale) SiO2 
 PCOD9406693
Probable space group: P M M A
;
_chemical_formula_sum "Si O2"
_cell_formula_units_Z 30
_cell_length_a 7.675253
_cell_length_b 9.967923
_cell_length_c 18.352385
_cell_angle_alpha 90.000000
_cell_angle_beta 90.000000
_cell_angle_gamma 90.000000
_cell_volume 1404.073640
_symmetry_space_group_name_H-M "P M M A"
_symmetry_group_IT_number 51
_symmetry_cell_setting 'orthorhombic'
loop_
_space_group_symop_operation_xyz
x,y,z
1/2-x,-y,z
1/2+x,-y,-z
-x,y,-z
-x,-y,-z
1/2+x,y,-z
1/2-x,y,z
x,-y,z
loop_
_atom_site_type_symbol
_atom_site_label
_atom_site_fract_x
_atom_site_fract_y
_atom_site_fract_z
Si Si1 0.044910 0.701219 0.873491
Si Si2 0.542993 0.000000 0.914977
Si Si3 0.250000 0.500000 0.073263
Si Si4 0.542195 0.354046 0.293483
Si Si5 0.044430 0.849760 0.420252
O O1 0.250000 0.661784 0.884756
O O2 0.989283 0.672858 0.789675
O O3 0.906018 0.617535 0.920742
O O4 0.031318 0.860693 0.884556
O O5 0.750000 0.000000 0.902986
O O6 0.500000 0.000000 0.000000
O O7 0.750000 0.361171 0.290450
O O8 0.472227 0.500000 0.315986
O O9 0.502023 0.241730 0.352287
O O10 0.250000 0.862814 0.418759
O O11 0.000000 0.792615 0.500000
O O12 0.965891 0.000000 0.415332
#
# Coordination Sequence:
#
# PCOD9406693 Si02
#       5
#     8   4   2   8   8
#     4  11  24  44  70 103 140 180 226 282 339 403
#     4  12  26  48  76 103 142 184 230 281 332 405
#     4  12  22  42  74 102 144 178 226 274 346 402
#     4  10  22  39  62  90 126 165 208 264 327 389
#     4  10  22  38  57  83 118 161 213 267 322 387
#
# _framework density 21.366399000000001
#
# number of rings (size 3 to 8) (size 9 to 14) (size 15 to 20)
#    0.000    1.333    2.667    2.400    3.733    2.667 
#    0.000    0.667    0.000    0.000    0.000    0.000 
#    0.000    0.000    0.000    0.000    0.000    0.000 
#
# Total GULP energy -167091.165534 kJ/mol
# GULP energy per Si atom -5569.705518 kJ/mol
# Density = 2.131777 g / cm^3
# Si number density = 21.366399 Si / 1000 Ang^3
#
#
#
# Elastic Constant Matrix: (Units=GPa)
#
#
# Indices 1 2 3 4 5 6 
#
# 1 112.3848 28.4713 12.9789 0.0000 0.0000 0.0000
# 2 28.4713 135.9850 27.0464 0.0000 0.0000 0.0000
# 3 12.9789 27.0464 69.5915 0.0000 0.0000 0.0000
# 4 0.0000 0.0000 0.0000 -304.9355 0.0000 0.0000
# 5 0.0000 0.0000 0.0000 0.0000 22.9375 0.0000
# 6 0.0000 0.0000 0.0000 0.0000 0.0000 13.2731
#
#
#
# Elastic Compliance Matrix: (Units=1/GPa)
#
#
# Indices 1 2 3 4 5 6 
#
# 1 0.009471 -0.001768 -0.001079 0.000000 0.000000 0.000000
# 2 -0.001768 0.008300 -0.002896 0.000000 0.000000 0.000000
# 3 -0.001079 -0.002896 0.015696 0.000000 0.000000 0.000000
# 4 0.000000 0.000000 0.000000 -0.003279 0.000000 0.000000
# 5 0.000000 0.000000 0.000000 0.000000 0.043597 0.000000
# 6 0.000000 0.000000 0.000000 0.000000 0.000000 0.075341
#
#
# Mechanical properties :
#
#
# Convention : Reuss Voigt Hill
#
# Bulk Modulus (GPa) = 45.49523 50.55051 48.02287
# Shear Modulus (GPa) = 29.77287 -37.11402 -3.67057
#
# Velocity S-wave (km/s) = 3.73694 -4.17229 -1.31212
# Velocity P-wave (km/s) = 6.32129 0.70682 4.49768
#
# Compressibility (1/GPa) = 0.02198033
#
# Stress axis : x y z
#
# Youngs Moduli (GPa) = 105.59018 120.48254 63.70919
#
# Poissons Ratio (x) = 0.21304 0.06875
# Poissons Ratio (y) = 0.18671 0.18450
# Poissons Ratio (z) = 0.11394 0.34891
#
# Static dielectric constant tensor:
#      x y z
#    x 1.783630 0.000000 0.000000 
#    y 0.000000 1.760750 0.000000 
#    z 0.000000 0.000000 1.863300 
# 
# From -- ./inp_files/31094.got.cif
#   From: 2010.05.17/outbox.cif.g08.bks.cpg/sg51_16_cif.got.tgz:31094.got - 2010.06.03 11:52:47.
