data_PCOD9406651
_publ_section_title
;
Structure prediction by ZEFSAII (Michael W. Deem and Ramdas Pophale) SiO2 
 PCOD9406651
Probable space group: P M M A
;
_chemical_formula_sum "Si O2"
_cell_formula_units_Z 64
_cell_length_a 9.325270
_cell_length_b 24.147988
_cell_length_c 14.537526
_cell_angle_alpha 90.000000
_cell_angle_beta 90.000000
_cell_angle_gamma 90.000000
_cell_volume 3273.654716
_symmetry_space_group_name_H-M "P M M A"
_symmetry_group_IT_number 51
_symmetry_cell_setting 'orthorhombic'
loop_
_space_group_symop_operation_xyz
x,y,z
1/2-x,-y,z
1/2+x,-y,-z
-x,y,-z
-x,-y,-z
1/2+x,y,-z
1/2-x,y,z
x,-y,z
loop_
_atom_site_type_symbol
_atom_site_label
_atom_site_fract_x
_atom_site_fract_y
_atom_site_fract_z
Si Si1 0.421597 0.934706 0.747711
Si Si2 0.469582 0.741023 0.391143
Si Si3 0.418346 0.854538 0.905081
Si Si4 0.922406 0.352942 0.901956
Si Si5 0.088766 0.134082 0.405563
Si Si6 0.587066 0.614870 0.595420
Si Si7 0.081507 0.433867 0.768794
Si Si8 0.409130 0.739944 0.799772
O O1 0.250000 0.925468 0.735808
O O2 0.462504 0.907687 0.845387
O O3 0.506650 0.901882 0.669723
O O4 0.448821 0.000000 0.744229
O O5 0.500000 0.742476 0.500000
O O6 0.402062 0.801399 0.375191
O O7 0.401383 0.680364 0.381128
O O8 0.588179 0.740044 0.310911
O O9 0.250000 0.859152 0.925394
O O10 0.436469 0.800749 0.840368
O O11 0.500000 0.848012 0.000000
O O12 0.750000 0.356569 0.909147
O O13 0.992855 0.405547 0.850948
O O14 0.971491 0.301037 0.839363
O O15 0.000000 0.346214 0.000000
O O16 0.250000 0.113527 0.420076
O O17 0.000000 0.131862 0.500000
O O18 0.500000 0.609382 0.500000
O O19 0.750000 0.593063 0.588322
O O20 0.495559 0.586132 0.675408
O O21 0.250000 0.416884 0.770006
O O22 0.076153 0.500000 0.775035
O O23 0.250000 0.722218 0.831223
#
# Coordination Sequence:
#
# PCOD9406651 Si02
#       8
#     8   8   8   8   8   8   8   8
#     4  10  22  42  64  86 118 162 212 263 316 373
#     4  10  22  37  62  98 133 167 205 249 306 371
#     4  10  22  40  62  92 123 161 205 254 315 373
#     4  12  26  44  68  97 130 166 211 260 318 382
#     4  11  23  39  62  92 128 165 207 254 308 375
#     4  11  23  40  64  95 131 170 212 257 312 377
#     4  11  25  45  68  94 126 167 216 267 320 374
#     4  11  22  40  67  95 131 171 208 255 312 375
#
# _framework density 19.550015999999999
#
# number of rings (size 3 to 8) (size 9 to 14) (size 15 to 20)
#    0.000    1.250    2.500    3.000    0.000    8.750 
#    0.000    0.000    0.000    0.000    0.000    0.000 
#    0.000    0.000    0.000    0.000    0.000    0.000 
#
# Total GULP energy -357122.267670 kJ/mol
# GULP energy per Si atom -5580.035432 kJ/mol
# Density = 1.950552 g / cm^3
# Si number density = 19.550016 Si / 1000 Ang^3
#
#
#
# Elastic Constant Matrix: (Units=GPa)
#
#
# Indices 1 2 3 4 5 6 
#
# 1 142.4228 44.8588 62.0321 0.0000 0.0000 0.0000
# 2 44.8588 85.7235 25.8854 0.0000 0.0000 0.0000
# 3 62.0321 25.8854 118.3771 0.0000 0.0000 0.0000
# 4 0.0000 0.0000 0.0000 8.2795 0.0000 0.0000
# 5 0.0000 0.0000 0.0000 0.0000 13.9848 0.0000
# 6 0.0000 0.0000 0.0000 0.0000 0.0000 -32.9984
#
#
#
# Elastic Compliance Matrix: (Units=1/GPa)
#
#
# Indices 1 2 3 4 5 6 
#
# 1 0.010237 -0.004001 -0.004489 0.000000 0.000000 0.000000
# 2 -0.004001 0.014054 -0.000976 0.000000 0.000000 0.000000
# 3 -0.004489 -0.000976 0.011014 0.000000 0.000000 0.000000
# 4 0.000000 0.000000 0.000000 0.120780 0.000000 0.000000
# 5 0.000000 0.000000 0.000000 0.000000 0.071506 0.000000
# 6 0.000000 0.000000 0.000000 0.000000 0.000000 -0.030304
#
#
# Mechanical properties :
#
#
# Convention : Reuss Voigt Hill
#
# Bulk Modulus (GPa) = 61.08584 68.00845 64.54714
# Shear Modulus (GPa) = 22.55533 12.10300 17.32916
#
# Velocity S-wave (km/s) = 3.40034 2.49083 2.98048
# Velocity P-wave (km/s) = 6.83595 6.56770 6.70317
#
# Compressibility (1/GPa) = 0.01637041
#
# Stress axis : x y z
#
# Youngs Moduli (GPa) = 97.68471 71.15336 90.79642
#
# Poissons Ratio (x) = 0.28471 0.40762
# Poissons Ratio (y) = 0.39087 0.08866
# Poissons Ratio (z) = 0.43855 0.06948
#
# Static dielectric constant tensor:
#      x y z
#    x 1.691210 0.000000 0.000000 
#    y 0.000000 1.677850 0.000000 
#    z 0.000000 0.000000 1.691340 
# 
# From -- ./inp_files/22392.got.cif
#   From: 2010.05.17/outbox.cif.g08.bks.cpg/sg51_12_cif.got.tgz:22392.got - 2010.06.03 11:52:47.
