data_PCOD9406308
_publ_section_title
;
Structure prediction by ZEFSAII (Michael W. Deem and Ramdas Pophale) SiO2 
 PCOD9406308
Probable space group: P M M A
;
_chemical_formula_sum "Si O2"
_cell_formula_units_Z 44
_cell_length_a 10.401593
_cell_length_b 7.957142
_cell_length_c 28.801185
_cell_angle_alpha 90.000000
_cell_angle_beta 90.000000
_cell_angle_gamma 90.000000
_cell_volume 2383.786312
_symmetry_space_group_name_H-M "P M M A"
_symmetry_group_IT_number 51
_symmetry_cell_setting 'orthorhombic'
loop_
_space_group_symop_operation_xyz
x,y,z
1/2-x,-y,z
1/2+x,-y,-z
-x,y,-z
-x,-y,-z
1/2+x,y,-z
1/2-x,y,z
x,-y,z
loop_
_atom_site_type_symbol
_atom_site_label
_atom_site_fract_x
_atom_site_fract_y
_atom_site_fract_z
Si Si1 0.599826 0.296203 0.310032
Si Si2 0.750000 0.797774 0.053314
Si Si3 0.996825 0.300883 0.890422
Si Si4 0.750000 0.802836 0.948404
Si Si5 0.400009 0.500000 0.458103
Si Si6 0.101154 0.808253 0.387611
Si Si7 0.898474 0.705020 0.204762
O O1 0.750000 0.252149 0.318899
O O2 0.591609 0.500000 0.312405
O O3 0.500654 0.221287 0.346633
O O4 0.567993 0.243358 0.257108
O O5 0.624316 0.739542 0.080611
O O6 0.750000 0.000000 0.053015
O O7 0.750000 0.729210 0.000503
O O8 0.984819 0.500000 0.886356
O O9 0.874952 0.240100 0.918820
O O10 0.015576 0.233575 0.837972
O O11 0.750000 0.000000 0.955690
O O12 0.250000 0.500000 0.473432
O O13 0.500000 0.500000 0.500000
O O14 0.419789 0.334428 0.426374
O O15 0.250000 0.788117 0.371485
O O16 0.087899 0.000000 0.405106
O O17 0.750000 0.753464 0.195866
O O18 0.900810 0.500000 0.204858
#
# Coordination Sequence:
#
# PCOD9406308 Si02
#       7
#     8   4   8   4   4   8   8
#     4   9  17  32  58  86 113 150 194 237 288 349
#     4  11  23  39  59  79 105 147 183 219 287 356
#     4  11  21  37  61  84 107 137 184 237 282 335
#     4  11  25  41  53  75 113 147 179 225 287 352
#     4  10  22  40  62  88 122 162 204 248 297 346
#     4  10  21  38  59  86 122 161 202 245 292 350
#     4   8  15  31  55  83 111 141 180 231 287 342
#
# _framework density 18.458029
#
# number of rings (size 3 to 8) (size 9 to 14) (size 15 to 20)
#    0.000    2.182    1.818    2.727    0.000    5.091 
#    1.636    1.818    0.000    0.000    0.000    0.000 
#    0.000    0.000    0.000    0.000    0.000    0.000 
#
# Total GULP energy -245482.740719 kJ/mol
# GULP energy per Si atom -5579.153198 kJ/mol
# Density = 1.841602 g / cm^3
# Si number density = 18.458029 Si / 1000 Ang^3
#
#
#
# Elastic Constant Matrix: (Units=GPa)
#
#
# Indices 1 2 3 4 5 6 
#
# 1 115.4198 22.8615 84.9815 0.0000 0.0000 0.0000
# 2 22.8615 59.3618 36.1565 0.0000 0.0000 0.0000
# 3 84.9815 36.1565 136.3016 0.0000 0.0000 0.0000
# 4 0.0000 0.0000 0.0000 490.4346 0.0000 0.0000
# 5 0.0000 0.0000 0.0000 0.0000 18.5303 0.0000
# 6 0.0000 0.0000 0.0000 0.0000 0.0000 28.0197
#
#
#
# Elastic Compliance Matrix: (Units=1/GPa)
#
#
# Indices 1 2 3 4 5 6 
#
# 1 0.016017 -0.000103 -0.009959 0.000000 0.000000 0.000000
# 2 -0.000103 0.020093 -0.005266 0.000000 0.000000 0.000000
# 3 -0.009959 -0.005266 0.014943 0.000000 0.000000 0.000000
# 4 0.000000 0.000000 0.000000 0.002039 0.000000 0.000000
# 5 0.000000 0.000000 0.000000 0.000000 0.053966 0.000000
# 6 0.000000 0.000000 0.000000 0.000000 0.000000 0.035689
#
#
# Mechanical properties :
#
#
# Convention : Reuss Voigt Hill
#
# Bulk Modulus (GPa) = 49.02597 66.56466 57.79531
# Shear Modulus (GPa) = 27.74675 118.53583 73.14129
#
# Velocity S-wave (km/s) = 3.88136 8.02238 6.30173
# Velocity P-wave (km/s) = 6.83411 11.04320 9.18307
#
# Compressibility (1/GPa) = 0.02039735
#
# Stress axis : x y z
#
# Youngs Moduli (GPa) = 62.43341 49.76903 66.92130
#
# Poissons Ratio (x) = 0.00510 0.66648
# Poissons Ratio (y) = 0.00640 0.35241
# Poissons Ratio (z) = 0.62178 0.26209
#
# Static dielectric constant tensor:
#      x y z
#    x 1.606750 0.000000 0.000000 
#    y 0.000000 1.662740 0.000000 
#    z 0.000000 0.000000 1.643900 
# 
# From -- ./inp_files/36837.got.cif
#   From: 2010.05.17/outbox.cif.g08.bks.cpg/sg51_19_cif.got.tgz:36837.got - 2010.06.03 11:52:47.
