data_PCOD9406415
_publ_section_title
;
Structure prediction by ZEFSAII (Michael W. Deem and Ramdas Pophale) SiO2 
 PCOD9406415
Probable space group: P M M A
;
_chemical_formula_sum "Si O2"
_cell_formula_units_Z 52
_cell_length_a 8.242535
_cell_length_b 16.374261
_cell_length_c 17.423617
_cell_angle_alpha 90.000000
_cell_angle_beta 90.000000
_cell_angle_gamma 90.000000
_cell_volume 2351.585776
_symmetry_space_group_name_H-M "P M M A"
_symmetry_group_IT_number 51
_symmetry_cell_setting 'orthorhombic'
loop_
_space_group_symop_operation_xyz
x,y,z
1/2-x,-y,z
1/2+x,-y,-z
-x,y,-z
-x,-y,-z
1/2+x,y,-z
1/2-x,y,z
x,-y,z
loop_
_atom_site_type_symbol
_atom_site_label
_atom_site_fract_x
_atom_site_fract_y
_atom_site_fract_z
Si Si1 0.945592 0.092377 0.796591
Si Si2 0.059256 0.591621 0.135658
Si Si3 0.556449 0.500000 0.586604
Si Si4 0.553921 0.767508 0.916006
Si Si5 0.936707 0.364155 0.299694
Si Si6 0.932713 0.746108 0.581674
Si Si7 0.437636 0.906960 0.622407
O O1 0.750000 0.099587 0.785787
O O2 0.998135 0.166431 0.852069
O O3 0.028698 0.096918 0.713778
O O4 0.976167 0.000000 0.827593
O O5 0.250000 0.587835 0.116726
O O6 0.991093 0.500000 0.119661
O O7 0.990999 0.674380 0.097277
O O8 0.040391 0.610924 0.226141
O O9 0.750000 0.500000 0.591934
O O10 0.500000 0.500000 0.500000
O O11 0.482379 0.575965 0.631491
O O12 0.750000 0.764281 0.912158
O O13 0.500000 0.794646 0.000000
O O14 0.750000 0.371719 0.277487
O O15 0.972296 0.278982 0.341142
O O16 0.750000 0.716625 0.590297
O O17 0.000000 0.715844 0.500000
O O18 0.945188 0.843411 0.581726
O O19 0.250000 0.885177 0.606917
O O20 0.465999 0.000000 0.598857
#
# Coordination Sequence:
#
# PCOD9406415 Si02
#       7
#     8   8   4   8   8   8   8
#     4   9  18  35  59  86 118 157 200 244 296 361
#     4  10  21  39  62  86 116 156 201 248 302 364
#     4  12  24  40  60  86 121 158 195 240 294 352
#     4  10  22  38  57  85 119 156 198 246 301 360
#     4  12  24  40  62  90 119 151 197 248 299 357
#     4  12  25  41  60  84 118 160 203 249 304 361
#     4  10  21  38  61  90 121 154 198 251 303 357
#
# _framework density 22.112739999999999
#
# number of rings (size 3 to 8) (size 9 to 14) (size 15 to 20)
#    0.000    1.385    0.769    5.308    0.000    4.308 
#    0.000    0.000    0.000    0.000    0.000    0.000 
#    0.000    0.000    0.000    0.000    0.000    0.000 
#
# Total GULP energy -290572.882740 kJ/mol
# GULP energy per Si atom -5587.940053 kJ/mol
# Density = 2.206241 g / cm^3
# Si number density = 22.112740 Si / 1000 Ang^3
#
#
#
# Elastic Constant Matrix: (Units=GPa)
#
#
# Indices 1 2 3 4 5 6 
#
# 1 30.0805 14.4916 -13.1264 0.0000 0.0000 0.0000
# 2 14.4916 99.4630 5.3153 0.0000 0.0000 0.0000
# 3 -13.1264 5.3153 50.8695 0.0000 0.0000 0.0000
# 4 0.0000 0.0000 0.0000 32.6510 0.0000 0.0000
# 5 0.0000 0.0000 0.0000 0.0000 24.8977 0.0000
# 6 0.0000 0.0000 0.0000 0.0000 0.0000 17.0019
#
#
#
# Elastic Compliance Matrix: (Units=1/GPa)
#
#
# Indices 1 2 3 4 5 6 
#
# 1 0.041409 -0.006641 0.011379 0.000000 0.000000 0.000000
# 2 -0.006641 0.011176 -0.002881 0.000000 0.000000 0.000000
# 3 0.011379 -0.002881 0.022896 0.000000 0.000000 0.000000
# 4 0.000000 0.000000 0.000000 0.030627 0.000000 0.000000
# 5 0.000000 0.000000 0.000000 0.000000 0.040164 0.000000
# 6 0.000000 0.000000 0.000000 0.000000 0.000000 0.058817
#
#
# Mechanical properties :
#
#
# Convention : Reuss Voigt Hill
#
# Bulk Modulus (GPa) = 12.62733 21.53046 17.07890
# Shear Modulus (GPa) = 21.95160 26.49228 24.22194
#
# Velocity S-wave (km/s) = 3.15415 3.46505 3.31325
# Velocity P-wave (km/s) = 4.35749 5.07608 4.73045
#
# Compressibility (1/GPa) = 0.07919330
#
# Stress axis : x y z
#
# Youngs Moduli (GPa) = 24.14912 89.48046 43.67663
#
# Poissons Ratio (x) = 0.59428 -0.49701
# Poissons Ratio (y) = 0.16038 0.12585
# Poissons Ratio (z) = -0.27480 0.25784
#
# Static dielectric constant tensor:
#      x y z
#    x 1.774540 0.000000 0.000000 
#    y 0.000000 1.776330 0.000000 
#    z 0.000000 0.000000 1.756710 
# 
# From -- ./inp_files/27924.got.cif
#   From: 2010.05.17/outbox.cif.g08.bks.cpg/sg51_14_cif.got.tgz:27924.got - 2010.06.03 11:52:47.
