data_PCOD9406408
_publ_section_title
;
Structure prediction by ZEFSAII (Michael W. Deem and Ramdas Pophale) SiO2 
 PCOD9406408
Probable space group: P M M A
;
_chemical_formula_sum "Si O2"
_cell_formula_units_Z 48
_cell_length_a 15.749019
_cell_length_b 8.853746
_cell_length_c 18.177796
_cell_angle_alpha 90.000000
_cell_angle_beta 90.000000
_cell_angle_gamma 90.000000
_cell_volume 2534.672137
_symmetry_space_group_name_H-M "P M M A"
_symmetry_group_IT_number 51
_symmetry_cell_setting 'orthorhombic'
loop_
_space_group_symop_operation_xyz
x,y,z
1/2-x,-y,z
1/2+x,-y,-z
-x,y,-z
-x,-y,-z
1/2+x,y,-z
1/2-x,y,z
x,-y,z
loop_
_atom_site_type_symbol
_atom_site_label
_atom_site_fract_x
_atom_site_fract_y
_atom_site_fract_z
Si Si1 0.411382 0.319579 0.540313
Si Si2 0.250000 0.818365 0.796832
Si Si3 0.409952 0.181028 0.212402
Si Si4 0.750000 0.819578 0.542364
Si Si5 0.750000 0.679642 0.041114
Si Si6 0.083842 0.181221 0.701907
Si Si7 0.412199 0.181720 0.039624
Si Si8 0.750000 0.679614 0.704867
O O1 0.500000 0.282196 0.500000
O O2 0.399756 0.500000 0.537184
O O3 0.333237 0.240252 0.499495
O O4 0.415196 0.264551 0.624211
O O5 0.250000 0.740602 0.875720
O O6 0.333760 0.779241 0.750215
O O7 0.250000 0.000000 0.807948
O O8 0.498334 0.215583 0.253034
O O9 0.415222 0.218321 0.126099
O O10 0.332829 0.266150 0.250999
O O11 0.395635 0.000000 0.218435
O O12 0.750000 0.755979 0.624907
O O13 0.750000 0.000000 0.543464
O O14 0.750000 0.500000 0.040794
O O15 0.832839 0.741351 0.999419
O O16 0.086281 0.000000 0.689083
O O17 0.402885 0.000000 0.032830
O O18 0.500000 0.224337 0.000000
O O19 0.750000 0.500000 0.696651
#
# Coordination Sequence:
#
# PCOD9406408 Si02
#       8
#     8   4   8   4   4   8   8   4
#     4  11  24  41  62  91 126 160 194 238 298 361
#     4  10  21  40  63  87 117 155 201 246 289 346
#     4  10  21  38  61  89 119 154 199 246 293 349
#     4  12  25  42  65  89 117 157 205 252 293 342
#     4  12  25  38  57  89 125 159 195 242 303 362
#     4  10  21  38  63  92 119 153 199 246 291 345
#     4  10  21  40  65  89 116 156 204 250 294 345
#     4  12  25  40  59  85 119 157 197 244 301 358
#
# _framework density 18.937359000000001
#
# number of rings (size 3 to 8) (size 9 to 14) (size 15 to 20)
#    0.000    1.333    0.000    5.750    0.000   11.667 
#    0.000    1.667    0.000    0.000    0.000    0.000 
#    0.000    0.000    0.000    0.000    0.000    0.000 
#
# Total GULP energy -268560.520928 kJ/mol
# GULP energy per Si atom -5595.010853 kJ/mol
# Density = 1.889426 g / cm^3
# Si number density = 18.937359 Si / 1000 Ang^3
#
#
#
# Elastic Constant Matrix: (Units=GPa)
#
#
# Indices 1 2 3 4 5 6 
#
# 1 215.0861 100.6859 126.6881 0.0000 0.0000 0.0000
# 2 100.6859 81.0671 95.9869 0.0000 0.0000 0.0000
# 3 126.6881 95.9869 206.1889 0.0000 0.0000 0.0000
# 4 0.0000 0.0000 0.0000 -30.1102 0.0000 0.0000
# 5 0.0000 0.0000 0.0000 0.0000 41.9786 0.0000
# 6 0.0000 0.0000 0.0000 0.0000 0.0000 -12.0122
#
#
#
# Elastic Compliance Matrix: (Units=1/GPa)
#
#
# Indices 1 2 3 4 5 6 
#
# 1 0.011182 -0.012819 -0.000903 0.000000 0.000000 0.000000
# 2 -0.012819 0.042181 -0.011760 0.000000 0.000000 0.000000
# 3 -0.000903 -0.011760 0.010879 0.000000 0.000000 0.000000
# 4 0.000000 0.000000 0.000000 -0.033211 0.000000 0.000000
# 5 0.000000 0.000000 0.000000 0.000000 0.023822 0.000000
# 6 0.000000 0.000000 0.000000 0.000000 0.000000 -0.083249
#
#
# Mechanical properties :
#
#
# Convention : Reuss Voigt Hill
#
# Bulk Modulus (GPa) = 75.31013 127.67377 101.49195
# Shear Modulus (GPa) = 185.22065 11.90332 98.56199
#
# Velocity S-wave (km/s) = 9.90047 2.50984 7.22214
# Velocity P-wave (km/s) = 13.05936 8.71576 11.10205
#
# Compressibility (1/GPa) = 0.01327843
#
# Stress axis : x y z
#
# Youngs Moduli (GPa) = 89.43028 23.70711 91.91631
#
# Poissons Ratio (x) = 0.30390 0.08299
# Poissons Ratio (y) = 1.14640 1.08097
# Poissons Ratio (z) = 0.08074 0.27880
#
# Static dielectric constant tensor:
#      x y z
#    x 1.621440 0.000000 0.000000 
#    y 0.000000 1.631430 0.000000 
#    z 0.000000 0.000000 1.615840 
# 
# From -- ./inp_files/29678.got.cif
#   From: 2010.05.17/outbox.cif.g08.bks.cpg/sg51_15_cif.got.tgz:29678.got - 2010.06.03 11:52:47.
