data_PCOD9406275
_publ_section_title
;
Structure prediction by ZEFSAII (Michael W. Deem and Ramdas Pophale) SiO2 
 PCOD9406275
Probable space group: P M M A
;
_chemical_formula_sum "Si O2"
_cell_formula_units_Z 56
_cell_length_a 8.363227
_cell_length_b 21.866571
_cell_length_c 15.620422
_cell_angle_alpha 90.000000
_cell_angle_beta 90.000000
_cell_angle_gamma 90.000000
_cell_volume 2856.586188
_symmetry_space_group_name_H-M "P M M A"
_symmetry_group_IT_number 51
_symmetry_cell_setting 'orthorhombic'
loop_
_space_group_symop_operation_xyz
x,y,z
1/2-x,-y,z
1/2+x,-y,-z
-x,y,-z
-x,-y,-z
1/2+x,y,-z
1/2-x,y,z
x,-y,z
loop_
_atom_site_type_symbol
_atom_site_label
_atom_site_fract_x
_atom_site_fract_y
_atom_site_fract_z
Si Si1 0.934005 0.624968 0.673439
Si Si2 0.943216 0.071222 0.404388
Si Si3 0.061916 0.265683 0.585782
Si Si4 0.058210 0.500000 0.597308
Si Si5 0.558557 0.831265 0.266146
Si Si6 0.061497 0.500000 0.096467
Si Si7 0.944389 0.765554 0.093386
Si Si8 0.066152 0.632746 0.851630
O O1 0.750000 0.625424 0.701424
O O2 0.962338 0.672611 0.597795
O O3 0.987045 0.558893 0.643257
O O4 0.047274 0.644772 0.751004
O O5 0.750000 0.076173 0.405274
O O6 0.001798 0.111199 0.322909
O O7 0.000000 0.089698 0.500000
O O8 0.987467 0.000000 0.393323
O O9 0.250000 0.278148 0.579603
O O10 0.033554 0.224517 0.668481
O O11 0.000000 0.234086 0.500000
O O12 0.250000 0.500000 0.601677
O O13 0.000000 0.500000 0.500000
O O14 0.750000 0.840420 0.255978
O O15 0.499861 0.808563 0.172715
O O16 0.250000 0.500000 0.099942
O O17 0.006328 0.565294 0.134489
O O18 0.000000 0.500000 0.000000
O O19 0.750000 0.763773 0.096896
O O20 0.001685 0.694604 0.105382
O O21 0.000000 0.786870 0.000000
O O22 0.250000 0.627713 0.878199
#
# Coordination Sequence:
#
# PCOD9406275 Si02
#       8
#     8   8   8   4   8   4   8   8
#     4  12  24  39  57  80 107 139 182 230 279 341
#     4   9  17  31  55  87 122 159 196 234 279 333
#     4  11  21  36  55  79 111 148 186 229 280 335
#     4  12  25  42  59  76 102 140 186 231 282 341
#     4   9  18  35  56  80 115 153 191 233 282 338
#     4  12  25  40  57  82 110 140 180 233 292 359
#     4  10  21  38  59  82 110 147 190 240 292 344
#     4  11  22  40  61  81 107 143 183 234 297 354
#
# _framework density 19.603819000000001
#
# number of rings (size 3 to 8) (size 9 to 14) (size 15 to 20)
#    0.000    1.429    1.429    5.143    0.000    2.286 
#    0.000    1.429    0.000    0.429    0.000    0.000 
#    0.000    0.000    0.000    0.000    0.000    0.000 
#
# Total GULP energy -312504.628352 kJ/mol
# GULP energy per Si atom -5580.439792 kJ/mol
# Density = 1.955920 g / cm^3
# Si number density = 19.603819 Si / 1000 Ang^3
#
#
#
# Elastic Constant Matrix: (Units=GPa)
#
#
# Indices 1 2 3 4 5 6 
#
# 1 33.6886 23.5361 4.7720 0.0000 0.0000 0.0000
# 2 23.5361 118.1135 50.9330 0.0000 0.0000 0.0000
# 3 4.7720 50.9330 139.1421 0.0000 0.0000 0.0000
# 4 0.0000 0.0000 0.0000 38.3372 0.0000 0.0000
# 5 0.0000 0.0000 0.0000 0.0000 30.7992 0.0000
# 6 0.0000 0.0000 0.0000 0.0000 0.0000 2.2058
#
#
#
# Elastic Compliance Matrix: (Units=1/GPa)
#
#
# Indices 1 2 3 4 5 6 
#
# 1 0.034780 -0.007619 0.001596 0.000000 0.000000 0.000000
# 2 -0.007619 0.011722 -0.004030 0.000000 0.000000 0.000000
# 3 0.001596 -0.004030 0.008607 0.000000 0.000000 0.000000
# 4 0.000000 0.000000 0.000000 0.026084 0.000000 0.000000
# 5 0.000000 0.000000 0.000000 0.000000 0.032468 0.000000
# 6 0.000000 0.000000 0.000000 0.000000 0.000000 0.453349
#
#
# Mechanical properties :
#
#
# Convention : Reuss Voigt Hill
#
# Bulk Modulus (GPa) = 28.56733 49.93626 39.25179
# Shear Modulus (GPa) = 8.35024 28.38197 18.36610
#
# Velocity S-wave (km/s) = 2.06609 3.80909 3.06414
# Velocity P-wave (km/s) = 4.50507 6.69878 5.70829
#
# Compressibility (1/GPa) = 0.03500502
#
# Stress axis : x y z
#
# Youngs Moduli (GPa) = 28.75185 85.30761 116.18155
#
# Poissons Ratio (x) = 0.64994 -0.18543
# Poissons Ratio (y) = 0.21906 0.46817
# Poissons Ratio (z) = -0.04589 0.34376
#
# Static dielectric constant tensor:
#      x y z
#    x 1.691230 0.000000 0.000000 
#    y 0.000000 1.692360 0.000000 
#    z 0.000000 0.000000 1.715500 
# 
# From -- ./inp_files/21909.got.cif
#   From: 2010.05.17/outbox.cif.g08.bks.cpg/sg51_11_cif.got.tgz:21909.got - 2010.06.03 11:52:47.
