data_PCOD9406325
_publ_section_title
;
Structure prediction by ZEFSAII (Michael W. Deem and Ramdas Pophale) SiO2 
 PCOD9406325
Probable space group: P M M A
;
_chemical_formula_sum "Si O2"
_cell_formula_units_Z 40
_cell_length_a 8.738860
_cell_length_b 26.947350
_cell_length_c 9.543493
_cell_angle_alpha 90.000000
_cell_angle_beta 90.000000
_cell_angle_gamma 90.000000
_cell_volume 2247.388759
_symmetry_space_group_name_H-M "P M M A"
_symmetry_group_IT_number 51
_symmetry_cell_setting 'orthorhombic'
loop_
_space_group_symop_operation_xyz
x,y,z
1/2-x,-y,z
1/2+x,-y,-z
-x,y,-z
-x,-y,-z
1/2+x,y,-z
1/2-x,y,z
x,-y,z
loop_
_atom_site_type_symbol
_atom_site_label
_atom_site_fract_x
_atom_site_fract_y
_atom_site_fract_z
Si Si1 0.434204 0.263755 0.843515
Si Si2 0.566870 0.054204 0.841583
Si Si3 0.433186 0.845707 0.841981
Si Si4 0.433034 0.557879 0.153447
Si Si5 0.066106 0.643155 0.655203
O O1 0.250000 0.265184 0.854747
O O2 0.474593 0.208859 0.784900
O O3 0.483641 0.308650 0.744756
O O4 0.500000 0.269277 0.000000
O O5 0.750000 0.058164 0.849673
O O6 0.500491 0.104329 0.774102
O O7 0.528204 0.000000 0.778613
O O8 0.500000 0.053127 0.000000
O O9 0.250000 0.850072 0.847656
O O10 0.500000 0.844525 0.000000
O O11 0.250000 0.563642 0.150927
O O12 0.468252 0.500000 0.182869
O O13 0.505656 0.594523 0.265682
O O14 0.500000 0.569673 0.000000
O O15 0.250000 0.642277 0.650795
O O16 0.000000 0.645588 0.500000
#
# Coordination Sequence:
#
# PCOD9406325 Si02
#       5
#     8   8   8   8   8
#     4   9  19  33  50  72  97 127 164 207 250 296
#     4   9  15  21  30  48  77 112 148 186 230 281
#     4   9  15  24  38  57  82 113 151 192 235 284
#     4  10  21  38  60  85 111 139 172 209 249 295
#     4  11  23  38  55  77 106 138 173 212 256 304
#
# _framework density 17.798431999999998
#
# number of rings (size 3 to 8) (size 9 to 14) (size 15 to 20)
#    0.000    2.400    0.000    4.200    0.000    6.800 
#    0.000    0.000    0.000    0.000    0.000    0.000 
#    0.000    0.800    0.000    1.800    0.000   10.200 
#
# Total GULP energy -222932.887095 kJ/mol
# GULP energy per Si atom -5573.322177 kJ/mol
# Density = 1.775792 g / cm^3
# Si number density = 17.798432 Si / 1000 Ang^3
#
#
#
# Elastic Constant Matrix: (Units=GPa)
#
#
# Indices 1 2 3 4 5 6 
#
# 1 55.6938 54.4864 28.3804 0.0000 0.0000 0.0000
# 2 54.4864 160.8717 82.7959 0.0000 0.0000 0.0000
# 3 28.3804 82.7959 72.4023 0.0000 0.0000 0.0000
# 4 0.0000 0.0000 0.0000 -4.3345 0.0000 0.0000
# 5 0.0000 0.0000 0.0000 0.0000 20.4587 0.0000
# 6 0.0000 0.0000 0.0000 0.0000 0.0000 6.1988
#
#
#
# Elastic Compliance Matrix: (Units=1/GPa)
#
#
# Indices 1 2 3 4 5 6 
#
# 1 0.026856 -0.008939 -0.000305 0.000000 0.000000 0.000000
# 2 -0.008939 0.018083 -0.017175 0.000000 0.000000 0.000000
# 3 -0.000305 -0.017175 0.033572 0.000000 0.000000 0.000000
# 4 0.000000 0.000000 0.000000 -0.230706 0.000000 0.000000
# 5 0.000000 0.000000 0.000000 0.000000 0.048879 0.000000
# 6 0.000000 0.000000 0.000000 0.000000 0.000000 0.161321
#
#
# Mechanical properties :
#
#
# Convention : Reuss Voigt Hill
#
# Bulk Modulus (GPa) = 38.95132 68.92145 53.93639
# Shear Modulus (GPa) = 41.87572 12.68495 27.28033
#
# Velocity S-wave (km/s) = 4.85580 2.67254 3.91927
# Velocity P-wave (km/s) = 7.30552 6.95203 7.13097
#
# Compressibility (1/GPa) = 0.02567307
#
# Stress axis : x y z
#
# Youngs Moduli (GPa) = 37.23577 55.29927 29.78669
#
# Poissons Ratio (x) = 0.49433 0.00907
# Poissons Ratio (y) = 0.33286 0.51160
# Poissons Ratio (z) = 0.01134 0.94978
#
# Static dielectric constant tensor:
#      x y z
#    x 1.596910 0.000000 0.000000 
#    y 0.000000 1.683300 0.000000 
#    z 0.000000 0.000000 1.554720 
# 
# From -- ./inp_files/5489.got.cif
#   From: 2010.05.17/outbox.cif.g08.bks.cpg/sg51_3_cif.got.tgz:5489.got - 2010.06.03 11:52:47.
