data_PCOD9406828
_publ_section_title
;
Structure prediction by ZEFSAII (Michael W. Deem and Ramdas Pophale) SiO2 
 PCOD9406828
Probable space group: P M M A
;
_chemical_formula_sum "Si O2"
_cell_formula_units_Z 32
_cell_length_a 18.417003
_cell_length_b 13.778246
_cell_length_c 5.447219
_cell_angle_alpha 90.000000
_cell_angle_beta 90.000000
_cell_angle_gamma 90.000000
_cell_volume 1382.253599
_symmetry_space_group_name_H-M "P M M A"
_symmetry_group_IT_number 51
_symmetry_cell_setting 'orthorhombic'
loop_
_space_group_symop_operation_xyz
x,y,z
1/2-x,-y,z
1/2+x,-y,-z
-x,y,-z
-x,-y,-z
1/2+x,y,-z
1/2-x,y,z
x,-y,z
loop_
_atom_site_type_symbol
_atom_site_label
_atom_site_fract_x
_atom_site_fract_y
_atom_site_fract_z
Si Si1 0.891198 0.214285 0.246901
Si Si2 0.475956 0.651425 0.247168
Si Si3 0.167630 0.614154 0.476487
Si Si4 0.836455 0.115879 0.746489
O O1 0.848309 0.315806 0.293213
O O2 0.872182 0.152910 0.491406
O O3 0.975199 0.249953 0.245590
O O4 0.868932 0.161206 0.997282
O O5 0.500000 0.603644 0.500000
O O6 0.389900 0.651490 0.274922
O O7 0.500000 0.602194 0.000000
O O8 0.250000 0.627000 0.395159
O O9 0.156709 0.500000 0.526325
O O10 0.750000 0.137665 0.735862
O O11 0.845064 0.000000 0.759728
#
# Coordination Sequence:
#
# PCOD9406828 Si02
#       4
#     8   8   8   8
#     4  11  22  40  68 101 139 179 224 275 335 407
#     4  10  22  41  66  93 133 179 222 268 329 394
#     4  10  22  42  70 103 137 178 229 281 336 401
#     4  11  23  41  69 104 140 180 227 282 343 401
#
# _framework density 23.150597999999999
#
# number of rings (size 3 to 8) (size 9 to 14) (size 15 to 20)
#    0.000    1.500    0.000    6.000    0.000    7.000 
#    0.000   12.500    0.000   93.000    0.000    0.000 
#    0.000    0.000    0.000    0.000    0.000    0.000 
#
# Total GULP energy -178675.661810 kJ/mol
# GULP energy per Si atom -5583.614432 kJ/mol
# Density = 2.309791 g / cm^3
# Si number density = 23.150598 Si / 1000 Ang^3
#
#
#
# Elastic Constant Matrix: (Units=GPa)
#
#
# Indices 1 2 3 4 5 6 
#
# 1 187.5294 63.0210 79.6881 0.0000 0.0000 0.0000
# 2 63.0210 178.9022 89.0381 0.0000 0.0000 0.0000
# 3 79.6881 89.0381 237.5233 0.0000 0.0000 0.0000
# 4 0.0000 0.0000 0.0000 -50.8546 0.0000 0.0000
# 5 0.0000 0.0000 0.0000 0.0000 31.8657 0.0000
# 6 0.0000 0.0000 0.0000 0.0000 0.0000 74.4134
#
#
#
# Elastic Compliance Matrix: (Units=1/GPa)
#
#
# Indices 1 2 3 4 5 6 
#
# 1 0.006526 -0.001486 -0.001632 0.000000 0.000000 0.000000
# 2 -0.001486 0.007210 -0.002204 0.000000 0.000000 0.000000
# 3 -0.001632 -0.002204 0.005584 0.000000 0.000000 0.000000
# 4 0.000000 0.000000 0.000000 -0.019664 0.000000 0.000000
# 5 0.000000 0.000000 0.000000 0.000000 0.031382 0.000000
# 6 0.000000 0.000000 0.000000 0.000000 0.000000 0.013438
#
#
# Mechanical properties :
#
#
# Convention : Reuss Voigt Hill
#
# Bulk Modulus (GPa) = 115.28206 118.60545 116.94375
# Shear Modulus (GPa) = 86.18782 35.89874 61.04328
#
# Velocity S-wave (km/s) = 6.10819 3.94212 5.14054
# Velocity P-wave (km/s) = 9.98255 8.48904 9.26593
#
# Compressibility (1/GPa) = 0.00867438
#
# Stress axis : x y z
#
# Youngs Moduli (GPa) = 153.24337 138.69135 179.08576
#
# Poissons Ratio (x) = 0.20616 0.29228
# Poissons Ratio (y) = 0.22779 0.39473
# Poissons Ratio (z) = 0.25011 0.30570
#
# Static dielectric constant tensor:
#      x y z
#    x 1.930000 0.000000 0.000000 
#    y 0.000000 1.877580 0.000000 
#    z 0.000000 0.000000 1.894180 
# 
# From -- ./inp_files/1835.got.cif
#   From: 2010.05.17/outbox.cif.g08.bks.cpg/sg51_1_cif.got.tgz:1835.got - 2010.06.03 11:52:47.
