data_PCOD9406337
_publ_section_title
;
Structure prediction by ZEFSAII (Michael W. Deem and Ramdas Pophale) SiO2 
 PCOD9406337
Probable space group: P M M A
;
_chemical_formula_sum "Si O2"
_cell_formula_units_Z 64
_cell_length_a 9.085917
_cell_length_b 14.253329
_cell_length_c 26.652606
_cell_angle_alpha 90.000000
_cell_angle_beta 90.000000
_cell_angle_gamma 90.000000
_cell_volume 3451.634127
_symmetry_space_group_name_H-M "P M M A"
_symmetry_group_IT_number 51
_symmetry_cell_setting 'orthorhombic'
loop_
_space_group_symop_operation_xyz
x,y,z
1/2-x,-y,z
1/2+x,-y,-z
-x,y,-z
-x,-y,-z
1/2+x,y,-z
1/2-x,y,z
x,-y,z
loop_
_atom_site_type_symbol
_atom_site_label
_atom_site_fract_x
_atom_site_fract_y
_atom_site_fract_z
Si Si1 0.926972 0.110179 0.089162
Si Si2 0.075138 0.710766 0.050224
Si Si3 0.926260 0.893837 0.695414
Si Si4 0.423667 0.387711 0.552367
Si Si5 0.922162 0.386740 0.143572
Si Si6 0.573759 0.707017 0.647618
Si Si7 0.584118 0.113775 0.203490
Si Si8 0.076761 0.612955 0.742613
O O1 0.750000 0.121177 0.082782
O O2 0.962127 0.137064 0.147102
O O3 0.017136 0.182560 0.056207
O O4 0.960889 0.000000 0.081259
O O5 0.250000 0.707647 0.046245
O O6 0.018296 0.656895 0.099557
O O7 0.000000 0.670873 0.000000
O O8 0.750000 0.896666 0.697694
O O9 0.967726 0.816350 0.654770
O O10 0.984433 0.860871 0.749664
O O11 0.980178 0.000000 0.685966
O O12 0.500000 0.360773 0.500000
O O13 0.250000 0.368095 0.550476
O O14 0.442470 0.500000 0.558429
O O15 0.497666 0.337703 0.599499
O O16 0.750000 0.360958 0.135956
O O17 0.931113 0.500000 0.141978
O O18 0.963384 0.357203 0.200469
O O19 0.750000 0.698743 0.643761
O O20 0.518057 0.656521 0.698246
O O21 0.750000 0.148729 0.211630
O O22 0.589629 0.000000 0.203223
O O23 0.250000 0.634824 0.734933
O O24 0.063229 0.500000 0.740804
#
# Coordination Sequence:
#
# PCOD9406337 Si02
#       8
#     8   8   8   8   8   8   8   8
#     4   9  19  37  59  82 110 143 180 225 277 333
#     4  12  26  41  59  82 109 141 182 229 279 338
#     4   9  19  34  49  71 110 154 192 231 274 320
#     4  10  21  38  60  85 115 151 190 233 283 336
#     4   9  20  41  65  85 109 143 182 227 281 338
#     4  11  22  33  52  84 118 153 193 234 278 325
#     4   8  15  29  50  75 101 134 177 221 266 319
#     4   9  19  36  57  82 113 148 182 219 271 334
#
# _framework density 18.541943
#
# number of rings (size 3 to 8) (size 9 to 14) (size 15 to 20)
#    0.000    2.375    0.000    3.750    1.750    5.500 
#    0.000    2.500    0.000    0.375    0.000    0.000 
#    0.000    0.000    0.000    0.000    0.000    0.000 
#
# Total GULP energy -357331.255460 kJ/mol
# GULP energy per Si atom -5583.300867 kJ/mol
# Density = 1.849974 g / cm^3
# Si number density = 18.541943 Si / 1000 Ang^3
#
#
#
# Elastic Constant Matrix: (Units=GPa)
#
#
# Indices 1 2 3 4 5 6 
#
# 1 76.9521 45.5081 78.5216 0.0000 0.0000 0.0000
# 2 45.5081 63.9521 57.2696 0.0000 0.0000 0.0000
# 3 78.5216 57.2696 150.2526 0.0000 0.0000 0.0000
# 4 0.0000 0.0000 0.0000 30.6232 0.0000 0.0000
# 5 0.0000 0.0000 0.0000 0.0000 33.3037 0.0000
# 6 0.0000 0.0000 0.0000 0.0000 0.0000 25.1021
#
#
#
# Elastic Compliance Matrix: (Units=1/GPa)
#
#
# Indices 1 2 3 4 5 6 
#
# 1 0.033162 -0.012265 -0.012656 0.000000 0.000000 0.000000
# 2 -0.012265 0.028276 -0.004368 0.000000 0.000000 0.000000
# 3 -0.012656 -0.004368 0.014934 0.000000 0.000000 0.000000
# 4 0.000000 0.000000 0.000000 0.032655 0.000000 0.000000
# 5 0.000000 0.000000 0.000000 0.000000 0.030027 0.000000
# 6 0.000000 0.000000 0.000000 0.000000 0.000000 0.039837
#
#
# Mechanical properties :
#
#
# Convention : Reuss Voigt Hill
#
# Bulk Modulus (GPa) = 56.19465 72.63948 64.41706
# Shear Modulus (GPa) = 20.54240 25.12962 22.83601
#
# Velocity S-wave (km/s) = 3.33211 3.68541 3.51320
# Velocity P-wave (km/s) = 6.72134 7.57433 7.16055
#
# Compressibility (1/GPa) = 0.01779529
#
# Stress axis : x y z
#
# Youngs Moduli (GPa) = 30.15506 35.36601 66.96091
#
# Poissons Ratio (x) = 0.43375 0.84743
# Poissons Ratio (y) = 0.36984 0.29248
# Poissons Ratio (z) = 0.38163 0.15448
#
# Static dielectric constant tensor:
#      x y z
#    x 1.613320 0.000000 0.000000 
#    y 0.000000 1.683010 0.000000 
#    z 0.000000 0.000000 1.623550 
# 
# From -- ./inp_files/34843.got.cif
#   From: 2010.05.17/outbox.cif.g08.bks.cpg/sg51_18_cif.got.tgz:34843.got - 2010.06.03 11:52:47.
