data_PCOD9406704
_publ_section_title
;
Structure prediction by ZEFSAII (Michael W. Deem and Ramdas Pophale) SiO2 
 PCOD9406704
Probable space group: P M M A
;
_chemical_formula_sum "Si O2"
_cell_formula_units_Z 34
_cell_length_a 14.429933
_cell_length_b 22.512511
_cell_length_c 4.978936
_cell_angle_alpha 90.000000
_cell_angle_beta 90.000000
_cell_angle_gamma 90.000000
_cell_volume 1617.427402
_symmetry_space_group_name_H-M "P M M A"
_symmetry_group_IT_number 51
_symmetry_cell_setting 'orthorhombic'
loop_
_space_group_symop_operation_xyz
x,y,z
1/2-x,-y,z
1/2+x,-y,-z
-x,y,-z
-x,-y,-z
1/2+x,y,-z
1/2-x,y,z
x,-y,z
loop_
_atom_site_type_symbol
_atom_site_label
_atom_site_fract_x
_atom_site_fract_y
_atom_site_fract_z
Si Si1 0.750000 0.720477 0.220937
Si Si2 0.750000 0.357920 0.730281
Si Si3 0.609652 0.185295 0.993268
Si Si4 0.564427 0.568277 0.759705
Si Si5 0.610551 0.108630 0.490751
Si Si6 0.250000 0.000000 0.419471
O O1 0.750000 0.698555 0.527523
O O2 0.836555 0.759697 0.119781
O O3 0.750000 0.662261 0.038603
O O4 0.843472 0.395316 0.694578
O O5 0.631479 0.130021 0.189733
O O6 0.500000 0.196688 0.000000
O O7 0.632426 0.163066 0.694214
O O8 0.500000 0.567327 0.500000
O O9 0.589733 0.500000 0.831879
O O10 0.500000 0.592840 0.000000
O O11 0.500000 0.097453 0.500000
O O12 0.669665 0.052106 0.569788
#
# Coordination Sequence:
#
# PCOD9406704 Si02
#       6
#     4   4   8   8   8   2
#     4  12  24  38  61  91 120 160 204 252 312 356
#     4  12  25  39  62  98 131 155 206 270 308 358
#     4  10  22  42  60  80 115 160 202 241 293 367
#     4  10  22  42  66  91 126 171 209 247 308 375
#     4  10  22  38  59  84 113 150 194 240 297 364
#     4  12  22  36  60  88 118 142 182 250 306 360
#
# _framework density 21.021037
#
# number of rings (size 3 to 8) (size 9 to 14) (size 15 to 20)
#    0.000    1.412    0.000    4.941    0.000    4.706 
#    0.000    8.235    0.000    0.000    0.000    0.000 
#    0.000    0.000    0.000    0.000    0.000    0.000 
#
# Total GULP energy -189487.404650 kJ/mol
# GULP energy per Si atom -5573.158960 kJ/mol
# Density = 2.097319 g / cm^3
# Si number density = 21.021037 Si / 1000 Ang^3
#
#
#
# Elastic Constant Matrix: (Units=GPa)
#
#
# Indices 1 2 3 4 5 6 
#
# 1 137.9392 56.9154 18.9784 0.0000 0.0000 0.0000
# 2 56.9154 70.4037 -2.3445 0.0000 0.0000 0.0000
# 3 18.9784 -2.3445 84.9564 0.0000 0.0000 0.0000
# 4 0.0000 0.0000 0.0000 -38.9453 0.0000 0.0000
# 5 0.0000 0.0000 0.0000 0.0000 14.4846 0.0000
# 6 0.0000 0.0000 0.0000 0.0000 0.0000 -41.4540
#
#
#
# Elastic Compliance Matrix: (Units=1/GPa)
#
#
# Indices 1 2 3 4 5 6 
#
# 1 0.011521 -0.009408 -0.002833 0.000000 0.000000 0.000000
# 2 -0.009408 0.021900 0.002706 0.000000 0.000000 0.000000
# 3 -0.002833 0.002706 0.012478 0.000000 0.000000 0.000000
# 4 0.000000 0.000000 0.000000 -0.025677 0.000000 0.000000
# 5 0.000000 0.000000 0.000000 0.000000 0.069039 0.000000
# 6 0.000000 0.000000 0.000000 0.000000 0.000000 -0.024123
#
#
# Mechanical properties :
#
#
# Convention : Reuss Voigt Hill
#
# Bulk Modulus (GPa) = 37.27427 48.93309 43.10368
# Shear Modulus (GPa) = 53.67541 1.46707 27.57124
#
# Velocity S-wave (km/s) = 5.05861 0.83631 3.62553
# Velocity P-wave (km/s) = 7.20346 4.92557 6.17054
#
# Compressibility (1/GPa) = 0.02682816
#
# Stress axis : x y z
#
# Youngs Moduli (GPa) = 86.79458 45.66237 80.13860
#
# Poissons Ratio (x) = 0.42961 0.22707
# Poissons Ratio (y) = 0.81660 -0.21686
# Poissons Ratio (z) = 0.24592 -0.12357
#
# Static dielectric constant tensor:
#      x y z
#    x 1.743350 0.000000 0.000000 
#    y 0.000000 1.734810 0.000000 
#    z 0.000000 0.000000 1.749460 
# 
# From -- ./inp_files/1399.got.cif
#   From: 2010.05.17/outbox.cif.g08.bks.cpg/sg51_1_cif.got.tgz:1399.got - 2010.06.03 11:52:47.
