data_PCOD9406068
_publ_section_title
;
Structure prediction by ZEFSAII (Michael W. Deem and Ramdas Pophale) SiO2 
 PCOD9406068
Probable space group: P M M A
;
_chemical_formula_sum "Si O2"
_cell_formula_units_Z 48
_cell_length_a 8.957507
_cell_length_b 9.139262
_cell_length_c 31.606037
_cell_angle_alpha 90.000000
_cell_angle_beta 90.000000
_cell_angle_gamma 90.000000
_cell_volume 2587.428325
_symmetry_space_group_name_H-M "P M M A"
_symmetry_group_IT_number 51
_symmetry_cell_setting 'orthorhombic'
loop_
_space_group_symop_operation_xyz
x,y,z
1/2-x,-y,z
1/2+x,-y,-z
-x,y,-z
-x,-y,-z
1/2+x,y,-z
1/2-x,y,z
x,-y,z
loop_
_atom_site_type_symbol
_atom_site_label
_atom_site_fract_x
_atom_site_fract_y
_atom_site_fract_z
Si Si1 0.570780 0.671116 0.955856
Si Si2 0.070408 0.172293 0.130735
Si Si3 0.571712 0.327096 0.211458
Si Si4 0.928420 0.826697 0.707226
Si Si5 0.427940 0.326507 0.625847
Si Si6 0.072725 0.174297 0.454913
O O1 0.750000 0.679175 0.959417
O O2 0.529954 0.500000 0.949669
O O3 0.525428 0.762960 0.914825
O O4 0.500000 0.721282 0.000000
O O5 0.250000 0.191300 0.134817
O O6 0.990899 0.257526 0.168478
O O7 0.038073 0.000000 0.133199
O O8 0.750000 0.308364 0.213670
O O9 0.538565 0.500000 0.212638
O O10 0.496136 0.247903 0.251202
O O11 0.750000 0.806973 0.706597
O O12 0.999447 0.753792 0.665851
O O13 0.959702 0.000000 0.707663
O O14 0.250000 0.302867 0.625934
O O15 0.455893 0.500000 0.628660
O O16 0.497830 0.261931 0.583108
O O17 0.250000 0.200593 0.456014
O O18 0.000000 0.212571 0.500000
O O19 0.049153 0.000000 0.448145
#
# Coordination Sequence:
#
# PCOD9406068 Si02
#       6
#     8   8   8   8   8   8
#     4   9  18  33  53  77 107 144 185 229 277 329
#     4  10  21  37  57  82 112 147 188 231 277 333
#     4  11  24  40  59  85 115 147 186 231 279 333
#     4  11  24  41  62  88 116 148 188 232 280 336
#     4  11  24  40  59  86 119 154 193 236 283 336
#     4  10  21  38  61  88 117 152 195 240 288 342
#
# _framework density 18.551238999999999
#
# number of rings (size 3 to 8) (size 9 to 14) (size 15 to 20)
#    0.000    1.667    0.000    4.000    0.000   13.333 
#    0.000    1.667    0.000    0.000    0.000    0.000 
#    0.000    0.000    0.000    0.000    0.000    0.000 
#
# Total GULP energy -268364.839345 kJ/mol
# GULP energy per Si atom -5590.934153 kJ/mol
# Density = 1.850902 g / cm^3
# Si number density = 18.551239 Si / 1000 Ang^3
#
#
#
# Elastic Constant Matrix: (Units=GPa)
#
#
# Indices 1 2 3 4 5 6 
#
# 1 82.8155 99.7814 95.4572 0.0000 0.0000 0.0000
# 2 99.7814 138.8218 124.9092 0.0000 0.0000 0.0000
# 3 95.4572 124.9092 217.2275 0.0000 0.0000 0.0000
# 4 0.0000 0.0000 0.0000 42.8837 0.0000 0.0000
# 5 0.0000 0.0000 0.0000 0.0000 42.9133 0.0000
# 6 0.0000 0.0000 0.0000 0.0000 0.0000 29.2031
#
#
#
# Elastic Compliance Matrix: (Units=1/GPa)
#
#
# Indices 1 2 3 4 5 6 
#
# 1 0.092695 -0.062111 -0.005019 0.000000 0.000000 0.000000
# 2 -0.062111 0.056544 -0.005220 0.000000 0.000000 0.000000
# 3 -0.005019 -0.005220 0.009810 0.000000 0.000000 0.000000
# 4 0.000000 0.000000 0.000000 0.023319 0.000000 0.000000
# 5 0.000000 0.000000 0.000000 0.000000 0.023303 0.000000
# 6 0.000000 0.000000 0.000000 0.000000 0.000000 0.034243
#
#
# Mechanical properties :
#
#
# Convention : Reuss Voigt Hill
#
# Bulk Modulus (GPa) = 69.68525 119.90672 94.79598
# Shear Modulus (GPa) = 12.84038 30.91448 21.87743
#
# Velocity S-wave (km/s) = 2.63374 4.08663 3.43782
# Velocity P-wave (km/s) = 6.84792 9.32969 8.18343
#
# Compressibility (1/GPa) = 0.01435024
#
# Stress axis : x y z
#
# Youngs Moduli (GPa) = 10.78807 17.68531 101.93311
#
# Poissons Ratio (x) = 1.09845 0.51155
# Poissons Ratio (y) = 0.67006 0.53209
# Poissons Ratio (z) = 0.05414 0.09232
#
# Static dielectric constant tensor:
#      x y z
#    x 1.619800 0.000000 0.000000 
#    y 0.000000 1.621420 0.000000 
#    z 0.000000 0.000000 1.598170 
# 
# From -- ./inp_files/36949.got.cif
#   From: 2010.05.17/outbox.cif.g08.bks.cpg/sg51_19_cif.got.tgz:36949.got - 2010.06.03 11:52:47.
