data_PCOD9406578
_publ_section_title
;
Structure prediction by ZEFSAII (Michael W. Deem and Ramdas Pophale) SiO2 
 PCOD9406578
Probable space group: P M M A
;
_chemical_formula_sum "Si O2"
_cell_formula_units_Z 48
_cell_length_a 16.216428
_cell_length_b 8.938184
_cell_length_c 17.188715
_cell_angle_alpha 90.000000
_cell_angle_beta 90.000000
_cell_angle_gamma 90.000000
_cell_volume 2491.425468
_symmetry_space_group_name_H-M "P M M A"
_symmetry_group_IT_number 51
_symmetry_cell_setting 'orthorhombic'
loop_
_space_group_symop_operation_xyz
x,y,z
1/2-x,-y,z
1/2+x,-y,-z
-x,y,-z
-x,-y,-z
1/2+x,y,-z
1/2-x,y,z
x,-y,z
loop_
_atom_site_type_symbol
_atom_site_label
_atom_site_fract_x
_atom_site_fract_y
_atom_site_fract_z
Si Si1 0.654135 0.675911 0.801726
Si Si2 0.931064 0.178152 0.660694
Si Si3 0.392783 0.677554 0.664059
Si Si4 0.250000 0.178238 0.765767
Si Si5 0.750000 0.821385 0.050083
Si Si6 0.089902 0.319417 0.032000
Si Si7 0.847262 0.175384 0.498323
O O1 0.750000 0.693182 0.823529
O O2 0.640298 0.500000 0.784210
O O3 0.632831 0.772126 0.726581
O O4 0.600052 0.717617 0.876719
O O5 0.898201 0.218400 0.574793
O O6 0.015813 0.261855 0.678125
O O7 0.943000 0.000000 0.662180
O O8 0.389061 0.500000 0.670945
O O9 0.329239 0.751979 0.723710
O O10 0.368373 0.728681 0.577053
O O11 0.250000 0.208711 0.857538
O O12 0.250000 0.000000 0.753423
O O13 0.750000 0.000000 0.038008
O O14 0.667102 0.752743 0.012766
O O15 0.096869 0.500000 0.025030
O O16 0.000000 0.274689 0.000000
O O17 0.750000 0.187547 0.515338
O O18 0.864959 0.000000 0.480791
#
# Coordination Sequence:
#
# PCOD9406578 Si02
#       7
#     8   8   8   4   4   8   8
#     4  10  21  40  63  92 129 166 208 261 314 367
#     4  11  24  40  62  92 126 167 210 254 308 369
#     4  12  25  41  63  93 123 161 208 257 313 368
#     4  11  25  45  65  90 125 162 203 255 316 375
#     4  11  25  43  67  98 129 164 211 265 320 379
#     4  10  22  42  68  96 129 171 213 258 319 386
#     4  10  21  40  64  88 122 167 208 251 308 370
#
# _framework density 19.266078
#
# number of rings (size 3 to 8) (size 9 to 14) (size 15 to 20)
#    0.000    1.333    1.667    3.500    2.333    6.667 
#    0.000    0.000    0.000    0.000    0.000    0.000 
#    0.000    0.000    0.000    0.000    0.000    0.000 
#
# Total GULP energy -268416.147303 kJ/mol
# GULP energy per Si atom -5592.003069 kJ/mol
# Density = 1.922223 g / cm^3
# Si number density = 19.266078 Si / 1000 Ang^3
#
#
#
# Elastic Constant Matrix: (Units=GPa)
#
#
# Indices 1 2 3 4 5 6 
#
# 1 78.2436 22.8566 19.8145 0.0000 0.0000 0.0000
# 2 22.8566 58.5300 42.4613 0.0000 0.0000 0.0000
# 3 19.8145 42.4613 85.9349 0.0000 0.0000 0.0000
# 4 0.0000 0.0000 0.0000 21.1825 0.0000 0.0000
# 5 0.0000 0.0000 0.0000 0.0000 58.9989 0.0000
# 6 0.0000 0.0000 0.0000 0.0000 0.0000 29.3055
#
#
#
# Elastic Compliance Matrix: (Units=1/GPa)
#
#
# Indices 1 2 3 4 5 6 
#
# 1 0.014466 -0.005034 -0.000848 0.000000 0.000000 0.000000
# 2 -0.005034 0.028383 -0.012864 0.000000 0.000000 0.000000
# 3 -0.000848 -0.012864 0.018188 0.000000 0.000000 0.000000
# 4 0.000000 0.000000 0.000000 0.047209 0.000000 0.000000
# 5 0.000000 0.000000 0.000000 0.000000 0.016949 0.000000
# 6 0.000000 0.000000 0.000000 0.000000 0.000000 0.034123
#
#
# Mechanical properties :
#
#
# Convention : Reuss Voigt Hill
#
# Bulk Modulus (GPa) = 42.47006 43.66368 43.06687
# Shear Modulus (GPa) = 24.43088 31.06913 27.75001
#
# Velocity S-wave (km/s) = 3.56487 4.02012 3.79932
# Velocity P-wave (km/s) = 6.24790 6.65291 6.45358
#
# Compressibility (1/GPa) = 0.02354600
#
# Stress axis : x y z
#
# Youngs Moduli (GPa) = 69.12825 35.23218 54.98002
#
# Poissons Ratio (x) = 0.17735 0.04664
# Poissons Ratio (y) = 0.34797 0.70725
# Poissons Ratio (z) = 0.05864 0.45322
#
# Static dielectric constant tensor:
#      x y z
#    x 1.666360 0.000000 0.000000 
#    y 0.000000 1.645970 0.000000 
#    z 0.000000 0.000000 1.650200 
# 
# From -- ./inp_files/29530.got.cif
#   From: 2010.05.17/outbox.cif.g08.bks.cpg/sg51_15_cif.got.tgz:29530.got - 2010.06.03 11:52:47.
