data_PCOD9406057
_publ_section_title
;
Structure prediction by ZEFSAII (Michael W. Deem and Ramdas Pophale) SiO2 
 PCOD9406057
Probable space group: P M M A
;
_chemical_formula_sum "Si O2"
_cell_formula_units_Z 48
_cell_length_a 8.719733
_cell_length_b 30.854206
_cell_length_c 9.573759
_cell_angle_alpha 90.000000
_cell_angle_beta 90.000000
_cell_angle_gamma 90.000000
_cell_volume 2575.728317
_symmetry_space_group_name_H-M "P M M A"
_symmetry_group_IT_number 51
_symmetry_cell_setting 'orthorhombic'
loop_
_space_group_symop_operation_xyz
x,y,z
1/2-x,-y,z
1/2+x,-y,-z
-x,y,-z
-x,-y,-z
1/2+x,y,-z
1/2-x,y,z
x,-y,z
loop_
_atom_site_type_symbol
_atom_site_label
_atom_site_fract_x
_atom_site_fract_y
_atom_site_fract_z
Si Si1 0.565710 0.723119 0.344152
Si Si2 0.933711 0.201068 0.843737
Si Si3 0.067144 0.623206 0.653670
Si Si4 0.433438 0.548233 0.155470
Si Si5 0.567995 0.948446 0.848098
Si Si6 0.066765 0.123481 0.655720
O O1 0.500000 0.731174 0.500000
O O2 0.750000 0.728780 0.346511
O O3 0.490503 0.755702 0.234828
O O4 0.530673 0.673039 0.306752
O O5 0.750000 0.199442 0.848030
O O6 0.997867 0.161335 0.752297
O O7 0.000000 0.199106 0.000000
O O8 0.250000 0.619266 0.650048
O O9 0.000000 0.616357 0.500000
O O10 0.998707 0.587294 0.754594
O O11 0.250000 0.550991 0.150336
O O12 0.474690 0.500000 0.210870
O O13 0.500000 0.551127 0.000000
O O14 0.750000 0.939504 0.846240
O O15 0.484930 0.921140 0.728865
O O16 0.545459 0.000000 0.829612
O O17 0.500000 0.936542 0.000000
O O18 0.250000 0.126893 0.651574
O O19 0.000000 0.126719 0.500000
#
# Coordination Sequence:
#
# PCOD9406057 Si02
#       6
#     8   8   8   8   8   8
#     4  10  21  39  61  87 117 151 190 233 285 341
#     4  12  25  42  63  88 118 153 194 239 288 342
#     4  10  21  37  59  85 115 150 189 234 283 339
#     4  10  21  37  57  81 111 148 190 236 286 340
#     4  10  21  39  63  91 123 159 199 243 292 346
#     4  12  25  42  63  88 120 157 198 243 292 346
#
# _framework density 18.635505999999999
#
# number of rings (size 3 to 8) (size 9 to 14) (size 15 to 20)
#    0.000    1.333    0.000    6.000    0.000    5.333 
#    0.000    0.000    0.000    0.000    0.000    0.000 
#    0.000    0.000    0.000    0.000    0.000    0.000 
#
# Total GULP energy -268420.977539 kJ/mol
# GULP energy per Si atom -5592.103699 kJ/mol
# Density = 1.859309 g / cm^3
# Si number density = 18.635506 Si / 1000 Ang^3
#
#
#
# Elastic Constant Matrix: (Units=GPa)
#
#
# Indices 1 2 3 4 5 6 
#
# 1 147.6217 78.6515 82.1599 0.0000 0.0000 0.0000
# 2 78.6515 107.0556 95.7527 0.0000 0.0000 0.0000
# 3 82.1599 95.7527 148.9618 0.0000 0.0000 0.0000
# 4 0.0000 0.0000 0.0000 39.9898 0.0000 0.0000
# 5 0.0000 0.0000 0.0000 0.0000 40.4735 0.0000
# 6 0.0000 0.0000 0.0000 0.0000 0.0000 37.2770
#
#
#
# Elastic Compliance Matrix: (Units=1/GPa)
#
#
# Indices 1 2 3 4 5 6 
#
# 1 0.011411 -0.006479 -0.002129 0.000000 0.000000 0.000000
# 2 -0.006479 0.025654 -0.012917 0.000000 0.000000 0.000000
# 3 -0.002129 -0.012917 0.016190 0.000000 0.000000 0.000000
# 4 0.000000 0.000000 0.000000 0.025006 0.000000 0.000000
# 5 0.000000 0.000000 0.000000 0.000000 0.024707 0.000000
# 6 0.000000 0.000000 0.000000 0.000000 0.000000 0.026826
#
#
# Mechanical properties :
#
#
# Convention : Reuss Voigt Hill
#
# Bulk Modulus (GPa) = 97.98703 101.86304 99.92504
# Shear Modulus (GPa) = 28.36912 33.35306 30.86109
#
# Velocity S-wave (km/s) = 3.90592 4.23514 4.07386
# Velocity P-wave (km/s) = 8.54614 8.87100 8.71009
#
# Compressibility (1/GPa) = 0.01020543
#
# Stress axis : x y z
#
# Youngs Moduli (GPa) = 87.63444 38.97962 61.76542
#
# Poissons Ratio (x) = 0.25257 0.13149
# Poissons Ratio (y) = 0.56782 0.79782
# Poissons Ratio (z) = 0.18655 0.50350
#
# Static dielectric constant tensor:
#      x y z
#    x 1.620350 0.000000 0.000000 
#    y 0.000000 1.651300 0.000000 
#    z 0.000000 0.000000 1.594140 
# 
# From -- ./inp_files/6068.got.cif
#   From: 2010.05.17/outbox.cif.g08.bks.cpg/sg51_4_cif.got.tgz:6068.got - 2010.06.03 11:52:47.
