data_PCOD9406686
_publ_section_title
;
Structure prediction by ZEFSAII (Michael W. Deem and Ramdas Pophale) SiO2 
 PCOD9406686
Probable space group: P M M A
;
_chemical_formula_sum "Si O2"
_cell_formula_units_Z 44
_cell_length_a 9.550736
_cell_length_b 7.453910
_cell_length_c 31.668657
_cell_angle_alpha 90.000000
_cell_angle_beta 90.000000
_cell_angle_gamma 90.000000
_cell_volume 2254.502034
_symmetry_space_group_name_H-M "P M M A"
_symmetry_group_IT_number 51
_symmetry_cell_setting 'orthorhombic'
loop_
_space_group_symop_operation_xyz
x,y,z
1/2-x,-y,z
1/2+x,-y,-z
-x,y,-z
-x,-y,-z
1/2+x,y,-z
1/2-x,y,z
x,-y,z
loop_
_atom_site_type_symbol
_atom_site_label
_atom_site_fract_x
_atom_site_fract_y
_atom_site_fract_z
Si Si1 0.409684 0.787452 0.224609
Si Si2 0.913461 0.718866 0.959734
Si Si3 0.910615 0.780830 0.303604
Si Si4 0.085151 0.212528 0.386097
Si Si5 0.083366 0.500000 0.456659
Si Si6 0.588024 0.715337 0.867870
O O1 0.250000 0.713973 0.225410
O O2 0.505650 0.717440 0.262261
O O3 0.472452 0.764343 0.177625
O O4 0.397859 0.000000 0.231385
O O5 0.750000 0.769111 0.962888
O O6 0.917350 0.500000 0.960327
O O7 0.969051 0.775686 0.913387
O O8 0.000000 0.782303 0.000000
O O9 0.750000 0.721711 0.303839
O O10 0.992871 0.730990 0.346070
O O11 0.909762 0.000000 0.302683
O O12 0.250000 0.241138 0.376288
O O13 0.051074 0.328110 0.427307
O O14 0.064974 0.000000 0.393279
O O15 0.250000 0.500000 0.464992
O O16 0.000000 0.500000 0.500000
O O17 0.750000 0.778298 0.866723
O O18 0.589748 0.500000 0.869114
#
# Coordination Sequence:
#
# PCOD9406686 Si02
#       6
#     8   8   8   8   4   8
#     4   9  16  27  45  66  87 116 153 189 227 276
#     4   8  13  22  37  55  74  99 134 175 218 264
#     4   9  17  30  49  72  97 126 160 198 241 287
#     4   9  18  35  57  78 103 137 176 214 249 292
#     4  10  22  38  56  82 112 140 174 214 255 298
#     4   8  14  25  40  59  83 109 140 180 223 270
#
# _framework density 19.516504999999999
#
# number of rings (size 3 to 8) (size 9 to 14) (size 15 to 20)
#    0.000    3.273    0.000    1.636    0.000    3.273 
#    1.636    0.909    0.000    1.636    0.000    0.000 
#    0.000    0.000    0.000    0.000    0.000    0.000 
#
# Total GULP energy -245213.929071 kJ/mol
# GULP energy per Si atom -5573.043843 kJ/mol
# Density = 1.947208 g / cm^3
# Si number density = 19.516505 Si / 1000 Ang^3
#
#
#
# Elastic Constant Matrix: (Units=GPa)
#
#
# Indices 1 2 3 4 5 6 
#
# 1 80.3170 22.6963 107.2396 0.0000 0.0000 0.0000
# 2 22.6963 61.4617 34.7670 0.0000 0.0000 0.0000
# 3 107.2396 34.7670 241.1775 0.0000 0.0000 0.0000
# 4 0.0000 0.0000 0.0000 22.5993 0.0000 0.0000
# 5 0.0000 0.0000 0.0000 0.0000 33.7932 0.0000
# 6 0.0000 0.0000 0.0000 0.0000 0.0000 -2.8352
#
#
#
# Elastic Compliance Matrix: (Units=1/GPa)
#
#
# Indices 1 2 3 4 5 6 
#
# 1 0.031541 -0.004044 -0.013442 0.000000 0.000000 0.000000
# 2 -0.004044 0.018233 -0.000830 0.000000 0.000000 0.000000
# 3 -0.013442 -0.000830 0.010243 0.000000 0.000000 0.000000
# 4 0.000000 0.000000 0.000000 0.044249 0.000000 0.000000
# 5 0.000000 0.000000 0.000000 0.000000 0.029592 0.000000
# 6 0.000000 0.000000 0.000000 0.000000 0.000000 -0.352712
#
#
# Mechanical properties :
#
#
# Convention : Reuss Voigt Hill
#
# Bulk Modulus (GPa) = 42.76182 79.15133 60.95658
# Shear Modulus (GPa) = -28.66520 25.26167 -1.70177
#
# Velocity S-wave (km/s) = -3.83661 3.60164 -0.93480
# Velocity P-wave (km/s) = 1.52712 7.61183 5.48963
#
# Compressibility (1/GPa) = 0.02338535
#
# Stress axis : x y z
#
# Youngs Moduli (GPa) = 31.70499 54.84484 97.62884
#
# Poissons Ratio (x) = 0.22178 1.31230
# Poissons Ratio (y) = 0.12821 0.08107
# Poissons Ratio (z) = 0.42617 0.04554
#
# Static dielectric constant tensor:
#      x y z
#    x 1.660360 0.000000 0.000000 
#    y 0.000000 1.763360 0.000000 
#    z 0.000000 0.000000 1.683370 
# 
# From -- ./inp_files/36800.got.cif
#   From: 2010.05.17/outbox.cif.g08.bks.cpg/sg51_19_cif.got.tgz:36800.got - 2010.06.03 11:52:47.
