data_PCOD9406787
_publ_section_title
;
Structure prediction by ZEFSAII (Michael W. Deem and Ramdas Pophale) SiO2 
 PCOD9406787
Probable space group: P M M A
;
_chemical_formula_sum "Si O2"
_cell_formula_units_Z 64
_cell_length_a 18.922069
_cell_length_b 18.432658
_cell_length_c 9.548004
_cell_angle_alpha 90.000000
_cell_angle_beta 90.000000
_cell_angle_gamma 90.000000
_cell_volume 3330.191280
_symmetry_space_group_name_H-M "P M M A"
_symmetry_group_IT_number 51
_symmetry_cell_setting 'orthorhombic'
loop_
_space_group_symop_operation_xyz
x,y,z
1/2-x,-y,z
1/2+x,-y,-z
-x,y,-z
-x,-y,-z
1/2+x,y,-z
1/2-x,y,z
x,-y,z
loop_
_atom_site_type_symbol
_atom_site_label
_atom_site_fract_x
_atom_site_fract_y
_atom_site_fract_z
Si Si1 0.066757 0.084888 0.603740
Si Si2 0.549560 0.413610 0.754630
Si Si3 0.419511 0.301163 0.478147
Si Si4 0.328821 0.585744 0.019050
Si Si5 0.905372 0.327597 0.204611
Si Si6 0.565739 0.165653 0.104353
Si Si7 0.165287 0.916186 0.101992
Si Si8 0.834544 0.835421 0.607133
O O1 0.052682 0.126266 0.748146
O O2 0.132890 0.120243 0.522865
O O3 0.000000 0.091564 0.500000
O O4 0.079101 0.000000 0.630798
O O5 0.541075 0.500000 0.739728
O O6 0.571889 0.374232 0.611197
O O7 0.610572 0.398687 0.867790
O O8 0.476498 0.376295 0.801375
O O9 0.500000 0.272564 0.500000
O O10 0.389137 0.315734 0.631874
O O11 0.373169 0.242206 0.397501
O O12 0.250000 0.601597 0.072714
O O13 0.332766 0.500000 0.987741
O O14 0.345599 0.631341 0.881366
O O15 0.919758 0.249704 0.136207
O O16 0.500000 0.158763 0.000000
O O17 0.630232 0.127289 0.024432
O O18 0.250000 0.915707 0.088700
O O19 0.147928 0.877684 0.249459
O O20 0.141104 0.000000 0.103726
O O21 0.750000 0.828484 0.596942
#
# Coordination Sequence:
#
# PCOD9406787 Si02
#       8
#     8   8   8   8   8   8   8   8
#     4  11  24  42  66  92 125 168 210 261 318 376
#     4  10  22  41  67  95 123 163 210 257 310 369
#     4  10  23  40  64  93 126 161 202 259 312 375
#     4  10  22  40  62  89 125 166 208 253 303 367
#     4  11  23  39  62  93 128 163 204 257 308 376
#     4  12  25  39  63  94 128 164 209 260 317 370
#     4  10  24  44  64  89 124 166 213 265 319 377
#     4  11  23  41  66  93 124 165 214 262 318 380
#
# _framework density 19.218115000000001
#
# number of rings (size 3 to 8) (size 9 to 14) (size 15 to 20)
#    0.000    1.375    1.250    3.375    7.000    8.500 
#    0.000    0.000    0.000    1.500    0.000    0.000 
#    0.000    0.000    0.000    0.000    0.000    0.000 
#
# Total GULP energy -357869.592977 kJ/mol
# GULP energy per Si atom -5591.712390 kJ/mol
# Density = 1.917437 g / cm^3
# Si number density = 19.218115 Si / 1000 Ang^3
#
#
#
# Elastic Constant Matrix: (Units=GPa)
#
#
# Indices 1 2 3 4 5 6 
#
# 1 51.6768 40.6726 28.6120 0.0000 0.0000 0.0000
# 2 40.6726 109.9779 47.1352 0.0000 0.0000 0.0000
# 3 28.6120 47.1352 103.9129 0.0000 0.0000 0.0000
# 4 0.0000 0.0000 0.0000 32.4846 0.0000 0.0000
# 5 0.0000 0.0000 0.0000 0.0000 18.4937 0.0000
# 6 0.0000 0.0000 0.0000 0.0000 0.0000 4.4371
#
#
#
# Elastic Compliance Matrix: (Units=1/GPa)
#
#
# Indices 1 2 3 4 5 6 
#
# 1 0.028456 -0.008895 -0.003801 0.000000 0.000000 0.000000
# 2 -0.008895 0.014067 -0.003932 0.000000 0.000000 0.000000
# 3 -0.003801 -0.003932 0.012453 0.000000 0.000000 0.000000
# 4 0.000000 0.000000 0.000000 0.030784 0.000000 0.000000
# 5 0.000000 0.000000 0.000000 0.000000 0.054073 0.000000
# 6 0.000000 0.000000 0.000000 0.000000 0.000000 0.225370
#
#
# Mechanical properties :
#
#
# Convention : Reuss Voigt Hill
#
# Bulk Modulus (GPa) = 46.03549 55.37859 50.70704
# Shear Modulus (GPa) = 12.32441 21.02627 16.67534
#
# Velocity S-wave (km/s) = 2.53512 3.31129 2.94885
# Velocity P-wave (km/s) = 5.70748 6.59529 6.16738
#
# Compressibility (1/GPa) = 0.02172237
#
# Stress axis : x y z
#
# Youngs Moduli (GPa) = 35.14179 71.08605 80.29936
#
# Poissons Ratio (x) = 0.63231 0.30518
# Poissons Ratio (y) = 0.31258 0.31572
# Poissons Ratio (z) = 0.13356 0.27950
#
# Static dielectric constant tensor:
#      x y z
#    x 1.663240 0.000000 0.000000 
#    y 0.000000 1.660560 0.000000 
#    z 0.000000 0.000000 1.651150 
# 
# From -- ./inp_files/10008.got.cif
#   From: 2010.05.17/outbox.cif.g08.bks.cpg/sg51_6_cif.got.tgz:10008.got - 2010.06.03 11:52:47.
