data_PCOD9406386
_publ_section_title
;
Structure prediction by ZEFSAII (Michael W. Deem and Ramdas Pophale) SiO2 
 PCOD9406386
Probable space group: P M M A
;
_chemical_formula_sum "Si O2"
_cell_formula_units_Z 48
_cell_length_a 16.962799
_cell_length_b 15.690929
_cell_length_c 8.038988
_cell_angle_alpha 90.000000
_cell_angle_beta 90.000000
_cell_angle_gamma 90.000000
_cell_volume 2139.673725
_symmetry_space_group_name_H-M "P M M A"
_symmetry_group_IT_number 51
_symmetry_cell_setting 'orthorhombic'
loop_
_space_group_symop_operation_xyz
x,y,z
1/2-x,-y,z
1/2+x,-y,-z
-x,y,-z
-x,-y,-z
1/2+x,y,-z
1/2-x,y,z
x,-y,z
loop_
_atom_site_type_symbol
_atom_site_label
_atom_site_fract_x
_atom_site_fract_y
_atom_site_fract_z
Si Si1 0.496865 0.596235 0.196281
Si Si2 0.943075 0.100079 0.281039
Si Si3 0.335360 0.899018 0.015662
Si Si4 0.612571 0.152541 0.623072
Si Si5 0.335787 0.659416 0.341615
Si Si6 0.335599 0.598692 0.705595
O O1 0.495188 0.500000 0.269659
O O2 0.414545 0.638894 0.241994
O O3 0.579999 0.638563 0.247941
O O4 0.500000 0.590078 0.000000
O O5 0.887529 0.105957 0.444534
O O6 0.020438 0.154150 0.323894
O O7 0.967281 0.000000 0.262519
O O8 0.901878 0.131623 0.112457
O O9 0.250000 0.861362 0.973895
O O10 0.349632 0.887576 0.211532
O O11 0.333155 0.000000 0.983479
O O12 0.652709 0.243502 0.600632
O O13 0.250000 0.649839 0.256774
O O14 0.334817 0.602292 0.506236
O O15 0.250000 0.634775 0.760807
O O16 0.337712 0.500000 0.763788
#
# Coordination Sequence:
#
# PCOD9406386 Si02
#       6
#     8   8   8   8   8   8
#     4  10  22  39  63  92 123 160 204 252 304 362
#     4  10  22  39  63  91 115 156 211 260 311 371
#     4  10  21  38  61  87 118 156 198 250 311 371
#     4  11  22  38  60  86 122 157 201 254 309 370
#     4  11  24  39  58  87 123 162 205 249 307 369
#     4   9  19  38  64  90 118 158 204 248 296 357
#
# _framework density 22.433326000000001
#
# number of rings (size 3 to 8) (size 9 to 14) (size 15 to 20)
#    0.000    1.833    0.000    4.000    4.667    7.000 
#    0.000    3.333    0.000    0.000    0.000    0.000 
#    0.000    0.000    0.000    0.000    0.000    0.000 
#
# Total GULP energy -267677.067967 kJ/mol
# GULP energy per Si atom -5576.605583 kJ/mol
# Density = 2.238227 g / cm^3
# Si number density = 22.433326 Si / 1000 Ang^3
#
#
#
# Elastic Constant Matrix: (Units=GPa)
#
#
# Indices 1 2 3 4 5 6 
#
# 1 182.6963 20.7802 29.8019 0.0000 0.0000 0.0000
# 2 20.7802 28.6569 -9.1317 0.0000 0.0000 0.0000
# 3 29.8019 -9.1317 57.6150 0.0000 0.0000 0.0000
# 4 0.0000 0.0000 0.0000 18.1267 0.0000 0.0000
# 5 0.0000 0.0000 0.0000 0.000043913.6098 0.0000
# 6 0.0000 0.0000 0.0000 0.0000 0.0000 5.4820
#
#
#
# Elastic Compliance Matrix: (Units=1/GPa)
#
#
# Indices 1 2 3 4 5 6 
#
# 1 0.006975 -0.006537 -0.004644 0.000000 0.000000 0.000000
# 2 -0.006537 0.042879 0.010178 0.000000 0.000000 0.000000
# 3 -0.004644 0.010178 0.021372 0.000000 0.000000 0.000000
# 4 0.000000 0.000000 0.000000 0.055167 0.000000 0.000000
# 5 0.000000 0.000000 0.000000 0.000000 0.000023 0.000000
# 6 0.000000 0.000000 0.000000 0.000000 0.000000 0.182415
#
#
# Mechanical properties :
#
#
# Convention : Reuss Voigt Hill
#
# Bulk Modulus (GPa) = 14.44697 39.09655 26.77176
# Shear Modulus (GPa) = 14.97404 8802.61154 4408.79279
#
# Velocity S-wave (km/s) = 2.58639 62.70899 44.37965
# Velocity P-wave (km/s) = 3.92086 72.53061 51.36177
#
# Compressibility (1/GPa) = 0.06921866
#
# Stress axis : x y z
#
# Youngs Moduli (GPa) = 143.37625 23.32125 46.79072
#
# Poissons Ratio (x) = 0.15246 0.21729
# Poissons Ratio (y) = 0.93731 -0.47622
# Poissons Ratio (z) = 0.66582 -0.23736
#
# Static dielectric constant tensor:
#      x y z
#    x 1.837950 0.000000 0.000000 
#    y 0.000000 1.843950 0.000000 
#    z 0.000000 0.000000 1.808170 
# 
# From -- ./inp_files/8245.got.cif
#   From: 2010.05.17/outbox.cif.g08.bks.cpg/sg51_5_cif.got.tgz:8245.got - 2010.06.03 11:52:47.
