data_PCOD9406306
_publ_section_title
;
Structure prediction by ZEFSAII (Michael W. Deem and Ramdas Pophale) SiO2 
 PCOD9406306
Probable space group: P M M A
;
_chemical_formula_sum "Si O2"
_cell_formula_units_Z 56
_cell_length_a 15.968143
_cell_length_b 8.645204
_cell_length_c 20.589021
_cell_angle_alpha 90.000000
_cell_angle_beta 90.000000
_cell_angle_gamma 90.000000
_cell_volume 2842.270160
_symmetry_space_group_name_H-M "P M M A"
_symmetry_group_IT_number 51
_symmetry_cell_setting 'orthorhombic'
loop_
_space_group_symop_operation_xyz
x,y,z
1/2-x,-y,z
1/2+x,-y,-z
-x,y,-z
-x,-y,-z
1/2+x,y,-z
1/2-x,y,z
x,-y,z
loop_
_atom_site_type_symbol
_atom_site_label
_atom_site_fract_x
_atom_site_fract_y
_atom_site_fract_z
Si Si1 0.892624 0.822480 0.274053
Si Si2 0.491034 0.684723 0.073436
Si Si3 0.750000 0.817498 0.495537
Si Si4 0.064053 0.681256 0.300533
Si Si5 0.750000 0.320258 0.358246
Si Si6 0.567109 0.183857 0.554670
Si Si7 0.841440 0.819941 0.128072
Si Si8 0.654466 0.689190 0.827914
O O1 0.831213 0.763003 0.329322
O O2 0.844637 0.817811 0.206061
O O3 0.973270 0.715017 0.270370
O O4 0.918558 0.000000 0.286326
O O5 0.479685 0.500000 0.069472
O O6 0.579835 0.723183 0.105212
O O7 0.414359 0.742626 0.118850
O O8 0.500000 0.746484 0.000000
O O9 0.750000 0.706223 0.434322
O O10 0.836882 0.790429 0.532930
O O11 0.750000 0.000000 0.475511
O O12 0.079426 0.500000 0.308062
O O13 0.060242 0.751524 0.372534
O O14 0.128147 0.740506 0.245089
O O15 0.750000 0.500000 0.340229
O O16 0.500000 0.242590 0.500000
O O17 0.553038 0.000000 0.558668
O O18 0.750000 0.764798 0.105676
O O19 0.851396 0.000000 0.108406
O O20 0.750000 0.734806 0.842869
O O21 0.651562 0.500000 0.827457
#
# Coordination Sequence:
#
# PCOD9406306 Si02
#       8
#     8   8   4   8   4   8   8   8
#     4  11  21  37  59  84 119 160 198 240 302 365
#     4  10  21  38  62  91 123 161 201 244 296 358
#     4  10  22  40  60  82 116 161 202 241 300 369
#     4  11  22  36  60  88 115 152 202 257 310 357
#     4  12  24  36  58  92 124 153 196 251 302 359
#     4  10  22  40  59  81 113 156 199 244 301 366
#     4  10  21  38  59  86 119 157 198 242 294 353
#     4   9  19  36  57  85 122 159 197 245 305 364
#
# _framework density 19.702559999999998
#
# number of rings (size 3 to 8) (size 9 to 14) (size 15 to 20)
#    0.000    1.714    2.143    2.357    1.000    3.714 
#    0.000    1.429    0.000    2.143    0.000    0.000 
#    0.000    0.000    0.000    0.000    0.000    0.000 
#
# Total GULP energy -312403.128169 kJ/mol
# GULP energy per Si atom -5578.627289 kJ/mol
# Density = 1.965772 g / cm^3
# Si number density = 19.702560 Si / 1000 Ang^3
#
#
#
# Elastic Constant Matrix: (Units=GPa)
#
#
# Indices 1 2 3 4 5 6 
#
# 1 129.9838 5.4193 57.0919 0.0000 0.0000 0.0000
# 2 5.4193 -11.6573 23.6793 0.0000 0.0000 0.0000
# 3 57.0919 23.6793 121.6389 0.0000 0.0000 0.0000
# 4 0.0000 0.0000 0.0000 20.9332 0.0000 0.0000
# 5 0.0000 0.0000 0.0000 0.0000 6.2333 0.0000
# 6 0.0000 0.0000 0.0000 0.0000 0.0000 9.9175
#
#
#
# Elastic Compliance Matrix: (Units=1/GPa)
#
#
# Indices 1 2 3 4 5 6 
#
# 1 0.009507 -0.003328 -0.003814 0.000000 0.000000 0.000000
# 2 -0.003328 -0.060309 0.013303 0.000000 0.000000 0.000000
# 3 -0.003814 0.013303 0.007422 0.000000 0.000000 0.000000
# 4 0.000000 0.000000 0.000000 0.047771 0.000000 0.000000
# 5 0.000000 0.000000 0.000000 0.000000 0.160430 0.000000
# 6 0.000000 0.000000 0.000000 0.000000 0.000000 0.100832
#
#
# Mechanical properties :
#
#
# Convention : Reuss Voigt Hill
#
# Bulk Modulus (GPa) = -32.19495 45.81626 6.81065
# Shear Modulus (GPa) = 20.57789 17.66846 19.12318
#
# Velocity S-wave (km/s) = 3.23527 2.99784 3.11881
# Velocity P-wave (km/s) = 1.55565 5.94030 4.05384
#
# Compressibility (1/GPa) = -0.03106077
#
# Stress axis : x y z
#
# Youngs Moduli (GPa) = 105.18106 -16.58114 134.73831
#
# Poissons Ratio (x) = -0.05519 0.51395
# Poissons Ratio (y) = 0.35008 -1.79236
# Poissons Ratio (z) = 0.40121 0.22057
#
# Static dielectric constant tensor:
#      x y z
#    x 1.680120 0.000000 0.000000 
#    y 0.000000 1.678340 0.000000 
#    z 0.000000 0.000000 1.709690 
# 
# From -- ./inp_files/33615.got.cif
#   From: 2010.05.17/outbox.cif.g08.bks.cpg/sg51_17_cif.got.tgz:33615.got - 2010.06.03 11:52:47.
