data_PCOD9406821
_publ_section_title
;
Structure prediction by ZEFSAII (Michael W. Deem and Ramdas Pophale) SiO2 
 PCOD9406821
Probable space group: P M M A
;
_chemical_formula_sum "Si O2"
_cell_formula_units_Z 48
_cell_length_a 21.814101
_cell_length_b 8.600315
_cell_length_c 12.427691
_cell_angle_alpha 90.000000
_cell_angle_beta 90.000000
_cell_angle_gamma 90.000000
_cell_volume 2331.535994
_symmetry_space_group_name_H-M "P M M A"
_symmetry_group_IT_number 51
_symmetry_cell_setting 'orthorhombic'
loop_
_space_group_symop_operation_xyz
x,y,z
1/2-x,-y,z
1/2+x,-y,-z
-x,y,-z
-x,-y,-z
1/2+x,y,-z
1/2-x,y,z
x,-y,z
loop_
_atom_site_type_symbol
_atom_site_label
_atom_site_fract_x
_atom_site_fract_y
_atom_site_fract_z
Si Si1 0.571664 0.688200 0.516888
Si Si2 0.682369 0.312727 0.360560
Si Si3 0.657176 0.179646 0.127345
Si Si4 0.819715 0.321260 0.898201
Si Si5 0.420606 0.181782 0.250787
Si Si6 0.028782 0.323197 0.880940
O O1 0.500000 0.734278 0.500000
O O2 0.572660 0.500000 0.521611
O O3 0.621791 0.736986 0.427106
O O4 0.592834 0.758350 0.630066
O O5 0.750000 0.271089 0.407289
O O6 0.679891 0.500000 0.354789
O O7 0.679617 0.245727 0.240498
O O8 0.584132 0.204299 0.126965
O O9 0.673683 0.000000 0.115959
O O10 0.679160 0.273121 0.022916
O O11 0.750000 0.311013 0.859112
O O12 0.841100 0.500000 0.888773
O O13 0.864489 0.214688 0.829424
O O14 0.477360 0.279933 0.204654
O O15 0.435587 0.000000 0.251050
O O16 0.051216 0.500000 0.862795
O O17 0.000000 0.315982 0.000000
#
# Coordination Sequence:
#
# PCOD9406821 Si02
#       6
#     8   8   8   8   8   8
#     4  10  22  42  67  92 123 167 218 266 315 379
#     4  10  22  41  65  92 124 169 223 270 317 383
#     4  12  24  38  62  95 131 164 203 261 325 381
#     4  11  24  42  63  87 121 168 216 256 301 370
#     4  12  25  40  63  95 130 162 200 256 322 379
#     4  11  22  38  63  90 123 166 209 251 303 373
#
# _framework density 20.587287
#
# number of rings (size 3 to 8) (size 9 to 14) (size 15 to 20)
#    0.000    1.000    1.667    5.500    0.000    7.333 
#    0.000    1.667    0.000    0.000    0.000    0.000 
#    0.000    0.000    0.000    0.000    0.000    0.000 
#
# Total GULP energy -268441.695424 kJ/mol
# GULP energy per Si atom -5592.535321 kJ/mol
# Density = 2.054043 g / cm^3
# Si number density = 20.587287 Si / 1000 Ang^3
#
#
#
# Elastic Constant Matrix: (Units=GPa)
#
#
# Indices 1 2 3 4 5 6 
#
# 1 101.1905 12.4965 26.4402 0.0000 0.0000 0.0000
# 2 12.4965 38.0159 10.9965 0.0000 0.0000 0.0000
# 3 26.4402 10.9965 93.1336 0.0000 0.0000 0.0000
# 4 0.0000 0.0000 0.0000 -602.6487 0.0000 0.0000
# 5 0.0000 0.0000 0.0000 0.0000 1.6997 0.0000
# 6 0.0000 0.0000 0.0000 0.0000 0.0000 11.3584
#
#
#
# Elastic Compliance Matrix: (Units=1/GPa)
#
#
# Indices 1 2 3 4 5 6 
#
# 1 0.010954 -0.002797 -0.002780 0.000000 0.000000 0.000000
# 2 -0.002797 0.027949 -0.002506 0.000000 0.000000 0.000000
# 3 -0.002780 -0.002506 0.011822 0.000000 0.000000 0.000000
# 4 0.000000 0.000000 0.000000 -0.001659 0.000000 0.000000
# 5 0.000000 0.000000 0.000000 0.000000 0.588335 0.000000
# 6 0.000000 0.000000 0.000000 0.000000 0.000000 0.088041
#
#
# Mechanical properties :
#
#
# Convention : Reuss Voigt Hill
#
# Bulk Modulus (GPa) = 28.93470 36.91182 32.92326
# Shear Modulus (GPa) = 6.63899 -105.75767 -49.55934
#
# Velocity S-wave (km/s) = 1.79772 -7.17509 -4.91173
# Velocity P-wave (km/s) = 4.28885 7.11858 4.01746
#
# Compressibility (1/GPa) = 0.03456057
#
# Stress axis : x y z
#
# Youngs Moduli (GPa) = 91.29071 35.77947 84.58614
#
# Poissons Ratio (x) = 0.10007 0.23511
# Poissons Ratio (y) = 0.25532 0.21197
# Poissons Ratio (z) = 0.25375 0.08966
#
# Static dielectric constant tensor:
#      x y z
#    x 1.794230 0.000000 0.000000 
#    y 0.000000 1.680820 0.000000 
#    z 0.000000 0.000000 1.703830 
# 
# From -- ./inp_files/18574.got.cif
#   From: 2010.05.17/outbox.cif.g08.bks.cpg/sg51_10_cif.got.tgz:18574.got - 2010.06.03 11:52:47.
