data_PCOD9406662
_publ_section_title
;
Structure prediction by ZEFSAII (Michael W. Deem and Ramdas Pophale) SiO2 
 PCOD9406662
Probable space group: P M M A
;
_chemical_formula_sum "Si O2"
_cell_formula_units_Z 52
_cell_length_a 9.224015
_cell_length_b 16.005628
_cell_length_c 19.395844
_cell_angle_alpha 90.000000
_cell_angle_beta 90.000000
_cell_angle_gamma 90.000000
_cell_volume 2863.527788
_symmetry_space_group_name_H-M "P M M A"
_symmetry_group_IT_number 51
_symmetry_cell_setting 'orthorhombic'
loop_
_space_group_symop_operation_xyz
x,y,z
1/2-x,-y,z
1/2+x,-y,-z
-x,y,-z
-x,-y,-z
1/2+x,y,-z
1/2-x,y,z
x,-y,z
loop_
_atom_site_type_symbol
_atom_site_label
_atom_site_fract_x
_atom_site_fract_y
_atom_site_fract_z
Si Si1 0.574057 0.000000 0.076055
Si Si2 0.412082 0.596691 0.127973
Si Si3 0.084749 0.851182 0.818855
Si Si4 0.076590 0.903497 0.574405
Si Si5 0.425952 0.405874 0.287329
Si Si6 0.410207 0.272081 0.942410
Si Si7 0.074613 0.216422 0.315519
O O1 0.537778 0.922758 0.127097
O O2 0.750000 0.000000 0.065572
O O3 0.500000 0.000000 0.000000
O O4 0.250000 0.633943 0.127916
O O5 0.402669 0.500000 0.111219
O O6 0.466787 0.601547 0.206715
O O7 0.511136 0.642589 0.074286
O O8 0.250000 0.871182 0.794354
O O9 0.092885 0.772676 0.869442
O O10 0.983299 0.825746 0.755443
O O11 0.250000 0.889163 0.569335
O O12 0.000000 0.897502 0.500000
O O13 0.000554 0.837440 0.624655
O O14 0.056211 0.000000 0.598854
O O15 0.250000 0.408455 0.290007
O O16 0.474282 0.500000 0.311405
O O17 0.467482 0.315744 0.319463
O O18 0.250000 0.283241 0.968970
O O19 0.500000 0.223228 0.000000
O O20 0.250000 0.211581 0.318448
#
# Coordination Sequence:
#
# PCOD9406662 Si02
#       7
#     4   8   8   8   8   8   8
#     4  10  22  40  58  74 101 142 187 236 292 348
#     4   9  17  32  52  71  96 132 175 223 276 334
#     4  10  22  38  54  77 107 141 183 231 285 342
#     4  10  22  41  64  90 125 163 194 229 275 331
#     4   8  15  30  53  81 112 147 186 230 283 336
#     4  11  22  34  50  70  98 134 177 230 284 339
#     4  11  21  34  60  92 120 151 191 239 282 334
#
# _framework density 18.159417999999999
#
# number of rings (size 3 to 8) (size 9 to 14) (size 15 to 20)
#    0.000    2.154    1.538    2.769    1.077    2.769 
#    0.000    0.000    0.000    2.308    0.000    0.000 
#    0.000    0.000    0.000    0.000    0.000    0.000 
#
# Total GULP energy -289508.965838 kJ/mol
# GULP energy per Si atom -5567.480112 kJ/mol
# Density = 1.811809 g / cm^3
# Si number density = 18.159418 Si / 1000 Ang^3
#
#
#
# Elastic Constant Matrix: (Units=GPa)
#
#
# Indices 1 2 3 4 5 6 
#
# 1 85.7108 47.5198 42.4999 0.0000 0.0000 0.0000
# 2 47.5198 135.7529 64.1809 0.0000 0.0000 0.0000
# 3 42.4999 64.1809 79.8928 0.0000 0.0000 0.0000
# 4 0.0000 0.0000 0.0000 17.4341 0.0000 0.0000
# 5 0.0000 0.0000 0.0000 0.0000 32.3118 0.0000
# 6 0.0000 0.0000 0.0000 0.0000 0.0000 48.2664
#
#
#
# Elastic Compliance Matrix: (Units=1/GPa)
#
#
# Indices 1 2 3 4 5 6 
#
# 1 0.016400 -0.002606 -0.006631 0.000000 0.000000 0.000000
# 2 -0.002606 0.012291 -0.008488 0.000000 0.000000 0.000000
# 3 -0.006631 -0.008488 0.022863 0.000000 0.000000 0.000000
# 4 0.000000 0.000000 0.000000 0.057359 0.000000 0.000000
# 5 0.000000 0.000000 0.000000 0.000000 0.030948 0.000000
# 6 0.000000 0.000000 0.000000 0.000000 0.000000 0.020718
#
#
# Mechanical properties :
#
#
# Convention : Reuss Voigt Hill
#
# Bulk Modulus (GPa) = 62.09267 67.75086 64.92177
# Shear Modulus (GPa) = 24.82663 29.41284 27.11974
#
# Velocity S-wave (km/s) = 3.70151 4.02892 3.86868
# Velocity P-wave (km/s) = 7.24814 7.68328 7.46888
#
# Compressibility (1/GPa) = 0.01610496
#
# Stress axis : x y z
#
# Youngs Moduli (GPa) = 60.97684 81.35771 43.73938
#
# Poissons Ratio (x) = 0.21200 0.29002
# Poissons Ratio (y) = 0.15890 0.37126
# Poissons Ratio (z) = 0.40431 0.69056
#
# Static dielectric constant tensor:
#      x y z
#    x 1.657030 0.000000 0.000000 
#    y 0.000000 1.689380 0.000000 
#    z 0.000000 0.000000 1.609940 
# 
# From -- ./inp_files/31703.got.cif
#   From: 2010.05.17/outbox.cif.g08.bks.cpg/sg51_16_cif.got.tgz:31703.got - 2010.06.03 11:52:47.
