data_PCOD9406781
_publ_section_title
;
Structure prediction by ZEFSAII (Michael W. Deem and Ramdas Pophale) SiO2 
 PCOD9406781
Probable space group: P M M A
;
_chemical_formula_sum "Si O2"
_cell_formula_units_Z 64
_cell_length_a 25.352132
_cell_length_b 9.160860
_cell_length_c 14.577605
_cell_angle_alpha 90.000000
_cell_angle_beta 90.000000
_cell_angle_gamma 90.000000
_cell_volume 3385.609868
_symmetry_space_group_name_H-M "P M M A"
_symmetry_group_IT_number 51
_symmetry_cell_setting 'orthorhombic'
loop_
_space_group_symop_operation_xyz
x,y,z
1/2-x,-y,z
1/2+x,-y,-z
-x,y,-z
-x,-y,-z
1/2+x,y,-z
1/2-x,y,z
x,-y,z
loop_
_atom_site_type_symbol
_atom_site_label
_atom_site_fract_x
_atom_site_fract_y
_atom_site_fract_z
Si Si1 0.187202 0.826801 0.196746
Si Si2 0.485593 0.171202 0.209071
Si Si3 0.189521 0.325065 0.771384
Si Si4 0.099402 0.326289 0.083281
Si Si5 0.686865 0.827745 0.592990
Si Si6 0.025995 0.174259 0.597680
Si Si7 0.362908 0.326538 0.580495
Si Si8 0.098661 0.171978 0.888109
O O1 0.250000 0.806105 0.186902
O O2 0.153789 0.732543 0.126549
O O3 0.172571 0.789018 0.302168
O O4 0.176536 0.000000 0.184139
O O5 0.446190 0.268796 0.150926
O O6 0.488387 0.209352 0.316543
O O7 0.544879 0.186795 0.170154
O O8 0.470415 0.000000 0.199670
O O9 0.250000 0.286452 0.792305
O O10 0.183220 0.500000 0.784462
O O11 0.176474 0.293627 0.664785
O O12 0.147433 0.241132 0.833292
O O13 0.098960 0.500000 0.076384
O O14 0.091691 0.253738 0.984219
O O15 0.750000 0.807630 0.584233
O O16 0.657538 0.739775 0.514503
O O17 0.675730 0.000000 0.581437
O O18 0.080821 0.258027 0.605268
O O19 0.000000 0.206982 0.500000
O O20 0.036173 0.000000 0.602450
O O21 0.367341 0.500000 0.572605
O O22 0.107507 0.000000 0.903750
#
# Coordination Sequence:
#
# PCOD9406781 Si02
#       8
#     8   8   8   8   8   8   8   8
#     4   9  20  41  65  88 118 158 204 252 299 349
#     4  10  22  42  65  90 121 158 203 252 298 353
#     4  10  22  40  61  88 125 166 203 246 307 369
#     4  12  26  40  62  93 124 158 197 243 307 376
#     4   9  19  36  59  85 114 153 200 245 287 341
#     4  10  22  40  62  89 121 161 203 246 298 353
#     4  11  22  36  58  88 126 162 197 244 300 364
#     4  11  23  42  66  90 117 153 204 258 304 351
#
# _framework density 18.903535999999999
#
# number of rings (size 3 to 8) (size 9 to 14) (size 15 to 20)
#    0.000    1.750    1.250    3.375    1.750    6.000 
#    0.000    1.250    0.000    0.000    0.000    0.000 
#    0.000    0.000    0.000    0.000    0.000    0.000 
#
# Total GULP energy -357713.136229 kJ/mol
# GULP energy per Si atom -5589.267754 kJ/mol
# Density = 1.886051 g / cm^3
# Si number density = 18.903536 Si / 1000 Ang^3
#
#
#
# Elastic Constant Matrix: (Units=GPa)
#
#
# Indices 1 2 3 4 5 6 
#
# 1 53.0500 34.6036 20.9757 0.0000 0.0000 0.0000
# 2 34.6036 63.3401 49.5860 0.0000 0.0000 0.0000
# 3 20.9757 49.5860 112.0569 0.0000 0.0000 0.0000
# 4 0.0000 0.0000 0.0000 24.6351 0.0000 0.0000
# 5 0.0000 0.0000 0.0000 0.0000 82.4182 0.0000
# 6 0.0000 0.0000 0.0000 0.0000 0.0000 12.2223
#
#
#
# Elastic Compliance Matrix: (Units=1/GPa)
#
#
# Indices 1 2 3 4 5 6 
#
# 1 0.029731 -0.018185 0.002482 0.000000 0.000000 0.000000
# 2 -0.018185 0.035279 -0.012207 0.000000 0.000000 0.000000
# 3 0.002482 -0.012207 0.013861 0.000000 0.000000 0.000000
# 4 0.000000 0.000000 0.000000 0.040593 0.000000 0.000000
# 5 0.000000 0.000000 0.000000 0.000000 0.012133 0.000000
# 6 0.000000 0.000000 0.000000 0.000000 0.000000 0.081818
#
#
# Mechanical properties :
#
#
# Convention : Reuss Voigt Hill
#
# Bulk Modulus (GPa) = 43.38410 48.75305 46.06858
# Shear Modulus (GPa) = 18.05583 32.07390 25.06486
#
# Velocity S-wave (km/s) = 3.09391 4.12359 3.64529
# Velocity P-wave (km/s) = 5.98023 6.96551 6.49159
#
# Compressibility (1/GPa) = 0.02304992
#
# Stress axis : x y z
#
# Youngs Moduli (GPa) = 33.63520 28.34542 72.14371
#
# Poissons Ratio (x) = 0.51547 -0.17905
# Poissons Ratio (y) = 0.61166 0.88067
# Poissons Ratio (z) = -0.08348 0.34602
#
# Static dielectric constant tensor:
#      x y z
#    x 1.638500 0.000000 0.000000 
#    y 0.000000 1.623810 0.000000 
#    z 0.000000 0.000000 1.646580 
# 
# From -- ./inp_files/26225.got.cif
#   From: 2010.05.17/outbox.cif.g08.bks.cpg/sg51_14_cif.got.tgz:26225.got - 2010.06.03 11:52:47.
