data_PCOD9406656
_publ_section_title
;
Structure prediction by ZEFSAII (Michael W. Deem and Ramdas Pophale) SiO2 
 PCOD9406656
Probable space group: P M M A
;
_chemical_formula_sum "Si O2"
_cell_formula_units_Z 64
_cell_length_a 23.886152
_cell_length_b 8.101783
_cell_length_c 16.616686
_cell_angle_alpha 90.000000
_cell_angle_beta 90.000000
_cell_angle_gamma 90.000000
_cell_volume 3215.668057
_symmetry_space_group_name_H-M "P M M A"
_symmetry_group_IT_number 51
_symmetry_cell_setting 'orthorhombic'
loop_
_space_group_symop_operation_xyz
x,y,z
1/2-x,-y,z
1/2+x,-y,-z
-x,y,-z
-x,-y,-z
1/2+x,y,-z
1/2-x,y,z
x,-y,z
loop_
_atom_site_type_symbol
_atom_site_label
_atom_site_fract_x
_atom_site_fract_y
_atom_site_fract_z
Si Si1 0.814339 0.195592 0.841036
Si Si2 0.529709 0.699847 0.117794
Si Si3 0.187360 0.799122 0.641228
Si Si4 0.317096 0.808915 0.462392
Si Si5 0.488412 0.693606 0.410681
Si Si6 0.923344 0.804434 0.287614
Si Si7 0.617949 0.311863 0.684444
Si Si8 0.587896 0.698553 0.954278
O O1 0.750000 0.263427 0.839661
O O2 0.849824 0.237277 0.760592
O O3 0.853539 0.248221 0.915826
O O4 0.809405 0.000000 0.844052
O O5 0.529738 0.500000 0.119773
O O6 0.550553 0.766006 0.201978
O O7 0.465827 0.752329 0.099107
O O8 0.570445 0.752055 0.044383
O O9 0.250000 0.736774 0.655220
O O10 0.167017 0.750993 0.551765
O O11 0.141436 0.753295 0.706212
O O12 0.190636 0.000000 0.638420
O O13 0.250000 0.809711 0.460786
O O14 0.340571 0.699668 0.391282
O O15 0.335593 0.000000 0.450846
O O16 0.500000 0.764021 0.500000
O O17 0.473706 0.500000 0.422336
O O18 0.543212 0.712288 0.357272
O O19 0.438578 0.765031 0.354224
O O20 0.927023 0.000000 0.303687
O O21 0.604774 0.500000 0.708167
O O22 0.587661 0.500000 0.954517
#
# Coordination Sequence:
#
# PCOD9406656 Si02
#       8
#     8   8   8   8   8   8   8   8
#     4  11  24  39  55  79 113 149 182 223 277 329
#     4   9  19  37  60  84 110 138 169 213 270 323
#     4   8  16  32  51  71  99 134 169 207 252 301
#     4   9  17  31  51  71  94 130 174 218 261 299
#     4  10  22  38  53  73 108 150 184 223 279 328
#     4  11  21  32  53  83 107 134 175 216 257 310
#     4  11  22  34  51  75 103 140 183 221 264 322
#     4   9  19  38  62  83 104 137 178 216 261 320
#
# _framework density 19.902552
#
# number of rings (size 3 to 8) (size 9 to 14) (size 15 to 20)
#    0.000    2.250    0.000    4.500    0.000    8.000 
#    0.000    2.500    0.000    5.250    0.000    0.000 
#    0.000    0.000    0.000    0.000    0.000    0.000 
#
# Total GULP energy -356962.064675 kJ/mol
# GULP energy per Si atom -5577.532261 kJ/mol
# Density = 1.985725 g / cm^3
# Si number density = 19.902552 Si / 1000 Ang^3
#
#
#
# Elastic Constant Matrix: (Units=GPa)
#
#
# Indices 1 2 3 4 5 6 
#
# 1 109.8735 7.5884 59.6953 0.0000 0.0000 0.0000
# 2 7.5884 14.9911 1.0015 0.0000 0.0000 0.0000
# 3 59.6953 1.0015 93.2208 0.0000 0.0000 0.0000
# 4 0.0000 0.0000 0.0000 11.0365 0.0000 0.0000
# 5 0.0000 0.0000 0.0000 0.0000 25.2396 0.0000
# 6 0.0000 0.0000 0.0000 0.0000 0.0000 11.1591
#
#
#
# Elastic Compliance Matrix: (Units=1/GPa)
#
#
# Indices 1 2 3 4 5 6 
#
# 1 0.014615 -0.006777 -0.009286 0.000000 0.000000 0.000000
# 2 -0.006777 0.069897 0.003589 0.000000 0.000000 0.000000
# 3 -0.009286 0.003589 0.016635 0.000000 0.000000 0.000000
# 4 0.000000 0.000000 0.000000 0.090608 0.000000 0.000000
# 5 0.000000 0.000000 0.000000 0.000000 0.039620 0.000000
# 6 0.000000 0.000000 0.000000 0.000000 0.000000 0.089613
#
#
# Mechanical properties :
#
#
# Convention : Reuss Voigt Hill
#
# Bulk Modulus (GPa) = 13.12366 39.40622 26.26494
# Shear Modulus (GPa) = 13.46491 19.47373 16.46932
#
# Velocity S-wave (km/s) = 2.60386 3.13142 2.87975
# Velocity P-wave (km/s) = 3.95581 5.73733 4.92775
#
# Compressibility (1/GPa) = 0.07619825
#
# Stress axis : x y z
#
# Youngs Moduli (GPa) = 68.42495 14.30675 60.11425
#
# Poissons Ratio (x) = 0.09696 0.55821
# Poissons Ratio (y) = 0.46375 -0.21576
# Poissons Ratio (z) = 0.63538 -0.05135
#
# Static dielectric constant tensor:
#      x y z
#    x 1.748410 0.000000 0.000000 
#    y 0.000000 1.729270 0.000000 
#    z 0.000000 0.000000 1.685810 
# 
# From -- ./inp_files/26323.got.cif
#   From: 2010.05.17/outbox.cif.g08.bks.cpg/sg51_14_cif.got.tgz:26323.got - 2010.06.03 11:52:47.
