data_PCOD9406730
_publ_section_title
;
Structure prediction by ZEFSAII (Michael W. Deem and Ramdas Pophale) SiO2 
 PCOD9406730
Probable space group: P M M A
;
_chemical_formula_sum "Si O2"
_cell_formula_units_Z 48
_cell_length_a 10.454610
_cell_length_b 29.128777
_cell_length_c 8.505890
_cell_angle_alpha 90.000000
_cell_angle_beta 90.000000
_cell_angle_gamma 90.000000
_cell_volume 2590.298710
_symmetry_space_group_name_H-M "P M M A"
_symmetry_group_IT_number 51
_symmetry_cell_setting 'orthorhombic'
loop_
_space_group_symop_operation_xyz
x,y,z
1/2-x,-y,z
1/2+x,-y,-z
-x,y,-z
-x,-y,-z
1/2+x,y,-z
1/2-x,y,z
x,-y,z
loop_
_atom_site_type_symbol
_atom_site_label
_atom_site_fract_x
_atom_site_fract_y
_atom_site_fract_z
Si Si1 0.250000 0.208027 0.696033
Si Si2 0.750000 0.219125 0.680637
Si Si3 0.250000 0.102699 0.693119
Si Si4 0.507366 0.947304 0.691959
Si Si5 0.750000 0.112214 0.689977
Si Si6 0.605705 0.448446 0.366666
Si Si7 0.991943 0.264232 0.189001
Si Si8 0.400514 0.361377 0.857477
O O1 0.250000 0.214604 0.507875
O O2 0.250000 0.155065 0.746052
O O3 0.122826 0.231601 0.759615
O O4 0.750000 0.165721 0.736092
O O5 0.624208 0.245978 0.738968
O O6 0.125205 0.075064 0.743814
O O7 0.250000 0.107595 0.501576
O O8 0.500000 0.947660 0.500000
O O9 0.624073 0.915051 0.741929
O O10 0.523519 0.000000 0.741815
O O11 0.500000 0.443359 0.500000
O O12 0.750000 0.445842 0.433617
O O13 0.591735 0.500000 0.297608
O O14 0.593889 0.407524 0.243606
O O15 0.950739 0.316133 0.233841
O O16 0.000000 0.263943 0.000000
O O17 0.250000 0.353711 0.902836
O O18 0.500000 0.366594 0.000000
#
# Coordination Sequence:
#
# PCOD9406730 Si02
#       8
#     4   4   4   8   4   8   8   8
#     4  11  21  38  57  82 115 147 188 236 289 341
#     4  11  23  36  59  84 111 149 192 234 291 343
#     4   9  17  27  44  67 102 137 171 222 271 328
#     4   9  15  24  40  64  99 140 173 207 268 338
#     4   9  17  29  42  69 102 135 173 222 275 328
#     4   9  19  37  59  87 122 156 192 238 288 338
#     4  11  23  40  58  81 114 152 190 241 288 344
#     4  10  22  39  59  83 113 151 192 238 287 338
#
# _framework density 18.530683
#
# number of rings (size 3 to 8) (size 9 to 14) (size 15 to 20)
#    0.000    2.167    0.833    2.500    3.500    7.000 
#    0.000    0.000    0.000    0.000    0.000    0.000 
#    0.000   46.667    0.000    0.000    0.000    0.000 
#
# Total GULP energy -267739.612176 kJ/mol
# GULP energy per Si atom -5577.908587 kJ/mol
# Density = 1.848851 g / cm^3
# Si number density = 18.530683 Si / 1000 Ang^3
#
#
#
# Elastic Constant Matrix: (Units=GPa)
#
#
# Indices 1 2 3 4 5 6 
#
# 1 191.0830 101.4545 28.3568 0.0000 0.0000 0.0000
# 2 101.4545 169.3706 31.1025 0.0000 0.0000 0.0000
# 3 28.3568 31.1025 23.7065 0.0000 0.0000 0.0000
# 4 0.0000 0.0000 0.0000 111.7011 0.0000 0.0000
# 5 0.0000 0.0000 0.0000 0.0000 26.1046 0.0000
# 6 0.0000 0.0000 0.0000 0.0000 0.0000 -5.4331
#
#
#
# Elastic Compliance Matrix: (Units=1/GPa)
#
#
# Indices 1 2 3 4 5 6 
#
# 1 0.007997 -0.003996 -0.004322 0.000000 0.000000 0.000000
# 2 -0.003996 0.009775 -0.008045 0.000000 0.000000 0.000000
# 3 -0.004322 -0.008045 0.057907 0.000000 0.000000 0.000000
# 4 0.000000 0.000000 0.000000 0.008952 0.000000 0.000000
# 5 0.000000 0.000000 0.000000 0.000000 0.038307 0.000000
# 6 0.000000 0.000000 0.000000 0.000000 0.000000 -0.184058
#
#
# Mechanical properties :
#
#
# Convention : Reuss Voigt Hill
#
# Bulk Modulus (GPa) = 23.28147 78.44309 50.86228
# Shear Modulus (GPa) = -355.25158 41.35760 -156.94699
#
# Velocity S-wave (km/s) = -13.86096 4.72937 -9.21301
# Velocity P-wave (km/s) = 15.60696 8.49976 9.25557
#
# Compressibility (1/GPa) = 0.04295262
#
# Stress axis : x y z
#
# Youngs Moduli (GPa) = 125.05392 102.29795 17.26900
#
# Poissons Ratio (x) = 0.40882 0.07464
# Poissons Ratio (y) = 0.49976 0.13893
# Poissons Ratio (z) = 0.54049 0.82297
#
# Static dielectric constant tensor:
#      x y z
#    x 1.633020 0.000000 0.000000 
#    y 0.000000 1.643710 0.000000 
#    z 0.000000 0.000000 1.634330 
# 
# From -- ./inp_files/6318.got.cif
#   From: 2010.05.17/outbox.cif.g08.bks.cpg/sg51_4_cif.got.tgz:6318.got - 2010.06.03 11:52:47.
