data_PCOD9406006
_publ_section_title
;
Structure prediction by ZEFSAII (Michael W. Deem and Ramdas Pophale) SiO2 
 PCOD9406006
Probable space group: P M M A
;
_chemical_formula_sum "Si O2"
_cell_formula_units_Z 64
_cell_length_a 15.005689
_cell_length_b 8.697550
_cell_length_c 27.153736
_cell_angle_alpha 90.000000
_cell_angle_beta 90.000000
_cell_angle_gamma 90.000000
_cell_volume 3543.908225
_symmetry_space_group_name_H-M "P M M A"
_symmetry_group_IT_number 51
_symmetry_cell_setting 'orthorhombic'
loop_
_space_group_symop_operation_xyz
x,y,z
1/2-x,-y,z
1/2+x,-y,-z
-x,y,-z
-x,-y,-z
1/2+x,y,-z
1/2-x,y,z
x,-y,z
loop_
_atom_site_type_symbol
_atom_site_label
_atom_site_fract_x
_atom_site_fract_y
_atom_site_fract_z
Si Si1 0.645488 0.183490 0.760277
Si Si2 0.500000 0.682572 0.688166
Si Si3 0.853406 0.314873 0.133816
Si Si4 0.500000 0.687500 0.056102
Si Si5 0.354512 0.816510 0.760277
Si Si6 1.000000 0.814067 0.578746
Si Si7 0.352562 0.187109 0.500000
Si Si8 0.353406 0.314873 0.133816
O O1 0.750000 0.223105 0.754217
O O2 0.585294 0.257773 0.718464
O O3 0.617785 0.242332 0.814368
O O4 0.636341 0.000000 0.758318
O O5 0.499999 0.500000 0.687239
O O6 0.414706 0.742230 0.718463
O O7 0.500000 0.747101 0.633040
O O8 0.750000 0.275048 0.125667
O O9 0.860026 0.500000 0.138520
O O10 0.914485 0.266332 0.088296
O O11 0.882216 0.242333 0.185632
O O12 0.500000 0.500000 0.054280
O O13 0.414485 0.733668 0.088296
O O14 0.500000 0.742892 0.000000
O O15 0.250000 0.776893 0.754217
O O16 0.363658 0.000000 0.758319
O O17 0.087682 0.767962 0.547279
O O18 0.912317 0.767962 0.547279
O O19 1.000000 0.000000 0.581347
O O20 0.250000 0.241020 0.500000
O O21 0.350103 0.000000 0.500000
O O22 0.250000 0.275049 0.125667
O O23 0.360027 0.500000 0.138521
#
# Coordination Sequence:
#
# PCOD9406006 Si02
#       8
#     8   8   8   8   8   8   8   8
#     4  10  21  37  57  79 103 136 179 222 264 315
#     4  12  24  36  53  79 115 149 175 214 265 316
#     4   9  17  30  49  72  98 129 166 210 259 308
#     4   9  17  28  44  69  98 128 165 207 252 304
#     4  10  21  37  57  79 103 136 179 222 264 315
#     4   9  18  33  53  79 107 136 178 221 256 303
#     4   8  15  31  56  80 102 134 176 221 262 299
#     4   9  17  30  49  72  98 129 166 210 259 308
#
# _framework density 18.059156999999999
#
# number of rings (size 3 to 8) (size 9 to 14) (size 15 to 20)
#    0.000    2.500    0.000    3.375    0.000    4.000 
#    0.000    6.250    0.000    2.250    0.000    3.500 
#    0.000    0.000    0.000    0.000    0.000    0.000 
#
# Total GULP energy -357122.250314 kJ/mol
# GULP energy per Si atom -5580.035161 kJ/mol
# Density = 1.801805 g / cm^3
# Si number density = 18.059157 Si / 1000 Ang^3
#
#
#
# Elastic Constant Matrix: (Units=GPa)
#
#
# Indices 1 2 3 4 5 6 
#
# 1 136.5362 37.9228 110.5584 0.0000 0.0000 0.0000
# 2 37.9228 25.7003 46.0213 0.0000 0.0000 0.0000
# 3 110.5584 46.0213 212.4111 0.0000 0.0000 0.0000
# 4 0.0000 0.0000 0.0000 30.8251 0.0000 0.0000
# 5 0.0000 0.0000 0.0000 0.0000 -457.7698 0.0000
# 6 0.0000 0.0000 0.0000 0.0000 0.0000 11.6225
#
#
#
# Elastic Compliance Matrix: (Units=1/GPa)
#
#
# Indices 1 2 3 4 5 6 
#
# 1 0.015018 -0.013338 -0.004927 0.000000 0.000000 0.000000
# 2 -0.013338 0.075421 -0.009399 0.000000 0.000000 0.000000
# 3 -0.004927 -0.009399 0.009309 0.000000 0.000000 0.000000
# 4 0.000000 0.000000 0.000000 0.032441 0.000000 0.000000
# 5 0.000000 0.000000 0.000000 0.000000 -0.002185 0.000000
# 6 0.000000 0.000000 0.000000 0.000000 0.000000 0.086040
#
#
# Mechanical properties :
#
#
# Convention : Reuss Voigt Hill
#
# Bulk Modulus (GPa) = 22.51190 84.85030 53.68110
# Shear Modulus (GPa) = 17.47165 -71.05474 -26.79155
#
# Velocity S-wave (km/s) = 3.11379 -6.27941 -3.85586
# Velocity P-wave (km/s) = 5.04185 2.34264 3.15692
#
# Compressibility (1/GPa) = 0.04442095
#
# Stress axis : x y z
#
# Youngs Moduli (GPa) = 66.58557 13.25894 107.42623
#
# Poissons Ratio (x) = 0.17684 0.52930
# Poissons Ratio (y) = 0.88809 1.00966
# Poissons Ratio (z) = 0.32808 0.12462
#
# Static dielectric constant tensor:
#      x y z
#    x 1.631990 0.000000 0.000000 
#    y 0.000000 1.607150 0.000000 
#    z 0.000000 0.000000 1.585550 
# 
# From -- ./inp_files/35628.got.cif
#   From: 2010.05.17/outbox.cif.g08.bks.cpg/sg51_18_cif.got.tgz:35628.got - 2010.06.03 11:52:47.
