data_PCOD9406861
_publ_section_title
;
Structure prediction by ZEFSAII (Michael W. Deem and Ramdas Pophale) SiO2 
 PCOD9406861
Probable space group: P M M A
;
_chemical_formula_sum "Si O2"
_cell_formula_units_Z 36
_cell_length_a 13.950785
_cell_length_b 9.759358
_cell_length_c 11.849783
_cell_angle_alpha 90.000000
_cell_angle_beta 90.000000
_cell_angle_gamma 90.000000
_cell_volume 1613.356312
_symmetry_space_group_name_H-M "P M M A"
_symmetry_group_IT_number 51
_symmetry_cell_setting 'orthorhombic'
loop_
_space_group_symop_operation_xyz
x,y,z
1/2-x,-y,z
1/2+x,-y,-z
-x,y,-z
-x,-y,-z
1/2+x,y,-z
1/2-x,y,z
x,-y,z
loop_
_atom_site_type_symbol
_atom_site_label
_atom_site_fract_x
_atom_site_fract_y
_atom_site_fract_z
Si Si1 0.250000 0.500000 0.002778
Si Si2 0.250000 0.000000 0.956598
Si Si3 0.459797 0.162597 0.262949
Si Si4 0.137677 0.652550 0.440999
Si Si5 0.139909 0.341684 0.712920
Si Si6 0.111950 0.239751 0.028666
O O1 0.166797 0.379938 0.007429
O O2 0.333394 0.880993 0.965299
O O3 0.418317 0.229692 0.376988
O O4 0.560711 0.238897 0.242772
O O5 0.387747 0.200887 0.162092
O O6 0.470964 0.000000 0.270703
O O7 0.250000 0.658940 0.410866
O O8 0.101231 0.500000 0.408194
O O9 0.132932 0.662457 0.576228
O O10 0.250000 0.308013 0.742720
O O11 0.123781 0.500000 0.747474
O O12 0.000000 0.246829 0.000000
#
# Coordination Sequence:
#
# PCOD9406861 Si02
#       6
#     2   2   8   8   8   8
#     4  10  26  46  76  96 130 160 216 286 330 370
#     4  10  22  46  76  88 134 180 208 258 326 398
#     4  12  25  36  60  93 130 164 211 257 314 388
#     4   9  20  37  63  88 121 165 214 262 319 373
#     4   9  20  42  61  86 121 169 218 265 318 378
#     4  11  25  47  68 102 132 169 217 266 328 394
#
# _framework density 22.313732000000002
#
# number of rings (size 3 to 8) (size 9 to 14) (size 15 to 20)
#    0.000    1.778    1.111    3.333    6.222    4.444 
#    4.000    2.222    0.000    0.000    0.000    0.000 
#    0.000    0.000    0.000    0.000    0.000    0.000 
#
# Total GULP energy -200515.265110 kJ/mol
# GULP energy per Si atom -5569.868475 kJ/mol
# Density = 2.226295 g / cm^3
# Si number density = 22.313732 Si / 1000 Ang^3
#
#
#
# Elastic Constant Matrix: (Units=GPa)
#
#
# Indices 1 2 3 4 5 6 
#
# 1 168.5462 95.3975 24.4360 0.0000 0.0000 0.0000
# 2 95.3975 226.2262 42.3632 0.0000 0.0000 0.0000
# 3 24.4360 42.3632 74.7267 0.0000 0.0000 0.0000
# 4 0.0000 0.0000 0.0000 -1.1169 0.0000 0.0000
# 5 0.0000 0.0000 0.0000 0.0000 2.5723 0.0000
# 6 0.0000 0.0000 0.0000 0.0000 0.0000 56.8273
#
#
#
# Elastic Compliance Matrix: (Units=1/GPa)
#
#
# Indices 1 2 3 4 5 6 
#
# 1 0.007833 -0.003159 -0.000771 0.000000 0.000000 0.000000
# 2 -0.003159 0.006219 -0.002493 0.000000 0.000000 0.000000
# 3 -0.000771 -0.002493 0.015047 0.000000 0.000000 0.000000
# 4 0.000000 0.000000 0.000000 -0.895303 0.000000 0.000000
# 5 0.000000 0.000000 0.000000 0.000000 0.388752 0.000000
# 6 0.000000 0.000000 0.000000 0.000000 0.000000 0.017597
#
#
# Mechanical properties :
#
#
# Convention : Reuss Voigt Hill
#
# Bulk Modulus (GPa) = 61.51992 88.21027 74.86510
# Shear Modulus (GPa) = -11.32264 32.14337 10.41036
#
# Velocity S-wave (km/s) = -2.25506 3.79954 2.16231
# Velocity P-wave (km/s) = 4.56617 7.67244 6.31333
#
# Compressibility (1/GPa) = 0.01625490
#
# Stress axis : x y z
#
# Youngs Moduli (GPa) = 127.67137 160.79455 66.45716
#
# Poissons Ratio (x) = 0.50789 0.05122
# Poissons Ratio (y) = 0.40327 0.16566
# Poissons Ratio (z) = 0.09839 0.40083
#
# Static dielectric constant tensor:
#      x y z
#    x 1.816910 0.000000 0.000000 
#    y 0.000000 1.741090 0.000000 
#    z 0.000000 0.000000 1.915410 
# 
# From -- ./inp_files/23640.got.cif
#   From: 2010.05.17/outbox.cif.g08.bks.cpg/sg51_12_cif.got.tgz:23640.got - 2010.06.03 11:52:47.
