data_PCOD9406332
_publ_section_title
;
Structure prediction by ZEFSAII (Michael W. Deem and Ramdas Pophale) SiO2 
 PCOD9406332
Probable space group: P M M A
;
_chemical_formula_sum "Si O2"
_cell_formula_units_Z 48
_cell_length_a 8.815169
_cell_length_b 15.063806
_cell_length_c 19.583741
_cell_angle_alpha 90.000000
_cell_angle_beta 90.000000
_cell_angle_gamma 90.000000
_cell_volume 2600.524883
_symmetry_space_group_name_H-M "P M M A"
_symmetry_group_IT_number 51
_symmetry_cell_setting 'orthorhombic'
loop_
_space_group_symop_operation_xyz
x,y,z
1/2-x,-y,z
1/2+x,-y,-z
-x,y,-z
-x,-y,-z
1/2+x,y,-z
1/2-x,y,z
x,-y,z
loop_
_atom_site_type_symbol
_atom_site_label
_atom_site_fract_x
_atom_site_fract_y
_atom_site_fract_z
Si Si1 0.069314 0.395079 0.074046
Si Si2 0.567744 0.244262 0.676724
Si Si3 0.430182 0.894988 0.074068
Si Si4 0.068982 0.750192 0.827489
Si Si5 0.932410 0.398011 0.572944
Si Si6 0.070056 0.894410 0.573596
O O1 0.250000 0.380131 0.072832
O O2 0.042113 0.500000 0.085736
O O3 0.994091 0.334935 0.131684
O O4 0.000000 0.372369 0.000000
O O5 0.750000 0.241690 0.682350
O O6 0.495320 0.247255 0.751165
O O7 0.523352 0.331120 0.632701
O O8 0.509386 0.160877 0.633025
O O9 0.250000 0.877952 0.073201
O O10 0.508893 0.835311 0.130872
O O11 0.454108 0.000000 0.086249
O O12 0.500000 0.873640 0.000000
O O13 0.250000 0.749091 0.826903
O O14 0.750000 0.396187 0.567732
O O15 0.979551 0.500000 0.586062
O O16 0.000000 0.370520 0.500000
O O17 0.250000 0.876921 0.573117
O O18 0.000000 0.870028 0.500000
O O19 0.046909 0.000000 0.582962
#
# Coordination Sequence:
#
# PCOD9406332 Si02
#       6
#     8   8   8   8   8   8
#     4  10  21  39  63  88 115 149 191 238 285 336
#     4  11  23  38  57  82 114 151 190 233 283 338
#     4  10  21  39  63  88 114 147 189 235 282 335
#     4  12  25  39  57  83 118 155 191 234 285 343
#     4   9  19  36  58  83 110 142 181 225 273 326
#     4  10  21  38  60  85 113 147 188 234 284 338
#
# _framework density 18.457813000000002
#
# number of rings (size 3 to 8) (size 9 to 14) (size 15 to 20)
#    0.000    1.667    0.000    4.500    0.000    7.000 
#    0.000    1.667    0.000    0.000    0.000    0.000 
#    0.000    0.000    0.000    0.000    0.000    0.000 
#
# Total GULP energy -268357.980347 kJ/mol
# GULP energy per Si atom -5590.791257 kJ/mol
# Density = 1.841580 g / cm^3
# Si number density = 18.457813 Si / 1000 Ang^3
#
#
#
# Elastic Constant Matrix: (Units=GPa)
#
#
# Indices 1 2 3 4 5 6 
#
# 1 117.4684 73.5878 95.4948 0.0000 0.0000 0.0000
# 2 73.5878 92.7449 101.4772 0.0000 0.0000 0.0000
# 3 95.4948 101.4772 205.4715 0.0000 0.0000 0.0000
# 4 0.0000 0.0000 0.0000 -33.4657 0.0000 0.0000
# 5 0.0000 0.0000 0.0000 0.0000 39.7516 0.0000
# 6 0.0000 0.0000 0.0000 0.0000 0.0000 176.6770
#
#
#
# Elastic Compliance Matrix: (Units=1/GPa)
#
#
# Indices 1 2 3 4 5 6 
#
# 1 0.017635 -0.010932 -0.002797 0.000000 0.000000 0.000000
# 2 -0.010932 0.030236 -0.009852 0.000000 0.000000 0.000000
# 3 -0.002797 -0.009852 0.011032 0.000000 0.000000 0.000000
# 4 0.000000 0.000000 0.000000 -0.029881 0.000000 0.000000
# 5 0.000000 0.000000 0.000000 0.000000 0.025156 0.000000
# 6 0.000000 0.000000 0.000000 0.000000 0.000000 0.005660
#
#
# Mechanical properties :
#
#
# Convention : Reuss Voigt Hill
#
# Bulk Modulus (GPa) = 85.16963 106.31160 95.74062
# Shear Modulus (GPa) = 45.08013 46.26760 45.67386
#
# Velocity S-wave (km/s) = 4.94736 5.01209 4.97983
# Velocity P-wave (km/s) = 8.88134 9.55075 9.22212
#
# Compressibility (1/GPa) = 0.01174127
#
# Stress axis : x y z
#
# Youngs Moduli (GPa) = 56.70512 33.07352 90.64250
#
# Poissons Ratio (x) = 0.36156 0.25353
# Poissons Ratio (y) = 0.61991 0.89299
# Poissons Ratio (z) = 0.15860 0.32583
#
# Static dielectric constant tensor:
#      x y z
#    x 1.613690 0.000000 0.000000 
#    y 0.000000 1.643910 0.000000 
#    z 0.000000 0.000000 1.584890 
# 
# From -- ./inp_files/27572.got.cif
#   From: 2010.05.17/outbox.cif.g08.bks.cpg/sg51_14_cif.got.tgz:27572.got - 2010.06.03 11:52:47.
