data_PCOD9406881
_publ_section_title
;
Structure prediction by ZEFSAII (Michael W. Deem and Ramdas Pophale) SiO2 
 PCOD9406881
Probable space group: P M M A
;
_chemical_formula_sum "Si O2"
_cell_formula_units_Z 38
_cell_length_a 8.861955
_cell_length_b 20.074543
_cell_length_c 10.841210
_cell_angle_alpha 90.000000
_cell_angle_beta 90.000000
_cell_angle_gamma 90.000000
_cell_volume 1928.647971
_symmetry_space_group_name_H-M "P M M A"
_symmetry_group_IT_number 51
_symmetry_cell_setting 'orthorhombic'
loop_
_space_group_symop_operation_xyz
x,y,z
1/2-x,-y,z
1/2+x,-y,-z
-x,y,-z
-x,-y,-z
1/2+x,y,-z
1/2-x,y,z
x,-y,z
loop_
_atom_site_type_symbol
_atom_site_label
_atom_site_fract_x
_atom_site_fract_y
_atom_site_fract_z
Si Si1 0.919337 0.193034 0.282701
Si Si2 0.068430 0.073801 0.135995
Si Si3 0.000000 0.896382 0.500000
Si Si4 0.568582 0.669465 0.636865
Si Si5 0.250000 0.000000 0.416692
Si Si6 0.068482 0.422132 0.130473
O O1 0.750000 0.208182 0.238218
O O2 0.912188 0.151468 0.408323
O O3 0.002705 0.140188 0.195616
O O4 0.010329 0.259681 0.312169
O O5 0.250000 0.075839 0.136388
O O6 0.026931 0.000000 0.189824
O O7 0.000000 0.072522 0.000000
O O8 0.881401 0.942101 0.571511
O O9 0.500000 0.657311 0.500000
O O10 0.750000 0.669826 0.625487
O O11 0.525025 0.616939 0.744692
O O12 0.250000 0.417953 0.120634
O O13 0.025709 0.500000 0.142407
O O14 0.000000 0.397183 0.000000
#
# Coordination Sequence:
#
# PCOD9406881 Si02
#       6
#     8   8   4   8   2   8
#     4  12  25  39  60  84 120 159 202 253 308 370
#     4  10  23  41  62  85 114 152 201 258 317 377
#     4  11  24  38  56  86 113 150 198 256 311 368
#     4  11  24  41  62  92 131 173 213 260 318 381
#     4  10  24  38  56  82 114 146 202 254 314 366
#     4   9  20  41  69 100 131 165 209 260 311 372
#
# _framework density 19.702922999999998
#
# number of rings (size 3 to 8) (size 9 to 14) (size 15 to 20)
#    0.000    1.474    2.105    1.895    5.895    4.211 
#    0.000    2.105    0.000    0.000    0.000    0.000 
#    0.000    0.000    0.000    0.000    0.000    0.000 
#
# Total GULP energy -211541.545906 kJ/mol
# GULP energy per Si atom -5566.882787 kJ/mol
# Density = 1.965808 g / cm^3
# Si number density = 19.702923 Si / 1000 Ang^3
#
#
#
# Elastic Constant Matrix: (Units=GPa)
#
#
# Indices 1 2 3 4 5 6 
#
# 1 92.5417 39.6142 42.8370 0.0000 0.0000 0.0000
# 2 39.6142 119.4119 84.6077 0.0000 0.0000 0.0000
# 3 42.8370 84.6077 145.6088 0.0000 0.0000 0.0000
# 4 0.0000 0.0000 0.0000 22.6195 0.0000 0.0000
# 5 0.0000 0.0000 0.0000 0.0000 29.5552 0.0000
# 6 0.0000 0.0000 0.0000 0.0000 0.0000 40.0058
#
#
#
# Elastic Compliance Matrix: (Units=1/GPa)
#
#
# Indices 1 2 3 4 5 6 
#
# 1 0.013012 -0.002727 -0.002243 0.000000 0.000000 0.000000
# 2 -0.002727 0.014806 -0.007801 0.000000 0.000000 0.000000
# 3 -0.002243 -0.007801 0.012061 0.000000 0.000000 0.000000
# 4 0.000000 0.000000 0.000000 0.044210 0.000000 0.000000
# 5 0.000000 0.000000 0.000000 0.000000 0.033835 0.000000
# 6 0.000000 0.000000 0.000000 0.000000 0.000000 0.024996
#
#
# Mechanical properties :
#
#
# Convention : Reuss Voigt Hill
#
# Bulk Modulus (GPa) = 69.75613 76.85333 73.30473
# Shear Modulus (GPa) = 28.86141 31.13634 29.99887
#
# Velocity S-wave (km/s) = 3.83146 3.97960 3.90623
# Velocity P-wave (km/s) = 7.41986 7.75932 7.59148
#
# Compressibility (1/GPa) = 0.01433566
#
# Stress axis : x y z
#
# Youngs Moduli (GPa) = 76.85368 67.53795 82.91410
#
# Poissons Ratio (x) = 0.18418 0.18601
# Poissons Ratio (y) = 0.20958 0.64683
# Poissons Ratio (z) = 0.17241 0.52688
#
# Static dielectric constant tensor:
#      x y z
#    x 1.642130 0.000000 0.000000 
#    y 0.000000 1.669070 0.000000 
#    z 0.000000 0.000000 1.746730 
# 
# From -- ./inp_files/14074.got.cif
#   From: 2010.05.17/outbox.cif.g08.bks.cpg/sg51_8_cif.got.tgz:14074.got - 2010.06.03 11:52:47.
