data_PCOD9406748
_publ_section_title
;
Structure prediction by ZEFSAII (Michael W. Deem and Ramdas Pophale) SiO2 
 PCOD9406748
Probable space group: P M M A
;
_chemical_formula_sum "Si O2"
_cell_formula_units_Z 64
_cell_length_a 19.133968
_cell_length_b 8.053245
_cell_length_c 20.296420
_cell_angle_alpha 90.000000
_cell_angle_beta 90.000000
_cell_angle_gamma 90.000000
_cell_volume 3127.486158
_symmetry_space_group_name_H-M "P M M A"
_symmetry_group_IT_number 51
_symmetry_cell_setting 'orthorhombic'
loop_
_space_group_symop_operation_xyz
x,y,z
1/2-x,-y,z
1/2+x,-y,-z
-x,y,-z
-x,-y,-z
1/2+x,y,-z
1/2-x,y,z
x,-y,z
loop_
_atom_site_type_symbol
_atom_site_label
_atom_site_fract_x
_atom_site_fract_y
_atom_site_fract_z
Si Si1 0.578512 0.698600 0.096427
Si Si2 0.829749 0.798658 0.971358
Si Si3 0.551711 0.804759 0.712087
Si Si4 0.908941 0.694879 0.350991
Si Si5 0.170005 0.304452 0.383685
Si Si6 0.930149 0.196955 0.860273
Si Si7 0.670316 0.297195 0.220862
Si Si8 0.420392 0.193956 0.504587
O O1 0.571514 0.500000 0.099666
O O2 0.501386 0.773586 0.099628
O O3 0.620998 0.757205 0.161063
O O4 0.622626 0.744321 0.032338
O O5 0.750000 0.741076 0.978543
O O6 0.866128 0.738343 0.903950
O O7 0.829298 0.000000 0.970386
O O8 0.488508 0.717704 0.673599
O O9 0.622540 0.782795 0.671194
O O10 0.560063 0.736359 0.786271
O O11 0.533689 0.000000 0.715193
O O12 0.895354 0.500000 0.361565
O O13 0.860769 0.755715 0.290951
O O14 0.898034 0.785530 0.419922
O O15 0.250000 0.244617 0.385668
O O16 0.170363 0.500000 0.368845
O O17 0.131587 0.278751 0.453501
O O18 0.919271 0.000000 0.852612
O O19 0.750000 0.243425 0.211387
O O20 0.669490 0.500000 0.220528
O O21 0.500000 0.260657 0.500000
O O22 0.423026 0.000000 0.486114
#
# Coordination Sequence:
#
# PCOD9406748 Si02
#       8
#     8   8   8   8   8   8   8   8
#     4  11  21  36  60  89 119 155 198 246 298 354
#     4  10  22  40  59  82 116 158 201 246 300 360
#     4  11  22  38  62  90 120 157 201 251 303 358
#     4  11  21  36  61  88 118 157 198 245 298 356
#     4  11  25  43  64  92 124 160 204 251 302 362
#     4  10  22  39  61  87 118 156 202 249 296 359
#     4   9  19  35  55  83 118 153 189 232 289 353
#     4  11  23  39  62  91 121 157 201 247 296 353
#
# _framework density 20.463719000000001
#
# number of rings (size 3 to 8) (size 9 to 14) (size 15 to 20)
#    0.000    1.500    2.500    2.625    0.000    5.750 
#    0.000    2.500    0.000    3.375    0.000    0.000 
#    0.000    0.000    0.000    0.000    0.000    0.000 
#
# Total GULP energy -357749.901872 kJ/mol
# GULP energy per Si atom -5589.842217 kJ/mol
# Density = 2.041714 g / cm^3
# Si number density = 20.463719 Si / 1000 Ang^3
#
#
#
# Elastic Constant Matrix: (Units=GPa)
#
#
# Indices 1 2 3 4 5 6 
#
# 1 53.8440 -21.3644 21.4803 0.0000 0.0000 0.0000
# 2 -21.3644 12.9036 -11.8122 0.0000 0.0000 0.0000
# 3 21.4803 -11.8122 96.4714 0.0000 0.0000 0.0000
# 4 0.0000 0.0000 0.0000 15.0860 0.0000 0.0000
# 5 0.0000 0.0000 0.0000 0.0000 31.2535 0.0000
# 6 0.0000 0.0000 0.0000 0.0000 0.0000 15.7079
#
#
#
# Elastic Compliance Matrix: (Units=1/GPa)
#
#
# Indices 1 2 3 4 5 6 
#
# 1 0.054265 0.088731 -0.001218 0.000000 0.000000 0.000000
# 2 0.088731 0.232367 0.008695 0.000000 0.000000 0.000000
# 3 -0.001218 0.008695 0.011702 0.000000 0.000000 0.000000
# 4 0.000000 0.000000 0.000000 0.066287 0.000000 0.000000
# 5 0.000000 0.000000 0.000000 0.000000 0.031996 0.000000
# 6 0.000000 0.000000 0.000000 0.000000 0.000000 0.063662
#
#
# Mechanical properties :
#
#
# Convention : Reuss Voigt Hill
#
# Bulk Modulus (GPa) = 2.03771 15.53627 8.78699
# Shear Modulus (GPa) = 11.58890 24.07049 17.82969
#
# Velocity S-wave (km/s) = 2.38232 3.43337 2.95495
# Velocity P-wave (km/s) = 2.92663 4.82970 3.99319
#
# Compressibility (1/GPa) = 0.49074789
#
# Stress axis : x y z
#
# Youngs Moduli (GPa) = 18.42809 4.30354 85.45818
#
# Poissons Ratio (x) = -0.38186 0.10411
# Poissons Ratio (y) = -1.63514 -0.74304
# Poissons Ratio (z) = 0.02245 -0.03742
#
# Static dielectric constant tensor:
#      x y z
#    x 1.706480 0.000000 0.000000 
#    y 0.000000 1.727120 0.000000 
#    z 0.000000 0.000000 1.713420 
# 
# From -- ./inp_files/33903.got.cif
#   From: 2010.05.17/outbox.cif.g08.bks.cpg/sg51_17_cif.got.tgz:33903.got - 2010.06.03 11:52:47.
