data_PCOD9406035
_publ_section_title
;
Structure prediction by ZEFSAII (Michael W. Deem and Ramdas Pophale) SiO2 
 PCOD9406035
Probable space group: P M M A
;
_chemical_formula_sum "Si O2"
_cell_formula_units_Z 64
_cell_length_a 8.540528
_cell_length_b 24.195576
_cell_length_c 15.649372
_cell_angle_alpha 90.000000
_cell_angle_beta 90.000000
_cell_angle_gamma 90.000000
_cell_volume 3233.833089
_symmetry_space_group_name_H-M "P M M A"
_symmetry_group_IT_number 51
_symmetry_cell_setting 'orthorhombic'
loop_
_space_group_symop_operation_xyz
x,y,z
1/2-x,-y,z
1/2+x,-y,-z
-x,y,-z
-x,-y,-z
1/2+x,y,-z
1/2-x,y,z
x,-y,z
loop_
_atom_site_type_symbol
_atom_site_label
_atom_site_fract_x
_atom_site_fract_y
_atom_site_fract_z
Si Si1 0.064295 0.562166 0.903511
Si Si2 0.936106 0.203568 0.407945
Si Si3 0.937062 0.321932 0.335608
Si Si4 0.430515 0.227620 0.910718
Si Si5 0.061222 0.561336 0.403015
Si Si6 0.928292 0.328630 0.845452
Si Si7 0.435118 0.153073 0.233133
Si Si8 0.938809 0.064337 0.905708
O O1 0.250000 0.573516 0.902487
O O2 0.039437 0.500000 0.871702
O O3 0.970146 0.607350 0.851778
O O4 0.000000 0.564733 0.000000
O O5 0.750000 0.199277 0.408854
O O6 0.974272 0.269120 0.395087
O O7 0.000000 0.185229 0.500000
O O8 0.994693 0.169008 0.325319
O O9 0.750000 0.320493 0.317984
O O10 0.983333 0.383224 0.366083
O O11 0.035819 0.311783 0.250701
O O12 0.250000 0.212934 0.902480
O O13 0.455680 0.293288 0.904057
O O14 0.526541 0.202241 0.832733
O O15 0.500000 0.208333 0.000000
O O16 0.250000 0.567315 0.400602
O O17 0.022902 0.500000 0.365252
O O18 0.000000 0.559423 0.500000
O O19 0.750000 0.317942 0.870660
O O20 0.250000 0.147053 0.244754
O O21 0.492796 0.100657 0.175797
O O22 0.750000 0.068568 0.908589
O O23 0.982279 0.000000 0.894273
O O24 0.000000 0.081345 0.000000
#
# Coordination Sequence:
#
# PCOD9406035 Si02
#       8
#     8   8   8   8   8   8   8   8
#     4  10  21  38  58  78 103 138 183 234 289 352
#     4  11  24  41  63  89 121 160 205 260 314 373
#     4  11  23  39  59  83 112 147 189 242 302 366
#     4  12  24  39  58  84 120 159 200 245 298 358
#     4  10  21  37  57  81 108 140 181 233 294 363
#     4  12  24  38  57  80 110 145 186 238 293 355
#     4  11  22  38  62  92 126 165 209 256 305 358
#     4   9  19  36  60  94 135 177 217 256 301 355
#
# _framework density 19.790755999999998
#
# number of rings (size 3 to 8) (size 9 to 14) (size 15 to 20)
#    0.000    1.250    1.250    5.250    0.000    6.500 
#    0.000    0.000    0.000    0.375    0.000    0.000 
#    0.000    0.000    0.000    0.000    0.000    0.000 
#
# Total GULP energy -357367.857002 kJ/mol
# GULP energy per Si atom -5583.872766 kJ/mol
# Density = 1.974571 g / cm^3
# Si number density = 19.790756 Si / 1000 Ang^3
#
#
#
# Elastic Constant Matrix: (Units=GPa)
#
#
# Indices 1 2 3 4 5 6 
#
# 1 47.3051 25.8770 22.1930 0.0000 0.0000 0.0000
# 2 25.8770 106.9064 51.2767 0.0000 0.0000 0.0000
# 3 22.1930 51.2767 132.6823 0.0000 0.0000 0.0000
# 4 0.0000 0.0000 0.0000 30.8391 0.0000 0.0000
# 5 0.0000 0.0000 0.0000 0.0000 32.2184 0.0000
# 6 0.0000 0.0000 0.0000 0.0000 0.0000 21.2345
#
#
#
# Elastic Compliance Matrix: (Units=1/GPa)
#
#
# Indices 1 2 3 4 5 6 
#
# 1 0.024903 -0.004947 -0.002254 0.000000 0.000000 0.000000
# 2 -0.004947 0.012465 -0.003990 0.000000 0.000000 0.000000
# 3 -0.002254 -0.003990 0.009456 0.000000 0.000000 0.000000
# 4 0.000000 0.000000 0.000000 0.032426 0.000000 0.000000
# 5 0.000000 0.000000 0.000000 0.000000 0.031038 0.000000
# 6 0.000000 0.000000 0.000000 0.000000 0.000000 0.047093
#
#
# Mechanical properties :
#
#
# Convention : Reuss Voigt Hill
#
# Bulk Modulus (GPa) = 40.91171 53.95412 47.43291
# Shear Modulus (GPa) = 26.60857 29.36152 27.98505
#
# Velocity S-wave (km/s) = 3.67071 3.85593 3.76446
# Velocity P-wave (km/s) = 6.21953 6.86627 6.55089
#
# Compressibility (1/GPa) = 0.02444288
#
# Stress axis : x y z
#
# Youngs Moduli (GPa) = 40.15637 80.22409 105.75667
#
# Poissons Ratio (x) = 0.39686 0.23833
# Poissons Ratio (y) = 0.19865 0.42195
# Poissons Ratio (z) = 0.09049 0.32008
#
# Static dielectric constant tensor:
#      x y z
#    x 1.669410 0.000000 0.000000 
#    y 0.000000 1.754190 0.000000 
#    z 0.000000 0.000000 1.736430 
# 
# From -- ./inp_files/22400.got.cif
#   From: 2010.05.17/outbox.cif.g08.bks.cpg/sg51_12_cif.got.tgz:22400.got - 2010.06.03 11:52:47.
