data_PCOD9406566
_publ_section_title
;
Structure prediction by ZEFSAII (Michael W. Deem and Ramdas Pophale) SiO2 
 PCOD9406566
Probable space group: P M M A
;
_chemical_formula_sum "Si O2"
_cell_formula_units_Z 48
_cell_length_a 16.170546
_cell_length_b 9.082892
_cell_length_c 17.391187
_cell_angle_alpha 90.000000
_cell_angle_beta 90.000000
_cell_angle_gamma 90.000000
_cell_volume 2554.336206
_symmetry_space_group_name_H-M "P M M A"
_symmetry_group_IT_number 51
_symmetry_cell_setting 'orthorhombic'
loop_
_space_group_symop_operation_xyz
x,y,z
1/2-x,-y,z
1/2+x,-y,-z
-x,y,-z
-x,-y,-z
1/2+x,y,-z
1/2-x,y,z
x,-y,z
loop_
_atom_site_type_symbol
_atom_site_label
_atom_site_fract_x
_atom_site_fract_y
_atom_site_fract_z
Si Si1 0.750000 0.178527 0.272617
Si Si2 0.389195 0.175703 0.845816
Si Si3 0.918640 0.173926 0.843683
Si Si4 0.590895 0.677654 0.532166
Si Si5 0.651860 0.671352 0.993155
Si Si6 0.750000 0.821648 0.450658
Si Si7 0.154063 0.326315 0.303461
O O1 0.670330 0.225243 0.223169
O O2 0.750000 0.224685 0.360889
O O3 0.750000 0.000000 0.274118
O O4 0.484791 0.201208 0.827523
O O5 0.377037 0.000000 0.856529
O O6 0.366973 0.254527 0.925267
O O7 0.894546 0.249504 0.923631
O O8 0.867409 0.238289 0.772898
O O9 0.905049 0.000000 0.850670
O O10 0.500000 0.715889 0.500000
O O11 0.601658 0.500000 0.524787
O O12 0.666909 0.757256 0.489491
O O13 0.599268 0.714018 0.622687
O O14 0.750000 0.682121 0.978669
O O15 0.628715 0.500000 0.995622
O O16 0.750000 0.000000 0.456114
O O17 0.250000 0.303685 0.324897
O O18 0.142801 0.500000 0.287663
#
# Coordination Sequence:
#
# PCOD9406566 Si02
#       7
#     4   8   8   8   8   4   8
#     4   9  20  39  61  84 117 156 189 235 300 351
#     4  10  21  40  62  83 114 156 195 238 292 351
#     4  11  24  37  58  90 118 151 199 243 290 356
#     4  10  22  42  66  91 124 168 210 253 310 374
#     4  11  23  39  59  85 117 154 196 241 292 347
#     4  11  23  39  65  96 127 162 203 257 316 369
#     4  10  21  40  62  85 119 159 199 247 299 350
#
# _framework density 18.791575000000002
#
# number of rings (size 3 to 8) (size 9 to 14) (size 15 to 20)
#    0.000    1.667    1.667    2.250    2.333    7.667 
#    0.000    1.667    0.000    0.000    0.000    0.000 
#    0.000    0.000    0.000    0.000    0.000    0.000 
#
# Total GULP energy -268180.362757 kJ/mol
# GULP energy per Si atom -5587.090891 kJ/mol
# Density = 1.874880 g / cm^3
# Si number density = 18.791575 Si / 1000 Ang^3
#
#
#
# Elastic Constant Matrix: (Units=GPa)
#
#
# Indices 1 2 3 4 5 6 
#
# 1 68.7141 36.7816 22.4669 0.0000 0.0000 0.0000
# 2 36.7816 27.9527 19.6827 0.0000 0.0000 0.0000
# 3 22.4669 19.6827 93.1269 0.0000 0.0000 0.0000
# 4 0.0000 0.0000 0.0000 18.0823 0.0000 0.0000
# 5 0.0000 0.0000 0.0000 0.0000 -45.2833 0.0000
# 6 0.0000 0.0000 0.0000 0.0000 0.0000 24.3756
#
#
#
# Elastic Compliance Matrix: (Units=1/GPa)
#
#
# Indices 1 2 3 4 5 6 
#
# 1 0.049588 -0.066762 0.002147 0.000000 0.000000 0.000000
# 2 -0.066762 0.131915 -0.011774 0.000000 0.000000 0.000000
# 3 0.002147 -0.011774 0.012709 0.000000 0.000000 0.000000
# 4 0.000000 0.000000 0.000000 0.055303 0.000000 0.000000
# 5 0.000000 0.000000 0.000000 0.000000 -0.022083 0.000000
# 6 0.000000 0.000000 0.000000 0.000000 0.000000 0.041025
#
#
# Mechanical properties :
#
#
# Convention : Reuss Voigt Hill
#
# Bulk Modulus (GPa) = 24.13543 38.62845 31.38194
# Shear Modulus (GPa) = 11.49306 6.82575 9.15940
#
# Velocity S-wave (km/s) = 2.47575 1.90794 2.21016
# Velocity P-wave (km/s) = 4.58738 5.04525 4.82175
#
# Compressibility (1/GPa) = 0.04143287
#
# Stress axis : x y z
#
# Youngs Moduli (GPa) = 20.16622 7.58063 78.68738
#
# Poissons Ratio (x) = 0.50610 -0.16897
# Poissons Ratio (y) = 1.34635 0.92649
# Poissons Ratio (z) = -0.04330 0.08926
#
# Static dielectric constant tensor:
#      x y z
#    x 1.650670 0.000000 0.000000 
#    y 0.000000 1.635540 0.000000 
#    z 0.000000 0.000000 1.617460 
# 
# From -- ./inp_files/29523.got.cif
#   From: 2010.05.17/outbox.cif.g08.bks.cpg/sg51_15_cif.got.tgz:29523.got - 2010.06.03 11:52:47.
