data_PCOD9406523
_publ_section_title
;
Structure prediction by ZEFSAII (Michael W. Deem and Ramdas Pophale) SiO2 
 PCOD9406523
Probable space group: P M M A
;
_chemical_formula_sum "Si O2"
_cell_formula_units_Z 40
_cell_length_a 8.561644
_cell_length_b 26.740224
_cell_length_c 9.400941
_cell_angle_alpha 90.000000
_cell_angle_beta 90.000000
_cell_angle_gamma 90.000000
_cell_volume 2152.254049
_symmetry_space_group_name_H-M "P M M A"
_symmetry_group_IT_number 51
_symmetry_cell_setting 'orthorhombic'
loop_
_space_group_symop_operation_xyz
x,y,z
1/2-x,-y,z
1/2+x,-y,-z
-x,y,-z
-x,-y,-z
1/2+x,y,-z
1/2-x,y,z
x,-y,z
loop_
_atom_site_type_symbol
_atom_site_label
_atom_site_fract_x
_atom_site_fract_y
_atom_site_fract_z
Si Si1 0.062841 0.441972 0.342308
Si Si2 0.062259 0.740611 0.340193
Si Si3 0.438869 0.163045 0.161314
Si Si4 0.435967 0.647709 0.840817
Si Si5 0.938718 0.946325 0.837814
O O1 0.250000 0.437265 0.341873
O O2 0.022405 0.500000 0.313015
O O3 0.000000 0.429819 0.500000
O O4 0.990705 0.404067 0.229953
O O5 0.250000 0.739634 0.342066
O O6 0.009733 0.791036 0.258878
O O7 0.000000 0.739678 0.500000
O O8 0.001952 0.692828 0.254017
O O9 0.250000 0.163861 0.155543
O O10 0.488192 0.108069 0.219232
O O11 0.500000 0.168653 0.000000
O O12 0.250000 0.650139 0.842521
O O13 0.500000 0.652032 0.000000
O O14 0.750000 0.946437 0.839387
O O15 0.989605 0.000000 0.773328
O O16 0.000000 0.946493 0.000000
#
# Coordination Sequence:
#
# PCOD9406523 Si02
#       5
#     8   8   8   8   8
#     4  10  21  39  63  90 120 154 190 226 267 317
#     4  11  23  39  57  78 106 141 183 226 273 328
#     4   9  18  31  50  76 104 135 172 217 267 319
#     4  12  25  41  61  85 114 146 183 227 275 324
#     4   8  13  23  41  67  98 130 165 207 257 312
#
# _framework density 18.585166000000001
#
# number of rings (size 3 to 8) (size 9 to 14) (size 15 to 20)
#    0.000    2.000    0.000    4.200    0.000    4.800 
#    0.000    0.000    0.000    0.600    0.000    0.000 
#    0.000    0.000    0.000    0.000    0.000    0.200 
#
# Total GULP energy -223209.918286 kJ/mol
# GULP energy per Si atom -5580.247957 kJ/mol
# Density = 1.854287 g / cm^3
# Si number density = 18.585166 Si / 1000 Ang^3
#
#
#
# Elastic Constant Matrix: (Units=GPa)
#
#
# Indices 1 2 3 4 5 6 
#
# 1 58.7174 46.0262 35.5457 0.0000 0.0000 0.0000
# 2 46.0262 151.7329 96.1442 0.0000 0.0000 0.0000
# 3 35.5457 96.1442 123.9322 0.0000 0.0000 0.0000
# 4 0.0000 0.0000 0.0000 -21.2866 0.0000 0.0000
# 5 0.0000 0.0000 0.0000 0.0000 29.7902 0.0000
# 6 0.0000 0.0000 0.0000 0.0000 0.0000 39.4619
#
#
#
# Elastic Compliance Matrix: (Units=1/GPa)
#
#
# Indices 1 2 3 4 5 6 
#
# 1 0.022671 -0.005422 -0.002296 0.000000 0.000000 0.000000
# 2 -0.005422 0.014259 -0.009507 0.000000 0.000000 0.000000
# 3 -0.002296 -0.009507 0.016103 0.000000 0.000000 0.000000
# 4 0.000000 0.000000 0.000000 -0.046978 0.000000 0.000000
# 5 0.000000 0.000000 0.000000 0.000000 0.033568 0.000000
# 6 0.000000 0.000000 0.000000 0.000000 0.000000 0.025341
#
#
# Mechanical properties :
#
#
# Convention : Reuss Voigt Hill
#
# Bulk Modulus (GPa) = 53.81318 76.64609 65.22963
# Shear Modulus (GPa) = 47.34503 20.03755 33.69129
#
# Velocity S-wave (km/s) = 5.05272 3.28708 4.26232
# Velocity P-wave (km/s) = 7.94089 7.46569 7.70695
#
# Compressibility (1/GPa) = 0.01858281
#
# Stress axis : x y z
#
# Youngs Moduli (GPa) = 44.10968 70.13028 62.10131
#
# Poissons Ratio (x) = 0.38025 0.14259
# Poissons Ratio (y) = 0.23916 0.59039
# Poissons Ratio (z) = 0.10128 0.66672
#
# Static dielectric constant tensor:
#      x y z
#    x 1.623110 0.000000 0.000000 
#    y 0.000000 1.687970 0.000000 
#    z 0.000000 0.000000 1.589280 
# 
# From -- ./inp_files/5226.got.cif
#   From: 2010.05.17/outbox.cif.g08.bks.cpg/sg51_3_cif.got.tgz:5226.got - 2010.06.03 11:52:47.
