data_PCOD9406589
_publ_section_title
;
Structure prediction by ZEFSAII (Michael W. Deem and Ramdas Pophale) SiO2 
 PCOD9406589
Probable space group: P M M A
;
_chemical_formula_sum "Si O2"
_cell_formula_units_Z 48
_cell_length_a 31.018402
_cell_length_b 8.623870
_cell_length_c 9.818342
_cell_angle_alpha 90.000000
_cell_angle_beta 90.000000
_cell_angle_gamma 90.000000
_cell_volume 2626.393392
_symmetry_space_group_name_H-M "P M M A"
_symmetry_group_IT_number 51
_symmetry_cell_setting 'orthorhombic'
loop_
_space_group_symop_operation_xyz
x,y,z
1/2-x,-y,z
1/2+x,-y,-z
-x,y,-z
-x,-y,-z
1/2+x,y,-z
1/2-x,y,z
x,-y,z
loop_
_atom_site_type_symbol
_atom_site_label
_atom_site_fract_x
_atom_site_fract_y
_atom_site_fract_z
Si Si1 0.112234 0.184357 0.806554
Si Si2 0.434288 0.185438 0.290394
Si Si3 0.138761 0.685165 0.089484
Si Si4 0.128326 0.685245 0.511223
Si Si5 0.699655 0.814174 0.690179
Si Si6 0.982899 0.684705 0.153293
O O1 0.128103 0.254081 0.664384
O O2 0.062119 0.230332 0.823825
O O3 0.116935 0.000000 0.807112
O O4 0.136691 0.257174 0.935464
O O5 0.401712 0.241800 0.171348
O O6 0.412684 0.246544 0.429043
O O7 0.480633 0.256675 0.256774
O O8 0.436250 0.000000 0.291316
O O9 0.135109 0.500000 0.096197
O O10 0.180558 0.742869 0.171044
O O11 0.126491 0.500000 0.506528
O O12 0.170155 0.744497 0.429330
O O13 0.750000 0.779979 0.673042
O O14 0.693692 0.000000 0.693046
O O15 0.976537 0.500000 0.166967
O O16 0.000000 0.715036 0.000000
#
# Coordination Sequence:
#
# PCOD9406589 Si02
#       6
#     8   8   8   8   8   8
#     4  12  24  39  59  85 119 156 198 244 295 347
#     4  11  21  36  58  84 115 155 202 243 287 340
#     4  11  21  36  59  87 118 152 192 237 288 342
#     4  11  23  40  61  86 120 157 195 240 296 352
#     4  10  21  40  66  93 119 150 190 235 286 348
#     4  11  22  36  57  84 117 155 202 250 293 340
#
# _framework density 18.276015000000001
#
# number of rings (size 3 to 8) (size 9 to 14) (size 15 to 20)
#    0.000    1.000    1.667    9.000    0.000    2.667 
#    0.000    4.167    0.000    5.000    0.000    0.000 
#    0.000    0.000    0.000    0.000    0.000    0.000 
#
# Total GULP energy -268495.511047 kJ/mol
# GULP energy per Si atom -5593.656480 kJ/mol
# Density = 1.823442 g / cm^3
# Si number density = 18.276015 Si / 1000 Ang^3
#
#
#
# Elastic Constant Matrix: (Units=GPa)
#
#
# Indices 1 2 3 4 5 6 
#
# 1 68.1465 22.5184 27.0464 0.0000 0.0000 0.0000
# 2 22.5184 108.4463 32.9510 0.0000 0.0000 0.0000
# 3 27.0464 32.9510 131.9157 0.0000 0.0000 0.0000
# 4 0.0000 0.0000 0.0000 34.0832 0.0000 0.0000
# 5 0.0000 0.0000 0.0000 0.0000 12.3903 0.0000
# 6 0.0000 0.0000 0.0000 0.0000 0.0000 52.2775
#
#
#
# Elastic Compliance Matrix: (Units=1/GPa)
#
#
# Indices 1 2 3 4 5 6 
#
# 1 0.016633 -0.002616 -0.002757 0.000000 0.000000 0.000000
# 2 -0.002616 0.010390 -0.002059 0.000000 0.000000 0.000000
# 3 -0.002757 -0.002059 0.008660 0.000000 0.000000 0.000000
# 4 0.000000 0.000000 0.000000 0.029340 0.000000 0.000000
# 5 0.000000 0.000000 0.000000 0.000000 0.080708 0.000000
# 6 0.000000 0.000000 0.000000 0.000000 0.000000 0.019129
#
#
# Mechanical properties :
#
#
# Convention : Reuss Voigt Hill
#
# Bulk Modulus (GPa) = 48.03213 52.61557 50.32385
# Shear Modulus (GPa) = 26.78623 34.81637 30.80130
#
# Velocity S-wave (km/s) = 3.83253 4.36940 4.10974
# Velocity P-wave (km/s) = 6.77665 7.36936 7.07921
#
# Compressibility (1/GPa) = 0.02081940
#
# Stress axis : x y z
#
# Youngs Moduli (GPa) = 60.12204 96.24658 115.47216
#
# Poissons Ratio (x) = 0.25179 0.31832
# Poissons Ratio (y) = 0.15729 0.23775
# Poissons Ratio (z) = 0.16574 0.19816
#
# Static dielectric constant tensor:
#      x y z
#    x 1.607030 0.000000 0.000000 
#    y 0.000000 1.605490 0.000000 
#    z 0.000000 0.000000 1.622720 
# 
# From -- ./inp_files/12771.got.cif
#   From: 2010.05.17/outbox.cif.g08.bks.cpg/sg51_7_cif.got.tgz:12771.got - 2010.06.03 11:52:47.
