data_PCOD9406431
_publ_section_title
;
Structure prediction by ZEFSAII (Michael W. Deem and Ramdas Pophale) SiO2 
 PCOD9406431
Probable space group: P M M A
;
_chemical_formula_sum "Si O2"
_cell_formula_units_Z 48
_cell_length_a 9.363152
_cell_length_b 14.143051
_cell_length_c 18.722098
_cell_angle_alpha 90.000000
_cell_angle_beta 90.000000
_cell_angle_gamma 90.000000
_cell_volume 2479.246423
_symmetry_space_group_name_H-M "P M M A"
_symmetry_group_IT_number 51
_symmetry_cell_setting 'orthorhombic'
loop_
_space_group_symop_operation_xyz
x,y,z
1/2-x,-y,z
1/2+x,-y,-z
-x,y,-z
-x,-y,-z
1/2+x,y,-z
1/2-x,y,z
x,-y,z
loop_
_atom_site_type_symbol
_atom_site_label
_atom_site_fract_x
_atom_site_fract_y
_atom_site_fract_z
Si Si1 0.591511 0.888959 0.689548
Si Si2 0.750000 0.111475 0.113256
Si Si3 0.468888 0.796499 0.161499
Si Si4 0.079725 0.608996 0.366648
Si Si5 0.078527 0.785357 0.570473
Si Si6 0.579356 0.391637 0.213510
Si Si7 0.750000 0.884919 0.946066
O O1 0.750000 0.878007 0.655981
O O2 0.593226 0.830564 0.763053
O O3 0.470991 0.848528 0.637630
O O4 0.570814 0.000000 0.704955
O O5 0.617151 0.151549 0.154258
O O6 0.750000 0.000000 0.114385
O O7 0.750000 0.138380 0.029578
O O8 0.501673 0.685219 0.164021
O O9 0.380501 0.837009 0.095378
O O10 0.250000 0.631330 0.361548
O O11 0.067917 0.500000 0.391192
O O12 0.994643 0.683316 0.414771
O O13 0.001706 0.614304 0.289576
O O14 0.250000 0.779781 0.563867
O O15 0.000000 0.824051 0.500000
O O16 0.750000 0.370850 0.221349
O O17 0.566941 0.500000 0.188376
O O18 0.750000 0.000000 0.937660
#
# Coordination Sequence:
#
# PCOD9406431 Si02
#       7
#     8   4   8   8   8   8   4
#     4  11  24  42  65  93 126 165 211 262 316 377
#     4  11  24  40  63  95 132 168 214 259 315 385
#     4  12  22  39  65  95 126 170 213 260 317 374
#     4  10  21  38  62  92 125 162 207 259 316 376
#     4  12  26  43  64  90 126 169 210 262 320 373
#     4  10  21  38  61  93 128 164 210 266 323 374
#     4  11  24  42  63  93 134 174 206 257 321 381
#
# _framework density 19.360721999999999
#
# number of rings (size 3 to 8) (size 9 to 14) (size 15 to 20)
#    0.000    1.000    3.333    4.000    2.333    3.333 
#    0.000    0.000    0.000    3.000    0.000    0.000 
#    0.000    0.000    0.000    0.000    0.000    0.000 
#
# Total GULP energy -268007.287454 kJ/mol
# GULP energy per Si atom -5583.485155 kJ/mol
# Density = 1.931666 g / cm^3
# Si number density = 19.360722 Si / 1000 Ang^3
#
#
#
# Elastic Constant Matrix: (Units=GPa)
#
#
# Indices 1 2 3 4 5 6 
#
# 1 144.2998 33.7226 17.5236 0.0000 0.0000 0.0000
# 2 33.7226 98.6592 24.6422 0.0000 0.0000 0.0000
# 3 17.5236 24.6422 49.7550 0.0000 0.0000 0.0000
# 4 0.0000 0.0000 0.0000 25.1899 0.0000 0.0000
# 5 0.0000 0.0000 0.0000 0.0000 35.3118 0.0000
# 6 0.0000 0.0000 0.0000 0.0000 0.0000 47.7306
#
#
#
# Elastic Compliance Matrix: (Units=1/GPa)
#
#
# Indices 1 2 3 4 5 6 
#
# 1 0.007641 -0.002213 -0.001595 0.000000 0.000000 0.000000
# 2 -0.002213 0.012208 -0.005267 0.000000 0.000000 0.000000
# 3 -0.001595 -0.005267 0.023269 0.000000 0.000000 0.000000
# 4 0.000000 0.000000 0.000000 0.039698 0.000000 0.000000
# 5 0.000000 0.000000 0.000000 0.000000 0.028319 0.000000
# 6 0.000000 0.000000 0.000000 0.000000 0.000000 0.020951
#
#
# Mechanical properties :
#
#
# Convention : Reuss Voigt Hill
#
# Bulk Modulus (GPa) = 40.05194 49.38786 44.71990
# Shear Modulus (GPa) = 31.53411 36.10152 33.81782
#
# Velocity S-wave (km/s) = 4.04018 4.32288 4.18392
# Velocity P-wave (km/s) = 6.51891 7.10500 6.81825
#
# Compressibility (1/GPa) = 0.02496758
#
# Stress axis : x y z
#
# Youngs Moduli (GPa) = 130.87356 81.91401 42.97631
#
# Poissons Ratio (x) = 0.18131 0.06854
# Poissons Ratio (y) = 0.28967 0.22634
# Poissons Ratio (z) = 0.20873 0.43141
#
# Static dielectric constant tensor:
#      x y z
#    x 1.653170 0.000000 0.000000 
#    y 0.000000 1.686280 0.000000 
#    z 0.000000 0.000000 1.656940 
# 
# From -- ./inp_files/27644.got.cif
#   From: 2010.05.17/outbox.cif.g08.bks.cpg/sg51_14_cif.got.tgz:27644.got - 2010.06.03 11:52:47.
