data_PCOD9406802
_publ_section_title
;
Structure prediction by ZEFSAII (Michael W. Deem and Ramdas Pophale) SiO2 
 PCOD9406802
Probable space group: P M M A
;
_chemical_formula_sum "Si O2"
_cell_formula_units_Z 38
_cell_length_a 9.016362
_cell_length_b 11.677581
_cell_length_c 18.288118
_cell_angle_alpha 90.000000
_cell_angle_beta 90.000000
_cell_angle_gamma 90.000000
_cell_volume 1925.543098
_symmetry_space_group_name_H-M "P M M A"
_symmetry_group_IT_number 51
_symmetry_cell_setting 'orthorhombic'
loop_
_space_group_symop_operation_xyz
x,y,z
1/2-x,-y,z
1/2+x,-y,-z
-x,y,-z
-x,-y,-z
1/2+x,y,-z
1/2-x,y,z
x,-y,z
loop_
_atom_site_type_symbol
_atom_site_label
_atom_site_fract_x
_atom_site_fract_y
_atom_site_fract_z
Si Si1 0.418720 0.290695 0.699496
Si Si2 0.750000 0.500000 0.123433
Si Si3 0.750000 0.127734 0.902775
Si Si4 0.927411 0.132288 0.580182
Si Si5 0.942790 0.868206 0.162493
Si Si6 0.750000 0.255774 0.048648
Si Si7 0.933384 0.500000 0.777182
O O1 0.250000 0.333104 0.683312
O O2 0.490476 0.220617 0.633271
O O3 0.402720 0.203587 0.767197
O O4 0.528701 0.389249 0.728357
O O5 0.750000 0.386797 0.073437
O O6 0.586192 0.500000 0.167151
O O7 0.615027 0.135461 0.848875
O O8 0.750000 0.000000 0.939056
O O9 0.750000 0.225046 0.964086
O O10 0.750000 0.152298 0.577201
O O11 0.000000 0.140977 0.500000
O O12 0.949669 0.000000 0.605495
O O13 0.883960 0.807964 0.089275
O O14 0.899102 0.000000 0.166814
O O15 0.750000 0.500000 0.798381
#
# Coordination Sequence:
#
# PCOD9406802 Si02
#       7
#     8   2   4   8   8   4   4
#     4  12  23  41  66  95 131 174 230 281 334 403
#     4  12  24  48  64 100 128 178 226 286 338 408
#     4  10  24  40  60  92 128 165 214 277 344 407
#     4  10  22  40  64  99 141 179 220 274 339 406
#     4  11  22  37  62  92 123 164 212 268 335 402
#     4  12  22  42  64  82 131 161 218 268 336 399
#     4  12  24  44  68  95 134 180 224 285 343 390
#
# _framework density 19.734691999999999
#
# number of rings (size 3 to 8) (size 9 to 14) (size 15 to 20)
#    0.000    0.842    4.211    3.474    2.947    3.789 
#    0.000    3.684    0.000    0.000    0.000    0.000 
#    0.000    0.000    0.000    0.000    0.000    0.000 
#
# Total GULP energy -211769.183604 kJ/mol
# GULP energy per Si atom -5572.873253 kJ/mol
# Density = 1.968978 g / cm^3
# Si number density = 19.734692 Si / 1000 Ang^3
#
#
#
# Elastic Constant Matrix: (Units=GPa)
#
#
# Indices 1 2 3 4 5 6 
#
# 1 171.6974 32.7127 24.8311 0.0000 0.0000 0.0000
# 2 32.7127 122.0398 35.8760 0.0000 0.0000 0.0000
# 3 24.8311 35.8760 62.8473 0.0000 0.0000 0.0000
# 4 0.0000 0.0000 0.0000 31.8979 0.0000 0.0000
# 5 0.0000 0.0000 0.0000 0.0000 28.9354 0.0000
# 6 0.0000 0.0000 0.0000 0.0000 0.0000 29.2202
#
#
#
# Elastic Compliance Matrix: (Units=1/GPa)
#
#
# Indices 1 2 3 4 5 6 
#
# 1 0.006309 -0.001152 -0.001835 0.000000 0.000000 0.000000
# 2 -0.001152 0.010057 -0.005286 0.000000 0.000000 0.000000
# 3 -0.001835 -0.005286 0.019654 0.000000 0.000000 0.000000
# 4 0.000000 0.000000 0.000000 0.031350 0.000000 0.000000
# 5 0.000000 0.000000 0.000000 0.000000 0.034560 0.000000
# 6 0.000000 0.000000 0.000000 0.000000 0.000000 0.034223
#
#
# Mechanical properties :
#
#
# Convention : Reuss Voigt Hill
#
# Bulk Modulus (GPa) = 51.34962 60.38045 55.86503
# Shear Modulus (GPa) = 31.40917 35.55501 33.48209
#
# Velocity S-wave (km/s) = 3.99378 4.24919 4.12346
# Velocity P-wave (km/s) = 6.88066 7.39842 7.14423
#
# Compressibility (1/GPa) = 0.01947434
#
# Stress axis : x y z
#
# Youngs Moduli (GPa) = 158.50281 99.43741 50.88005
#
# Poissons Ratio (x) = 0.11451 0.09338
# Poissons Ratio (y) = 0.18253 0.26894
# Poissons Ratio (z) = 0.29091 0.52560
#
# Static dielectric constant tensor:
#      x y z
#    x 1.601630 0.000000 0.000000 
#    y 0.000000 1.722940 0.000000 
#    z 0.000000 0.000000 1.641360 
# 
# From -- ./inp_files/27129.got.cif
#   From: 2010.05.17/outbox.cif.g08.bks.cpg/sg51_14_cif.got.tgz:27129.got - 2010.06.03 11:52:47.
