data_PCOD9406110
_publ_section_title
;
Structure prediction by ZEFSAII (Michael W. Deem and Ramdas Pophale) SiO2 
 PCOD9406110
Probable space group: P M M A
;
_chemical_formula_sum "Si O2"
_cell_formula_units_Z 48
_cell_length_a 14.656197
_cell_length_b 9.077538
_cell_length_c 18.989893
_cell_angle_alpha 90.000000
_cell_angle_beta 90.000000
_cell_angle_gamma 90.000000
_cell_volume 2526.456861
_symmetry_space_group_name_H-M "P M M A"
_symmetry_group_IT_number 51
_symmetry_cell_setting 'orthorhombic'
loop_
_space_group_symop_operation_xyz
x,y,z
1/2-x,-y,z
1/2+x,-y,-z
-x,y,-z
-x,-y,-z
1/2+x,y,-z
1/2-x,y,z
x,-y,z
loop_
_atom_site_type_symbol
_atom_site_label
_atom_site_fract_x
_atom_site_fract_y
_atom_site_fract_z
Si Si1 0.858208 0.172468 0.541603
Si Si2 0.645099 0.324439 0.096051
Si Si3 0.859650 0.828735 0.948504
Si Si4 0.857270 0.325182 0.394458
Si Si5 0.978585 0.824068 0.677419
Si Si6 0.533546 0.675350 0.822616
O O1 0.750000 0.186249 0.555278
O O2 0.880231 0.268218 0.473053
O O3 0.914566 0.213394 0.610723
O O4 0.877183 0.000000 0.525238
O O5 0.750000 0.287562 0.114252
O O6 0.641157 0.500000 0.081612
O O7 0.571794 0.293098 0.156314
O O8 0.618743 0.239288 0.024873
O O9 0.750000 0.819734 0.940820
O O10 0.907001 0.738516 0.886544
O O11 0.886611 0.000000 0.945460
O O12 0.750000 0.294183 0.382832
O O13 0.871405 0.500000 0.389224
O O14 0.922447 0.241084 0.340887
O O15 0.943762 0.753047 0.749418
O O16 0.981476 0.000000 0.683745
O O17 0.544951 0.500000 0.817055
#
# Coordination Sequence:
#
# PCOD9406110 Si02
#       6
#     8   8   8   8   8   8
#     4   9  19  37  59  81 107 141 181 225 274 328
#     4   9  19  37  59  81 107 141 181 225 274 328
#     4  10  21  37  58  83 110 142 182 228 275 324
#     4  10  21  37  58  83 110 142 182 228 275 324
#     4  11  23  37  55  81 113 149 185 224 274 329
#     4  11  23  37  55  81 113 149 185 224 274 329
#
# _framework density 18.998940000000001
#
# number of rings (size 3 to 8) (size 9 to 14) (size 15 to 20)
#    0.000    2.000    0.000    3.000    0.000   10.000 
#    0.000    3.333    0.000    0.000    0.000    0.000 
#    0.000    0.000    0.000    0.000    0.000    0.000 
#
# Total GULP energy -268219.366496 kJ/mol
# GULP energy per Si atom -5587.903469 kJ/mol
# Density = 1.895570 g / cm^3
# Si number density = 18.998940 Si / 1000 Ang^3
#
#
#
# Elastic Constant Matrix: (Units=GPa)
#
#
# Indices 1 2 3 4 5 6 
#
# 1 28.2953 15.5394 5.3268 0.0000 0.0000 0.0000
# 2 15.5394 37.9306 13.5973 0.0000 0.0000 0.0000
# 3 5.3268 13.5973 37.0421 0.0000 0.0000 0.0000
# 4 0.0000 0.0000 0.0000 37.3896 0.0000 0.0000
# 5 0.0000 0.0000 0.0000 0.0000 11.4897 0.0000
# 6 0.0000 0.0000 0.0000 0.0000 0.0000 27.0526
#
#
#
# Elastic Compliance Matrix: (Units=1/GPa)
#
#
# Indices 1 2 3 4 5 6 
#
# 1 0.045605 -0.018807 0.000346 0.000000 0.000000 0.000000
# 2 -0.018807 0.038115 -0.011287 0.000000 0.000000 0.000000
# 3 0.000346 -0.011287 0.031090 0.000000 0.000000 0.000000
# 4 0.000000 0.000000 0.000000 0.026745 0.000000 0.000000
# 5 0.000000 0.000000 0.000000 0.000000 0.087034 0.000000
# 6 0.000000 0.000000 0.000000 0.000000 0.000000 0.036965
#
#
# Mechanical properties :
#
#
# Convention : Reuss Voigt Hill
#
# Bulk Modulus (GPa) = 18.07891 19.13277 18.60584
# Shear Modulus (GPa) = 14.55652 19.77336 17.16494
#
# Velocity S-wave (km/s) = 2.77099 3.22958 3.00904
# Velocity P-wave (km/s) = 4.44682 4.89890 4.67833
#
# Compressibility (1/GPa) = 0.05531308
#
# Stress axis : x y z
#
# Youngs Moduli (GPa) = 21.92729 26.23646 32.16508
#
# Poissons Ratio (x) = 0.49344 -0.01111
# Poissons Ratio (y) = 0.41239 0.36303
# Poissons Ratio (z) = -0.00758 0.29612
#
# Static dielectric constant tensor:
#      x y z
#    x 1.678670 0.000000 0.000000 
#    y 0.000000 1.631120 0.000000 
#    z 0.000000 0.000000 1.618280 
# 
# From -- ./inp_files/29389.got.cif
#   From: 2010.05.17/outbox.cif.g08.bks.cpg/sg51_15_cif.got.tgz:29389.got - 2010.06.03 11:52:47.
