data_PCOD9406014
_publ_section_title
;
Structure prediction by ZEFSAII (Michael W. Deem and Ramdas Pophale) SiO2 
 PCOD9406014
Probable space group: P M M A
;
_chemical_formula_sum "Si O2"
_cell_formula_units_Z 64
_cell_length_a 8.524614
_cell_length_b 15.577497
_cell_length_c 24.569430
_cell_angle_alpha 90.000000
_cell_angle_beta 90.000000
_cell_angle_gamma 90.000000
_cell_volume 3262.627410
_symmetry_space_group_name_H-M "P M M A"
_symmetry_group_IT_number 51
_symmetry_cell_setting 'orthorhombic'
loop_
_space_group_symop_operation_xyz
x,y,z
1/2-x,-y,z
1/2+x,-y,-z
-x,y,-z
-x,-y,-z
1/2+x,y,-z
1/2-x,y,z
x,-y,z
loop_
_atom_site_type_symbol
_atom_site_label
_atom_site_fract_x
_atom_site_fract_y
_atom_site_fract_z
Si Si1 0.062321 0.401042 0.555127
Si Si2 0.428987 0.896376 0.558468
Si Si3 0.567415 0.734699 0.150089
Si Si4 0.062800 0.841490 0.324744
Si Si5 0.434109 0.657151 0.671310
Si Si6 0.440129 0.401949 0.938671
Si Si7 0.938306 0.905861 0.794255
Si Si8 0.431796 0.595573 0.224591
O O1 0.250000 0.401822 0.553097
O O2 0.007387 0.500000 0.558145
O O3 0.013128 0.354405 0.609454
O O4 0.000000 0.361044 0.500000
O O5 0.500000 0.867557 0.500000
O O6 0.250000 0.863849 0.562932
O O7 0.517339 0.874461 0.614941
O O8 0.425467 0.000000 0.555918
O O9 0.750000 0.749997 0.139997
O O10 0.503570 0.676970 0.099423
O O11 0.495969 0.824727 0.170327
O O12 0.541831 0.666737 0.198577
O O13 0.250000 0.825488 0.323956
O O14 0.025818 0.896657 0.270573
O O15 0.966859 0.754980 0.314765
O O16 0.250000 0.635016 0.675662
O O17 0.534888 0.599655 0.711509
O O18 0.250000 0.400924 0.937451
O O19 0.488372 0.500000 0.922143
O O20 0.500000 0.390005 0.000000
O O21 0.750000 0.904789 0.798055
O O22 0.995709 0.000000 0.812706
O O23 0.250000 0.616155 0.213437
O O24 0.466321 0.500000 0.204588
#
# Coordination Sequence:
#
# PCOD9406014 Si02
#       8
#     8   8   8   8   8   8   8   8
#     4   9  19  35  53  72  95 128 173 223 276 336
#     4  10  21  37  57  80 105 135 177 230 292 363
#     4  11  22  37  60  90 124 160 201 250 297 347
#     4  11  22  37  57  80 110 145 186 236 295 361
#     4  11  22  36  54  77 107 141 181 232 289 347
#     4   9  19  36  59  91 130 170 209 246 291 345
#     4  10  22  40  61  85 117 158 202 250 305 362
#     4  11  23  37  55  82 116 155 196 237 287 348
#
# _framework density 19.616092999999999
#
# number of rings (size 3 to 8) (size 9 to 14) (size 15 to 20)
#    0.000    1.750    1.250    3.000    0.000    6.500 
#    0.000    3.750    0.000    0.375    0.000    0.000 
#    0.000    0.000    0.000    0.000    0.000    0.000 
#
# Total GULP energy -356989.200963 kJ/mol
# GULP energy per Si atom -5577.956265 kJ/mol
# Density = 1.957145 g / cm^3
# Si number density = 19.616093 Si / 1000 Ang^3
#
#
#
# Elastic Constant Matrix: (Units=GPa)
#
#
# Indices 1 2 3 4 5 6 
#
# 1 19.3303 17.8509 17.1398 0.0000 0.0000 0.0000
# 2 17.8509 99.4764 49.3825 0.0000 0.0000 0.0000
# 3 17.1398 49.3825 119.9549 0.0000 0.0000 0.0000
# 4 0.0000 0.0000 0.0000 28.3390 0.0000 0.0000
# 5 0.0000 0.0000 0.0000 0.0000 28.7790 0.0000
# 6 0.0000 0.0000 0.0000 0.0000 0.0000 4.5557
#
#
#
# Elastic Compliance Matrix: (Units=1/GPa)
#
#
# Indices 1 2 3 4 5 6 
#
# 1 0.064897 -0.008851 -0.005629 0.000000 0.000000 0.000000
# 2 -0.008851 0.013842 -0.004434 0.000000 0.000000 0.000000
# 3 -0.005629 -0.004434 0.010966 0.000000 0.000000 0.000000
# 4 0.000000 0.000000 0.000000 0.035287 0.000000 0.000000
# 5 0.000000 0.000000 0.000000 0.000000 0.034748 0.000000
# 6 0.000000 0.000000 0.000000 0.000000 0.000000 0.219504
#
#
# Mechanical properties :
#
#
# Convention : Reuss Voigt Hill
#
# Bulk Modulus (GPa) = 19.27626 45.27867 32.27746
# Shear Modulus (GPa) = 11.51106 22.62729 17.06917
#
# Velocity S-wave (km/s) = 2.42506 3.40002 2.95305
# Velocity P-wave (km/s) = 4.20587 6.20854 5.30261
#
# Compressibility (1/GPa) = 0.05187729
#
# Stress axis : x y z
#
# Youngs Moduli (GPa) = 15.40894 72.24399 91.19093
#
# Poissons Ratio (x) = 0.63946 0.51331
# Poissons Ratio (y) = 0.13639 0.40431
# Poissons Ratio (z) = 0.08674 0.32031
#
# Static dielectric constant tensor:
#      x y z
#    x 1.670160 0.000000 0.000000 
#    y 0.000000 1.728180 0.000000 
#    z 0.000000 0.000000 1.714680 
# 
# From -- ./inp_files/34861.got.cif
#   From: 2010.05.17/outbox.cif.g08.bks.cpg/sg51_18_cif.got.tgz:34861.got - 2010.06.03 11:52:47.
