data_PCOD9406546
_publ_section_title
;
Structure prediction by ZEFSAII (Michael W. Deem and Ramdas Pophale) SiO2 
 PCOD9406546
Probable space group: P M M A
;
_chemical_formula_sum "Si O2"
_cell_formula_units_Z 58
_cell_length_a 7.754566
_cell_length_b 17.889431
_cell_length_c 19.830853
_cell_angle_alpha 90.000000
_cell_angle_beta 90.000000
_cell_angle_gamma 90.000000
_cell_volume 2751.030589
_symmetry_space_group_name_H-M "P M M A"
_symmetry_group_IT_number 51
_symmetry_cell_setting 'orthorhombic'
loop_
_space_group_symop_operation_xyz
x,y,z
1/2-x,-y,z
1/2+x,-y,-z
-x,y,-z
-x,-y,-z
1/2+x,y,-z
1/2-x,y,z
x,-y,z
loop_
_atom_site_type_symbol
_atom_site_label
_atom_site_fract_x
_atom_site_fract_y
_atom_site_fract_z
Si Si1 0.957012 0.085634 0.073396
Si Si2 0.540887 0.619080 0.648970
Si Si3 0.050989 0.842966 0.789830
Si Si4 0.955832 0.585852 0.075516
Si Si5 0.455745 0.225992 0.422571
Si Si6 0.950184 0.325562 0.791491
Si Si7 0.548234 0.083441 0.652422
Si Si8 0.250000 0.500000 0.611015
O O1 0.750000 0.083291 0.076948
O O2 0.020394 0.131251 0.137733
O O3 0.022107 0.000000 0.076249
O O4 0.000000 0.117587 0.000000
O O5 0.750000 0.604344 0.638491
O O6 0.500141 0.702343 0.622380
O O7 0.504653 0.619733 0.729497
O O8 0.405412 0.564137 0.614393
O O9 0.250000 0.866748 0.785688
O O10 0.043580 0.753608 0.785905
O O11 0.960935 0.883757 0.727869
O O12 0.750000 0.584511 0.081535
O O13 0.020822 0.500000 0.081181
O O14 0.023898 0.635652 0.136564
O O15 0.000000 0.612630 0.000000
O O16 0.500000 0.238758 0.500000
O O17 0.250000 0.220526 0.417157
O O18 0.530656 0.148198 0.394528
O O19 0.750000 0.307259 0.781684
O O20 0.750000 0.076936 0.634721
O O21 0.472796 0.000000 0.648246
#
# Coordination Sequence:
#
# PCOD9406546 Si02
#       8
#     8   8   8   8   8   8   8   2
#     4   9  19  35  53  77 110 150 199 256 314 372
#     4  10  24  44  66 101 137 171 223 274 329 396
#     4  11  22  36  58  86 121 161 208 266 321 382
#     4  10  22  39  60  87 120 157 206 261 325 394
#     4  10  22  42  68  95 133 176 213 261 324 387
#     4  11  23  39  61  86 122 163 208 263 323 388
#     4  10  21  39  63  94 130 169 216 264 317 386
#     4  12  26  40  78  98 134 172 224 272 338 386
#
# _framework density 21.083006999999998
#
# number of rings (size 3 to 8) (size 9 to 14) (size 15 to 20)
#    0.000    1.793    1.379    1.862    3.862    4.138 
#    0.000    3.103    0.000    0.000    0.000    0.000 
#    0.000    0.000    0.000    0.000    0.000    0.000 
#
# Total GULP energy -323283.402188 kJ/mol
# GULP energy per Si atom -5573.851762 kJ/mol
# Density = 2.103502 g / cm^3
# Si number density = 21.083007 Si / 1000 Ang^3
#
#
#
# Elastic Constant Matrix: (Units=GPa)
#
#
# Indices 1 2 3 4 5 6 
#
# 1 54.0416 21.1119 -4.5353 0.0000 0.0000 0.0000
# 2 21.1119 99.5077 22.2095 0.0000 0.0000 0.0000
# 3 -4.5353 22.2095 80.1446 0.0000 0.0000 0.0000
# 4 0.0000 0.0000 0.0000 4.0686 0.0000 0.0000
# 5 0.0000 0.0000 0.0000 0.0000 24.4678 0.0000
# 6 0.0000 0.0000 0.0000 0.0000 0.0000 9.0113
#
#
#
# Elastic Compliance Matrix: (Units=1/GPa)
#
#
# Indices 1 2 3 4 5 6 
#
# 1 0.020650 -0.004948 0.002540 0.000000 0.000000 0.000000
# 2 -0.004948 0.011898 -0.003577 0.000000 0.000000 0.000000
# 3 0.002540 -0.003577 0.013612 0.000000 0.000000 0.000000
# 4 0.000000 0.000000 0.000000 0.245786 0.000000 0.000000
# 5 0.000000 0.000000 0.000000 0.000000 0.040870 0.000000
# 6 0.000000 0.000000 0.000000 0.000000 0.000000 0.110972
#
#
# Mechanical properties :
#
#
# Convention : Reuss Voigt Hill
#
# Bulk Modulus (GPa) = 29.24852 34.58512 31.91682
# Shear Modulus (GPa) = 10.70305 20.50338 15.60321
#
# Velocity S-wave (km/s) = 2.25558 3.12189 2.72340
# Velocity P-wave (km/s) = 4.54826 5.42538 5.00607
#
# Compressibility (1/GPa) = 0.03418976
#
# Stress axis : x y z
#
# Youngs Moduli (GPa) = 48.42508 84.05013 73.46219
#
# Poissons Ratio (x) = 0.41589 -0.18658
# Poissons Ratio (y) = 0.23961 0.26278
# Poissons Ratio (z) = -0.12299 0.30065
#
# Static dielectric constant tensor:
#      x y z
#    x 1.773680 0.000000 0.000000 
#    y 0.000000 1.760590 0.000000 
#    z 0.000000 0.000000 1.807980 
# 
# From -- ./inp_files/28064.got.cif
#   From: 2010.05.17/outbox.cif.g08.bks.cpg/sg51_15_cif.got.tgz:28064.got - 2010.06.03 11:52:47.
