data_PCOD9406004
_publ_section_title
;
Structure prediction by ZEFSAII (Michael W. Deem and Ramdas Pophale) SiO2 
 PCOD9406004
Probable space group: P M M A
;
_chemical_formula_sum "Si O2"
_cell_formula_units_Z 40
_cell_length_a 18.466941
_cell_length_b 9.075976
_cell_length_c 13.830000
_cell_angle_alpha 90.000000
_cell_angle_beta 90.000000
_cell_angle_gamma 90.000000
_cell_volume 2317.984249
_symmetry_space_group_name_H-M "P M M A"
_symmetry_group_IT_number 51
_symmetry_cell_setting 'orthorhombic'
loop_
_space_group_symop_operation_xyz
x,y,z
1/2-x,-y,z
1/2+x,-y,-z
-x,y,-z
-x,-y,-z
1/2+x,y,-z
1/2-x,y,z
x,-y,z
loop_
_atom_site_type_symbol
_atom_site_label
_atom_site_fract_x
_atom_site_fract_y
_atom_site_fract_z
Si Si1 0.546585 0.323994 0.789858
Si Si2 0.027341 0.824350 0.607591
Si Si3 0.834983 0.824319 0.914946
Si Si4 0.333074 0.324921 0.685678
Si Si5 0.101555 0.673552 0.896731
O O1 0.551745 0.500000 0.780758
O O2 0.521519 0.254151 0.688848
O O3 0.619297 0.254326 0.831241
O O4 0.481080 0.293503 0.865908
O O5 0.108409 0.764980 0.625031
O O6 0.000000 0.790769 0.500000
O O7 0.025092 0.000000 0.622031
O O8 0.750000 0.786982 0.911373
O O9 0.842620 0.000000 0.907143
O O10 0.868343 0.768604 0.016005
O O11 0.250000 0.285236 0.666799
O O12 0.342667 0.500000 0.667622
O O13 0.352143 0.302883 0.798972
O O14 0.105757 0.500000 0.922613
#
# Coordination Sequence:
#
# PCOD9406004 Si02
#       5
#     8   8   8   8   8
#     4  10  21  37  57  78 101 135 178 220 261 308
#     4  10  21  37  57  80 106 137 172 214 267 320
#     4  11  23  35  49  75 110 144 177 214 256 305
#     4   9  18  33  54  81 110 138 172 217 263 307
#     4   9  18  33  53  77 105 137 173 212 255 306
#
# _framework density 17.256371999999999
#
# number of rings (size 3 to 8) (size 9 to 14) (size 15 to 20)
#    0.000    2.200    0.000    4.200    0.000   10.800 
#    0.000    1.000    0.000    1.200    0.000    0.000 
#    0.000    0.000    0.000    0.000    0.000    0.000 
#
# Total GULP energy -223358.048999 kJ/mol
# GULP energy per Si atom -5583.951225 kJ/mol
# Density = 1.721710 g / cm^3
# Si number density = 17.256372 Si / 1000 Ang^3
#
#
#
# Elastic Constant Matrix: (Units=GPa)
#
#
# Indices 1 2 3 4 5 6 
#
# 1 125.3686 78.6378 82.5905 0.0000 0.0000 0.0000
# 2 78.6378 75.3808 68.7060 0.0000 0.0000 0.0000
# 3 82.5905 68.7060 98.6585 0.0000 0.0000 0.0000
# 4 0.0000 0.0000 0.0000 36.3589 0.0000 0.0000
# 5 0.0000 0.0000 0.0000 0.0000 15.0129 0.0000
# 6 0.0000 0.0000 0.0000 0.0000 0.0000 31.3412
#
#
#
# Elastic Compliance Matrix: (Units=1/GPa)
#
#
# Indices 1 2 3 4 5 6 
#
# 1 0.024983 -0.019165 -0.007568 0.000000 0.000000 0.000000
# 2 -0.019165 0.051021 -0.019487 0.000000 0.000000 0.000000
# 3 -0.007568 -0.019487 0.030042 0.000000 0.000000 0.000000
# 4 0.000000 0.000000 0.000000 0.027504 0.000000 0.000000
# 5 0.000000 0.000000 0.000000 0.000000 0.066609 0.000000
# 6 0.000000 0.000000 0.000000 0.000000 0.000000 0.031907
#
#
# Mechanical properties :
#
#
# Convention : Reuss Voigt Hill
#
# Bulk Modulus (GPa) = 73.49659 84.36404 78.93032
# Shear Modulus (GPa) = 15.19564 21.17417 18.18491
#
# Velocity S-wave (km/s) = 2.97068 3.50671 3.24976
# Velocity P-wave (km/s) = 7.37903 8.08645 7.74083
#
# Compressibility (1/GPa) = 0.01360607
#
# Stress axis : x y z
#
# Youngs Moduli (GPa) = 40.02650 19.59991 33.28650
#
# Poissons Ratio (x) = 0.37563 0.25191
# Poissons Ratio (y) = 0.76711 0.64866
# Poissons Ratio (z) = 0.30292 0.38195
#
# Static dielectric constant tensor:
#      x y z
#    x 1.581130 0.000000 0.000000 
#    y 0.000000 1.571500 0.000000 
#    z 0.000000 0.000000 1.559410 
# 
# From -- ./inp_files/17084.got.cif
#   From: 2010.05.17/outbox.cif.g08.bks.cpg/sg51_9_cif.got.tgz:17084.got - 2010.06.03 11:52:47.
