data_PCOD9406840
_publ_section_title
;
Structure prediction by ZEFSAII (Michael W. Deem and Ramdas Pophale) SiO2 
 PCOD9406840
Probable space group: P M M A
;
_chemical_formula_sum "Si O2"
_cell_formula_units_Z 58
_cell_length_a 17.652191
_cell_length_b 9.401471
_cell_length_c 17.288530
_cell_angle_alpha 90.000000
_cell_angle_beta 90.000000
_cell_angle_gamma 90.000000
_cell_volume 2869.144997
_symmetry_space_group_name_H-M "P M M A"
_symmetry_group_IT_number 51
_symmetry_cell_setting 'orthorhombic'
loop_
_space_group_symop_operation_xyz
x,y,z
1/2-x,-y,z
1/2+x,-y,-z
-x,y,-z
-x,-y,-z
1/2+x,y,-z
1/2-x,y,z
x,-y,z
loop_
_atom_site_type_symbol
_atom_site_label
_atom_site_fract_x
_atom_site_fract_y
_atom_site_fract_z
Si Si1 0.569110 0.347064 0.392166
Si Si2 0.840121 0.834343 0.076514
Si Si3 0.423753 0.334007 0.051433
Si Si4 0.391859 0.335433 0.354391
Si Si5 0.887039 0.221168 0.240533
Si Si6 0.335509 0.835546 0.495923
Si Si7 0.059467 0.838144 0.210055
Si Si8 0.250000 0.000000 0.729339
O O1 0.587595 0.500000 0.428670
O O2 0.478845 0.334227 0.385485
O O3 0.603383 0.339711 0.305919
O O4 0.605603 0.222728 0.441796
O O5 0.750000 0.842437 0.083275
O O6 0.870252 0.747568 0.150640
O O7 0.868310 0.000000 0.080596
O O8 0.864128 0.755783 0.998888
O O9 0.403118 0.500000 0.062405
O O10 0.436824 0.254156 0.132114
O O11 0.500000 0.329712 0.000000
O O12 0.371080 0.500000 0.341279
O O13 0.342819 0.259075 0.419558
O O14 0.393945 0.243979 0.276141
O O15 0.817737 0.121372 0.265798
O O16 0.971784 0.156264 0.237803
O O17 0.250000 0.826302 0.527940
O O18 0.350748 0.000000 0.477519
O O19 0.085486 0.000000 0.197695
#
# Coordination Sequence:
#
# PCOD9406840 Si02
#       8
#     8   8   8   8   8   8   8   2
#     4  10  24  40  59  89 126 162 202 245 297 359
#     4  11  21  38  60  86 120 159 203 250 302 360
#     4  11  24  38  58  87 123 159 200 250 301 356
#     4  10  22  42  65  89 124 159 197 249 307 361
#     4  11  21  34  60  86 123 160 199 240 295 354
#     4  11  25  41  63  91 121 157 204 255 302 357
#     4  11  21  38  64  92 116 154 206 251 296 353
#     4  12  20  36  54  90 130 160 194 248 296 356
#
# _framework density 20.215083
#
# number of rings (size 3 to 8) (size 9 to 14) (size 15 to 20)
#    0.000    1.241    3.448    2.069    1.931    5.793 
#    0.000    0.690    0.000    4.138    0.000    0.000 
#    0.000    0.000    0.000    0.000    0.000    0.000 
#
# Total GULP energy -323324.737152 kJ/mol
# GULP energy per Si atom -5574.564434 kJ/mol
# Density = 2.016907 g / cm^3
# Si number density = 20.215083 Si / 1000 Ang^3
#
#
#
# Elastic Constant Matrix: (Units=GPa)
#
#
# Indices 1 2 3 4 5 6 
#
# 1 24.2277 15.7461 1.8622 0.0000 0.0000 0.0000
# 2 15.7461 120.8454 48.0650 0.0000 0.0000 0.0000
# 3 1.8622 48.0650 83.0040 0.0000 0.0000 0.0000
# 4 0.0000 0.0000 0.0000 39.9352 0.0000 0.0000
# 5 0.0000 0.0000 0.0000 0.0000 25.6413 0.0000
# 6 0.0000 0.0000 0.0000 0.0000 0.0000 15.1154
#
#
#
# Elastic Compliance Matrix: (Units=1/GPa)
#
#
# Indices 1 2 3 4 5 6 
#
# 1 0.045719 -0.007210 0.003149 0.000000 0.000000 0.000000
# 2 -0.007210 0.011888 -0.006722 0.000000 0.000000 0.000000
# 3 0.003149 -0.006722 0.015870 0.000000 0.000000 0.000000
# 4 0.000000 0.000000 0.000000 0.025041 0.000000 0.000000
# 5 0.000000 0.000000 0.000000 0.000000 0.039000 0.000000
# 6 0.000000 0.000000 0.000000 0.000000 0.000000 0.066158
#
#
# Mechanical properties :
#
#
# Convention : Reuss Voigt Hill
#
# Bulk Modulus (GPa) = 19.26374 39.93598 29.59986
# Shear Modulus (GPa) = 20.61483 26.96530 23.79006
#
# Velocity S-wave (km/s) = 3.19686 3.65625 3.43424
# Velocity P-wave (km/s) = 4.81421 6.13373 5.51358
#
# Compressibility (1/GPa) = 0.05191099
#
# Stress axis : x y z
#
# Youngs Moduli (GPa) = 21.87284 84.11707 63.01335
#
# Poissons Ratio (x) = 0.60646 -0.19844
# Poissons Ratio (y) = 0.15770 0.42360
# Poissons Ratio (z) = -0.06888 0.56546
#
# Static dielectric constant tensor:
#      x y z
#    x 1.698910 0.000000 0.000000 
#    y 0.000000 1.702820 0.000000 
#    z 0.000000 0.000000 1.730490 
# 
# From -- ./inp_files/30205.got.cif
#   From: 2010.05.17/outbox.cif.g08.bks.cpg/sg51_16_cif.got.tgz:30205.got - 2010.06.03 11:52:47.
