data_PCOD9406650
_publ_section_title
;
Structure prediction by ZEFSAII (Michael W. Deem and Ramdas Pophale) SiO2 
 PCOD9406650
Probable space group: P M M A
;
_chemical_formula_sum "Si O2"
_cell_formula_units_Z 32
_cell_length_a 15.498825
_cell_length_b 8.357664
_cell_length_c 10.544812
_cell_angle_alpha 90.000000
_cell_angle_beta 90.000000
_cell_angle_gamma 90.000000
_cell_volume 1365.911380
_symmetry_space_group_name_H-M "P M M A"
_symmetry_group_IT_number 51
_symmetry_cell_setting 'orthorhombic'
loop_
_space_group_symop_operation_xyz
x,y,z
1/2-x,-y,z
1/2+x,-y,-z
-x,y,-z
-x,-y,-z
1/2+x,y,-z
1/2-x,y,z
x,-y,z
loop_
_atom_site_type_symbol
_atom_site_label
_atom_site_fract_x
_atom_site_fract_y
_atom_site_fract_z
Si Si1 0.922524 0.500000 0.891116
Si Si2 0.750000 0.689856 0.485822
Si Si3 0.106465 0.821221 0.006269
Si Si4 0.250000 0.695600 0.819012
Si Si5 0.410508 0.174740 0.573966
Si Si6 0.470357 0.500000 0.645258
O O1 0.873814 0.666365 0.908769
O O2 0.959291 0.500000 0.751448
O O3 0.000000 0.500000 0.000000
O O4 0.750000 0.500000 0.508102
O O5 0.750000 0.722649 0.332631
O O6 0.836530 0.777482 0.526374
O O7 0.130201 0.000000 0.048725
O O8 0.165946 0.777488 0.884562
O O9 0.000000 0.824100 0.000000
O O10 0.250000 0.500000 0.838792
O O11 0.500000 0.162781 0.500000
O O12 0.420129 0.333868 0.658932
O O13 0.393604 0.000000 0.632062
O O14 0.500000 0.500000 0.500000
#
# Coordination Sequence:
#
# PCOD9406650 Si02
#       6
#     4   4   8   4   8   4
#     4  10  22  37  61  93 134 170 216 275 333 397
#     4  11  23  35  65 100 132 177 231 292 349 413
#     4  10  22  38  60  92 134 177 215 269 344 409
#     4  11  23  39  63  98 138 179 229 286 345 419
#     4  10  22  40  63  95 135 177 226 287 349 408
#     4  10  22  41  65  95 130 178 226 267 333 417
#
# _framework density 23.427579999999999
#
# number of rings (size 3 to 8) (size 9 to 14) (size 15 to 20)
#    0.000    1.750    2.500    0.750    7.000    3.000 
#    0.000    0.000    0.000   12.000    0.000   14.000 
#    0.000    0.000    0.000    0.000    0.000    0.000 
#
# Total GULP energy -178257.632231 kJ/mol
# GULP energy per Si atom -5570.551007 kJ/mol
# Density = 2.337426 g / cm^3
# Si number density = 23.427580 Si / 1000 Ang^3
#
#
#
# Elastic Constant Matrix: (Units=GPa)
#
#
# Indices 1 2 3 4 5 6 
#
# 1 122.7508 17.5030 11.0292 0.0000 0.0000 0.0000
# 2 17.5030 279.4861 13.6817 0.0000 0.0000 0.0000
# 3 11.0292 13.6817 62.8617 0.0000 0.0000 0.0000
# 4 0.0000 0.0000 0.0000 -12.4007 0.0000 0.0000
# 5 0.0000 0.0000 0.0000 0.0000 29.5607 0.0000
# 6 0.0000 0.0000 0.0000 0.0000 0.0000 29.9130
#
#
#
# Elastic Compliance Matrix: (Units=1/GPa)
#
#
# Indices 1 2 3 4 5 6 
#
# 1 0.008334 -0.000455 -0.001363 0.000000 0.000000 0.000000
# 2 -0.000455 0.003641 -0.000713 0.000000 0.000000 0.000000
# 3 -0.001363 -0.000713 0.016302 0.000000 0.000000 0.000000
# 4 0.000000 0.000000 0.000000 -0.080641 0.000000 0.000000
# 5 0.000000 0.000000 0.000000 0.000000 0.033829 0.000000
# 6 0.000000 0.000000 0.000000 0.000000 0.000000 0.033430
#
#
# Mechanical properties :
#
#
# Convention : Reuss Voigt Hill
#
# Bulk Modulus (GPa) = 43.07453 61.05847 52.06650
# Shear Modulus (GPa) = 180.53009 37.60691 109.06850
#
# Velocity S-wave (km/s) = 8.78784 4.01089 6.83057
# Velocity P-wave (km/s) = 11.01791 6.89702 9.19139
#
# Compressibility (1/GPa) = 0.02321558
#
# Stress axis : x y z
#
# Youngs Moduli (GPa) = 119.99078 274.62039 61.34131
#
# Poissons Ratio (x) = 0.12500 0.08362
# Poissons Ratio (y) = 0.05462 0.04372
# Poissons Ratio (z) = 0.16356 0.19572
#
# Static dielectric constant tensor:
#      x y z
#    x 2.148600 0.000000 0.000000 
#    y 0.000000 1.925720 0.000000 
#    z 0.000000 0.000000 1.881370 
# 
# From -- ./inp_files/16011.got.cif
#   From: 2010.05.17/outbox.cif.g08.bks.cpg/sg51_9_cif.got.tgz:16011.got - 2010.06.03 11:52:47.
