data_PCOD9406872
_publ_section_title
;
Structure prediction by ZEFSAII (Michael W. Deem and Ramdas Pophale) SiO2 
 PCOD9406872
Probable space group: P M M A
;
_chemical_formula_sum "Si O2"
_cell_formula_units_Z 48
_cell_length_a 8.522701
_cell_length_b 32.080196
_cell_length_c 9.182485
_cell_angle_alpha 90.000000
_cell_angle_beta 90.000000
_cell_angle_gamma 90.000000
_cell_volume 2510.582476
_symmetry_space_group_name_H-M "P M M A"
_symmetry_group_IT_number 51
_symmetry_cell_setting 'orthorhombic'
loop_
_space_group_symop_operation_xyz
x,y,z
1/2-x,-y,z
1/2+x,-y,-z
-x,y,-z
-x,-y,-z
1/2+x,y,-z
1/2-x,y,z
x,-y,z
loop_
_atom_site_type_symbol
_atom_site_label
_atom_site_fract_x
_atom_site_fract_y
_atom_site_fract_z
Si Si1 0.561418 0.746773 0.335838
Si Si2 0.561255 0.419436 0.335382
Si Si3 0.939259 0.000000 0.665886
Si Si4 0.937337 0.500000 0.835435
Si Si5 0.561440 0.826885 0.836246
Si Si6 0.560694 0.336190 0.164235
Si Si7 0.439818 0.909130 0.334326
O O1 0.500000 0.744565 0.500000
O O2 0.750000 0.747704 0.337340
O O3 0.499306 0.788131 0.257651
O O4 0.509457 0.705886 0.246116
O O5 0.500000 0.419789 0.500000
O O6 0.750000 0.420897 0.336715
O O7 0.497934 0.459213 0.248463
O O8 0.510604 0.377095 0.253625
O O9 0.989989 0.045169 0.725585
O O10 0.000000 0.000000 0.500000
O O11 0.750000 0.000000 0.666072
O O12 0.750000 0.500000 0.837086
O O13 0.000000 0.500000 0.000000
O O14 0.750000 0.826228 0.837058
O O15 0.507804 0.870232 0.762319
O O16 0.500000 0.823674 0.000000
O O17 0.750000 0.336120 0.160724
O O18 0.500000 0.337412 0.000000
O O19 0.500000 0.904839 0.500000
O O20 0.250000 0.908517 0.339025
#
# Coordination Sequence:
#
# PCOD9406872 Si02
#       7
#     8   8   4   4   8   8   8
#     4  11  23  40  61  87 115 148 188 233 281 335
#     4  11  23  41  63  90 121 157 198 242 289 340
#     4   8  14  28  49  74 102 134 172 220 271 324
#     4  12  25  42  63  90 122 158 198 244 293 346
#     4  11  23  38  55  79 110 147 186 230 280 335
#     4  10  23  40  61  88 119 153 192 235 284 337
#     4   9  18  32  53  78 105 137 178 224 274 328
#
# _framework density 19.119069
#
# number of rings (size 3 to 8) (size 9 to 14) (size 15 to 20)
#    0.000    1.667    0.000    4.500    0.000    8.000 
#    0.000    0.417    0.000    0.000    0.000    0.000 
#    0.000    0.000    0.000    0.000    0.000    0.000 
#
# Total GULP energy -268207.184355 kJ/mol
# GULP energy per Si atom -5587.649674 kJ/mol
# Density = 1.907555 g / cm^3
# Si number density = 19.119069 Si / 1000 Ang^3
#
#
#
# Elastic Constant Matrix: (Units=GPa)
#
#
# Indices 1 2 3 4 5 6 
#
# 1 49.8646 46.5819 36.3964 0.0000 0.0000 0.0000
# 2 46.5819 226.9451 117.5578 0.0000 0.0000 0.0000
# 3 36.3964 117.5578 178.1102 0.0000 0.0000 0.0000
# 4 0.0000 0.0000 0.0000 21.3033 0.0000 0.0000
# 5 0.0000 0.0000 0.0000 0.0000 36.7270 0.0000
# 6 0.0000 0.0000 0.0000 0.0000 0.0000 27.3261
#
#
#
# Elastic Compliance Matrix: (Units=1/GPa)
#
#
# Indices 1 2 3 4 5 6 
#
# 1 0.025628 -0.003871 -0.002682 0.000000 0.000000 0.000000
# 2 -0.003871 0.007280 -0.004014 0.000000 0.000000 0.000000
# 3 -0.002682 -0.004014 0.008812 0.000000 0.000000 0.000000
# 4 0.000000 0.000000 0.000000 0.046941 0.000000 0.000000
# 5 0.000000 0.000000 0.000000 0.000000 0.027228 0.000000
# 6 0.000000 0.000000 0.000000 0.000000 0.000000 0.036595
#
#
# Mechanical properties :
#
#
# Convention : Reuss Voigt Hill
#
# Bulk Modulus (GPa) = 48.57682 95.11024 71.84353
# Shear Modulus (GPa) = 27.70378 34.03020 30.86699
#
# Velocity S-wave (km/s) = 3.81072 4.22347 4.02239
# Velocity P-wave (km/s) = 6.69513 8.58125 7.69619
#
# Compressibility (1/GPa) = 0.02058595
#
# Stress axis : x y z
#
# Youngs Moduli (GPa) = 39.01961 137.35846 113.48144
#
# Poissons Ratio (x) = 0.53172 0.30437
# Poissons Ratio (y) = 0.15105 0.45553
# Poissons Ratio (z) = 0.10465 0.55137
#
# Static dielectric constant tensor:
#      x y z
#    x 1.655150 0.000000 0.000000 
#    y 0.000000 1.679490 0.000000 
#    z 0.000000 0.000000 1.602120 
# 
# From -- ./inp_files/6171.got.cif
#   From: 2010.05.17/outbox.cif.g08.bks.cpg/sg51_4_cif.got.tgz:6171.got - 2010.06.03 11:52:47.
