data_PCOD9406331
_publ_section_title
;
Structure prediction by ZEFSAII (Michael W. Deem and Ramdas Pophale) SiO2 
 PCOD9406331
Probable space group: P M M A
;
_chemical_formula_sum "Si O2"
_cell_formula_units_Z 48
_cell_length_a 8.421483
_cell_length_b 31.581948
_cell_length_c 9.658705
_cell_angle_alpha 90.000000
_cell_angle_beta 90.000000
_cell_angle_gamma 90.000000
_cell_volume 2568.895230
_symmetry_space_group_name_H-M "P M M A"
_symmetry_group_IT_number 51
_symmetry_cell_setting 'orthorhombic'
loop_
_space_group_symop_operation_xyz
x,y,z
1/2-x,-y,z
1/2+x,-y,-z
-x,y,-z
-x,-y,-z
1/2+x,y,-z
1/2-x,y,z
x,-y,z
loop_
_atom_site_type_symbol
_atom_site_label
_atom_site_fract_x
_atom_site_fract_y
_atom_site_fract_z
Si Si1 0.559807 0.451159 0.847897
Si Si2 0.558151 0.780424 0.343715
Si Si3 0.558089 0.875834 0.344502
Si Si4 0.560020 0.377321 0.343449
Si Si5 0.557923 0.297868 0.157154
Si Si6 0.941880 0.046915 0.156808
O O1 0.750000 0.450068 0.847828
O O2 0.507900 0.500000 0.827439
O O3 0.496165 0.420204 0.730496
O O4 0.500000 0.437521 0.000000
O O5 0.500000 0.771746 0.500000
O O6 0.750000 0.779731 0.346427
O O7 0.506845 0.828160 0.304265
O O8 0.504319 0.744715 0.236354
O O9 0.500000 0.882980 0.500000
O O10 0.750000 0.876225 0.342920
O O11 0.500234 0.913693 0.247270
O O12 0.500000 0.373719 0.500000
O O13 0.750000 0.376594 0.345822
O O14 0.504445 0.338078 0.248209
O O15 0.750000 0.298001 0.155535
O O16 0.500000 0.300042 0.000000
O O17 0.750000 0.047713 0.157380
O O18 0.991688 0.000000 0.207646
O O19 0.000000 0.051160 0.000000
#
# Coordination Sequence:
#
# PCOD9406331 Si02
#       6
#     8   8   8   8   8   8
#     4  10  21  38  60  85 113 145 180 219 263 310
#     4   9  18  34  53  74 101 132 167 206 251 302
#     4   9  18  32  50  72  99 130 164 205 251 300
#     4  11  23  38  57  81 109 142 179 219 264 312
#     4  10  22  37  54  78 106 136 171 212 257 306
#     4   9  18  32  48  68  96 129 165 206 251 298
#
# _framework density 18.685075000000001
#
# number of rings (size 3 to 8) (size 9 to 14) (size 15 to 20)
#    0.000    2.333    0.000    2.000    0.000    6.333 
#    0.000    0.000    0.000    0.000    0.000    0.000 
#    0.000    0.000    0.000    0.000    0.000    0.000 
#
# Total GULP energy -267900.537435 kJ/mol
# GULP energy per Si atom -5581.261197 kJ/mol
# Density = 1.864255 g / cm^3
# Si number density = 18.685075 Si / 1000 Ang^3
#
#
#
# Elastic Constant Matrix: (Units=GPa)
#
#
# Indices 1 2 3 4 5 6 
#
# 1 13.1495 24.4766 20.1251 0.0000 0.0000 0.0000
# 2 24.4766 150.9510 115.6272 0.0000 0.0000 0.0000
# 3 20.1251 115.6272 149.4687 0.0000 0.0000 0.0000
# 4 0.0000 0.0000 0.0000 41.7275 0.0000 0.0000
# 5 0.0000 0.0000 0.0000 0.0000 35.9834 0.0000
# 6 0.0000 0.0000 0.0000 0.0000 0.0000 -17.8158
#
#
#
# Elastic Compliance Matrix: (Units=1/GPa)
#
#
# Indices 1 2 3 4 5 6 
#
# 1 0.109295 -0.015830 -0.002470 0.000000 0.000000 0.000000
# 2 -0.015830 0.018552 -0.012220 0.000000 0.000000 0.000000
# 3 -0.002470 -0.012220 0.016476 0.000000 0.000000 0.000000
# 4 0.000000 0.000000 0.000000 0.023965 0.000000 0.000000
# 5 0.000000 0.000000 0.000000 0.000000 0.027791 0.000000
# 6 0.000000 0.000000 0.000000 0.000000 0.000000 -0.056130
#
#
# Mechanical properties :
#
#
# Convention : Reuss Voigt Hill
#
# Bulk Modulus (GPa) = 12.00731 70.44745 41.22738
# Shear Modulus (GPa) = 21.85788 22.20171 22.02980
#
# Velocity S-wave (km/s) = 3.42395 3.45078 3.43739
# Velocity P-wave (km/s) = 4.69802 7.32540 6.15357
#
# Compressibility (1/GPa) = 0.08328261
#
# Stress axis : x y z
#
# Youngs Moduli (GPa) = 9.14957 53.90214 60.69290
#
# Poissons Ratio (x) = 0.85328 0.14991
# Poissons Ratio (y) = 0.14484 0.74168
# Poissons Ratio (z) = 0.02260 0.65870
#
# Static dielectric constant tensor:
#      x y z
#    x 1.641380 0.000000 0.000000 
#    y 0.000000 1.673860 0.000000 
#    z 0.000000 0.000000 1.593890 
# 
# From -- ./inp_files/6007.got.cif
#   From: 2010.05.17/outbox.cif.g08.bks.cpg/sg51_4_cif.got.tgz:6007.got - 2010.06.03 11:52:47.
