data_PCOD9406866
_publ_section_title
;
Structure prediction by ZEFSAII (Michael W. Deem and Ramdas Pophale) SiO2 
 PCOD9406866
Probable space group: P M M A
;
_chemical_formula_sum "Si O2"
_cell_formula_units_Z 44
_cell_length_a 8.024072
_cell_length_b 30.366118
_cell_length_c 9.170565
_cell_angle_alpha 90.000000
_cell_angle_beta 90.000000
_cell_angle_gamma 90.000000
_cell_volume 2234.499109
_symmetry_space_group_name_H-M "P M M A"
_symmetry_group_IT_number 51
_symmetry_cell_setting 'orthorhombic'
loop_
_space_group_symop_operation_xyz
x,y,z
1/2-x,-y,z
1/2+x,-y,-z
-x,y,-z
-x,-y,-z
1/2+x,y,-z
1/2-x,y,z
x,-y,z
loop_
_atom_site_type_symbol
_atom_site_label
_atom_site_fract_x
_atom_site_fract_y
_atom_site_fract_z
Si Si1 0.448462 0.087258 0.667805
Si Si2 0.951721 0.262216 0.669828
Si Si3 0.048574 0.547354 0.328578
Si Si4 0.951065 0.358038 0.670920
Si Si5 0.551740 0.175637 0.832837
Si Si6 0.451635 0.000000 0.831622
O O1 0.500000 0.086538 0.500000
O O2 0.250000 0.085378 0.674444
O O3 0.501490 0.132369 0.744235
O O4 0.514454 0.044142 0.751985
O O5 0.750000 0.262346 0.676241
O O6 0.010326 0.310350 0.726523
O O7 0.016193 0.220414 0.759425
O O8 0.000000 0.257852 0.500000
O O9 0.250000 0.547324 0.319914
O O10 0.988764 0.500000 0.268023
O O11 0.988636 0.594693 0.267885
O O12 0.000000 0.547382 0.500000
O O13 0.750000 0.358239 0.680795
O O14 0.000000 0.357994 0.500000
O O15 0.750000 0.178467 0.827293
O O16 0.500000 0.171830 0.000000
O O17 0.250000 0.000000 0.823041
O O18 0.500000 0.000000 0.000000
#
# Coordination Sequence:
#
# PCOD9406866 Si02
#       6
#     8   8   8   8   8   4
#     4  11  23  40  61  86 113 143 178 215 255 300
#     4   9  18  31  48  69  94 125 161 200 244 295
#     4   8  12  17  27  45  71 104 140 177 220 272
#     4   8  13  22  35  53  79 111 146 185 229 279
#     4  11  23  38  55  77 104 135 171 213 260 308
#     4  10  23  40  60  86 116 148 181 216 255 298
#
# _framework density 19.691213999999999
#
# number of rings (size 3 to 8) (size 9 to 14) (size 15 to 20)
#    0.000    2.545    0.000    2.455    0.000    5.818 
#    0.000    0.000    0.000    0.000    0.000    0.000 
#    0.000    0.727    0.000    0.545    0.000   10.909 
#
# Total GULP energy -245178.552377 kJ/mol
# GULP energy per Si atom -5572.239827 kJ/mol
# Density = 1.964640 g / cm^3
# Si number density = 19.691214 Si / 1000 Ang^3
#
#
#
# Elastic Constant Matrix: (Units=GPa)
#
#
# Indices 1 2 3 4 5 6 
#
# 1 23.3297 18.0684 3.6412 0.0000 0.0000 0.0000
# 2 18.0684 267.3750 91.2020 0.0000 0.0000 0.0000
# 3 3.6412 91.2020 92.9578 0.0000 0.0000 0.0000
# 4 0.0000 0.0000 0.0000 -6.7532 0.0000 0.0000
# 5 0.0000 0.0000 0.0000 0.0000 21.5654 0.0000
# 6 0.0000 0.0000 0.0000 0.0000 0.0000 43.1200
#
#
#
# Elastic Compliance Matrix: (Units=1/GPa)
#
#
# Indices 1 2 3 4 5 6 
#
# 1 0.045442 -0.003703 0.001853 0.000000 0.000000 0.000000
# 2 -0.003703 0.005923 -0.005666 0.000000 0.000000 0.000000
# 3 0.001853 -0.005666 0.016244 0.000000 0.000000 0.000000
# 4 0.000000 0.000000 0.000000 -0.148077 0.000000 0.000000
# 5 0.000000 0.000000 0.000000 0.000000 0.046371 0.000000
# 6 0.000000 0.000000 0.000000 0.000000 0.000000 0.023191
#
#
# Mechanical properties :
#
#
# Convention : Reuss Voigt Hill
#
# Bulk Modulus (GPa) = 19.01959 67.72065 43.37012
# Shear Modulus (GPa) = 230.92488 29.63648 130.28068
#
# Velocity S-wave (km/s) = 10.84102 3.88372 8.14282
# Velocity P-wave (km/s) = 12.89897 7.38763 10.51096
#
# Compressibility (1/GPa) = 0.05257738
#
# Stress axis : x y z
#
# Youngs Moduli (GPa) = 22.00588 168.83314 61.56098
#
# Poissons Ratio (x) = 0.62517 -0.11407
# Poissons Ratio (y) = 0.08149 0.34881
# Poissons Ratio (z) = -0.04078 0.95662
#
# Static dielectric constant tensor:
#      x y z
#    x 1.705790 0.000000 0.000000 
#    y 0.000000 1.791960 0.000000 
#    z 0.000000 0.000000 1.623020 
# 
# From -- ./inp_files/5771.got.cif
#   From: 2010.05.17/outbox.cif.g08.bks.cpg/sg51_3_cif.got.tgz:5771.got - 2010.06.03 11:52:47.
