data_PCOD9406927
_publ_section_title
;
Structure prediction by ZEFSAII (Michael W. Deem and Ramdas Pophale) SiO2 
 PCOD9406927
Probable space group: P M M A
;
_chemical_formula_sum "Si O2"
_cell_formula_units_Z 38
_cell_length_a 10.200044
_cell_length_b 24.727774
_cell_length_c 7.965967
_cell_angle_alpha 90.000000
_cell_angle_beta 90.000000
_cell_angle_gamma 90.000000
_cell_volume 2009.211110
_symmetry_space_group_name_H-M "P M M A"
_symmetry_group_IT_number 51
_symmetry_cell_setting 'orthorhombic'
loop_
_space_group_symop_operation_xyz
x,y,z
1/2-x,-y,z
1/2+x,-y,-z
-x,y,-z
-x,-y,-z
1/2+x,y,-z
1/2-x,y,z
x,-y,z
loop_
_atom_site_type_symbol
_atom_site_label
_atom_site_fract_x
_atom_site_fract_y
_atom_site_fract_z
Si Si1 0.013304 0.278039 0.305190
Si Si2 0.250000 0.349536 0.171922
Si Si3 0.250000 0.580660 0.498481
Si Si4 0.596413 0.170770 0.846547
Si Si5 0.401996 0.060446 0.344452
Si Si6 0.000000 0.500000 0.500000
Si Si7 0.250000 0.669560 0.795041
O O1 0.123758 0.313708 0.216293
O O2 0.057300 0.215946 0.289328
O O3 0.000000 0.292845 0.500000
O O4 0.876694 0.292388 0.218091
O O5 0.250000 0.397943 0.305867
O O6 0.250000 0.361515 0.973519
O O7 0.116613 0.546584 0.519854
O O8 0.250000 0.628633 0.636887
O O9 0.750000 0.177282 0.889318
O O10 0.576033 0.110133 0.779656
O O11 0.500000 0.180899 0.000000
O O12 0.500000 0.065278 0.500000
O O13 0.250000 0.064233 0.401212
O O14 0.419564 0.000000 0.270679
#
# Coordination Sequence:
#
# PCOD9406927 Si02
#       7
#     8   4   4   8   8   2   4
#     4  12  23  41  62  94 128 172 213 265 324 394
#     4  12  23  43  67  98 135 171 217 264 322 381
#     4  11  22  46  66 100 132 176 213 266 316 370
#     4  11  24  39  57  87 126 164 210 267 330 389
#     4   9  19  38  61  84 114 159 213 268 326 392
#     4  10  24  42  74  94 136 176 216 262 316 370
#     4  12  25  41  71  98 133 173 219 262 322 385
#
# _framework density 18.912897000000001
#
# number of rings (size 3 to 8) (size 9 to 14) (size 15 to 20)
#    0.000    1.053    3.158    3.789    1.474    1.263 
#    0.000    3.158    0.000    0.000    0.000    0.000 
#    0.000    0.000    0.000    0.000    0.000    0.000 
#
# Total GULP energy -211659.595215 kJ/mol
# GULP energy per Si atom -5569.989348 kJ/mol
# Density = 1.886985 g / cm^3
# Si number density = 18.912897 Si / 1000 Ang^3
#
#
#
# Elastic Constant Matrix: (Units=GPa)
#
#
# Indices 1 2 3 4 5 6 
#
# 1 141.2555 38.6891 18.8305 0.0000 0.0000 0.0000
# 2 38.6891 81.8955 7.6128 0.0000 0.0000 0.0000
# 3 18.8305 7.6128 81.4619 0.0000 0.0000 0.0000
# 4 0.0000 0.0000 0.0000 -22.2156 0.0000 0.0000
# 5 0.0000 0.0000 0.0000 0.0000 52.1615 0.0000
# 6 0.0000 0.0000 0.0000 0.0000 0.0000 31.1314
#
#
#
# Elastic Compliance Matrix: (Units=1/GPa)
#
#
# Indices 1 2 3 4 5 6 
#
# 1 0.008326 -0.003787 -0.001571 0.000000 0.000000 0.000000
# 2 -0.003787 0.014041 -0.000437 0.000000 0.000000 0.000000
# 3 -0.001571 -0.000437 0.012680 0.000000 0.000000 0.000000
# 4 0.000000 0.000000 0.000000 -0.045013 0.000000 0.000000
# 5 0.000000 0.000000 0.000000 0.000000 0.019171 0.000000
# 6 0.000000 0.000000 0.000000 0.000000 0.000000 0.032122
#
#
# Mechanical properties :
#
#
# Convention : Reuss Voigt Hill
#
# Bulk Modulus (GPa) = 42.63173 48.31974 45.47574
# Shear Modulus (GPa) = 82.32583 28.18082 55.25332
#
# Velocity S-wave (km/s) = 6.60480 3.86428 5.41092
# Velocity P-wave (km/s) = 8.98636 6.74643 7.94572
#
# Compressibility (1/GPa) = 0.02345671
#
# Stress axis : x y z
#
# Youngs Moduli (GPa) = 120.10409 71.22241 78.86705
#
# Poissons Ratio (x) = 0.26975 0.12388
# Poissons Ratio (y) = 0.45488 0.03444
# Poissons Ratio (z) = 0.18865 0.03110
#
# Static dielectric constant tensor:
#      x y z
#    x 1.649810 0.000000 0.000000 
#    y 0.000000 1.657960 0.000000 
#    z 0.000000 0.000000 1.650720 
# 
# From -- ./inp_files/5408.got.cif
#   From: 2010.05.17/outbox.cif.g08.bks.cpg/sg51_3_cif.got.tgz:5408.got - 2010.06.03 11:52:47.
