data_PCOD9406612
_publ_section_title
;
Structure prediction by ZEFSAII (Michael W. Deem and Ramdas Pophale) SiO2 
 PCOD9406612
Probable space group: P M M A
;
_chemical_formula_sum "Si O2"
_cell_formula_units_Z 48
_cell_length_a 14.644596
_cell_length_b 7.953797
_cell_length_c 19.348764
_cell_angle_alpha 90.000000
_cell_angle_beta 90.000000
_cell_angle_gamma 90.000000
_cell_volume 2253.746812
_symmetry_space_group_name_H-M "P M M A"
_symmetry_group_IT_number 51
_symmetry_cell_setting 'orthorhombic'
loop_
_space_group_symop_operation_xyz
x,y,z
1/2-x,-y,z
1/2+x,-y,-z
-x,y,-z
-x,-y,-z
1/2+x,y,-z
1/2-x,y,z
x,-y,z
loop_
_atom_site_type_symbol
_atom_site_label
_atom_site_fract_x
_atom_site_fract_y
_atom_site_fract_z
Si Si1 0.360479 0.000000 0.303227
Si Si2 0.855556 0.804469 0.166075
Si Si3 0.901334 0.000000 0.539663
Si Si4 0.100038 0.685654 0.532508
Si Si5 0.484040 0.306533 0.075155
Si Si6 0.642700 0.299996 0.315875
Si Si7 0.359534 0.302034 0.199804
O O1 0.405692 0.000000 0.378295
O O2 0.383133 0.169010 0.259890
O O3 0.250000 0.000000 0.312849
O O4 0.750000 0.747875 0.163753
O O5 0.921082 0.703132 0.116240
O O6 0.887365 0.786811 0.245447
O O7 0.859387 0.000000 0.146498
O O8 0.854584 0.830812 0.512170
O O9 0.000000 0.000000 0.500000
O O10 0.143324 0.500000 0.531797
O O11 0.094189 0.740802 0.612374
O O12 0.000000 0.666730 0.500000
O O13 0.456204 0.500000 0.063025
O O14 0.409170 0.241529 0.129539
O O15 0.500000 0.226410 0.000000
O O16 0.750000 0.259906 0.326171
O O17 0.634208 0.500000 0.304402
O O18 0.250000 0.298552 0.191365
O O19 0.385422 0.500000 0.213427
#
# Coordination Sequence:
#
# PCOD9406612 Si02
#       7
#     4   8   4   8   8   8   8
#     4  10  22  40  61  87 114 155 208 255 311 371
#     4  10  22  38  57  87 124 161 200 245 300 360
#     4  10  22  36  52  79 110 143 188 241 299 359
#     4   9  19  35  52  75 109 146 185 233 293 354
#     4  10  22  39  62  92 123 160 202 246 304 367
#     4   9  18  34  56  79 105 145 195 239 285 347
#     4   9  20  41  66  92 123 161 209 260 307 363
#
# _framework density 21.297865999999999
#
# number of rings (size 3 to 8) (size 9 to 14) (size 15 to 20)
#    0.000    2.500    0.000    0.500    2.333    6.000 
#    0.000    6.667    0.000    0.000    0.000    0.000 
#    0.000    0.000    0.000    0.000    0.000    0.000 
#
# Total GULP energy -267773.196793 kJ/mol
# GULP energy per Si atom -5578.608267 kJ/mol
# Density = 2.124939 g / cm^3
# Si number density = 21.297866 Si / 1000 Ang^3
#
#
#
# Elastic Constant Matrix: (Units=GPa)
#
#
# Indices 1 2 3 4 5 6 
#
# 1 70.3165 9.7022 40.8290 0.0000 0.0000 0.0000
# 2 9.7022 95.9851 48.4118 0.0000 0.0000 0.0000
# 3 40.8290 48.4118 172.8455 0.0000 0.0000 0.0000
# 4 0.0000 0.0000 0.0000 19.7279 0.0000 0.0000
# 5 0.0000 0.0000 0.0000 0.0000 64.4865 0.0000
# 6 0.0000 0.0000 0.0000 0.0000 0.0000 11.9037
#
#
#
# Elastic Compliance Matrix: (Units=1/GPa)
#
#
# Indices 1 2 3 4 5 6 
#
# 1 0.016492 0.000347 -0.003993 0.000000 0.000000 0.000000
# 2 0.000347 0.012139 -0.003482 0.000000 0.000000 0.000000
# 3 -0.003993 -0.003482 0.007704 0.000000 0.000000 0.000000
# 4 0.000000 0.000000 0.000000 0.050690 0.000000 0.000000
# 5 0.000000 0.000000 0.000000 0.000000 0.015507 0.000000
# 6 0.000000 0.000000 0.000000 0.000000 0.000000 0.084007
#
#
# Mechanical properties :
#
#
# Convention : Reuss Voigt Hill
#
# Bulk Modulus (GPa) = 45.29118 59.67033 52.48075
# Shear Modulus (GPa) = 24.02054 35.23724 29.62889
#
# Velocity S-wave (km/s) = 3.36197 4.07196 3.73388
# Velocity P-wave (km/s) = 6.03177 7.08419 6.57906
#
# Compressibility (1/GPa) = 0.02207935
#
# Stress axis : x y z
#
# Youngs Moduli (GPa) = 60.63557 82.37604 129.80345
#
# Poissons Ratio (x) = -0.02857 0.51828
# Poissons Ratio (y) = -0.02103 0.45198
# Poissons Ratio (z) = 0.24211 0.28684
#
# Static dielectric constant tensor:
#      x y z
#    x 1.772550 0.000000 0.000000 
#    y 0.000000 1.850190 0.000000 
#    z 0.000000 0.000000 1.747850 
# 
# From -- ./inp_files/29625.got.cif
#   From: 2010.05.17/outbox.cif.g08.bks.cpg/sg51_15_cif.got.tgz:29625.got - 2010.06.03 11:52:47.
