data_PCOD9406271
_publ_section_title
;
Structure prediction by ZEFSAII (Michael W. Deem and Ramdas Pophale) SiO2 
 PCOD9406271
Probable space group: P M M A
;
_chemical_formula_sum "Si O2"
_cell_formula_units_Z 48
_cell_length_a 8.754524
_cell_length_b 31.049988
_cell_length_c 9.768550
_cell_angle_alpha 90.000000
_cell_angle_beta 90.000000
_cell_angle_gamma 90.000000
_cell_volume 2655.364092
_symmetry_space_group_name_H-M "P M M A"
_symmetry_group_IT_number 51
_symmetry_cell_setting 'orthorhombic'
loop_
_space_group_symop_operation_xyz
x,y,z
1/2-x,-y,z
1/2+x,-y,-z
-x,y,-z
-x,-y,-z
1/2+x,y,-z
1/2-x,y,z
x,-y,z
loop_
_atom_site_type_symbol
_atom_site_label
_atom_site_fract_x
_atom_site_fract_y
_atom_site_fract_z
Si Si1 0.932209 0.635436 0.653207
Si Si2 0.432247 0.807736 0.849574
Si Si3 0.932174 0.120832 0.651915
Si Si4 0.068365 0.948983 0.851595
Si Si5 0.432292 0.706873 0.849814
Si Si6 0.566811 0.547167 0.345711
O O1 0.750000 0.634214 0.645918
O O2 0.000000 0.639070 0.500000
O O3 0.990189 0.675248 0.742135
O O4 0.993955 0.590244 0.715476
O O5 0.250000 0.814570 0.852201
O O6 0.507801 0.838366 0.737984
O O7 0.461781 0.757317 0.819239
O O8 0.500000 0.817050 0.000000
O O9 0.750000 0.121166 0.646228
O O10 0.000000 0.121248 0.500000
O O11 0.990398 0.079191 0.734955
O O12 0.250000 0.941240 0.852149
O O13 0.041987 0.000000 0.831120
O O14 0.000000 0.937282 0.000000
O O15 0.250000 0.700382 0.850230
O O16 0.500000 0.698298 0.000000
O O17 0.500000 0.545841 0.500000
O O18 0.750000 0.551721 0.351952
O O19 0.531762 0.500000 0.283474
#
# Coordination Sequence:
#
# PCOD9406271 Si02
#       6
#     8   8   8   8   8   8
#     4  11  21  33  52  78 109 143 180 224 272 323
#     4  10  21  39  62  85 110 143 184 227 271 324
#     4  12  25  40  59  84 117 152 187 230 280 332
#     4  10  21  39  63  89 117 151 192 234 275 324
#     4  10  21  38  59  82 109 142 181 224 271 326
#     4   9  16  27  45  70 101 136 175 220 268 319
#
# _framework density 18.076616999999999
#
# number of rings (size 3 to 8) (size 9 to 14) (size 15 to 20)
#    0.000    1.667    0.000    6.500    0.000    5.000 
#    0.000    0.000    0.000    0.500    0.000    0.000 
#    0.000    0.000    0.000    0.000    0.000    0.000 
#
# Total GULP energy -268124.233774 kJ/mol
# GULP energy per Si atom -5585.921537 kJ/mol
# Density = 1.803547 g / cm^3
# Si number density = 18.076617 Si / 1000 Ang^3
#
#
#
# Elastic Constant Matrix: (Units=GPa)
#
#
# Indices 1 2 3 4 5 6 
#
# 1 153.0248 91.6657 78.5733 0.0000 0.0000 0.0000
# 2 91.6657 123.5066 95.5461 0.0000 0.0000 0.0000
# 3 78.5733 95.5461 123.9285 0.0000 0.0000 0.0000
# 4 0.0000 0.0000 0.0000 51.0794 0.0000 0.0000
# 5 0.0000 0.0000 0.0000 0.0000 32.9857 0.0000
# 6 0.0000 0.0000 0.0000 0.0000 0.0000 33.6634
#
#
#
# Elastic Compliance Matrix: (Units=1/GPa)
#
#
# Indices 1 2 3 4 5 6 
#
# 1 0.011931 -0.007441 -0.001827 0.000000 0.000000 0.000000
# 2 -0.007441 0.024704 -0.014329 0.000000 0.000000 0.000000
# 3 -0.001827 -0.014329 0.020275 0.000000 0.000000 0.000000
# 4 0.000000 0.000000 0.000000 0.019577 0.000000 0.000000
# 5 0.000000 0.000000 0.000000 0.000000 0.030316 0.000000
# 6 0.000000 0.000000 0.000000 0.000000 0.000000 0.029706
#
#
# Mechanical properties :
#
#
# Convention : Reuss Voigt Hill
#
# Bulk Modulus (GPa) = 102.92811 103.55891 103.24351
# Shear Modulus (GPa) = 26.74633 32.52400 29.63517
#
# Velocity S-wave (km/s) = 3.85074 4.24634 4.05337
# Velocity P-wave (km/s) = 8.76553 9.02525 8.89633
#
# Compressibility (1/GPa) = 0.00971552
#
# Stress axis : x y z
#
# Youngs Moduli (GPa) = 83.81810 40.47878 49.32266
#
# Poissons Ratio (x) = 0.30121 0.09012
# Poissons Ratio (y) = 0.62371 0.70672
# Poissons Ratio (z) = 0.15315 0.58000
#
# Static dielectric constant tensor:
#      x y z
#    x 1.597760 0.000000 0.000000 
#    y 0.000000 1.647260 0.000000 
#    z 0.000000 0.000000 1.578790 
# 
# From -- ./inp_files/6082.got.cif
#   From: 2010.05.17/outbox.cif.g08.bks.cpg/sg51_4_cif.got.tgz:6082.got - 2010.06.03 11:52:47.
