data_PCOD9406256
_publ_section_title
;
Structure prediction by ZEFSAII (Michael W. Deem and Ramdas Pophale) SiO2 
 PCOD9406256
Probable space group: P M M A
;
_chemical_formula_sum "Si O2"
_cell_formula_units_Z 64
_cell_length_a 14.025862
_cell_length_b 9.055203
_cell_length_c 26.999535
_cell_angle_alpha 90.000000
_cell_angle_beta 90.000000
_cell_angle_gamma 90.000000
_cell_volume 3429.130689
_symmetry_space_group_name_H-M "P M M A"
_symmetry_group_IT_number 51
_symmetry_cell_setting 'orthorhombic'
loop_
_space_group_symop_operation_xyz
x,y,z
1/2-x,-y,z
1/2+x,-y,-z
-x,y,-z
-x,-y,-z
1/2+x,y,-z
1/2-x,y,z
x,-y,z
loop_
_atom_site_type_symbol
_atom_site_label
_atom_site_fract_x
_atom_site_fract_y
_atom_site_fract_z
Si Si1 0.635325 0.825600 0.867407
Si Si2 0.133641 0.331666 0.923032
Si Si3 0.950832 0.821588 0.577412
Si Si4 0.356405 0.179385 0.526799
Si Si5 0.361077 0.677995 0.325891
Si Si6 0.467151 0.323538 0.224703
Si Si7 0.633830 0.827841 0.977304
Si Si8 0.361578 0.175461 0.820542
O O1 0.750000 0.813966 0.864952
O O2 0.590453 0.736573 0.822601
O O3 0.604927 0.774776 0.922557
O O4 0.611372 0.000000 0.863187
O O5 0.250000 0.333614 0.924858
O O6 0.100975 0.500000 0.917030
O O7 0.109844 0.235228 0.874943
O O8 0.101228 0.261848 0.974863
O O9 0.887777 0.781279 0.529120
O O10 0.910650 0.749347 0.626627
O O11 0.058909 0.775350 0.563646
O O12 0.948450 0.000000 0.581789
O O13 0.250000 0.232506 0.538128
O O14 0.355430 0.000000 0.528024
O O15 0.250000 0.721402 0.323674
O O16 0.365160 0.500000 0.329837
O O17 0.414287 0.720526 0.275200
O O18 0.472388 0.500000 0.222739
O O19 0.571517 0.253646 0.219192
O O20 0.750000 0.823418 0.977454
O O21 0.607755 0.000000 0.982308
O O22 0.250000 0.209650 0.813336
O O23 0.373760 0.000000 0.819145
#
# Coordination Sequence:
#
# PCOD9406256 Si02
#       8
#     8   8   8   8   8   8   8   8
#     4   9  18  33  53  77 106 139 174 215 264 317
#     4   9  16  27  47  75 103 131 165 205 252 311
#     4   9  17  30  53  83 110 144 191 232 265 310
#     4   8  14  27  49  80 118 152 182 224 276 319
#     4  10  22  39  56  77 109 145 177 215 267 318
#     4  11  23  38  56  77 103 136 175 220 268 320
#     4   8  14  26  45  70 101 135 167 202 252 312
#     4  10  21  38  59  79 100 129 167 214 267 321
#
# _framework density 18.663622
#
# number of rings (size 3 to 8) (size 9 to 14) (size 15 to 20)
#    0.000    2.750    0.000    3.375    0.000    5.250 
#    0.000    3.750    0.000    7.125    0.000    0.000 
#    0.000    0.000    0.000    0.000    0.000    0.000 
#
# Total GULP energy -357269.672422 kJ/mol
# GULP energy per Si atom -5582.338632 kJ/mol
# Density = 1.862114 g / cm^3
# Si number density = 18.663622 Si / 1000 Ang^3
#
#
#
# Elastic Constant Matrix: (Units=GPa)
#
#
# Indices 1 2 3 4 5 6 
#
# 1 130.1394 37.2253 87.8031 0.0000 0.0000 0.0000
# 2 37.2253 45.2712 55.1411 0.0000 0.0000 0.0000
# 3 87.8031 55.1411 154.6221 0.0000 0.0000 0.0000
# 4 0.0000 0.0000 0.0000 39.2089 0.0000 0.0000
# 5 0.0000 0.0000 0.0000 0.0000 27.9016 0.0000
# 6 0.0000 0.0000 0.0000 0.0000 0.0000 20.3249
#
#
#
# Elastic Compliance Matrix: (Units=1/GPa)
#
#
# Indices 1 2 3 4 5 6 
#
# 1 0.012672 -0.002926 -0.006152 0.000000 0.000000 0.000000
# 2 -0.002926 0.039728 -0.012506 0.000000 0.000000 0.000000
# 3 -0.006152 -0.012506 0.014421 0.000000 0.000000 0.000000
# 4 0.000000 0.000000 0.000000 0.025504 0.000000 0.000000
# 5 0.000000 0.000000 0.000000 0.000000 0.035840 0.000000
# 6 0.000000 0.000000 0.000000 0.000000 0.000000 0.049201
#
#
# Mechanical properties :
#
#
# Convention : Reuss Voigt Hill
#
# Bulk Modulus (GPa) = 42.28042 76.70798 59.49420
# Shear Modulus (GPa) = 21.88960 27.47795 24.68378
#
# Velocity S-wave (km/s) = 3.42840 3.84118 3.64065
# Velocity P-wave (km/s) = 6.19476 7.80144 7.04406
#
# Compressibility (1/GPa) = 0.02365161
#
# Stress axis : x y z
#
# Youngs Moduli (GPa) = 78.91443 25.17128 69.34390
#
# Poissons Ratio (x) = 0.07366 0.42663
# Poissons Ratio (y) = 0.23092 0.86722
# Poissons Ratio (z) = 0.48551 0.31479
#
# Static dielectric constant tensor:
#      x y z
#    x 1.700530 0.000000 0.000000 
#    y 0.000000 1.622500 0.000000 
#    z 0.000000 0.000000 1.607460 
# 
# From -- ./inp_files/35737.got.cif
#   From: 2010.05.17/outbox.cif.g08.bks.cpg/sg51_18_cif.got.tgz:35737.got - 2010.06.03 11:52:47.
