data_PCOD9406164
_publ_section_title
;
Structure prediction by ZEFSAII (Michael W. Deem and Ramdas Pophale) SiO2 
 PCOD9406164
Probable space group: P M M A
;
_chemical_formula_sum "Si O2"
_cell_formula_units_Z 56
_cell_length_a 14.372148
_cell_length_b 9.154285
_cell_length_c 21.864276
_cell_angle_alpha 90.000000
_cell_angle_beta 90.000000
_cell_angle_gamma 90.000000
_cell_volume 2876.611491
_symmetry_space_group_name_H-M "P M M A"
_symmetry_group_IT_number 51
_symmetry_cell_setting 'orthorhombic'
loop_
_space_group_symop_operation_xyz
x,y,z
1/2-x,-y,z
1/2+x,-y,-z
-x,y,-z
-x,-y,-z
1/2+x,y,-z
1/2-x,y,z
x,-y,z
loop_
_atom_site_type_symbol
_atom_site_label
_atom_site_fract_x
_atom_site_fract_y
_atom_site_fract_z
Si Si1 0.363272 0.831936 0.972082
Si Si2 0.362074 0.331334 0.458039
Si Si3 0.536955 0.325446 0.780177
Si Si4 0.144164 0.675086 0.847924
Si Si5 0.138000 0.172416 0.108218
Si Si6 0.039180 0.173596 0.345938
Si Si7 0.142852 0.173579 0.584499
O O1 0.250000 0.830823 0.973953
O O2 0.393623 0.782423 0.039673
O O3 0.392511 0.000000 0.963779
O O4 0.388677 0.739623 0.912857
O O5 0.250000 0.327263 0.453502
O O6 0.392341 0.500000 0.454924
O O7 0.404524 0.239545 0.402779
O O8 0.385382 0.261115 0.523661
O O9 0.545387 0.500000 0.775615
O O10 0.429890 0.285994 0.796192
O O11 0.594795 0.265477 0.837576
O O12 0.565615 0.250221 0.717196
O O13 0.250000 0.725463 0.836046
O O14 0.145387 0.500000 0.852949
O O15 0.250000 0.184654 0.110292
O O16 0.115338 0.000000 0.115400
O O17 0.930855 0.202830 0.362319
O O18 0.053181 0.000000 0.341997
O O19 0.250000 0.209752 0.599764
O O20 0.138486 0.000000 0.570740
#
# Coordination Sequence:
#
# PCOD9406164 Si02
#       7
#     8   8   8   8   8   8   8
#     4   8  15  30  54  81 104 131 172 221 272 322
#     4  10  21  37  59  87 115 143 177 218 265 315
#     4  11  24  38  53  77 108 144 185 224 265 317
#     4   9  19  36  55  76 106 142 178 219 269 323
#     4   9  19  37  58  79 106 139 176 221 272 325
#     4  11  23  38  57  80 109 147 185 221 265 315
#     4   9  19  37  60  86 114 142 176 219 266 316
#
# _framework density 19.467348000000001
#
# number of rings (size 3 to 8) (size 9 to 14) (size 15 to 20)
#    0.000    2.429    0.000    2.571    0.000    7.429 
#    0.000    4.286    0.000    0.000    0.000    0.000 
#    0.000    0.000    0.000    0.000    0.000    0.000 
#
# Total GULP energy -312687.010520 kJ/mol
# GULP energy per Si atom -5583.696616 kJ/mol
# Density = 1.942304 g / cm^3
# Si number density = 19.467348 Si / 1000 Ang^3
#
#
#
# Elastic Constant Matrix: (Units=GPa)
#
#
# Indices 1 2 3 4 5 6 
#
# 1 26.1852 12.1107 0.0020 0.0000 0.0000 0.0000
# 2 12.1107 36.0685 22.5118 0.0000 0.0000 0.0000
# 3 0.0020 22.5118 66.2887 0.0000 0.0000 0.0000
# 4 0.0000 0.0000 0.0000 39.5439 0.0000 0.0000
# 5 0.0000 0.0000 0.0000 0.0000 19.2967 0.0000
# 6 0.0000 0.0000 0.0000 0.0000 0.0000 21.6170
#
#
#
# Elastic Compliance Matrix: (Units=1/GPa)
#
#
# Indices 1 2 3 4 5 6 
#
# 1 0.047561 -0.020264 0.006880 0.000000 0.000000 0.000000
# 2 -0.020264 0.043816 -0.014879 0.000000 0.000000 0.000000
# 3 0.006880 -0.014879 0.020138 0.000000 0.000000 0.000000
# 4 0.000000 0.000000 0.000000 0.025288 0.000000 0.000000
# 5 0.000000 0.000000 0.000000 0.000000 0.051822 0.000000
# 6 0.000000 0.000000 0.000000 0.000000 0.000000 0.046260
#
#
# Mechanical properties :
#
#
# Convention : Reuss Voigt Hill
#
# Bulk Modulus (GPa) = 18.18534 21.97683 20.08108
# Shear Modulus (GPa) = 16.14254 22.35274 19.24764
#
# Velocity S-wave (km/s) = 2.88273 3.39221 3.14779
# Velocity P-wave (km/s) = 4.52127 5.16298 4.85274
#
# Compressibility (1/GPa) = 0.05498936
#
# Stress axis : x y z
#
# Youngs Moduli (GPa) = 21.02570 22.82290 49.65647
#
# Poissons Ratio (x) = 0.46247 -0.34164
# Poissons Ratio (y) = 0.42606 0.73885
# Poissons Ratio (z) = -0.14466 0.33959
#
# Static dielectric constant tensor:
#      x y z
#    x 1.734240 0.000000 0.000000 
#    y 0.000000 1.645490 0.000000 
#    z 0.000000 0.000000 1.632750 
# 
# From -- ./inp_files/33302.got.cif
#   From: 2010.05.17/outbox.cif.g08.bks.cpg/sg51_17_cif.got.tgz:33302.got - 2010.06.03 11:52:47.
