data_PCOD9406945
_publ_section_title
;
Structure prediction by ZEFSAII (Michael W. Deem and Ramdas Pophale) SiO2 
 PCOD9406945
Probable space group: P M M A
;
_chemical_formula_sum "Si O2"
_cell_formula_units_Z 56
_cell_length_a 27.175589
_cell_length_b 8.954803
_cell_length_c 15.062299
_cell_angle_alpha 90.000000
_cell_angle_beta 90.000000
_cell_angle_gamma 90.000000
_cell_volume 3665.441278
_symmetry_space_group_name_H-M "P M M A"
_symmetry_group_IT_number 51
_symmetry_cell_setting 'orthorhombic'
loop_
_space_group_symop_operation_xyz
x,y,z
1/2-x,-y,z
1/2+x,-y,-z
-x,y,-z
-x,-y,-z
1/2+x,y,-z
1/2-x,y,z
x,-y,z
loop_
_atom_site_type_symbol
_atom_site_label
_atom_site_fract_x
_atom_site_fract_y
_atom_site_fract_z
Si Si1 0.193667 0.682470 0.884185
Si Si2 0.434246 0.821935 0.186406
Si Si3 0.432068 0.820250 0.576254
Si Si4 0.611409 0.679470 0.976195
Si Si5 0.377585 0.325447 0.731936
Si Si6 0.955865 0.181570 0.618211
Si Si7 0.034132 0.674264 0.874428
O O1 0.250000 0.730226 0.892036
O O2 0.192509 0.500000 0.883208
O O3 0.167632 0.730657 0.792338
O O4 0.158688 0.727912 0.966132
O O5 0.394983 0.750848 0.119721
O O6 0.432823 0.768869 0.288836
O O7 0.487759 0.773348 0.150028
O O8 0.429943 0.000000 0.184877
O O9 0.391184 0.757738 0.641964
O O10 0.486615 0.773995 0.610688
O O11 0.429740 0.771745 0.473273
O O12 0.430780 0.000000 0.578439
O O13 0.612835 0.500000 0.969188
O O14 0.563240 0.715934 0.035990
O O15 0.369583 0.500000 0.712731
O O16 0.424891 0.315221 0.797196
O O17 0.955831 0.000000 0.618648
O O18 0.018793 0.500000 0.881492
#
# Coordination Sequence:
#
# PCOD9406945 Si02
#       7
#     8   8   8   8   8   8   8
#     4   8  15  30  50  67  84 110 141 171 211 267
#     4  11  19  27  40  60  84 113 148 179 203 239
#     4   9  15  28  44  57  80 116 149 173 204 247
#     4   9  18  30  43  60  83 111 141 172 210 253
#     4   9  16  26  43  67  88 106 138 181 216 247
#     4   8  16  27  40  57  81 116 152 176 197 240
#     4   9  17  28  39  55  85 118 141 167 205 247
#
# _framework density 15.277832
#
# number of rings (size 3 to 8) (size 9 to 14) (size 15 to 20)
#    0.000    3.000    1.429    3.429    0.000    2.286 
#    0.000    5.000    0.000    1.714    0.000    1.000 
#    0.000    8.000    0.000    0.000    0.000    0.000 
#
# Total GULP energy -311844.040273 kJ/mol
# GULP energy per Si atom -5568.643576 kJ/mol
# Density = 1.524306 g / cm^3
# Si number density = 15.277832 Si / 1000 Ang^3
#
#
#
# Elastic Constant Matrix: (Units=GPa)
#
#
# Indices 1 2 3 4 5 6 
#
# 1 70.9586 15.2085 56.0496 0.0000 0.0000 0.0000
# 2 15.2085 10.8207 29.1397 0.0000 0.0000 0.0000
# 3 56.0496 29.1397 155.8416 0.0000 0.0000 0.0000
# 4 0.0000 0.0000 0.0000 22.0182 0.0000 0.0000
# 5 0.0000 0.0000 0.0000 0.0000 12.6965 0.0000
# 6 0.0000 0.0000 0.0000 0.0000 0.0000 137.2551
#
#
#
# Elastic Compliance Matrix: (Units=1/GPa)
#
#
# Indices 1 2 3 4 5 6 
#
# 1 0.021442 -0.018872 -0.004183 0.000000 0.000000 0.000000
# 2 -0.018872 0.202760 -0.031125 0.000000 0.000000 0.000000
# 3 -0.004183 -0.031125 0.013741 0.000000 0.000000 0.000000
# 4 0.000000 0.000000 0.000000 0.045417 0.000000 0.000000
# 5 0.000000 0.000000 0.000000 0.000000 0.078762 0.000000
# 6 0.000000 0.000000 0.000000 0.000000 0.000000 0.007286
#
#
# Mechanical properties :
#
#
# Convention : Reuss Voigt Hill
#
# Bulk Modulus (GPa) = 7.71709 48.71295 28.21502
# Shear Modulus (GPa) = 9.59763 43.54215 26.56989
#
# Velocity S-wave (km/s) = 2.50912 5.34435 4.17479
# Velocity P-wave (km/s) = 3.66830 8.36879 6.46116
#
# Compressibility (1/GPa) = 0.12958251
#
# Stress axis : x y z
#
# Youngs Moduli (GPa) = 46.63832 4.93194 72.77450
#
# Poissons Ratio (x) = 0.09308 0.30441
# Poissons Ratio (y) = 0.88016 2.26512
# Poissons Ratio (z) = 0.19508 0.15351
#
# Static dielectric constant tensor:
#      x y z
#    x 1.492770 0.000000 0.000000 
#    y 0.000000 1.515930 0.000000 
#    z 0.000000 0.000000 1.536880 
# 
# From -- ./inp_files/26475.got.cif
#   From: 2010.05.17/outbox.cif.g08.bks.cpg/sg51_14_cif.got.tgz:26475.got - 2010.06.03 11:52:47.
