data_PCOD9406980
_publ_section_title
;
Structure prediction by ZEFSAII (Michael W. Deem and Ramdas Pophale) SiO2 
 PCOD9406980
Probable space group: P M M A
;
_chemical_formula_sum "Si O2"
_cell_formula_units_Z 64
_cell_length_a 14.307173
_cell_length_b 9.207501
_cell_length_c 32.393898
_cell_angle_alpha 90.000000
_cell_angle_beta 90.000000
_cell_angle_gamma 90.000000
_cell_volume 4267.355398
_symmetry_space_group_name_H-M "P M M A"
_symmetry_group_IT_number 51
_symmetry_cell_setting 'orthorhombic'
loop_
_space_group_symop_operation_xyz
x,y,z
1/2-x,-y,z
1/2+x,-y,-z
-x,y,-z
-x,-y,-z
1/2+x,y,-z
1/2-x,y,z
x,-y,z
loop_
_atom_site_type_symbol
_atom_site_label
_atom_site_fract_x
_atom_site_fract_y
_atom_site_fract_z
Si Si1 0.029909 0.173837 0.398257
Si Si2 0.859960 0.675505 0.858649
Si Si3 0.141167 0.174428 0.316486
Si Si4 0.637585 0.668339 0.529263
Si Si5 0.541040 0.175499 0.934772
Si Si6 0.136523 0.332729 0.233522
Si Si7 0.641161 0.325974 0.434182
Si Si8 0.855479 0.823769 0.019585
O O1 0.079908 0.219291 0.355720
O O2 0.090438 0.232383 0.436662
O O3 0.928266 0.243124 0.404194
O O4 0.025527 0.000000 0.399315
O O5 0.750000 0.713792 0.863923
O O6 0.865915 0.500000 0.860773
O O7 0.920515 0.749356 0.894015
O O8 0.890923 0.718976 0.812251
O O9 0.250000 0.217561 0.322991
O O10 0.107804 0.240858 0.273183
O O11 0.138958 0.000000 0.313785
O O12 0.750000 0.674220 0.532958
O O13 0.608699 0.500000 0.535529
O O14 0.615309 0.708640 0.481915
O O15 0.435884 0.219747 0.948048
O O16 0.543389 0.000000 0.930510
O O17 0.606967 0.214246 0.973909
O O18 0.250000 0.331453 0.232813
O O19 0.107138 0.500000 0.238551
O O20 0.750000 0.288917 0.428248
O O21 0.632160 0.500000 0.429822
O O22 0.750000 0.771059 0.026791
O O23 0.853594 0.000000 0.020673
#
# Coordination Sequence:
#
# PCOD9406980 Si02
#       8
#     8   8   8   8   8   8   8   8
#     4  11  21  30  44  68  94 117 141 173 216 261
#     4   9  17  28  41  60  88 115 136 168 215 255
#     4   9  18  31  44  62  91 119 139 165 204 250
#     4   9  18  32  48  65  87 117 150 180 209 245
#     4   9  16  25  41  63  81 107 149 183 207 245
#     4   8  15  28  44  61  82 110 141 169 203 251
#     4   9  19  35  50  63  83 113 150 188 217 244
#     4   8  14  25  39  57  85 115 142 178 217 246
#
# _framework density 14.997578000000001
#
# number of rings (size 3 to 8) (size 9 to 14) (size 15 to 20)
#    0.000    3.000    0.000    3.750    0.000    5.250 
#    0.000    5.000    0.000    1.125    0.000    0.875 
#    0.000    3.000    0.000    0.000    0.000    0.000 
#
# Total GULP energy -356531.838943 kJ/mol
# GULP energy per Si atom -5570.809983 kJ/mol
# Density = 1.496344 g / cm^3
# Si number density = 14.997578 Si / 1000 Ang^3
#
#
#
# Elastic Constant Matrix: (Units=GPa)
#
#
# Indices 1 2 3 4 5 6 
#
# 1 90.3379 29.0015 72.8780 0.0000 0.0000 0.0000
# 2 29.0015 21.9002 46.6973 0.0000 0.0000 0.0000
# 3 72.8780 46.6973 138.9111 0.0000 0.0000 0.0000
# 4 0.0000 0.0000 0.0000 30.3176 0.0000 0.0000
# 5 0.0000 0.0000 0.0000 0.0000 24.2885 0.0000
# 6 0.0000 0.0000 0.0000 0.0000 0.0000 19.9892
#
#
#
# Elastic Compliance Matrix: (Units=1/GPa)
#
#
# Indices 1 2 3 4 5 6 
#
# 1 0.020477 -0.014865 -0.005746 0.000000 0.000000 0.000000
# 2 -0.014865 0.172028 -0.050031 0.000000 0.000000 0.000000
# 3 -0.005746 -0.050031 0.027032 0.000000 0.000000 0.000000
# 4 0.000000 0.000000 0.000000 0.032984 0.000000 0.000000
# 5 0.000000 0.000000 0.000000 0.000000 0.041172 0.000000
# 6 0.000000 0.000000 0.000000 0.000000 0.000000 0.050027
#
#
# Mechanical properties :
#
#
# Convention : Reuss Voigt Hill
#
# Bulk Modulus (GPa) = 12.77911 60.92254 36.85082
# Shear Modulus (GPa) = 9.78302 21.75721 15.77011
#
# Velocity S-wave (km/s) = 2.55680 3.81296 3.24622
# Velocity P-wave (km/s) = 4.15398 7.75207 6.21893
#
# Compressibility (1/GPa) = 0.07825273
#
# Stress axis : x y z
#
# Youngs Moduli (GPa) = 48.83500 5.81300 36.99278
#
# Poissons Ratio (x) = 0.08641 0.21256
# Poissons Ratio (y) = 0.72594 1.85080
# Poissons Ratio (z) = 0.28060 0.29083
#
# Static dielectric constant tensor:
#      x y z
#    x 1.504440 0.000000 0.000000 
#    y 0.000000 1.496250 0.000000 
#    z 0.000000 0.000000 1.486610 
# 
# From -- ./inp_files/37812.got.cif
#   From: 2010.05.17/outbox.cif.g08.bks.cpg/sg51_19_cif.got.tgz:37812.got - 2010.06.03 11:52:47.
