data_PCOD9406574
_publ_section_title
;
Structure prediction by ZEFSAII (Michael W. Deem and Ramdas Pophale) SiO2 
 PCOD9406574
Probable space group: P M M A
;
_chemical_formula_sum "Si O2"
_cell_formula_units_Z 64
_cell_length_a 17.344378
_cell_length_b 19.574844
_cell_length_c 9.754151
_cell_angle_alpha 90.000000
_cell_angle_beta 90.000000
_cell_angle_gamma 90.000000
_cell_volume 3311.665883
_symmetry_space_group_name_H-M "P M M A"
_symmetry_group_IT_number 51
_symmetry_cell_setting 'orthorhombic'
loop_
_space_group_symop_operation_xyz
x,y,z
1/2-x,-y,z
1/2+x,-y,-z
-x,y,-z
-x,-y,-z
1/2+x,y,-z
1/2-x,y,z
x,-y,z
loop_
_atom_site_type_symbol
_atom_site_label
_atom_site_fract_x
_atom_site_fract_y
_atom_site_fract_z
Si Si1 0.837424 0.709620 0.992885
Si Si2 0.343494 0.077418 0.752971
Si Si3 0.158184 0.081371 0.067078
Si Si4 0.510239 0.578083 0.662587
Si Si5 0.158145 0.200024 0.553571
Si Si6 0.337285 0.421972 0.175453
Si Si7 0.600987 0.802123 0.755612
Si Si8 0.442631 0.281514 0.750336
O O1 0.750000 0.717804 0.043308
O O2 0.850990 0.632003 0.944749
O O3 0.849496 0.754209 0.856977
O O4 0.896855 0.730040 0.109352
O O5 0.250000 0.074964 0.751624
O O6 0.366293 0.132818 0.640571
O O7 0.371034 0.000000 0.726198
O O8 0.363570 0.097390 0.909140
O O9 0.250000 0.097496 0.085539
O O10 0.106890 0.124454 0.171381
O O11 0.150290 0.000000 0.084845
O O12 0.500000 0.585709 0.500000
O O13 0.487227 0.500000 0.699593
O O14 0.599224 0.586561 0.707344
O O15 0.466219 0.639369 0.737083
O O16 0.250000 0.208197 0.567371
O O17 0.135774 0.193804 0.395574
O O18 0.112210 0.261444 0.624319
O O19 0.250000 0.410222 0.226119
O O20 0.342539 0.500000 0.126107
O O21 0.517713 0.766567 0.747505
#
# Coordination Sequence:
#
# PCOD9406574 Si02
#       8
#     8   8   8   8   8   8   8   8
#     4  11  23  40  62  88 119 158 203 250 302 362
#     4   8  16  34  60  88 117 153 198 247 302 360
#     4   9  18  35  60  89 122 161 205 252 302 363
#     4  10  21  40  63  89 123 162 203 248 305 369
#     4  11  23  39  61  87 120 163 206 253 304 362
#     4   9  19  37  63  92 120 154 202 256 305 358
#     4  12  23  38  60  91 124 155 202 255 307 360
#     4  12  25  41  59  89 124 163 201 251 308 369
#
# _framework density 19.325621999999999
#
# number of rings (size 3 to 8) (size 9 to 14) (size 15 to 20)
#    0.000    1.750    1.250    4.500    0.000    2.000 
#    0.000    3.750    0.000    6.375    0.000    0.000 
#    0.000    0.000    0.000    0.000    0.000    0.000 
#
# Total GULP energy -357458.079024 kJ/mol
# GULP energy per Si atom -5585.282485 kJ/mol
# Density = 1.928164 g / cm^3
# Si number density = 19.325622 Si / 1000 Ang^3
#
#
#
# Elastic Constant Matrix: (Units=GPa)
#
#
# Indices 1 2 3 4 5 6 
#
# 1 69.9982 51.3132 34.0916 0.0000 0.0000 0.0000
# 2 51.3132 105.8132 56.8661 0.0000 0.0000 0.0000
# 3 34.0916 56.8661 94.1170 0.0000 0.0000 0.0000
# 4 0.0000 0.0000 0.0000 39.5702 0.0000 0.0000
# 5 0.0000 0.0000 0.0000 0.0000 32.3983 0.0000
# 6 0.0000 0.0000 0.0000 0.0000 0.0000 21.4513
#
#
#
# Elastic Compliance Matrix: (Units=1/GPa)
#
#
# Indices 1 2 3 4 5 6 
#
# 1 0.022499 -0.009671 -0.002306 0.000000 0.000000 0.000000
# 2 -0.009671 0.018152 -0.007464 0.000000 0.000000 0.000000
# 3 -0.002306 -0.007464 0.015971 0.000000 0.000000 0.000000
# 4 0.000000 0.000000 0.000000 0.025272 0.000000 0.000000
# 5 0.000000 0.000000 0.000000 0.000000 0.030866 0.000000
# 6 0.000000 0.000000 0.000000 0.000000 0.000000 0.046617
#
#
# Mechanical properties :
#
#
# Convention : Reuss Voigt Hill
#
# Bulk Modulus (GPa) = 56.37716 61.60783 58.99249
# Shear Modulus (GPa) = 24.48905 27.19446 25.84175
#
# Velocity S-wave (km/s) = 3.56361 3.75530 3.66071
# Velocity P-wave (km/s) = 6.79470 7.12398 6.96129
#
# Compressibility (1/GPa) = 0.01773768
#
# Stress axis : x y z
#
# Youngs Moduli (GPa) = 44.44643 55.08983 62.61521
#
# Poissons Ratio (x) = 0.53279 0.14441
# Poissons Ratio (y) = 0.42985 0.46739
# Poissons Ratio (z) = 0.10251 0.41122
#
# Static dielectric constant tensor:
#      x y z
#    x 1.675070 0.000000 0.000000 
#    y 0.000000 1.713630 0.000000 
#    z 0.000000 0.000000 1.640800 
# 
# From -- ./inp_files/10042.got.cif
#   From: 2010.05.17/outbox.cif.g08.bks.cpg/sg51_6_cif.got.tgz:10042.got - 2010.06.03 11:52:47.
