data_PCOD9406000
_publ_section_title
;
Structure prediction by ZEFSAII (Michael W. Deem and Ramdas Pophale) SiO2 
 PCOD9406000
Probable space group: P M M A
;
_chemical_formula_sum "Si O2"
_cell_formula_units_Z 38
_cell_length_a 9.724469
_cell_length_b 7.931387
_cell_length_c 26.392076
_cell_angle_alpha 90.000000
_cell_angle_beta 90.000000
_cell_angle_gamma 90.000000
_cell_volume 2035.581947
_symmetry_space_group_name_H-M "P M M A"
_symmetry_group_IT_number 51
_symmetry_cell_setting 'orthorhombic'
loop_
_space_group_symop_operation_xyz
x,y,z
1/2-x,-y,z
1/2+x,-y,-z
-x,y,-z
-x,-y,-z
1/2+x,y,-z
1/2-x,y,z
x,-y,z
loop_
_atom_site_type_symbol
_atom_site_label
_atom_site_fract_x
_atom_site_fract_y
_atom_site_fract_z
Si Si1 0.986337 0.000000 0.079575
Si Si2 0.406873 0.202562 0.546409
Si Si3 0.086466 0.690882 0.848063
Si Si4 0.593125 0.298024 0.640507
Si Si5 0.908743 0.200200 0.755329
Si Si6 0.250000 0.000000 0.007416
O O1 0.130260 0.000000 0.051237
O O2 0.968660 0.166011 0.114316
O O3 0.868431 0.000000 0.037331
O O4 0.500000 0.268131 0.500000
O O5 0.250000 0.267239 0.545476
O O6 0.486015 0.240671 0.598334
O O7 0.399497 0.000000 0.541270
O O8 0.250000 0.715530 0.841676
O O9 0.064234 0.500000 0.867461
O O10 0.009240 0.711399 0.794688
O O11 0.750000 0.239123 0.628809
O O12 0.594776 0.500000 0.641563
O O13 0.557313 0.234931 0.696730
O O14 0.750000 0.255353 0.762986
O O15 0.915651 0.000000 0.764310
#
# Coordination Sequence:
#
# PCOD9406000 Si02
#       6
#     4   8   8   8   8   2
#     4  11  22  46  64  96 126 168 203 262 298 360
#     4  10  21  37  58  82 108 146 195 245 298 360
#     4  11  23  39  62  91 126 165 206 252 308 364
#     4  10  21  37  56  82 117 152 192 244 298 357
#     4  10  21  37  61  90 119 157 202 248 304 363
#     4  10  24  42  74  90 128 168 212 246 312 354
#
# _framework density 18.667878000000002
#
# number of rings (size 3 to 8) (size 9 to 14) (size 15 to 20)
#    0.000    1.684    2.105    1.895    1.474    5.053 
#    0.000    3.158    0.000    0.000    0.000    0.000 
#    0.000    0.000    0.000    0.000    0.000    0.000 
#
# Total GULP energy -211701.685611 kJ/mol
# GULP energy per Si atom -5571.096990 kJ/mol
# Density = 1.862539 g / cm^3
# Si number density = 18.667878 Si / 1000 Ang^3
#
#
#
# Elastic Constant Matrix: (Units=GPa)
#
#
# Indices 1 2 3 4 5 6 
#
# 1 155.3446 40.5789 100.8818 0.0000 0.0000 0.0000
# 2 40.5789 66.3071 41.5496 0.0000 0.0000 0.0000
# 3 100.8818 41.5496 137.1835 0.0000 0.0000 0.0000
# 4 0.0000 0.0000 0.0000 -5.7562 0.0000 0.0000
# 5 0.0000 0.0000 0.0000 0.0000 24.6607 0.0000
# 6 0.0000 0.0000 0.0000 0.0000 0.0000 8.6848
#
#
#
# Elastic Compliance Matrix: (Units=1/GPa)
#
#
# Indices 1 2 3 4 5 6 
#
# 1 0.012612 -0.002353 -0.008562 0.000000 0.000000 0.000000
# 2 -0.002353 0.019053 -0.004040 0.000000 0.000000 0.000000
# 3 -0.008562 -0.004040 0.014809 0.000000 0.000000 0.000000
# 4 0.000000 0.000000 0.000000 -0.173727 0.000000 0.000000
# 5 0.000000 0.000000 0.000000 0.000000 0.040550 0.000000
# 6 0.000000 0.000000 0.000000 0.000000 0.000000 0.115144
#
#
# Mechanical properties :
#
#
# Convention : Reuss Voigt Hill
#
# Bulk Modulus (GPa) = 60.37219 80.53956 70.45587
# Shear Modulus (GPa) = 78.27811 17.23952 47.75881
#
# Velocity S-wave (km/s) = 6.48252 3.04219 5.06349
# Velocity P-wave (km/s) = 9.40431 7.45499 8.48581
#
# Compressibility (1/GPa) = 0.01656392
#
# Stress axis : x y z
#
# Youngs Moduli (GPa) = 79.28783 52.48463 67.52425
#
# Poissons Ratio (x) = 0.12352 0.57814
# Poissons Ratio (y) = 0.18659 0.27281
# Poissons Ratio (z) = 0.67886 0.21205
#
# Static dielectric constant tensor:
#      x y z
#    x 1.633820 0.000000 0.000000 
#    y 0.000000 1.663140 0.000000 
#    z 0.000000 0.000000 1.609390 
# 
# From -- ./inp_files/34399.got.cif
#   From: 2010.05.17/outbox.cif.g08.bks.cpg/sg51_18_cif.got.tgz:34399.got - 2010.06.03 11:52:47.
