data_PCOD9406771
_publ_section_title
;
Structure prediction by ZEFSAII (Michael W. Deem and Ramdas Pophale) SiO2 
 PCOD9406771
Probable space group: P M M A
;
_chemical_formula_sum "Si O2"
_cell_formula_units_Z 40
_cell_length_a 7.732698
_cell_length_b 8.264115
_cell_length_c 31.086840
_cell_angle_alpha 90.000000
_cell_angle_beta 90.000000
_cell_angle_gamma 90.000000
_cell_volume 1986.570487
_symmetry_space_group_name_H-M "P M M A"
_symmetry_group_IT_number 51
_symmetry_cell_setting 'orthorhombic'
loop_
_space_group_symop_operation_xyz
x,y,z
1/2-x,-y,z
1/2+x,-y,-z
-x,y,-z
-x,-y,-z
1/2+x,y,-z
1/2-x,y,z
x,-y,z
loop_
_atom_site_type_symbol
_atom_site_label
_atom_site_fract_x
_atom_site_fract_y
_atom_site_fract_z
Si Si1 0.750000 0.803964 0.799603
Si Si2 0.250000 0.308153 0.298413
Si Si3 0.457215 0.315444 0.953758
Si Si4 0.542687 0.185213 0.454095
Si Si5 0.552753 0.806135 0.138610
Si Si6 0.050550 0.196086 0.639401
O O1 0.750000 0.752932 0.750360
O O2 0.580647 0.746124 0.825606
O O3 0.750000 0.000000 0.801141
O O4 0.250000 0.500000 0.298496
O O5 0.418756 0.247600 0.324042
O O6 0.250000 0.320303 0.951795
O O7 0.524954 0.500000 0.954173
O O8 0.513087 0.233664 0.909469
O O9 0.500000 0.239037 0.000000
O O10 0.500000 0.263761 0.500000
O O11 0.750000 0.175912 0.451501
O O12 0.489491 0.256028 0.408000
O O13 0.472486 0.000000 0.455908
O O14 0.750000 0.743693 0.143706
O O15 0.560827 0.000000 0.142059
O O16 0.250000 0.247375 0.646910
O O17 0.051549 0.000000 0.636982
#
# Coordination Sequence:
#
# PCOD9406771 Si02
#       6
#     4   4   8   8   8   8
#     4  10  22  40  60  82 106 138 186 238 289 340
#     4  12  26  40  58  86 116 152 196 240 293 352
#     4   9  18  31  48  74 107 144 181 215 256 312
#     4   8  14  24  44  80 114 140 177 229 285 331
#     4   9  19  36  56  79 107 137 173 223 279 331
#     4   9  19  37  60  86 116 151 192 239 291 342
#
# _framework density 20.135204000000002
#
# number of rings (size 3 to 8) (size 9 to 14) (size 15 to 20)
#    0.000    2.800    0.000    2.100    2.800    2.400 
#    0.000    2.000    0.000    0.600    0.000    0.000 
#    0.000    0.000    0.000    0.000    0.000    0.000 
#
# Total GULP energy -222967.858537 kJ/mol
# GULP energy per Si atom -5574.196463 kJ/mol
# Density = 2.008937 g / cm^3
# Si number density = 20.135204 Si / 1000 Ang^3
#
#
#
# Elastic Constant Matrix: (Units=GPa)
#
#
# Indices 1 2 3 4 5 6 
#
# 1 98.3975 16.2683 93.9414 0.0000 0.0000 0.0000
# 2 16.2683 9.7220 15.4335 0.0000 0.0000 0.0000
# 3 93.9414 15.4335 228.5719 0.0000 0.0000 0.0000
# 4 0.0000 0.0000 0.0000 261.5273 0.0000 0.0000
# 5 0.0000 0.0000 0.0000 0.0000 38.7392 0.0000
# 6 0.0000 0.0000 0.0000 0.0000 0.0000 -28.2343
#
#
#
# Elastic Compliance Matrix: (Units=1/GPa)
#
#
# Indices 1 2 3 4 5 6 
#
# 1 0.020644 -0.023606 -0.006891 0.000000 0.000000 0.000000
# 2 -0.023606 0.142202 0.000100 0.000000 0.000000 0.000000
# 3 -0.006891 0.000100 0.007200 0.000000 0.000000 0.000000
# 4 0.000000 0.000000 0.000000 0.003824 0.000000 0.000000
# 5 0.000000 0.000000 0.000000 0.000000 0.025814 0.000000
# 6 0.000000 0.000000 0.000000 0.000000 0.000000 -0.035418
#
#
# Mechanical properties :
#
#
# Convention : Reuss Voigt Hill
#
# Bulk Modulus (GPa) = 9.15308 65.33085 37.24196
# Shear Modulus (GPa) = 19.12216 68.47632 43.79924
#
# Velocity S-wave (km/s) = 3.08504 5.83799 4.66902
# Velocity P-wave (km/s) = 4.15279 8.82946 6.89946
#
# Compressibility (1/GPa) = 0.10925282
#
# Stress axis : x y z
#
# Youngs Moduli (GPa) = 48.43906 7.03227 138.88339
#
# Poissons Ratio (x) = 0.16601 0.95702
# Poissons Ratio (y) = 1.14347 -0.01394
# Poissons Ratio (z) = 0.33378 -0.00071
#
# Static dielectric constant tensor:
#      x y z
#    x 1.723480 0.000000 0.000000 
#    y 0.000000 1.717050 0.000000 
#    z 0.000000 0.000000 1.730140 
# 
# From -- ./inp_files/36004.got.cif
#   From: 2010.05.17/outbox.cif.g08.bks.cpg/sg51_19_cif.got.tgz:36004.got - 2010.06.03 11:52:47.
