data_PCOD9406481
_publ_section_title
;
Structure prediction by ZEFSAII (Michael W. Deem and Ramdas Pophale) SiO2 
 PCOD9406481
Probable space group: P M M A
;
_chemical_formula_sum "Si O2"
_cell_formula_units_Z 52
_cell_length_a 8.613625
_cell_length_b 20.918926
_cell_length_c 14.430959
_cell_angle_alpha 90.000000
_cell_angle_beta 90.000000
_cell_angle_gamma 90.000000
_cell_volume 2600.282523
_symmetry_space_group_name_H-M "P M M A"
_symmetry_group_IT_number 51
_symmetry_cell_setting 'orthorhombic'
loop_
_space_group_symop_operation_xyz
x,y,z
1/2-x,-y,z
1/2+x,-y,-z
-x,y,-z
-x,-y,-z
1/2+x,y,-z
1/2-x,y,z
x,-y,z
loop_
_atom_site_type_symbol
_atom_site_label
_atom_site_fract_x
_atom_site_fract_y
_atom_site_fract_z
Si Si1 0.069445 0.698778 0.357201
Si Si2 0.568410 0.260134 0.166603
Si Si3 0.937070 0.164034 0.593954
Si Si4 0.936894 0.871617 0.803960
Si Si5 0.930204 0.397228 0.095666
Si Si6 0.936113 0.000000 0.104263
Si Si7 0.063020 0.570385 0.696627
O O1 0.250000 0.693203 0.379529
O O2 0.002993 0.762393 0.404490
O O3 0.042990 0.718352 0.250220
O O4 0.992279 0.629736 0.365068
O O5 0.750000 0.257931 0.196699
O O6 0.512407 0.189150 0.143054
O O7 0.558474 0.319690 0.097409
O O8 0.750000 0.165250 0.590487
O O9 0.978771 0.134839 0.694232
O O10 0.000000 0.132728 0.500000
O O11 0.750000 0.868404 0.811417
O O12 0.000272 0.937093 0.844708
O O13 0.750000 0.414641 0.095727
O O14 0.992253 0.420338 0.195995
O O15 0.000000 0.421408 0.000000
O O16 0.750000 0.000000 0.103915
O O17 0.000000 0.000000 0.000000
O O18 0.250000 0.573288 0.699318
O O19 0.014844 0.500000 0.664549
#
# Coordination Sequence:
#
# PCOD9406481 Si02
#       7
#     8   8   8   8   8   4   8
#     4   9  17  30  48  74 103 131 169 218 267 315
#     4   9  17  31  50  72  98 133 174 216 267 324
#     4   9  19  34  57  88 119 148 180 224 278 333
#     4  10  21  39  60  86 119 151 187 236 282 325
#     4   9  18  29  42  63  92 124 163 215 270 324
#     4  12  26  44  65  88 115 156 201 238 278 326
#     4   9  18  32  47  64  90 128 173 219 271 334
#
# _framework density 19.997827999999998
#
# number of rings (size 3 to 8) (size 9 to 14) (size 15 to 20)
#    0.000    2.615    0.000    3.923    0.000    8.000 
#    0.000    1.923    0.000    0.462    0.000    0.000 
#    0.000    0.000    0.000    0.000    0.000    0.000 
#
# Total GULP energy -289684.612210 kJ/mol
# GULP energy per Si atom -5570.857927 kJ/mol
# Density = 1.995231 g / cm^3
# Si number density = 19.997828 Si / 1000 Ang^3
#
#
#
# Elastic Constant Matrix: (Units=GPa)
#
#
# Indices 1 2 3 4 5 6 
#
# 1 28.6910 25.7528 17.5668 0.0000 0.0000 0.0000
# 2 25.7528 143.1850 25.5778 0.0000 0.0000 0.0000
# 3 17.5668 25.5778 69.9605 0.0000 0.0000 0.0000
# 4 0.0000 0.0000 0.0000 195.1474 0.0000 0.0000
# 5 0.0000 0.0000 0.0000 0.0000 20.4995 0.0000
# 6 0.0000 0.0000 0.0000 0.0000 0.0000 25.9837
#
#
#
# Elastic Compliance Matrix: (Units=1/GPa)
#
#
# Indices 1 2 3 4 5 6 
#
# 1 0.046537 -0.006722 -0.009228 0.000000 0.000000 0.000000
# 2 -0.006722 0.008443 -0.001399 0.000000 0.000000 0.000000
# 3 -0.009228 -0.001399 0.017122 0.000000 0.000000 0.000000
# 4 0.000000 0.000000 0.000000 0.005124 0.000000 0.000000
# 5 0.000000 0.000000 0.000000 0.000000 0.048782 0.000000
# 6 0.000000 0.000000 0.000000 0.000000 0.000000 0.038486
#
#
# Mechanical properties :
#
#
# Convention : Reuss Voigt Hill
#
# Bulk Modulus (GPa) = 26.73401 42.18126 34.45764
# Shear Modulus (GPa) = 23.62283 59.85540 41.73911
#
# Velocity S-wave (km/s) = 3.44069 5.47685 4.57353
# Velocity P-wave (km/s) = 5.40203 7.81878 6.71994
#
# Compressibility (1/GPa) = 0.03740554
#
# Stress axis : x y z
#
# Youngs Moduli (GPa) = 21.48811 118.44406 58.40331
#
# Poissons Ratio (x) = 0.79614 0.53894
# Poissons Ratio (y) = 0.14444 0.08170
# Poissons Ratio (z) = 0.19829 0.16570
#
# Static dielectric constant tensor:
#      x y z
#    x 1.685580 0.000000 0.000000 
#    y 0.000000 1.739620 0.000000 
#    z 0.000000 0.000000 1.723050 
# 
# From -- ./inp_files/21548.got.cif
#   From: 2010.05.17/outbox.cif.g08.bks.cpg/sg51_11_cif.got.tgz:21548.got - 2010.06.03 11:52:47.
