data_PCOD9406997
_publ_section_title
;
Structure prediction by ZEFSAII (Michael W. Deem and Ramdas Pophale) SiO2 
 PCOD9406997
Probable space group: P M M A
;
_chemical_formula_sum "Si O2"
_cell_formula_units_Z 56
_cell_length_a 7.641887
_cell_length_b 19.683067
_cell_length_c 19.362500
_cell_angle_alpha 90.000000
_cell_angle_beta 90.000000
_cell_angle_gamma 90.000000
_cell_volume 2912.425421
_symmetry_space_group_name_H-M "P M M A"
_symmetry_group_IT_number 51
_symmetry_cell_setting 'orthorhombic'
loop_
_space_group_symop_operation_xyz
x,y,z
1/2-x,-y,z
1/2+x,-y,-z
-x,y,-z
-x,-y,-z
1/2+x,y,-z
1/2-x,y,z
x,-y,z
loop_
_atom_site_type_symbol
_atom_site_label
_atom_site_fract_x
_atom_site_fract_y
_atom_site_fract_z
Si Si1 0.960233 0.221208 0.080548
Si Si2 0.539363 0.423496 0.299017
Si Si3 0.535080 0.703206 0.211505
Si Si4 0.549450 0.200168 0.331770
Si Si5 0.545697 0.325301 0.579154
Si Si6 0.539864 0.927482 0.081918
Si Si7 0.539072 0.922729 0.420648
O O1 0.750000 0.218800 0.085256
O O2 0.020952 0.277652 0.134544
O O3 0.026333 0.146408 0.104274
O O4 0.000000 0.232252 0.000000
O O5 0.750000 0.426178 0.293747
O O6 0.471818 0.500000 0.292208
O O7 0.476957 0.368964 0.242098
O O8 0.497077 0.389398 0.372561
O O9 0.750000 0.702705 0.213981
O O10 0.474548 0.762362 0.264383
O O11 0.750000 0.183055 0.313538
O O12 0.549650 0.259541 0.389410
O O13 0.470569 0.133066 0.366613
O O14 0.500000 0.337215 0.500000
O O15 0.750000 0.310483 0.585155
O O16 0.750000 0.927638 0.091009
O O17 0.473313 0.000000 0.110342
O O18 0.500000 0.928349 0.000000
O O19 0.500000 0.903300 0.500000
O O20 0.750000 0.923689 0.414743
O O21 0.475155 0.000000 0.409810
#
# Coordination Sequence:
#
# PCOD9406997 Si02
#       7
#     8   8   8   8   8   8   8
#     4   9  16  27  44  65  89 116 147 184 225 268
#     4   9  18  34  54  72  91 119 153 185 221 269
#     4   8  15  29  48  68  89 115 147 185 228 273
#     4   9  17  31  48  65  90 123 160 198 234 276
#     4  11  21  32  48  71  98 125 154 188 226 268
#     4   8  13  21  34  54  80 109 140 173 210 253
#     4   9  17  28  43  64  89 119 156 198 240 276
#
# _framework density 19.227959999999999
#
# number of rings (size 3 to 8) (size 9 to 14) (size 15 to 20)
#    0.000    3.000    0.000    2.571    0.000    2.286 
#    0.000    3.571    0.000    4.714    0.000    0.000 
#    0.000    9.143    0.000    0.000    0.000    0.000 
#
# Total GULP energy -311931.914744 kJ/mol
# GULP energy per Si atom -5570.212763 kJ/mol
# Density = 1.918420 g / cm^3
# Si number density = 19.227960 Si / 1000 Ang^3
#
#
#
# Elastic Constant Matrix: (Units=GPa)
#
#
# Indices 1 2 3 4 5 6 
#
# 1 43.0222 -3.6987 -5.2674 0.0000 0.0000 0.0000
# 2 -3.6987 93.2434 66.8363 0.0000 0.0000 0.0000
# 3 -5.2674 66.8363 106.1562 0.0000 0.0000 0.0000
# 4 0.0000 0.0000 0.0000 15.3733 0.0000 0.0000
# 5 0.0000 0.0000 0.0000 0.0000 12.4127 0.0000
# 6 0.0000 0.0000 0.0000 0.0000 0.0000 7.9085
#
#
#
# Elastic Compliance Matrix: (Units=1/GPa)
#
#
# Indices 1 2 3 4 5 6 
#
# 1 0.023387 0.000175 0.001050 0.000000 0.000000 0.000000
# 2 0.000175 0.019547 -0.012298 0.000000 0.000000 0.000000
# 3 0.001050 -0.012298 0.017215 0.000000 0.000000 0.000000
# 4 0.000000 0.000000 0.000000 0.065048 0.000000 0.000000
# 5 0.000000 0.000000 0.000000 0.000000 0.080563 0.000000
# 6 0.000000 0.000000 0.000000 0.000000 0.000000 0.126446
#
#
# Mechanical properties :
#
#
# Convention : Reuss Voigt Hill
#
# Bulk Modulus (GPa) = 26.31330 39.79582 33.05456
# Shear Modulus (GPa) = 13.62327 19.44235 16.53281
#
# Velocity S-wave (km/s) = 2.66468 3.18331 2.93547
# Velocity P-wave (km/s) = 4.81477 5.85261 5.35887
#
# Compressibility (1/GPa) = 0.03800359
#
# Stress axis : x y z
#
# Youngs Moduli (GPa) = 42.75802 51.15963 58.08872
#
# Poissons Ratio (x) = -0.00894 -0.06102
# Poissons Ratio (y) = -0.00747 0.71437
# Poissons Ratio (z) = -0.04491 0.62916
#
# Static dielectric constant tensor:
#      x y z
#    x 1.722950 0.000000 0.000000 
#    y 0.000000 1.702220 0.000000 
#    z 0.000000 0.000000 1.634610 
# 
# From -- ./inp_files/28235.got.cif
#   From: 2010.05.17/outbox.cif.g08.bks.cpg/sg51_15_cif.got.tgz:28235.got - 2010.06.03 11:52:47.
