data_PCOD9406573
_publ_section_title
;
Structure prediction by ZEFSAII (Michael W. Deem and Ramdas Pophale) SiO2 
 PCOD9406573
Probable space group: P M M A
;
_chemical_formula_sum "Si O2"
_cell_formula_units_Z 56
_cell_length_a 16.969888
_cell_length_b 18.907816
_cell_length_c 9.323674
_cell_angle_alpha 90.000000
_cell_angle_beta 90.000000
_cell_angle_gamma 90.000000
_cell_volume 2991.626858
_symmetry_space_group_name_H-M "P M M A"
_symmetry_group_IT_number 51
_symmetry_cell_setting 'orthorhombic'
loop_
_space_group_symop_operation_xyz
x,y,z
1/2-x,-y,z
1/2+x,-y,-z
-x,y,-z
-x,-y,-z
1/2+x,y,-z
1/2-x,y,z
x,-y,z
loop_
_atom_site_type_symbol
_atom_site_label
_atom_site_fract_x
_atom_site_fract_y
_atom_site_fract_z
Si Si1 0.341004 0.581872 0.535533
Si Si2 0.046634 0.677426 0.726434
Si Si3 0.660258 0.834888 0.846764
Si Si4 0.494995 0.164277 0.335902
Si Si5 0.419254 0.919121 0.906949
Si Si6 0.338151 0.311436 0.991860
Si Si7 0.395397 0.417831 0.213197
O O1 0.250000 0.593564 0.576307
O O2 0.362041 0.500000 0.571996
O O3 0.398866 0.636573 0.612207
O O4 0.349847 0.588533 0.364147
O O5 0.013697 0.752101 0.671927
O O6 0.975575 0.625801 0.767810
O O7 0.098102 0.692237 0.867539
O O8 0.750000 0.845843 0.796529
O O9 0.591724 0.848943 0.731496
O O10 0.651347 0.753958 0.899328
O O11 0.643050 0.881394 0.988806
O O12 0.500000 0.140708 0.500000
O O13 0.558191 0.124577 0.234634
O O14 0.397688 0.000000 0.875091
O O15 0.500000 0.919493 0.000000
O O16 0.250000 0.306933 0.931622
O O17 0.348933 0.382336 0.083255
O O18 0.411023 0.500000 0.186684
#
# Coordination Sequence:
#
# PCOD9406573 Si02
#       7
#     8   8   8   8   8   8   8
#     4  10  22  40  58  79 113 154 197 247 306 370
#     4  12  22  37  58  85 114 155 199 248 294 359
#     4  10  21  40  63  89 122 163 207 250 299 357
#     4  11  22  38  61  94 129 166 202 248 305 362
#     4   9  19  38  66  94 122 160 202 241 288 354
#     4  11  23  38  57  82 113 150 195 250 305 354
#     4  11  23  38  58  82 111 152 199 249 305 363
#
# _framework density 18.718910000000001
#
# number of rings (size 3 to 8) (size 9 to 14) (size 15 to 20)
#    0.000    1.429    2.857    3.000    0.000    4.286 
#    0.000    1.429    0.000    0.000    0.000    0.000 
#    0.000    0.000    0.000    0.000    0.000    0.000 
#
# Total GULP energy -312864.570688 kJ/mol
# GULP energy per Si atom -5586.867334 kJ/mol
# Density = 1.867631 g / cm^3
# Si number density = 18.718910 Si / 1000 Ang^3
#
#
#
# Elastic Constant Matrix: (Units=GPa)
#
#
# Indices 1 2 3 4 5 6 
#
# 1 88.9338 24.4846 33.8189 0.0000 0.0000 0.0000
# 2 24.4846 87.4177 24.9602 0.0000 0.0000 0.0000
# 3 33.8189 24.9602 91.6592 0.0000 0.0000 0.0000
# 4 0.0000 0.0000 0.0000 11.6443 0.0000 0.0000
# 5 0.0000 0.0000 0.0000 0.0000 29.1617 0.0000
# 6 0.0000 0.0000 0.0000 0.0000 0.0000 8.3529
#
#
#
# Elastic Compliance Matrix: (Units=1/GPa)
#
#
# Indices 1 2 3 4 5 6 
#
# 1 0.013594 -0.002576 -0.004314 0.000000 0.000000 0.000000
# 2 -0.002576 0.012892 -0.002560 0.000000 0.000000 0.000000
# 3 -0.004314 -0.002560 0.013199 0.000000 0.000000 0.000000
# 4 0.000000 0.000000 0.000000 0.085879 0.000000 0.000000
# 5 0.000000 0.000000 0.000000 0.000000 0.034292 0.000000
# 6 0.000000 0.000000 0.000000 0.000000 0.000000 0.119719
#
#
# Mechanical properties :
#
#
# Convention : Reuss Voigt Hill
#
# Bulk Modulus (GPa) = 48.11328 48.28200 48.19764
# Shear Modulus (GPa) = 16.37182 22.14825 19.26003
#
# Velocity S-wave (km/s) = 2.96060 3.44350 3.21114
# Velocity P-wave (km/s) = 6.11929 6.45441 6.28908
#
# Compressibility (1/GPa) = 0.02078428
#
# Stress axis : x y z
#
# Youngs Moduli (GPa) = 73.56164 77.56886 75.76325
#
# Poissons Ratio (x) = 0.19979 0.32687
# Poissons Ratio (y) = 0.18947 0.19398
# Poissons Ratio (z) = 0.31737 0.19860
#
# Static dielectric constant tensor:
#      x y z
#    x 1.636890 0.000000 0.000000 
#    y 0.000000 1.636530 0.000000 
#    z 0.000000 0.000000 1.634470 
# 
# From -- ./inp_files/8488.got.cif
#   From: 2010.05.17/outbox.cif.g08.bks.cpg/sg51_5_cif.got.tgz:8488.got - 2010.06.03 11:52:47.
