data_PCOD9406790
_publ_section_title
;
Structure prediction by ZEFSAII (Michael W. Deem and Ramdas Pophale) SiO2 
 PCOD9406790
Probable space group: P M M A
;
_chemical_formula_sum "Si O2"
_cell_formula_units_Z 34
_cell_length_a 20.511250
_cell_length_b 7.483179
_cell_length_c 9.866504
_cell_angle_alpha 90.000000
_cell_angle_beta 90.000000
_cell_angle_gamma 90.000000
_cell_volume 1514.403338
_symmetry_space_group_name_H-M "P M M A"
_symmetry_group_IT_number 51
_symmetry_cell_setting 'orthorhombic'
loop_
_space_group_symop_operation_xyz
x,y,z
1/2-x,-y,z
1/2+x,-y,-z
-x,y,-z
-x,-y,-z
1/2+x,y,-z
1/2-x,y,z
x,-y,z
loop_
_atom_site_type_symbol
_atom_site_label
_atom_site_fract_x
_atom_site_fract_y
_atom_site_fract_z
Si Si1 0.250000 0.197737 0.273222
Si Si2 0.109318 0.714463 0.628085
Si Si3 0.250000 0.000000 0.990343
Si Si4 0.488290 0.295633 0.852585
Si Si5 0.750000 0.286260 0.254770
Si Si6 0.108801 0.206445 0.325147
O O1 0.181528 0.284832 0.311692
O O2 0.250000 0.000000 0.343912
O O3 0.250000 0.152327 0.113868
O O4 0.100004 0.500000 0.621031
O O5 0.184685 0.750205 0.659739
O O6 0.089298 0.786293 0.481969
O O7 0.065693 0.784731 0.752487
O O8 0.250000 0.842100 0.874350
O O9 0.466326 0.500000 0.878208
O O10 0.555307 0.295381 0.769378
O O11 0.500000 0.212277 0.000000
O O12 0.750000 0.500000 0.220925
O O13 0.112627 0.000000 0.279383
#
# Coordination Sequence:
#
# PCOD9406790 Si02
#       6
#     4   8   2   8   4   8
#     4   8  21  39  60  85 123 157 199 252 317 369
#     4  10  22  40  62  91 125 161 211 261 311 381
#     4  10  22  42  64  94 140 168 194 280 320 364
#     4  10  23  41  61  86 122 165 207 261 321 374
#     4  10  23  41  68  98 126 170 218 254 320 390
#     4  11  22  39  62  88 123 161 207 257 313 383
#
# _framework density 22.451086
#
# number of rings (size 3 to 8) (size 9 to 14) (size 15 to 20)
#    0.353    1.647    0.000    2.118    4.941    4.235 
#    0.000    2.941    0.000    0.000    0.000    0.000 
#    0.000    0.000    0.000    0.000    0.000    0.000 
#
# Total GULP energy -189374.138597 kJ/mol
# GULP energy per Si atom -5569.827606 kJ/mol
# Density = 2.239999 g / cm^3
# Si number density = 22.451086 Si / 1000 Ang^3
#
#
#
# Elastic Constant Matrix: (Units=GPa)
#
#
# Indices 1 2 3 4 5 6 
#
# 1 128.0585 -0.8382 52.0355 0.0000 0.0000 0.0000
# 2 -0.8382 69.4523 7.7599 0.0000 0.0000 0.0000
# 3 52.0355 7.7599 178.6784 0.0000 0.0000 0.0000
# 4 0.0000 0.0000 0.0000 33.3357 0.0000 0.0000
# 5 0.0000 0.0000 0.0000 0.0000 51.8030 0.0000
# 6 0.0000 0.0000 0.0000 0.0000 0.0000 5.5203
#
#
#
# Elastic Compliance Matrix: (Units=1/GPa)
#
#
# Indices 1 2 3 4 5 6 
#
# 1 0.008868 0.000398 -0.002600 0.000000 0.000000 0.000000
# 2 0.000398 0.014486 -0.000745 0.000000 0.000000 0.000000
# 3 -0.002600 -0.000745 0.006386 0.000000 0.000000 0.000000
# 4 0.000000 0.000000 0.000000 0.029998 0.000000 0.000000
# 5 0.000000 0.000000 0.000000 0.000000 0.019304 0.000000
# 6 0.000000 0.000000 0.000000 0.000000 0.000000 0.181149
#
#
# Mechanical properties :
#
#
# Convention : Reuss Voigt Hill
#
# Bulk Modulus (GPa) = 41.93569 54.90041 48.41805
# Shear Modulus (GPa) = 18.24587 39.28059 28.76323
#
# Velocity S-wave (km/s) = 2.85387 4.18737 3.58320
# Velocity P-wave (km/s) = 5.43863 6.91991 6.22350
#
# Compressibility (1/GPa) = 0.02384604
#
# Stress axis : x y z
#
# Youngs Moduli (GPa) = 112.76565 69.03023 156.58928
#
# Poissons Ratio (x) = -0.02744 0.40711
# Poissons Ratio (y) = -0.04482 0.11664
# Poissons Ratio (z) = 0.29317 0.05142
#
# Static dielectric constant tensor:
#      x y z
#    x 1.846010 0.000000 0.000000 
#    y 0.000000 1.874870 0.000000 
#    z 0.000000 0.000000 1.780410 
# 
# From -- ./inp_files/10468.got.cif
#   From: 2010.05.17/outbox.cif.g08.bks.cpg/sg51_6_cif.got.tgz:10468.got - 2010.06.03 11:52:47.
