data_PCOD9406619
_publ_section_title
;
Structure prediction by ZEFSAII (Michael W. Deem and Ramdas Pophale) SiO2 
 PCOD9406619
Probable space group: P M M A
;
_chemical_formula_sum "Si O2"
_cell_formula_units_Z 64
_cell_length_a 15.877970
_cell_length_b 21.696154
_cell_length_c 9.321373
_cell_angle_alpha 90.000000
_cell_angle_beta 90.000000
_cell_angle_gamma 90.000000
_cell_volume 3211.128009
_symmetry_space_group_name_H-M "P M M A"
_symmetry_group_IT_number 51
_symmetry_cell_setting 'orthorhombic'
loop_
_space_group_symop_operation_xyz
x,y,z
1/2-x,-y,z
1/2+x,-y,-z
-x,y,-z
-x,-y,-z
1/2+x,y,-z
1/2-x,y,z
x,-y,z
loop_
_atom_site_type_symbol
_atom_site_label
_atom_site_fract_x
_atom_site_fract_y
_atom_site_fract_z
Si Si1 0.653057 0.672562 0.209006
Si Si2 0.087727 0.429734 0.585098
Si Si3 0.385384 0.798304 0.636106
Si Si4 0.653320 0.567550 0.717133
Si Si5 0.414350 0.934104 0.304572
Si Si6 0.647542 0.686664 0.880821
Si Si7 0.413334 0.800017 0.305023
Si Si8 0.886143 0.933377 0.352748
O O1 0.750000 0.650739 0.204544
O O2 0.600981 0.622072 0.297069
O O3 0.650074 0.738571 0.286794
O O4 0.623176 0.682040 0.046657
O O5 0.094877 0.500000 0.640036
O O6 0.152328 0.421647 0.453353
O O7 0.000000 0.423375 0.500000
O O8 0.374359 0.792011 0.464272
O O9 0.485960 0.799255 0.668155
O O10 0.351979 0.865663 0.685364
O O11 0.750000 0.563932 0.765041
O O12 0.613448 0.500000 0.742098
O O13 0.615964 0.625548 0.798791
O O14 0.387671 0.867717 0.246358
O O15 0.389695 0.933246 0.473225
O O16 0.516197 0.934442 0.303147
O O17 0.384663 0.000000 0.243645
O O18 0.750000 0.689559 0.872788
O O19 0.612332 0.746128 0.800651
O O20 0.849140 0.000000 0.308788
#
# Coordination Sequence:
#
# PCOD9406619 Si02
#       8
#     8   8   8   8   8   8   8   8
#     4  11  24  38  54  78 110 147 182 218 261 318
#     4  10  22  39  60  86 111 135 170 219 268 316
#     4   9  18  30  51  81 106 136 180 227 272 319
#     4   9  18  35  58  79 101 134 174 214 257 307
#     4   7  10  19  39  69 101 130 166 216 268 316
#     4  10  22  37  52  75 108 147 185 218 261 319
#     4   9  17  30  51  78 106 138 177 223 273 319
#     4   7  10  20  40  69 103 132 164 215 275 321
#
# _framework density 19.930690999999999
#
# number of rings (size 3 to 8) (size 9 to 14) (size 15 to 20)
#    0.000    3.000    0.000    3.375    3.500    3.250 
#    0.000    1.250    0.000    3.750    0.000    8.750 
#    0.000    0.000    0.000    0.000    0.000    0.000 
#
# Total GULP energy -356546.578156 kJ/mol
# GULP energy per Si atom -5571.040284 kJ/mol
# Density = 1.988533 g / cm^3
# Si number density = 19.930691 Si / 1000 Ang^3
#
#
#
# Elastic Constant Matrix: (Units=GPa)
#
#
# Indices 1 2 3 4 5 6 
#
# 1 25.4237 25.6081 15.9129 0.0000 0.0000 0.0000
# 2 25.6081 233.7042 99.1011 0.0000 0.0000 0.0000
# 3 15.9129 99.1011 81.1261 0.0000 0.0000 0.0000
# 4 0.0000 0.0000 0.0000 -9.6064 0.0000 0.0000
# 5 0.0000 0.0000 0.0000 0.0000 26.7664 0.0000
# 6 0.0000 0.0000 0.0000 0.0000 0.0000 -61.7346
#
#
#
# Elastic Compliance Matrix: (Units=1/GPa)
#
#
# Indices 1 2 3 4 5 6 
#
# 1 0.045528 -0.002493 -0.005884 0.000000 0.000000 0.000000
# 2 -0.002493 0.009014 -0.010522 0.000000 0.000000 0.000000
# 3 -0.005884 -0.010522 0.026334 0.000000 0.000000 0.000000
# 4 0.000000 0.000000 0.000000 -0.104098 0.000000 0.000000
# 5 0.000000 0.000000 0.000000 0.000000 0.037360 0.000000
# 6 0.000000 0.000000 0.000000 0.000000 0.000000 -0.016198
#
#
# Mechanical properties :
#
#
# Convention : Reuss Voigt Hill
#
# Bulk Modulus (GPa) = 23.21464 69.05536 46.13500
# Shear Modulus (GPa) = 99.80232 4.39389 52.09810
#
# Velocity S-wave (km/s) = 7.08402 1.48639 5.11824
# Velocity P-wave (km/s) = 8.86477 6.13749 7.62407
#
# Compressibility (1/GPa) = 0.04307626
#
# Stress axis : x y z
#
# Youngs Moduli (GPa) = 21.96450 110.93893 37.97353
#
# Poissons Ratio (x) = 0.27662 0.22345
# Poissons Ratio (y) = 0.05477 0.39956
# Poissons Ratio (z) = 0.12925 1.16731
#
# Static dielectric constant tensor:
#      x y z
#    x 1.777090 0.000000 0.000000 
#    y 0.000000 1.748130 0.000000 
#    z 0.000000 0.000000 1.655700 
# 
# From -- ./inp_files/10045.got.cif
#   From: 2010.05.17/outbox.cif.g08.bks.cpg/sg51_6_cif.got.tgz:10045.got - 2010.06.03 11:52:47.
