data_PCOD9406413
_publ_section_title
;
Structure prediction by ZEFSAII (Michael W. Deem and Ramdas Pophale) SiO2 
 PCOD9406413
Probable space group: P M M A
;
_chemical_formula_sum "Si O2"
_cell_formula_units_Z 48
_cell_length_a 14.587463
_cell_length_b 16.144701
_cell_length_c 10.105227
_cell_angle_alpha 90.000000
_cell_angle_beta 90.000000
_cell_angle_gamma 90.000000
_cell_volume 2379.884320
_symmetry_space_group_name_H-M "P M M A"
_symmetry_group_IT_number 51
_symmetry_cell_setting 'orthorhombic'
loop_
_space_group_symop_operation_xyz
x,y,z
1/2-x,-y,z
1/2+x,-y,-z
-x,y,-z
-x,-y,-z
1/2+x,y,-z
1/2-x,y,z
x,-y,z
loop_
_atom_site_type_symbol
_atom_site_label
_atom_site_fract_x
_atom_site_fract_y
_atom_site_fract_z
Si Si1 0.359796 0.902669 0.656757
Si Si2 0.144852 0.900132 0.359218
Si Si3 0.951092 0.636940 0.868176
Si Si4 0.250000 0.601723 0.733936
Si Si5 0.250000 0.599617 0.042550
Si Si6 0.940558 0.594638 0.384572
Si Si7 0.498143 0.830117 0.151617
O O1 0.250000 0.898058 0.665865
O O2 0.385241 0.874766 0.507665
O O3 0.409102 0.851600 0.770633
O O4 0.386145 0.000000 0.670142
O O5 0.250000 0.872853 0.339807
O O6 0.080784 0.869234 0.242595
O O7 0.144302 0.000000 0.360772
O O8 0.842687 0.628999 0.887051
O O9 0.979842 0.732465 0.854029
O O10 0.993639 0.592877 0.741955
O O11 0.000000 0.603389 0.000000
O O12 0.250000 0.500000 0.735302
O O13 0.157336 0.630392 0.660778
O O14 0.250000 0.627091 0.888196
O O15 0.250000 0.500000 0.043357
O O16 0.920000 0.500000 0.428025
O O17 0.000000 0.636623 0.500000
O O18 0.500000 0.860982 0.000000
#
# Coordination Sequence:
#
# PCOD9406413 Si02
#       7
#     8   8   8   4   4   8   8
#     4   9  19  39  64  89 116 158 218 263 294 352
#     4   9  19  37  63  88 114 158 211 259 297 349
#     4  11  24  41  59  89 123 163 204 255 303 372
#     4   9  18  35  63  91 113 152 195 247 306 358
#     4  11  22  39  71  93 112 162 219 257 299 366
#     4  10  21  38  61  89 122 151 193 253 310 371
#     4  11  24  37  54  86 126 166 190 247 311 364
#
# _framework density 20.169046999999999
#
# number of rings (size 3 to 8) (size 9 to 14) (size 15 to 20)
#    0.000    2.000    1.667    2.500    1.167    6.000 
#    6.000    3.333    0.000    0.000    0.000    0.000 
#    0.000    0.000    0.000    0.000    0.000    0.000 
#
# Total GULP energy -268042.596415 kJ/mol
# GULP energy per Si atom -5584.220759 kJ/mol
# Density = 2.012314 g / cm^3
# Si number density = 20.169047 Si / 1000 Ang^3
#
#
#
# Elastic Constant Matrix: (Units=GPa)
#
#
# Indices 1 2 3 4 5 6 
#
# 1 142.4715 19.4147 69.6037 0.0000 0.0000 0.0000
# 2 19.4147 37.3914 28.2040 0.0000 0.0000 0.0000
# 3 69.6037 28.2040 153.3230 0.0000 0.0000 0.0000
# 4 0.0000 0.0000 0.0000 12.8893 0.0000 0.0000
# 5 0.0000 0.0000 0.0000 0.0000 82.7663 0.0000
# 6 0.0000 0.0000 0.0000 0.0000 0.0000 63.7337
#
#
#
# Elastic Compliance Matrix: (Units=1/GPa)
#
#
# Indices 1 2 3 4 5 6 
#
# 1 0.009131 -0.001875 -0.003800 0.000000 0.000000 0.000000
# 2 -0.001875 0.031438 -0.004932 0.000000 0.000000 0.000000
# 3 -0.003800 -0.004932 0.009155 0.000000 0.000000 0.000000
# 4 0.000000 0.000000 0.000000 0.077583 0.000000 0.000000
# 5 0.000000 0.000000 0.000000 0.000000 0.012082 0.000000
# 6 0.000000 0.000000 0.000000 0.000000 0.000000 0.015690
#
#
# Mechanical properties :
#
#
# Convention : Reuss Voigt Hill
#
# Bulk Modulus (GPa) = 35.07602 63.07010 49.07306
# Shear Modulus (GPa) = 26.91118 46.27543 36.59330
#
# Velocity S-wave (km/s) = 3.65674 4.79516 4.26412
# Velocity P-wave (km/s) = 5.93783 7.87380 6.97333
#
# Compressibility (1/GPa) = 0.02850950
#
# Stress axis : x y z
#
# Youngs Moduli (GPa) = 109.51642 31.80900 109.23367
#
# Poissons Ratio (x) = 0.05963 0.41513
# Poissons Ratio (y) = 0.20529 0.53874
# Poissons Ratio (z) = 0.41620 0.15688
#
# Static dielectric constant tensor:
#      x y z
#    x 1.715970 0.000000 0.000000 
#    y 0.000000 1.722740 0.000000 
#    z 0.000000 0.000000 1.716640 
# 
# From -- ./inp_files/8317.got.cif
#   From: 2010.05.17/outbox.cif.g08.bks.cpg/sg51_5_cif.got.tgz:8317.got - 2010.06.03 11:52:47.
