data_PCOD9406278
_publ_section_title
;
Structure prediction by ZEFSAII (Michael W. Deem and Ramdas Pophale) SiO2 
 PCOD9406278
Probable space group: P M M A
;
_chemical_formula_sum "Si O2"
_cell_formula_units_Z 32
_cell_length_a 13.275891
_cell_length_b 11.999143
_cell_length_c 7.900606
_cell_angle_alpha 90.000000
_cell_angle_beta 90.000000
_cell_angle_gamma 90.000000
_cell_volume 1258.561120
_symmetry_space_group_name_H-M "P M M A"
_symmetry_group_IT_number 51
_symmetry_cell_setting 'orthorhombic'
loop_
_space_group_symop_operation_xyz
x,y,z
1/2-x,-y,z
1/2+x,-y,-z
-x,y,-z
-x,-y,-z
1/2+x,y,-z
1/2-x,y,z
x,-y,z
loop_
_atom_site_type_symbol
_atom_site_label
_atom_site_fract_x
_atom_site_fract_y
_atom_site_fract_z
Si Si1 0.134227 0.347387 0.901246
Si Si2 0.932986 0.619976 0.724128
Si Si3 0.127906 0.869861 0.405830
Si Si4 0.370658 0.884635 0.797409
O O1 0.250000 0.364613 0.849831
O O2 0.109056 0.217139 0.915338
O O3 0.052852 0.383517 0.763052
O O4 0.116067 0.388341 0.089352
O O5 0.906117 0.500000 0.636971
O O6 0.905273 0.744868 0.658419
O O7 0.250000 0.865894 0.393877
O O8 0.095811 0.870658 0.604041
O O9 0.103923 0.000000 0.344561
O O10 0.250000 0.888282 0.784269
O O11 0.407418 0.000000 0.868298
#
# Coordination Sequence:
#
# PCOD9406278 Si02
#       4
#     8   8   8   8
#     4  10  21  38  59  82 113 154 197 242 292 346
#     4  11  24  39  58  87 119 154 197 242 291 347
#     4   9  19  38  63  90 121 156 194 238 288 343
#     4   8  16  34  60  88 117 151 193 240 290 344
#
# _framework density 25.425861999999999
#
# number of rings (size 3 to 8) (size 9 to 14) (size 15 to 20)
#    0.000    2.500    0.000    3.750    0.000    6.500 
#    0.000   11.250    0.000    9.000    0.000    0.000 
#    0.000    0.000    0.000    0.000    0.000    0.000 
#
# Total GULP energy -178237.077937 kJ/mol
# GULP energy per Si atom -5569.908686 kJ/mol
# Density = 2.536799 g / cm^3
# Si number density = 25.425862 Si / 1000 Ang^3
#
#
#
# Elastic Constant Matrix: (Units=GPa)
#
#
# Indices 1 2 3 4 5 6 
#
# 1 129.3384 50.7635 5.4441 0.0000 0.0000 0.0000
# 2 50.7635 340.4829 69.9934 0.0000 0.0000 0.0000
# 3 5.4441 69.9934 46.6671 0.0000 0.0000 0.0000
# 4 0.0000 0.0000 0.0000 1142.0177 0.0000 0.0000
# 5 0.0000 0.0000 0.0000 0.0000 27.7964 0.0000
# 6 0.0000 0.0000 0.0000 0.0000 0.0000 -67.0165
#
#
#
# Elastic Compliance Matrix: (Units=1/GPa)
#
#
# Indices 1 2 3 4 5 6 
#
# 1 0.008265 -0.001495 0.001278 0.000000 0.000000 0.000000
# 2 -0.001495 0.004517 -0.006600 0.000000 0.000000 0.000000
# 3 0.001278 -0.006600 0.031178 0.000000 0.000000 0.000000
# 4 0.000000 0.000000 0.000000 0.000876 0.000000 0.000000
# 5 0.000000 0.000000 0.000000 0.000000 0.035976 0.000000
# 6 0.000000 0.000000 0.000000 0.000000 0.000000 -0.014922
#
#
# Mechanical properties :
#
#
# Convention : Reuss Voigt Hill
#
# Bulk Modulus (GPa) = 32.97530 85.43227 59.20379
# Shear Modulus (GPa) = 55.78422 246.57868 151.18145
#
# Velocity S-wave (km/s) = 4.68909 9.85850 7.71938
# Velocity P-wave (km/s) = 6.50493 12.77733 10.13840
#
# Compressibility (1/GPa) = 0.03032573
#
# Stress axis : x y z
#
# Youngs Moduli (GPa) = 120.99813 221.40459 32.07390
#
# Poissons Ratio (x) = 0.33098 -0.04099
# Poissons Ratio (y) = 0.18088 0.21168
# Poissons Ratio (z) = -0.15464 1.46123
#
# Static dielectric constant tensor:
#      x y z
#    x 2.048790 0.000000 0.000000 
#    y 0.000000 2.111980 0.000000 
#    z 0.000000 0.000000 1.929610 
# 
# From -- ./inp_files/7481.got.cif
#   From: 2010.05.17/outbox.cif.g08.bks.cpg/sg51_4_cif.got.tgz:7481.got - 2010.06.03 11:52:47.
