data_PCOD9406910
_publ_section_title
;
Structure prediction by ZEFSAII (Michael W. Deem and Ramdas Pophale) SiO2 
 PCOD9406910
Probable space group: P M M A
;
_chemical_formula_sum "Si O2"
_cell_formula_units_Z 56
_cell_length_a 21.982431
_cell_length_b 8.574472
_cell_length_c 14.960613
_cell_angle_alpha 90.000000
_cell_angle_beta 90.000000
_cell_angle_gamma 90.000000
_cell_volume 2819.892120
_symmetry_space_group_name_H-M "P M M A"
_symmetry_group_IT_number 51
_symmetry_cell_setting 'orthorhombic'
loop_
_space_group_symop_operation_xyz
x,y,z
1/2-x,-y,z
1/2+x,-y,-z
-x,y,-z
-x,-y,-z
1/2+x,y,-z
1/2-x,y,z
x,-y,z
loop_
_atom_site_type_symbol
_atom_site_label
_atom_site_fract_x
_atom_site_fract_y
_atom_site_fract_z
Si Si1 0.633676 0.186066 0.548441
Si Si2 0.462093 0.815423 0.302075
Si Si3 0.429440 0.173557 0.974387
Si Si4 0.120447 0.679096 0.145540
Si Si5 0.750000 0.821105 0.829505
Si Si6 0.083254 0.684403 0.779164
Si Si7 0.250000 0.320067 0.356484
Si Si8 0.678389 0.312390 0.368570
O O1 0.573577 0.225663 0.606225
O O2 0.689578 0.284747 0.588317
O O3 0.638132 0.228222 0.444385
O O4 0.643686 0.000000 0.560149
O O5 0.416901 0.777532 0.219087
O O6 0.524938 0.728512 0.281508
O O7 0.474082 0.000000 0.303396
O O8 0.421619 0.225352 0.872547
O O9 0.402836 0.000000 0.988182
O O10 0.500000 0.164705 0.000000
O O11 0.403543 0.293026 0.046221
O O12 0.115066 0.500000 0.172686
O O13 0.189471 0.733982 0.142427
O O14 0.750000 0.803658 0.722812
O O15 0.750000 0.000000 0.857484
O O16 0.080988 0.500000 0.797414
O O17 0.145103 0.719570 0.725294
O O18 0.250000 0.500000 0.325328
O O19 0.750000 0.266424 0.371970
O O20 0.676081 0.500000 0.383141
#
# Coordination Sequence:
#
# PCOD9406910 Si02
#       8
#     8   8   8   8   4   8   4   8
#     4  11  23  38  62  93 126 165 210 257 308 375
#     4  11  23  39  61  93 133 168 204 260 321 377
#     4  11  23  41  67  93 124 165 208 259 322 386
#     4  12  24  39  63  94 128 168 214 262 319 383
#     4  12  24  40  60  89 132 171 210 260 320 384
#     4  11  24  42  66  94 124 162 214 269 317 378
#     4  12  22  34  58  89 124 167 212 258 306 364
#     4  10  23  44  67  91 124 167 213 264 316 369
#
# _framework density 19.858916000000001
#
# number of rings (size 3 to 8) (size 9 to 14) (size 15 to 20)
#    0.000    0.857    3.571    4.286    0.000    4.000 
#    1.286    2.857    0.000    0.000    0.000    0.000 
#    0.000    0.000    0.000    0.000    0.000    0.000 
#
# Total GULP energy -312911.746458 kJ/mol
# GULP energy per Si atom -5587.709758 kJ/mol
# Density = 1.981372 g / cm^3
# Si number density = 19.858916 Si / 1000 Ang^3
#
#
#
# Elastic Constant Matrix: (Units=GPa)
#
#
# Indices 1 2 3 4 5 6 
#
# 1 58.4611 -1.0755 23.7682 0.0000 0.0000 0.0000
# 2 -1.0755 45.5229 9.8398 0.0000 0.0000 0.0000
# 3 23.7682 9.8398 92.2340 0.0000 0.0000 0.0000
# 4 0.0000 0.0000 0.0000 25.4326 0.0000 0.0000
# 5 0.0000 0.0000 0.0000 0.0000 35.1592 0.0000
# 6 0.0000 0.0000 0.0000 0.0000 0.0000 10.1629
#
#
#
# Elastic Compliance Matrix: (Units=1/GPa)
#
#
# Indices 1 2 3 4 5 6 
#
# 1 0.019215 0.001560 -0.005118 0.000000 0.000000 0.000000
# 2 0.001560 0.022612 -0.002814 0.000000 0.000000 0.000000
# 3 -0.005118 -0.002814 0.012461 0.000000 0.000000 0.000000
# 4 0.000000 0.000000 0.000000 0.039320 0.000000 0.000000
# 5 0.000000 0.000000 0.000000 0.000000 0.028442 0.000000
# 6 0.000000 0.000000 0.000000 0.000000 0.000000 0.098397
#
#
# Mechanical properties :
#
#
# Convention : Reuss Voigt Hill
#
# Bulk Modulus (GPa) = 24.07099 29.03144 26.55121
# Shear Modulus (GPa) = 20.23970 25.06331 22.65150
#
# Velocity S-wave (km/s) = 3.19591 3.55641 3.38097
# Velocity P-wave (km/s) = 5.07600 5.61379 5.35166
#
# Compressibility (1/GPa) = 0.04154379
#
# Stress axis : x y z
#
# Youngs Moduli (GPa) = 52.04290 44.22403 80.24957
#
# Poissons Ratio (x) = -0.06900 0.41072
# Poissons Ratio (y) = -0.08120 0.22585
# Poissons Ratio (z) = 0.26636 0.12446
#
# Static dielectric constant tensor:
#      x y z
#    x 1.659830 0.000000 0.000000 
#    y 0.000000 1.683710 0.000000 
#    z 0.000000 0.000000 1.735020 
# 
# From -- ./inp_files/25916.got.cif
#   From: 2010.05.17/outbox.cif.g08.bks.cpg/sg51_13_cif.got.tgz:25916.got - 2010.06.03 11:52:47.
