data_PCOD9406819
_publ_section_title
;
Structure prediction by ZEFSAII (Michael W. Deem and Ramdas Pophale) SiO2 
 PCOD9406819
Probable space group: P M M A
;
_chemical_formula_sum "Si O2"
_cell_formula_units_Z 40
_cell_length_a 8.662048
_cell_length_b 15.886512
_cell_length_c 14.816056
_cell_angle_alpha 90.000000
_cell_angle_beta 90.000000
_cell_angle_gamma 90.000000
_cell_volume 2038.833458
_symmetry_space_group_name_H-M "P M M A"
_symmetry_group_IT_number 51
_symmetry_cell_setting 'orthorhombic'
loop_
_space_group_symop_operation_xyz
x,y,z
1/2-x,-y,z
1/2+x,-y,-z
-x,y,-z
-x,-y,-z
1/2+x,y,-z
1/2-x,y,z
x,-y,z
loop_
_atom_site_type_symbol
_atom_site_label
_atom_site_fract_x
_atom_site_fract_y
_atom_site_fract_z
Si Si1 0.064623 0.093760 0.277911
Si Si2 0.565950 0.158102 0.093842
Si Si3 0.935209 0.747589 0.600666
Si Si4 0.434566 0.651959 0.095252
Si Si5 0.065472 0.405783 0.717146
O O1 0.250000 0.100634 0.265061
O O2 0.016567 0.168416 0.344870
O O3 0.984754 0.107132 0.181540
O O4 0.030851 0.000000 0.312765
O O5 0.750000 0.165325 0.088293
O O6 0.492899 0.251461 0.103575
O O7 0.500000 0.122475 0.000000
O O8 0.750000 0.745556 0.598194
O O9 0.000000 0.748347 0.500000
O O10 0.995006 0.666589 0.654923
O O11 0.250000 0.650540 0.094058
O O12 0.498535 0.604558 0.182295
O O13 0.500000 0.619434 0.000000
O O14 0.250000 0.395556 0.720769
O O15 0.030302 0.500000 0.683630
#
# Coordination Sequence:
#
# PCOD9406819 Si02
#       5
#     8   8   8   8   8
#     4  10  22  41  64  92 126 164 207 255 308 368
#     4  11  21  35  59  89 125 167 211 255 304 362
#     4  11  24  43  68  93 123 162 204 257 315 371
#     4  11  21  36  60  90 126 168 210 253 304 363
#     4  11  24  42  65  94 127 163 206 257 310 368
#
# _framework density 19.619062
#
# number of rings (size 3 to 8) (size 9 to 14) (size 15 to 20)
#    0.000    1.200    2.000    6.000    0.000    4.400 
#    0.000    0.000    0.000    0.000    0.000    0.000 
#    0.000    0.000    0.000    0.000    0.000    0.000 
#
# Total GULP energy -223718.808321 kJ/mol
# GULP energy per Si atom -5592.970208 kJ/mol
# Density = 1.957441 g / cm^3
# Si number density = 19.619062 Si / 1000 Ang^3
#
#
#
# Elastic Constant Matrix: (Units=GPa)
#
#
# Indices 1 2 3 4 5 6 
#
# 1 90.9692 61.4678 52.6446 0.0000 0.0000 0.0000
# 2 61.4678 143.4291 86.8727 0.0000 0.0000 0.0000
# 3 52.6446 86.8727 155.5703 0.0000 0.0000 0.0000
# 4 0.0000 0.0000 0.0000 -3.8545 0.0000 0.0000
# 5 0.0000 0.0000 0.0000 0.0000 37.2914 0.0000
# 6 0.0000 0.0000 0.0000 0.0000 0.0000 22.1716
#
#
#
# Elastic Compliance Matrix: (Units=1/GPa)
#
#
# Indices 1 2 3 4 5 6 
#
# 1 0.016047 -0.005422 -0.002403 0.000000 0.000000 0.000000
# 2 -0.005422 0.012367 -0.005071 0.000000 0.000000 0.000000
# 3 -0.002403 -0.005071 0.010073 0.000000 0.000000 0.000000
# 4 0.000000 0.000000 0.000000 -0.259438 0.000000 0.000000
# 5 0.000000 0.000000 0.000000 0.000000 0.026816 0.000000
# 6 0.000000 0.000000 0.000000 0.000000 0.000000 0.045103
#
#
# Mechanical properties :
#
#
# Convention : Reuss Voigt Hill
#
# Bulk Modulus (GPa) = 78.76829 87.99321 83.38075
# Shear Modulus (GPa) = -42.01328 23.72061 -9.14633
#
# Velocity S-wave (km/s) = -4.63260 3.48093 -2.16150
# Velocity P-wave (km/s) = 3.40901 7.81691 6.03015
#
# Compressibility (1/GPa) = 0.01269546
#
# Stress axis : x y z
#
# Youngs Moduli (GPa) = 62.31870 80.85879 99.27637
#
# Poissons Ratio (x) = 0.43839 0.23852
# Poissons Ratio (y) = 0.33787 0.50347
# Poissons Ratio (z) = 0.14972 0.41006
#
# Static dielectric constant tensor:
#      x y z
#    x 1.654950 0.000000 0.000000 
#    y 0.000000 1.711380 0.000000 
#    z 0.000000 0.000000 1.658540 
# 
# From -- ./inp_files/20461.got.cif
#   From: 2010.05.17/outbox.cif.g08.bks.cpg/sg51_11_cif.got.tgz:20461.got - 2010.06.03 11:52:47.
