data_PCOD9406930
_publ_section_title
;
Structure prediction by ZEFSAII (Michael W. Deem and Ramdas Pophale) SiO2 
 PCOD9406930
Probable space group: P M M A
;
_chemical_formula_sum "Si O2"
_cell_formula_units_Z 38
_cell_length_a 10.907391
_cell_length_b 28.578615
_cell_length_c 5.805251
_cell_angle_alpha 90.000000
_cell_angle_beta 90.000000
_cell_angle_gamma 90.000000
_cell_volume 1809.601975
_symmetry_space_group_name_H-M "P M M A"
_symmetry_group_IT_number 51
_symmetry_cell_setting 'orthorhombic'
loop_
_space_group_symop_operation_xyz
x,y,z
1/2-x,-y,z
1/2+x,-y,-z
-x,y,-z
-x,-y,-z
1/2+x,y,-z
1/2-x,y,z
x,-y,z
loop_
_atom_site_type_symbol
_atom_site_label
_atom_site_fract_x
_atom_site_fract_y
_atom_site_fract_z
Si Si1 0.500000 0.921299 0.000000
Si Si2 0.000000 0.763694 0.000000
Si Si3 0.750000 0.500000 0.256517
Si Si4 0.434579 0.412455 0.751479
Si Si5 0.382275 0.306797 0.662866
Si Si6 0.109234 0.843200 0.314516
Si Si7 0.390570 0.000000 0.685535
O O1 0.413631 0.887988 0.152226
O O2 0.583365 0.954547 0.158397
O O3 0.921710 0.797141 0.833620
O O4 0.092081 0.730378 0.861561
O O5 0.852816 0.541614 0.255992
O O6 0.500000 0.413297 0.500000
O O7 0.380427 0.359959 0.754644
O O8 0.500000 0.415920 0.000000
O O9 0.500000 0.302770 0.500000
O O10 0.250000 0.297668 0.549600
O O11 0.250000 0.842401 0.400929
O O12 0.000000 0.845519 0.500000
O O13 0.500000 0.000000 0.500000
O O14 0.250000 0.000000 0.598054
#
# Coordination Sequence:
#
# PCOD9406930 Si02
#       7
#     4   4   2   8   8   8   4
#     4  10  24  43  68  96 138 187 234 286 344 410
#     4  11  24  43  70  96 136 175 230 285 356 424
#     4  12  24  46  72 104 136 190 232 298 350 436
#     4  11  25  45  68 102 139 182 233 290 354 431
#     4  11  24  45  68 100 135 180 228 287 350 427
#     4  11  25  44  68 100 135 179 228 290 352 421
#     4  11  24  42  67 101 139 185 237 289 344 408
#
# _framework density 20.999092999999998
#
# number of rings (size 3 to 8) (size 9 to 14) (size 15 to 20)
#    0.000    1.053    2.105    3.158    0.000   14.316 
#    1.895    0.000    0.000    0.000    0.000    0.000 
#    0.000    0.000    0.000    0.000    0.000    0.000 
#
# Total GULP energy -211542.873111 kJ/mol
# GULP energy per Si atom -5566.917713 kJ/mol
# Density = 2.095130 g / cm^3
# Si number density = 20.999093 Si / 1000 Ang^3
#
#
#
# Elastic Constant Matrix: (Units=GPa)
#
#
# Indices 1 2 3 4 5 6 
#
# 1 195.9476 62.4234 79.4513 0.0000 0.0000 0.0000
# 2 62.4234 176.8593 60.1860 0.0000 0.0000 0.0000
# 3 79.4513 60.1860 118.5079 0.0000 0.0000 0.0000
# 4 0.0000 0.0000 0.0000 2.9071 0.0000 0.0000
# 5 0.0000 0.0000 0.0000 0.0000 10.2503 0.0000
# 6 0.0000 0.0000 0.0000 0.0000 0.0000 4.6724
#
#
#
# Elastic Compliance Matrix: (Units=1/GPa)
#
#
# Indices 1 2 3 4 5 6 
#
# 1 0.007176 -0.001083 -0.004261 0.000000 0.000000 0.000000
# 2 -0.001083 0.006999 -0.002829 0.000000 0.000000 0.000000
# 3 -0.004261 -0.002829 0.012732 0.000000 0.000000 0.000000
# 4 0.000000 0.000000 0.000000 0.343991 0.000000 0.000000
# 5 0.000000 0.000000 0.000000 0.000000 0.097558 0.000000
# 6 0.000000 0.000000 0.000000 0.000000 0.000000 0.214024
#
#
# Mechanical properties :
#
#
# Convention : Reuss Voigt Hill
#
# Bulk Modulus (GPa) = 94.68259 99.49290 97.08775
# Shear Modulus (GPa) = 7.11900 22.84955 14.98428
#
# Velocity S-wave (km/s) = 1.84323 3.30225 2.67417
# Velocity P-wave (km/s) = 7.05101 7.87542 7.47459
#
# Compressibility (1/GPa) = 0.01056160
#
# Stress axis : x y z
#
# Youngs Moduli (GPa) = 139.35063 142.87827 78.54433
#
# Poissons Ratio (x) = 0.15470 0.33469
# Poissons Ratio (y) = 0.15088 0.22217
# Poissons Ratio (z) = 0.59380 0.40415
#
# Static dielectric constant tensor:
#      x y z
#    x 1.504200 0.000000 0.000000 
#    y 0.000000 1.718120 0.000000 
#    z 0.000000 0.000000 1.727210 
# 
# From -- ./inp_files/962.got.cif
#   From: 2010.05.17/outbox.cif.g08.bks.cpg/sg51_1_cif.got.tgz:962.got - 2010.06.03 11:52:47.
