data_PCOD9406521
_publ_section_title
;
Structure prediction by ZEFSAII (Michael W. Deem and Ramdas Pophale) SiO2 
 PCOD9406521
Probable space group: P M M A
;
_chemical_formula_sum "Si O2"
_cell_formula_units_Z 32
_cell_length_a 8.665702
_cell_length_b 21.140080
_cell_length_c 9.470441
_cell_angle_alpha 90.000000
_cell_angle_beta 90.000000
_cell_angle_gamma 90.000000
_cell_volume 1734.924498
_symmetry_space_group_name_H-M "P M M A"
_symmetry_group_IT_number 51
_symmetry_cell_setting 'orthorhombic'
loop_
_space_group_symop_operation_xyz
x,y,z
1/2-x,-y,z
1/2+x,-y,-z
-x,y,-z
-x,-y,-z
1/2+x,y,-z
1/2-x,y,z
x,-y,z
loop_
_atom_site_type_symbol
_atom_site_label
_atom_site_fract_x
_atom_site_fract_y
_atom_site_fract_z
Si Si1 0.434323 0.799736 0.840443
Si Si2 0.564827 0.069193 0.839997
Si Si3 0.065854 0.684653 0.342654
Si Si4 0.565678 0.574090 0.155704
O O1 0.250000 0.798469 0.846492
O O2 0.491029 0.867286 0.778630
O O3 0.498010 0.742388 0.748407
O O4 0.500000 0.794300 0.000000
O O5 0.750000 0.075737 0.844579
O O6 0.528029 0.000000 0.776007
O O7 0.500000 0.067222 0.000000
O O8 0.250000 0.688380 0.344588
O O9 0.000000 0.687390 0.500000
O O10 0.012149 0.620112 0.267602
O O11 0.750000 0.583548 0.155817
O O12 0.534342 0.500000 0.184572
O O13 0.500000 0.588483 0.000000
#
# Coordination Sequence:
#
# PCOD9406521 Si02
#       4
#     8   8   8   8
#     4  11  21  35  56  82 112 147 188 231 278 330
#     4   9  16  27  46  75 109 142 179 226 278 328
#     4  12  25  41  59  81 112 148 188 231 278 331
#     4  10  21  39  63  90 118 148 184 226 273 325
#
# _framework density 18.444607999999999
#
# number of rings (size 3 to 8) (size 9 to 14) (size 15 to 20)
#    0.000    1.500    0.000    8.250    0.000    3.500 
#    0.000    0.000    0.000    0.750    0.000    0.000 
#    0.000    0.000    0.000    0.000    0.000    0.000 
#
# Total GULP energy -178748.092076 kJ/mol
# GULP energy per Si atom -5585.877877 kJ/mol
# Density = 1.840263 g / cm^3
# Si number density = 18.444608 Si / 1000 Ang^3
#
#
#
# Elastic Constant Matrix: (Units=GPa)
#
#
# Indices 1 2 3 4 5 6 
#
# 1 167.0416 84.3249 59.6810 0.0000 0.0000 0.0000
# 2 84.3249 130.3633 82.3851 0.0000 0.0000 0.0000
# 3 59.6810 82.3851 92.8863 0.0000 0.0000 0.0000
# 4 0.0000 0.0000 0.0000 -8.6580 0.0000 0.0000
# 5 0.0000 0.0000 0.0000 0.0000 28.2463 0.0000
# 6 0.0000 0.0000 0.0000 0.0000 0.0000 36.2995
#
#
#
# Elastic Compliance Matrix: (Units=1/GPa)
#
#
# Indices 1 2 3 4 5 6 
#
# 1 0.008969 -0.004914 -0.001404 0.000000 0.000000 0.000000
# 2 -0.004914 0.020147 -0.014712 0.000000 0.000000 0.000000
# 3 -0.001404 -0.014712 0.024717 0.000000 0.000000 0.000000
# 4 0.000000 0.000000 0.000000 -0.115500 0.000000 0.000000
# 5 0.000000 0.000000 0.000000 0.000000 0.035403 0.000000
# 6 0.000000 0.000000 0.000000 0.000000 0.000000 0.027549
#
#
# Mechanical properties :
#
#
# Convention : Reuss Voigt Hill
#
# Bulk Modulus (GPa) = 84.94502 93.67478 89.30990
# Shear Modulus (GPa) = 105.77977 22.10423 63.94200
#
# Velocity S-wave (km/s) = 7.58119 3.46556 5.89426
# Velocity P-wave (km/s) = 11.08092 8.17991 9.73903
#
# Compressibility (1/GPa) = 0.01177232
#
# Stress axis : x y z
#
# Youngs Moduli (GPa) = 111.49601 49.63545 40.45875
#
# Poissons Ratio (x) = 0.24392 0.05681
# Poissons Ratio (y) = 0.54791 0.59522
# Poissons Ratio (z) = 0.15655 0.73022
#
# Static dielectric constant tensor:
#      x y z
#    x 1.611650 0.000000 0.000000 
#    y 0.000000 1.672610 0.000000 
#    z 0.000000 0.000000 1.607530 
# 
# From -- ./inp_files/4841.got.cif
#   From: 2010.05.17/outbox.cif.g08.bks.cpg/sg51_3_cif.got.tgz:4841.got - 2010.06.03 11:52:47.
