data_PCOD9406738
_publ_section_title
;
Structure prediction by ZEFSAII (Michael W. Deem and Ramdas Pophale) SiO2 
 PCOD9406738
Probable space group: P M M A
;
_chemical_formula_sum "Si O2"
_cell_formula_units_Z 48
_cell_length_a 10.013769
_cell_length_b 8.454217
_cell_length_c 29.275149
_cell_angle_alpha 90.000000
_cell_angle_beta 90.000000
_cell_angle_gamma 90.000000
_cell_volume 2478.392430
_symmetry_space_group_name_H-M "P M M A"
_symmetry_group_IT_number 51
_symmetry_cell_setting 'orthorhombic'
loop_
_space_group_symop_operation_xyz
x,y,z
1/2-x,-y,z
1/2+x,-y,-z
-x,y,-z
-x,-y,-z
1/2+x,y,-z
1/2-x,y,z
x,-y,z
loop_
_atom_site_type_symbol
_atom_site_label
_atom_site_fract_x
_atom_site_fract_y
_atom_site_fract_z
Si Si1 0.597025 0.309375 0.777910
Si Si2 0.250000 0.813014 0.427146
Si Si3 0.903163 0.690902 0.141331
Si Si4 0.750000 0.309742 0.470684
Si Si5 0.397813 0.811814 0.703232
Si Si6 0.096294 0.191059 0.959423
Si Si7 0.467695 0.688324 0.604367
O O1 0.750000 0.251293 0.778233
O O2 0.601746 0.500000 0.780218
O O3 0.508066 0.252467 0.820803
O O4 0.515656 0.262863 0.732806
O O5 0.250000 0.775488 0.481065
O O6 0.381555 0.737282 0.405452
O O7 0.250000 0.000000 0.419443
O O8 0.750000 0.744975 0.150376
O O9 0.902048 0.500000 0.142407
O O10 0.940837 0.745279 0.090492
O O11 0.750000 0.500000 0.478836
O O12 0.622309 0.269664 0.439518
O O13 0.250000 0.754553 0.718140
O O14 0.415913 0.770066 0.650165
O O15 0.402334 0.000000 0.708898
O O16 0.250000 0.238089 0.968230
O O17 0.091289 0.000000 0.957855
O O18 0.000000 0.245490 0.000000
O O19 0.456108 0.500000 0.610564
#
# Coordination Sequence:
#
# PCOD9406738 Si02
#       7
#     8   4   8   4   8   8   8
#     4  10  22  39  60  86 116 151 191 237 290 350
#     4  12  26  40  60  92 128 162 192 238 297 344
#     4   9  18  34  55  79 109 147 191 237 285 340
#     4  10  22  42  66  92 118 154 204 246 283 344
#     4  11  24  41  62  88 118 151 191 240 294 350
#     4   9  18  32  50  74 106 145 187 231 282 341
#     4  11  23  42  66  90 118 157 201 242 287 345
#
# _framework density 19.367391999999999
#
# number of rings (size 3 to 8) (size 9 to 14) (size 15 to 20)
#    0.000    1.833    0.833    2.750    1.167    7.000 
#    0.000    1.667    0.000    0.000    0.000    0.000 
#    0.000    0.000    0.000    0.000    0.000    0.000 
#
# Total GULP energy -268187.194010 kJ/mol
# GULP energy per Si atom -5587.233209 kJ/mol
# Density = 1.932331 g / cm^3
# Si number density = 19.367392 Si / 1000 Ang^3
#
#
#
# Elastic Constant Matrix: (Units=GPa)
#
#
# Indices 1 2 3 4 5 6 
#
# 1 125.5824 10.0006 43.7747 0.0000 0.0000 0.0000
# 2 10.0006 5.3763 -0.2583 0.0000 0.0000 0.0000
# 3 43.7747 -0.2583 82.2802 0.0000 0.0000 0.0000
# 4 0.0000 0.0000 0.0000 47.4067 0.0000 0.0000
# 5 0.0000 0.0000 0.0000 0.0000 32.6813 0.0000
# 6 0.0000 0.0000 0.0000 0.0000 0.0000 2.0615
#
#
#
# Elastic Compliance Matrix: (Units=1/GPa)
#
#
# Indices 1 2 3 4 5 6 
#
# 1 0.012023 -0.022675 -0.006468 0.000000 0.000000 0.000000
# 2 -0.022675 0.228796 0.012782 0.000000 0.000000 0.000000
# 3 -0.006468 0.012782 0.015635 0.000000 0.000000 0.000000
# 4 0.000000 0.000000 0.000000 0.021094 0.000000 0.000000
# 5 0.000000 0.000000 0.000000 0.000000 0.030599 0.000000
# 6 0.000000 0.000000 0.000000 0.000000 0.000000 0.485082
#
#
# Mechanical properties :
#
#
# Convention : Reuss Voigt Hill
#
# Bulk Modulus (GPa) = 4.46964 35.58585 20.02775
# Shear Modulus (GPa) = 5.55230 27.07803 16.31516
#
# Velocity S-wave (km/s) = 1.69501 3.74321 2.90557
# Velocity P-wave (km/s) = 2.47862 6.09066 4.64971
#
# Compressibility (1/GPa) = 0.22373158
#
# Stress axis : x y z
#
# Youngs Moduli (GPa) = 83.17330 4.37071 63.96036
#
# Poissons Ratio (x) = 0.09911 0.41368
# Poissons Ratio (y) = 1.88598 -0.81754
# Poissons Ratio (z) = 0.53794 -0.05587
#
# Static dielectric constant tensor:
#      x y z
#    x 1.678690 0.000000 0.000000 
#    y 0.000000 1.663160 0.000000 
#    z 0.000000 0.000000 1.642680 
# 
# From -- ./inp_files/37160.got.cif
#   From: 2010.05.17/outbox.cif.g08.bks.cpg/sg51_19_cif.got.tgz:37160.got - 2010.06.03 11:52:47.
