data_PCOD9406007
_publ_section_title
;
Structure prediction by ZEFSAII (Michael W. Deem and Ramdas Pophale) SiO2 
 PCOD9406007
Probable space group: P M M A
;
_chemical_formula_sum "Si O2"
_cell_formula_units_Z 48
_cell_length_a 10.014096
_cell_length_b 7.491964
_cell_length_c 29.944977
_cell_angle_alpha 90.000000
_cell_angle_beta 90.000000
_cell_angle_gamma 90.000000
_cell_volume 2246.629288
_symmetry_space_group_name_H-M "P M M A"
_symmetry_group_IT_number 51
_symmetry_cell_setting 'orthorhombic'
loop_
_space_group_symop_operation_xyz
x,y,z
1/2-x,-y,z
1/2+x,-y,-z
-x,y,-z
-x,-y,-z
1/2+x,y,-z
1/2-x,y,z
x,-y,z
loop_
_atom_site_type_symbol
_atom_site_label
_atom_site_fract_x
_atom_site_fract_y
_atom_site_fract_z
Si Si1 0.901583 0.712012 0.301395
Si Si2 0.401825 0.217577 0.119760
Si Si3 0.399678 0.214871 0.221855
Si Si4 0.250000 0.717835 0.453962
Si Si5 0.750000 0.793196 0.442024
Si Si6 0.404810 0.781984 0.958905
Si Si7 0.514222 0.296576 0.607543
O O1 0.750000 0.782362 0.298223
O O2 0.889707 0.500000 0.309462
O O3 0.980702 0.786170 0.344388
O O4 0.987425 0.734671 0.256869
O O5 0.250000 0.270819 0.106650
O O6 0.424873 0.274577 0.170914
O O7 0.516780 0.275016 0.085807
O O8 0.402115 0.000000 0.119219
O O9 0.250000 0.276006 0.234968
O O10 0.396378 0.000000 0.220689
O O11 0.250000 0.500000 0.457117
O O12 0.250000 0.780632 0.504709
O O13 0.376071 0.781849 0.425333
O O14 0.878639 0.704385 0.420408
O O15 0.750000 0.000000 0.428734
O O16 0.250000 0.723631 0.961827
O O17 0.401488 0.000000 0.959199
O O18 0.500000 0.728018 0.000000
O O19 0.559721 0.500000 0.616055
#
# Coordination Sequence:
#
# PCOD9406007 Si02
#       7
#     8   8   8   4   4   8   8
#     4  10  21  37  57  79 104 134 173 220 261 301
#     4   8  14  26  41  58  87 125 162 202 251 307
#     4   9  19  34  52  76 105 137 171 210 262 322
#     4  10  22  38  62  86 104 138 182 218 257 308
#     4  12  24  38  58  84 116 146 172 208 261 312
#     4   9  15  21  32  53  82 120 167 213 255 298
#     4  10  21  40  61  81 106 139 179 218 257 307
#
# _framework density 21.36534
#
# number of rings (size 3 to 8) (size 9 to 14) (size 15 to 20)
#    0.000    2.500    0.833    2.750    1.167    6.667 
#    0.000    1.667    0.000    0.000    0.000    0.000 
#    0.000    0.667    0.000    2.167    0.000    4.833 
#
# Total GULP energy -267926.096527 kJ/mol
# GULP energy per Si atom -5581.793678 kJ/mol
# Density = 2.131671 g / cm^3
# Si number density = 21.365340 Si / 1000 Ang^3
#
#
#
# Elastic Constant Matrix: (Units=GPa)
#
#
# Indices 1 2 3 4 5 6 
#
# 1 118.1549 -16.6640 73.3176 0.0000 0.0000 0.0000
# 2 -16.6640 61.1915 -10.1432 0.0000 0.0000 0.0000
# 3 73.3176 -10.1432 135.0172 0.0000 0.0000 0.0000
# 4 0.0000 0.0000 0.0000 10.6254 0.0000 0.0000
# 5 0.0000 0.0000 0.0000 0.0000 57.8078 0.0000
# 6 0.0000 0.0000 0.0000 0.0000 0.0000 5.0556
#
#
#
# Elastic Compliance Matrix: (Units=1/GPa)
#
#
# Indices 1 2 3 4 5 6 
#
# 1 0.013109 0.002420 -0.006937 0.000000 0.000000 0.000000
# 2 0.002420 0.016995 -0.000037 0.000000 0.000000 0.000000
# 3 -0.006937 -0.000037 0.011171 0.000000 0.000000 0.000000
# 4 0.000000 0.000000 0.000000 0.094114 0.000000 0.000000
# 5 0.000000 0.000000 0.000000 0.000000 0.017299 0.000000
# 6 0.000000 0.000000 0.000000 0.000000 0.000000 0.197800
#
#
# Mechanical properties :
#
#
# Convention : Reuss Voigt Hill
#
# Bulk Modulus (GPa) = 31.08828 45.26495 38.17661
# Shear Modulus (GPa) = 13.50189 32.55463 23.02826
#
# Velocity S-wave (km/s) = 2.51659 3.90771 3.28660
# Velocity P-wave (km/s) = 4.79862 6.44922 5.68415
#
# Compressibility (1/GPa) = 0.03216646
#
# Stress axis : x y z
#
# Youngs Moduli (GPa) = 76.28208 58.84088 89.52133
#
# Poissons Ratio (x) = -0.14240 0.62099
# Poissons Ratio (y) = -0.18461 0.00335
# Poissons Ratio (z) = 0.52916 0.00220
#
# Static dielectric constant tensor:
#      x y z
#    x 1.732240 0.000000 0.000000 
#    y 0.000000 1.862840 0.000000 
#    z 0.000000 0.000000 1.743010 
# 
# From -- ./inp_files/37136.got.cif
#   From: 2010.05.17/outbox.cif.g08.bks.cpg/sg51_19_cif.got.tgz:37136.got - 2010.06.03 11:52:47.
