data_PCOD9406209
_publ_section_title
;
Structure prediction by ZEFSAII (Michael W. Deem and Ramdas Pophale) SiO2 
 PCOD9406209
Probable space group: P M M A
;
_chemical_formula_sum "Si O2"
_cell_formula_units_Z 22
_cell_length_a 14.340297
_cell_length_b 9.770401
_cell_length_c 7.726441
_cell_angle_alpha 90.000000
_cell_angle_beta 90.000000
_cell_angle_gamma 90.000000
_cell_volume 1082.555142
_symmetry_space_group_name_H-M "P M M A"
_symmetry_group_IT_number 51
_symmetry_cell_setting 'orthorhombic'
loop_
_space_group_symop_operation_xyz
x,y,z
1/2-x,-y,z
1/2+x,-y,-z
-x,y,-z
-x,-y,-z
1/2+x,y,-z
1/2-x,y,z
x,-y,z
loop_
_atom_site_type_symbol
_atom_site_label
_atom_site_fract_x
_atom_site_fract_y
_atom_site_fract_z
Si Si1 0.425585 0.798357 0.354104
Si Si2 0.359432 0.500000 0.449590
Si Si3 0.500000 0.730048 0.000000
Si Si4 0.639846 0.500000 0.132930
Si Si5 0.250000 0.000000 0.381853
O O1 0.500000 0.836013 0.500000
O O2 0.405519 0.636220 0.374842
O O3 0.331709 0.881561 0.379530
O O4 0.467521 0.817082 0.163679
O O5 0.250000 0.500000 0.407080
O O6 0.368116 0.500000 0.658329
O O7 0.414733 0.631724 0.940462
O O8 0.750000 0.500000 0.088762
#
# Coordination Sequence:
#
# PCOD9406209 Si02
#       5
#     8   4   4   4   2
#     4  12  25  48  70 106 136 180 230 287 340 411
#     4  11  20  41  77 104 134 174 230 280 345 406
#     4  11  24  39  70 102 140 178 224 286 342 402
#     4  10  21  37  66 115 140 170 219 293 348 401
#     4  12  30  48  74  92 142 196 224 274 356 406
#
# _framework density 20.322292000000001
#
# number of rings (size 3 to 8) (size 9 to 14) (size 15 to 20)
#    0.000    0.727    5.455    3.273    2.545    2.182 
#    0.000    1.818    0.000    0.000    0.000    0.000 
#    0.000    0.000    0.000    0.000    0.000    0.000 
#
# Total GULP energy -122638.993892 kJ/mol
# GULP energy per Si atom -5574.499722 kJ/mol
# Density = 2.027604 g / cm^3
# Si number density = 20.322292 Si / 1000 Ang^3
#
#
#
# Elastic Constant Matrix: (Units=GPa)
#
#
# Indices 1 2 3 4 5 6 
#
# 1 211.8294 58.4052 70.8148 0.0000 0.0000 0.0000
# 2 58.4052 119.6471 22.3988 0.0000 0.0000 0.0000
# 3 70.8148 22.3988 135.2859 0.0000 0.0000 0.0000
# 4 0.0000 0.0000 0.0000 -1.4633 0.0000 0.0000
# 5 0.0000 0.0000 0.0000 0.0000 17.7839 0.0000
# 6 0.0000 0.0000 0.0000 0.0000 0.0000 62.4211
#
#
#
# Elastic Compliance Matrix: (Units=1/GPa)
#
#
# Indices 1 2 3 4 5 6 
#
# 1 0.006412 -0.002582 -0.002929 0.000000 0.000000 0.000000
# 2 -0.002582 0.009665 -0.000249 0.000000 0.000000 0.000000
# 3 -0.002929 -0.000249 0.008966 0.000000 0.000000 0.000000
# 4 0.000000 0.000000 0.000000 -0.683409 0.000000 0.000000
# 5 0.000000 0.000000 0.000000 0.000000 0.056231 0.000000
# 6 0.000000 0.000000 0.000000 0.000000 0.000000 0.016020
#
#
# Mechanical properties :
#
#
# Convention : Reuss Voigt Hill
#
# Bulk Modulus (GPa) = 73.94231 85.55557 79.74894
# Shear Modulus (GPa) = -8.77055 36.75792 13.99368
#
# Velocity S-wave (km/s) = -2.07969 4.25755 2.62694
# Velocity P-wave (km/s) = 5.54049 8.14615 6.96623
#
# Compressibility (1/GPa) = 0.01352406
#
# Stress axis : x y z
#
# Youngs Moduli (GPa) = 155.96660 103.46971 111.53265
#
# Poissons Ratio (x) = 0.26711 0.32665
# Poissons Ratio (y) = 0.40263 0.02776
# Poissons Ratio (z) = 0.45678 0.02575
#
# Static dielectric constant tensor:
#      x y z
#    x 1.681320 0.000000 0.000000 
#    y 0.000000 1.702260 0.000000 
#    z 0.000000 0.000000 1.733710 
# 
# From -- ./inp_files/7335.got.cif
#   From: 2010.05.17/outbox.cif.g08.bks.cpg/sg51_4_cif.got.tgz:7335.got - 2010.06.03 11:52:47.
