data_PCOD9406929
_publ_section_title
;
Structure prediction by ZEFSAII (Michael W. Deem and Ramdas Pophale) SiO2 
 PCOD9406929
Probable space group: P M M A
;
_chemical_formula_sum "Si O2"
_cell_formula_units_Z 40
_cell_length_a 20.351084
_cell_length_b 9.956921
_cell_length_c 10.952130
_cell_angle_alpha 90.000000
_cell_angle_beta 90.000000
_cell_angle_gamma 90.000000
_cell_volume 2219.275396
_symmetry_space_group_name_H-M "P M M A"
_symmetry_group_IT_number 51
_symmetry_cell_setting 'orthorhombic'
loop_
_space_group_symop_operation_xyz
x,y,z
1/2-x,-y,z
1/2+x,-y,-z
-x,y,-z
-x,-y,-z
1/2+x,y,-z
1/2-x,y,z
x,-y,z
loop_
_atom_site_type_symbol
_atom_site_label
_atom_site_fract_x
_atom_site_fract_y
_atom_site_fract_z
Si Si1 0.327197 0.000000 0.563226
Si Si2 0.455939 0.247601 0.190597
Si Si3 0.050143 0.000000 0.381880
Si Si4 0.673979 0.266582 0.278113
Si Si5 0.435992 0.500000 0.336907
Si Si6 0.908441 0.665841 0.062121
Si Si7 0.908772 0.500000 0.394800
O O1 0.378657 0.000000 0.450447
O O2 0.337523 0.127164 0.652268
O O3 0.250000 0.000000 0.524047
O O4 0.458887 0.125657 0.287659
O O5 0.422218 0.368054 0.262432
O O6 0.528074 0.295986 0.145184
O O7 0.417459 0.248059 0.061673
O O8 0.000000 0.000000 0.500000
O O9 0.750000 0.302248 0.293481
O O10 0.653847 0.280309 0.136720
O O11 0.626271 0.372260 0.340316
O O12 0.514095 0.500000 0.366095
O O13 0.398838 0.500000 0.462287
O O14 0.908185 0.500000 0.045418
#
# Coordination Sequence:
#
# PCOD9406929 Si02
#       7
#     4   8   4   8   4   8   4
#     4  10  24  43  59  81 119 162 190 239 307 361
#     4  11  21  37  57  86 120 157 188 239 301 344
#     4  12  26  38  61  92 123 150 202 257 288 348
#     4  11  21  38  61  84 114 153 202 250 293 348
#     4  11  20  34  56  84 121 160 189 236 298 367
#     4  11  20  37  60  86 121 154 192 245 299 355
#     4  11  21  31  57  89 115 148 205 246 287 342
#
# _framework density 18.023902
#
# number of rings (size 3 to 8) (size 9 to 14) (size 15 to 20)
#    0.000    1.000    5.000    3.300    2.800    2.400 
#    0.000    1.000    0.000    2.400    0.000    0.000 
#    0.000    0.000    0.000    0.000    0.000    0.000 
#
# Total GULP energy -222808.702805 kJ/mol
# GULP energy per Si atom -5570.217570 kJ/mol
# Density = 1.798288 g / cm^3
# Si number density = 18.023902 Si / 1000 Ang^3
#
#
#
# Elastic Constant Matrix: (Units=GPa)
#
#
# Indices 1 2 3 4 5 6 
#
# 1 59.5611 19.5450 34.3724 0.0000 0.0000 0.0000
# 2 19.5450 102.1377 52.1077 0.0000 0.0000 0.0000
# 3 34.3724 52.1077 153.0918 0.0000 0.0000 0.0000
# 4 0.0000 0.0000 0.0000 40.3409 0.0000 0.0000
# 5 0.0000 0.0000 0.0000 0.0000 27.8640 0.0000
# 6 0.0000 0.0000 0.0000 0.0000 0.0000 17.7020
#
#
#
# Elastic Compliance Matrix: (Units=1/GPa)
#
#
# Indices 1 2 3 4 5 6 
#
# 1 0.019564 -0.001819 -0.003774 0.000000 0.000000 0.000000
# 2 -0.001819 0.012017 -0.003682 0.000000 0.000000 0.000000
# 3 -0.003774 -0.003682 0.008632 0.000000 0.000000 0.000000
# 4 0.000000 0.000000 0.000000 0.024789 0.000000 0.000000
# 5 0.000000 0.000000 0.000000 0.000000 0.035889 0.000000
# 6 0.000000 0.000000 0.000000 0.000000 0.000000 0.056491
#
#
# Mechanical properties :
#
#
# Convention : Reuss Voigt Hill
#
# Bulk Modulus (GPa) = 46.15652 58.53787 52.34720
# Shear Modulus (GPa) = 27.29976 31.09907 29.19941
#
# Velocity S-wave (km/s) = 3.89606 4.15834 4.02934
# Velocity P-wave (km/s) = 6.77519 7.45682 7.12416
#
# Compressibility (1/GPa) = 0.02166541
#
# Stress axis : x y z
#
# Youngs Moduli (GPa) = 51.11448 83.21456 115.84148
#
# Poissons Ratio (x) = 0.15133 0.43713
# Poissons Ratio (y) = 0.09296 0.42652
# Poissons Ratio (z) = 0.19288 0.30639
#
# Static dielectric constant tensor:
#      x y z
#    x 1.629450 0.000000 0.000000 
#    y 0.000000 1.621110 0.000000 
#    z 0.000000 0.000000 1.700310 
# 
# From -- ./inp_files/18028.got.cif
#   From: 2010.05.17/outbox.cif.g08.bks.cpg/sg51_10_cif.got.tgz:18028.got - 2010.06.03 11:52:47.
