data_PCOD9406999
_publ_section_title
;
Structure prediction by ZEFSAII (Michael W. Deem and Ramdas Pophale) SiO2 
 PCOD9406999
Probable space group: P M M A
;
_chemical_formula_sum "Si O2"
_cell_formula_units_Z 64
_cell_length_a 8.752825
_cell_length_b 20.964926
_cell_length_c 20.512420
_cell_angle_alpha 90.000000
_cell_angle_beta 90.000000
_cell_angle_gamma 90.000000
_cell_volume 3764.076831
_symmetry_space_group_name_H-M "P M M A"
_symmetry_group_IT_number 51
_symmetry_cell_setting 'orthorhombic'
loop_
_space_group_symop_operation_xyz
x,y,z
1/2-x,-y,z
1/2+x,-y,-z
-x,y,-z
-x,-y,-z
1/2+x,y,-z
1/2-x,y,z
x,-y,z
loop_
_atom_site_type_symbol
_atom_site_label
_atom_site_fract_x
_atom_site_fract_y
_atom_site_fract_z
Si Si1 0.065923 0.573075 0.070420
Si Si2 0.936070 0.069333 0.148133
Si Si3 0.072018 0.743966 0.566864
Si Si4 0.065791 0.196309 0.927691
Si Si5 0.064115 0.110330 0.709862
Si Si6 0.566588 0.310235 0.840345
Si Si7 0.428074 0.899036 0.567837
Si Si8 0.935037 0.260860 0.290781
O O1 0.250000 0.573846 0.066025
O O2 0.017327 0.500000 0.083392
O O3 0.020704 0.623250 0.125740
O O4 0.000000 0.592252 0.000000
O O5 0.750000 0.070634 0.148966
O O6 0.983884 0.129417 0.105142
O O7 0.985607 0.077371 0.223446
O O8 0.984782 0.000000 0.123235
O O9 0.250000 0.728907 0.565139
O O10 0.060162 0.821457 0.567858
O O11 0.011060 0.720680 0.636509
O O12 0.000000 0.720711 0.500000
O O13 0.250000 0.198491 0.929028
O O14 0.004251 0.253422 0.883218
O O15 0.000000 0.201839 0.000000
O O16 0.250000 0.106415 0.706873
O O17 0.008950 0.083690 0.639798
O O18 0.027257 0.185523 0.716944
O O19 0.750000 0.305638 0.841516
O O20 0.506871 0.300740 0.767271
O O21 0.500000 0.921744 0.500000
O O22 0.250000 0.916168 0.566049
O O23 0.750000 0.265070 0.288121
#
# Coordination Sequence:
#
# PCOD9406999 Si02
#       8
#     8   8   8   8   8   8   8   8
#     4   9  19  35  52  71  97 128 161 195 230 272
#     4   9  17  30  50  71  87 113 156 198 236 282
#     4   8  14  23  37  58  88 123 158 191 231 279
#     4  11  22  36  53  72  96 121 150 193 241 287
#     4   8  13  25  43  62  85 115 150 188 228 273
#     4  11  21  32  50  76 101 127 160 194 232 280
#     4   8  13  21  36  57  82 110 143 180 221 268
#     4   9  16  28  45  66  94 129 160 194 240 282
#
# _framework density 17.002839999999999
#
# number of rings (size 3 to 8) (size 9 to 14) (size 15 to 20)
#    0.000    2.875    1.250    2.625    0.000    2.750 
#    0.000    1.875    0.000    1.500    0.000    0.000 
#    0.000    0.500    0.000    1.125    0.000    1.750 
#
# Total GULP energy -356554.457653 kJ/mol
# GULP energy per Si atom -5571.163401 kJ/mol
# Density = 1.696414 g / cm^3
# Si number density = 17.002840 Si / 1000 Ang^3
#
#
#
# Elastic Constant Matrix: (Units=GPa)
#
#
# Indices 1 2 3 4 5 6 
#
# 1 19.3782 18.7760 32.1297 0.0000 0.0000 0.0000
# 2 18.7760 67.8799 54.5851 0.0000 0.0000 0.0000
# 3 32.1297 54.5851 152.6082 0.0000 0.0000 0.0000
# 4 0.0000 0.0000 0.0000 470.5839 0.0000 0.0000
# 5 0.0000 0.0000 0.0000 0.0000 27.6841 0.0000
# 6 0.0000 0.0000 0.0000 0.0000 0.0000 19.4588
#
#
#
# Elastic Compliance Matrix: (Units=1/GPa)
#
#
# Indices 1 2 3 4 5 6 
#
# 1 0.086831 -0.013079 -0.013603 0.000000 0.000000 0.000000
# 2 -0.013079 0.022650 -0.005348 0.000000 0.000000 0.000000
# 3 -0.013603 -0.005348 0.011329 0.000000 0.000000 0.000000
# 4 0.000000 0.000000 0.000000 0.002125 0.000000 0.000000
# 5 0.000000 0.000000 0.000000 0.000000 0.036122 0.000000
# 6 0.000000 0.000000 0.000000 0.000000 0.000000 0.051391
#
#
# Mechanical properties :
#
#
# Convention : Reuss Voigt Hill
#
# Bulk Modulus (GPa) = 17.62096 50.09421 33.85758
# Shear Modulus (GPa) = 17.04009 112.50375 64.77192
#
# Velocity S-wave (km/s) = 3.16917 8.14317 6.17879
# Velocity P-wave (km/s) = 4.87623 10.86008 8.41780
#
# Compressibility (1/GPa) = 0.05675060
#
# Stress axis : x y z
#
# Youngs Moduli (GPa) = 11.51657 44.14975 88.26539
#
# Poissons Ratio (x) = 0.57745 1.20067
# Poissons Ratio (y) = 0.15063 0.47203
# Poissons Ratio (z) = 0.15666 0.23611
#
# Static dielectric constant tensor:
#      x y z
#    x 1.577390 0.000000 0.000000 
#    y 0.000000 1.575410 0.000000 
#    z 0.000000 0.000000 1.599620 
# 
# From -- ./inp_files/32637.got.cif
#   From: 2010.05.17/outbox.cif.g08.bks.cpg/sg51_17_cif.got.tgz:32637.got - 2010.06.03 11:52:47.
