data_PCOD9406190
_publ_section_title
;
Structure prediction by ZEFSAII (Michael W. Deem and Ramdas Pophale) SiO2 
 PCOD9406190
Probable space group: P M M A
;
_chemical_formula_sum "Si O2"
_cell_formula_units_Z 40
_cell_length_a 31.043386
_cell_length_b 8.457305
_cell_length_c 7.680939
_cell_angle_alpha 90.000000
_cell_angle_beta 90.000000
_cell_angle_gamma 90.000000
_cell_volume 2016.579715
_symmetry_space_group_name_H-M "P M M A"
_symmetry_group_IT_number 51
_symmetry_cell_setting 'orthorhombic'
loop_
_space_group_symop_operation_xyz
x,y,z
1/2-x,-y,z
1/2+x,-y,-z
-x,y,-z
-x,-y,-z
1/2+x,y,-z
1/2-x,y,z
x,-y,z
loop_
_atom_site_type_symbol
_atom_site_label
_atom_site_fract_x
_atom_site_fract_y
_atom_site_fract_z
Si Si1 0.360702 0.310034 0.442991
Si Si2 0.299532 0.808686 0.741399
Si Si3 0.138143 0.188302 0.049960
Si Si4 0.953392 0.680234 0.957387
Si Si5 0.046060 0.680696 0.459587
O O1 0.362786 0.500000 0.446696
O O2 0.323526 0.250050 0.568785
O O3 0.354842 0.258355 0.242748
O O4 0.407702 0.248918 0.510535
O O5 0.250000 0.756303 0.748838
O O6 0.300021 0.000000 0.740509
O O7 0.326928 0.755400 0.909497
O O8 0.090061 0.233858 0.986700
O O9 0.140907 0.000000 0.064623
O O10 0.952909 0.500000 0.026877
O O11 0.951298 0.671957 0.748783
O O12 0.000000 0.752034 0.000000
O O13 0.044087 0.500000 0.530737
O O14 0.000000 0.758231 0.500000
#
# Coordination Sequence:
#
# PCOD9406190 Si02
#       5
#     8   8   8   8   8
#     4  10  21  37  60  88 118 150 191 244 295 342
#     4  10  23  42  62  84 112 153 199 238 290 354
#     4  10  21  38  59  83 118 158 196 238 288 351
#     4   9  18  31  51  79 111 150 194 237 287 343
#     4   8  15  28  47  75 108 144 183 222 273 338
#
# _framework density 19.835564000000002
#
# number of rings (size 3 to 8) (size 9 to 14) (size 15 to 20)
#    0.000    2.600    0.000    2.400    2.800    3.200 
#    0.000    2.000    0.000    3.000    0.000    0.000 
#    0.000    0.000    0.000    0.000    0.000    0.000 
#
# Total GULP energy -223041.414493 kJ/mol
# GULP energy per Si atom -5576.035362 kJ/mol
# Density = 1.979042 g / cm^3
# Si number density = 19.835564 Si / 1000 Ang^3
#
#
#
# Elastic Constant Matrix: (Units=GPa)
#
#
# Indices 1 2 3 4 5 6 
#
# 1 220.4879 28.6375 84.3995 0.0000 0.0000 0.0000
# 2 28.6375 20.3858 14.9686 0.0000 0.0000 0.0000
# 3 84.3995 14.9686 92.3805 0.0000 0.0000 0.0000
# 4 0.0000 0.0000 0.0000 15.1467 0.0000 0.0000
# 5 0.0000 0.0000 0.0000 0.0000 37.4493 0.0000
# 6 0.0000 0.0000 0.0000 0.0000 0.0000 28.7070
#
#
#
# Elastic Compliance Matrix: (Units=1/GPa)
#
#
# Indices 1 2 3 4 5 6 
#
# 1 0.007639 -0.006363 -0.005948 0.000000 0.000000 0.000000
# 2 -0.006363 0.060979 -0.004067 0.000000 0.000000 0.000000
# 3 -0.005948 -0.004067 0.016917 0.000000 0.000000 0.000000
# 4 0.000000 0.000000 0.000000 0.066021 0.000000 0.000000
# 5 0.000000 0.000000 0.000000 0.000000 0.026703 0.000000
# 6 0.000000 0.000000 0.000000 0.000000 0.000000 0.034835
#
#
# Mechanical properties :
#
#
# Convention : Reuss Voigt Hill
#
# Bulk Modulus (GPa) = 18.94685 65.47395 42.21040
# Shear Modulus (GPa) = 18.97952 29.94385 24.46168
#
# Velocity S-wave (km/s) = 3.09664 3.88958 3.51554
# Velocity P-wave (km/s) = 4.72846 7.29738 6.14858
#
# Compressibility (1/GPa) = 0.05277922
#
# Stress axis : x y z
#
# Youngs Moduli (GPa) = 130.91573 16.39911 59.11046
#
# Poissons Ratio (x) = 0.10435 0.35156
# Poissons Ratio (y) = 0.83306 0.24040
# Poissons Ratio (z) = 0.77862 0.06670
#
# Static dielectric constant tensor:
#      x y z
#    x 1.735380 0.000000 0.000000 
#    y 0.000000 1.695870 0.000000 
#    z 0.000000 0.000000 1.683130 
# 
# From -- ./inp_files/12129.got.cif
#   From: 2010.05.17/outbox.cif.g08.bks.cpg/sg51_7_cif.got.tgz:12129.got - 2010.06.03 11:52:47.
