data_PCOD9406058
_publ_section_title
;
Structure prediction by ZEFSAII (Michael W. Deem and Ramdas Pophale) SiO2 
 PCOD9406058
Probable space group: P M M A
;
_chemical_formula_sum "Si O2"
_cell_formula_units_Z 48
_cell_length_a 18.749441
_cell_length_b 9.037764
_cell_length_c 15.190420
_cell_angle_alpha 90.000000
_cell_angle_beta 90.000000
_cell_angle_gamma 90.000000
_cell_volume 2574.062588
_symmetry_space_group_name_H-M "P M M A"
_symmetry_group_IT_number 51
_symmetry_cell_setting 'orthorhombic'
loop_
_space_group_symop_operation_xyz
x,y,z
1/2-x,-y,z
1/2+x,-y,-z
-x,y,-z
-x,-y,-z
1/2+x,y,-z
1/2-x,y,z
x,-y,z
loop_
_atom_site_type_symbol
_atom_site_label
_atom_site_fract_x
_atom_site_fract_y
_atom_site_fract_z
Si Si1 0.669039 0.824681 0.015567
Si Si2 0.669352 0.676167 0.492085
Si Si3 0.396385 0.823913 0.341823
Si Si4 0.951709 0.675603 0.350985
Si Si5 0.059739 0.673828 0.854103
Si Si6 0.892564 0.323421 0.845934
O O1 0.750000 0.794081 0.045175
O O2 0.654204 0.742270 0.923881
O O3 0.661346 0.000000 0.002364
O O4 0.611791 0.768138 0.085976
O O5 0.750000 0.703526 0.460948
O O6 0.662459 0.500000 0.509647
O O7 0.653747 0.764083 0.581047
O O8 0.610288 0.714298 0.419099
O O9 0.476271 0.767220 0.364739
O O10 0.377686 0.751611 0.247841
O O11 0.394597 0.000000 0.335705
O O12 0.968760 0.500000 0.360640
O O13 0.927701 0.697144 0.249977
O O14 0.070719 0.500000 0.874044
O O15 0.976009 0.706676 0.868703
O O16 0.884580 0.500000 0.838384
#
# Coordination Sequence:
#
# PCOD9406058 Si02
#       6
#     8   8   8   8   8   8
#     4  11  24  38  53  80 117 151 181 218 270 330
#     4  10  21  37  57  81 111 149 189 228 273 323
#     4  11  22  36  57  84 113 145 181 225 278 332
#     4   9  19  37  60  84 110 142 185 233 272 316
#     4   9  19  36  59  85 109 138 182 231 274 319
#     4  10  21  39  62  84 106 139 186 234 275 320
#
# _framework density 18.647565
#
# number of rings (size 3 to 8) (size 9 to 14) (size 15 to 20)
#    0.000    2.000    0.000    4.500    0.000   11.000 
#    0.000    1.667    0.000    0.000    0.000    0.000 
#    0.000    0.000    0.000    0.000    0.000    0.000 
#
# Total GULP energy -268200.391080 kJ/mol
# GULP energy per Si atom -5587.508148 kJ/mol
# Density = 1.860512 g / cm^3
# Si number density = 18.647565 Si / 1000 Ang^3
#
#
#
# Elastic Constant Matrix: (Units=GPa)
#
#
# Indices 1 2 3 4 5 6 
#
# 1 17.6145 16.8527 12.8648 0.0000 0.0000 0.0000
# 2 16.8527 43.8437 16.1101 0.0000 0.0000 0.0000
# 3 12.8648 16.1101 27.8913 0.0000 0.0000 0.0000
# 4 0.0000 0.0000 0.0000 1.0789 0.0000 0.0000
# 5 0.0000 0.0000 0.0000 0.0000 -9.4972 0.0000
# 6 0.0000 0.0000 0.0000 0.0000 0.0000 10.7996
#
#
#
# Elastic Compliance Matrix: (Units=1/GPa)
#
#
# Indices 1 2 3 4 5 6 
#
# 1 0.109765 -0.029944 -0.033333 0.000000 0.000000 0.000000
# 2 -0.029944 0.037122 -0.007630 0.000000 0.000000 0.000000
# 3 -0.033333 -0.007630 0.055636 0.000000 0.000000 0.000000
# 4 0.000000 0.000000 0.000000 0.926880 0.000000 0.000000
# 5 0.000000 0.000000 0.000000 0.000000 -0.105294 0.000000
# 6 0.000000 0.000000 0.000000 0.000000 0.000000 0.092596
#
#
# Mechanical properties :
#
#
# Convention : Reuss Voigt Hill
#
# Bulk Modulus (GPa) = 16.47229 20.11165 18.29197
# Shear Modulus (GPa) = 3.91005 3.37771 3.64388
#
# Velocity S-wave (km/s) = 1.44961 1.34732 1.39940
# Velocity P-wave (km/s) = 3.41387 3.63716 3.52728
#
# Compressibility (1/GPa) = 0.06070802
#
# Stress axis : x y z
#
# Youngs Moduli (GPa) = 9.11038 26.93835 17.97405
#
# Poissons Ratio (x) = 0.80663 0.59914
# Poissons Ratio (y) = 0.27280 0.13715
# Poissons Ratio (z) = 0.30368 0.20555
#
# Static dielectric constant tensor:
#      x y z
#    x 1.634100 0.000000 0.000000 
#    y 0.000000 1.619270 0.000000 
#    z 0.000000 0.000000 1.625390 
# 
# From -- ./inp_files/24709.got.cif
#   From: 2010.05.17/outbox.cif.g08.bks.cpg/sg51_13_cif.got.tgz:24709.got - 2010.06.03 11:52:47.
