data_PCOD9406215
_publ_section_title
;
Structure prediction by ZEFSAII (Michael W. Deem and Ramdas Pophale) SiO2 
 PCOD9406215
Probable space group: P M M A
;
_chemical_formula_sum "Si O2"
_cell_formula_units_Z 52
_cell_length_a 10.016198
_cell_length_b 10.877376
_cell_length_c 28.809545
_cell_angle_alpha 90.000000
_cell_angle_beta 90.000000
_cell_angle_gamma 90.000000
_cell_volume 3138.798537
_symmetry_space_group_name_H-M "P M M A"
_symmetry_group_IT_number 51
_symmetry_cell_setting 'orthorhombic'
loop_
_space_group_symop_operation_xyz
x,y,z
1/2-x,-y,z
1/2+x,-y,-z
-x,y,-z
-x,-y,-z
1/2+x,y,-z
1/2-x,y,z
x,-y,z
loop_
_atom_site_type_symbol
_atom_site_label
_atom_site_fract_x
_atom_site_fract_y
_atom_site_fract_z
Si Si1 0.412129 0.141461 0.145713
Si Si2 0.488409 0.257211 0.597253
Si Si3 0.410151 0.356418 0.217708
Si Si4 0.597316 0.850977 0.959476
Si Si5 0.250000 0.851201 0.536208
Si Si6 0.250000 0.141637 0.430514
Si Si7 0.410339 0.500000 0.453864
Si Si8 0.598737 0.645339 0.305093
O O1 0.250000 0.137303 0.145345
O O2 0.449494 0.250838 0.180776
O O3 0.451624 0.174149 0.092865
O O4 0.456103 0.000000 0.156599
O O5 0.378801 0.200199 0.562917
O O6 0.618413 0.173345 0.597528
O O7 0.544708 0.382777 0.575708
O O8 0.430002 0.281120 0.647955
O O9 0.250000 0.347635 0.225042
O O10 0.437210 0.500000 0.203853
O O11 0.491327 0.332345 0.264909
O O12 0.750000 0.806747 0.964914
O O13 0.602119 0.000000 0.962427
O O14 0.500000 0.806273 0.000000
O O15 0.250000 0.803141 0.482950
O O16 0.250000 0.000000 0.538218
O O17 0.250000 0.000000 0.440443
O O18 0.250000 0.500000 0.462003
O O19 0.500000 0.500000 0.500000
O O20 0.750000 0.670622 0.288881
O O21 0.591375 0.500000 0.316672
#
# Coordination Sequence:
#
# PCOD9406215 Si02
#       8
#     8   8   8   8   4   4   4   8
#     4   8  14  27  47  72 102 133 166 212 264 305
#     4  12  23  39  61  84 110 138 175 217 261 313
#     4   9  18  32  55  78  97 128 175 219 257 307
#     4   8  13  22  39  64  95 131 168 205 249 301
#     4  11  24  43  63  81 109 150 183 209 250 315
#     4  11  24  41  59  81 109 144 179 211 248 303
#     4  12  26  38  58  90 118 138 166 216 273 316
#     4  10  21  38  56  78 105 137 166 205 266 323
#
# _framework density 16.566849000000001
#
# number of rings (size 3 to 8) (size 9 to 14) (size 15 to 20)
#    0.000    2.154    2.308    2.769    2.154    1.231 
#    0.000    2.308    0.000    1.385    0.000    0.000 
#    0.000    0.000    0.000    0.000    0.000    0.000 
#
# Total GULP energy -289719.313154 kJ/mol
# GULP energy per Si atom -5571.525253 kJ/mol
# Density = 1.652914 g / cm^3
# Si number density = 16.566849 Si / 1000 Ang^3
#
#
#
# Elastic Constant Matrix: (Units=GPa)
#
#
# Indices 1 2 3 4 5 6 
#
# 1 77.3655 25.5363 30.6411 0.0000 0.0000 0.0000
# 2 25.5363 68.3418 41.4826 0.0000 0.0000 0.0000
# 3 30.6411 41.4826 94.0389 0.0000 0.0000 0.0000
# 4 0.0000 0.0000 0.0000 13.6762 0.0000 0.0000
# 5 0.0000 0.0000 0.0000 0.0000 29.2498 0.0000
# 6 0.0000 0.0000 0.0000 0.0000 0.0000 24.1024
#
#
#
# Elastic Compliance Matrix: (Units=1/GPa)
#
#
# Indices 1 2 3 4 5 6 
#
# 1 0.015505 -0.003724 -0.003409 0.000000 0.000000 0.000000
# 2 -0.003724 0.020877 -0.007996 0.000000 0.000000 0.000000
# 3 -0.003409 -0.007996 0.015272 0.000000 0.000000 0.000000
# 4 0.000000 0.000000 0.000000 0.073120 0.000000 0.000000
# 5 0.000000 0.000000 0.000000 0.000000 0.034188 0.000000
# 6 0.000000 0.000000 0.000000 0.000000 0.000000 0.041490
#
#
# Mechanical properties :
#
#
# Convention : Reuss Voigt Hill
#
# Bulk Modulus (GPa) = 46.73870 48.34069 47.53970
# Shear Modulus (GPa) = 21.02227 22.87809 21.95018
#
# Velocity S-wave (km/s) = 3.56608 3.72015 3.64393
# Velocity P-wave (km/s) = 6.72527 6.90617 6.81632
#
# Compressibility (1/GPa) = 0.02139555
#
# Stress axis : x y z
#
# Youngs Moduli (GPa) = 64.49456 47.89882 65.47953
#
# Poissons Ratio (x) = 0.17839 0.22324
# Poissons Ratio (y) = 0.24019 0.52357
# Poissons Ratio (z) = 0.21988 0.38300
#
# Static dielectric constant tensor:
#      x y z
#    x 1.560940 0.000000 0.000000 
#    y 0.000000 1.563120 0.000000 
#    z 0.000000 0.000000 1.545740 
# 
# From -- ./inp_files/36289.got.cif
#   From: 2010.05.17/outbox.cif.g08.bks.cpg/sg51_19_cif.got.tgz:36289.got - 2010.06.03 11:52:47.
