data_PCOD9406031
_publ_section_title
;
Structure prediction by ZEFSAII (Michael W. Deem and Ramdas Pophale) SiO2 
 PCOD9406031
Probable space group: P M M A
;
_chemical_formula_sum "Si O2"
_cell_formula_units_Z 56
_cell_length_a 8.805517
_cell_length_b 14.756789
_cell_length_c 23.945079
_cell_angle_alpha 90.000000
_cell_angle_beta 90.000000
_cell_angle_gamma 90.000000
_cell_volume 3111.451255
_symmetry_space_group_name_H-M "P M M A"
_symmetry_group_IT_number 51
_symmetry_cell_setting 'orthorhombic'
loop_
_space_group_symop_operation_xyz
x,y,z
1/2-x,-y,z
1/2+x,-y,-z
-x,y,-z
-x,-y,-z
1/2+x,y,-z
1/2-x,y,z
x,-y,z
loop_
_atom_site_type_symbol
_atom_site_label
_atom_site_fract_x
_atom_site_fract_y
_atom_site_fract_z
Si Si1 0.568036 0.712994 0.558384
Si Si2 0.934727 0.898561 0.609329
Si Si3 0.068710 0.226127 0.835456
Si Si4 0.072676 0.391318 0.662383
Si Si5 0.433184 0.104213 0.939387
Si Si6 0.570192 0.107425 0.737873
Si Si7 0.431530 0.604843 0.217464
O O1 0.500000 0.680469 0.500000
O O2 0.750000 0.709963 0.556288
O O3 0.517149 0.816853 0.569918
O O4 0.509944 0.655875 0.610905
O O5 0.750000 0.900725 0.609154
O O6 0.977982 0.877523 0.673570
O O7 0.987822 0.000000 0.594733
O O8 0.250000 0.234256 0.836739
O O9 0.017676 0.172721 0.890936
O O10 0.019660 0.165858 0.782405
O O11 0.995892 0.324458 0.826931
O O12 0.250000 0.366025 0.663469
O O13 0.062003 0.500000 0.656060
O O14 0.996518 0.368639 0.721670
O O15 0.250000 0.106534 0.942295
O O16 0.477621 0.000000 0.925770
O O17 0.500000 0.126303 0.000000
O O18 0.750000 0.129050 0.742003
O O19 0.552520 0.000000 0.748746
O O20 0.250000 0.609987 0.219277
O O21 0.475485 0.500000 0.206959
#
# Coordination Sequence:
#
# PCOD9406031 Si02
#       7
#     8   8   8   8   8   8   8
#     4  11  22  35  53  75 101 134 172 215 259 308
#     4   8  16  32  51  70  95 129 168 209 252 299
#     4  11  21  32  51  79 111 143 176 220 268 313
#     4  10  21  38  59  81 105 132 164 208 264 321
#     4   9  19  35  53  76 109 148 187 224 262 305
#     4   9  17  30  50  76 104 135 173 215 261 316
#     4  10  21  37  57  81 108 138 173 213 259 316
#
# _framework density 17.998034000000001
#
# number of rings (size 3 to 8) (size 9 to 14) (size 15 to 20)
#    0.000    2.286    0.000    3.857    0.000    5.429 
#    0.000    2.143    0.000    3.429    0.000    0.000 
#    0.000    0.000    0.000    0.000    0.000    0.000 
#
# Total GULP energy -312649.905759 kJ/mol
# GULP energy per Si atom -5583.034031 kJ/mol
# Density = 1.795707 g / cm^3
# Si number density = 17.998034 Si / 1000 Ang^3
#
#
#
# Elastic Constant Matrix: (Units=GPa)
#
#
# Indices 1 2 3 4 5 6 
#
# 1 48.1392 36.8539 33.1646 0.0000 0.0000 0.0000
# 2 36.8539 75.8147 70.3644 0.0000 0.0000 0.0000
# 3 33.1646 70.3644 93.7961 0.0000 0.0000 0.0000
# 4 0.0000 0.0000 0.0000 22.5939 0.0000 0.0000
# 5 0.0000 0.0000 0.0000 0.0000 26.6229 0.0000
# 6 0.0000 0.0000 0.0000 0.0000 0.0000 25.9642
#
#
#
# Elastic Compliance Matrix: (Units=1/GPa)
#
#
# Indices 1 2 3 4 5 6 
#
# 1 0.033128 -0.017226 0.001209 0.000000 0.000000 0.000000
# 2 -0.017226 0.052382 -0.033205 0.000000 0.000000 0.000000
# 3 0.001209 -0.033205 0.035144 0.000000 0.000000 0.000000
# 4 0.000000 0.000000 0.000000 0.044260 0.000000 0.000000
# 5 0.000000 0.000000 0.000000 0.000000 0.037562 0.000000
# 6 0.000000 0.000000 0.000000 0.000000 0.000000 0.038515
#
#
# Mechanical properties :
#
#
# Convention : Reuss Voigt Hill
#
# Bulk Modulus (GPa) = 45.02555 55.39065 50.20810
# Shear Modulus (GPa) = 14.41599 20.19399 17.30499
#
# Velocity S-wave (km/s) = 2.83322 3.35328 3.10416
# Velocity P-wave (km/s) = 5.98115 6.77018 6.38786
#
# Compressibility (1/GPa) = 0.02220961
#
# Stress axis : x y z
#
# Youngs Moduli (GPa) = 30.18631 19.09051 28.45427
#
# Poissons Ratio (x) = 0.32885 -0.03441
# Poissons Ratio (y) = 0.51999 0.94484
# Poissons Ratio (z) = -0.03650 0.63391
#
# Static dielectric constant tensor:
#      x y z
#    x 1.598750 0.000000 0.000000 
#    y 0.000000 1.638020 0.000000 
#    z 0.000000 0.000000 1.583850 
# 
# From -- ./inp_files/31956.got.cif
#   From: 2010.05.17/outbox.cif.g08.bks.cpg/sg51_16_cif.got.tgz:31956.got - 2010.06.03 11:52:47.
