data_PCOD9406245
_publ_section_title
;
Structure prediction by ZEFSAII (Michael W. Deem and Ramdas Pophale) SiO2 
 PCOD9406245
Probable space group: P M M A
;
_chemical_formula_sum "Si O2"
_cell_formula_units_Z 64
_cell_length_a 15.628797
_cell_length_b 14.382895
_cell_length_c 13.060310
_cell_angle_alpha 90.000000
_cell_angle_beta 90.000000
_cell_angle_gamma 90.000000
_cell_volume 2935.792426
_symmetry_space_group_name_H-M "P M M A"
_symmetry_group_IT_number 51
_symmetry_cell_setting 'orthorhombic'
loop_
_space_group_symop_operation_xyz
x,y,z
1/2-x,-y,z
1/2+x,-y,-z
-x,y,-z
-x,-y,-z
1/2+x,y,-z
1/2-x,y,z
x,-y,z
loop_
_atom_site_type_symbol
_atom_site_label
_atom_site_fract_x
_atom_site_fract_y
_atom_site_fract_z
Si Si1 0.914580 0.717985 0.239734
Si Si2 0.919628 0.101387 0.924158
Si Si3 0.148980 0.701089 0.546477
Si Si4 0.150022 0.603672 0.339154
Si Si5 0.599447 0.701054 0.865032
Si Si6 0.010245 0.899143 0.706412
Si Si7 0.652304 0.396455 0.061791
Si Si8 0.152102 0.889876 0.437477
O O1 0.901380 0.672874 0.351201
O O2 0.852776 0.674737 0.155961
O O3 0.004978 0.706988 0.182861
O O4 0.915300 0.826838 0.267899
O O5 0.870343 0.198971 0.911003
O O6 0.960581 0.091090 0.812947
O O7 0.879184 0.000000 0.950395
O O8 0.000000 0.116300 0.000000
O O9 0.250000 0.679754 0.562858
O O10 0.115857 0.653982 0.441425
O O11 0.144871 0.812144 0.524683
O O12 0.250000 0.594244 0.361912
O O13 0.113135 0.500000 0.323736
O O14 0.147021 0.662190 0.234470
O O15 0.600362 0.633997 0.962176
O O16 0.932171 0.870244 0.631488
O O17 0.042102 0.000000 0.672509
O O18 0.750000 0.398959 0.025451
O O19 0.627232 0.500000 0.096919
O O20 0.250000 0.875687 0.392716
O O21 0.148179 0.000000 0.462684
#
# Coordination Sequence:
#
# PCOD9406245 Si02
#       8
#     8   8   8   8   8   8   8   8
#     4  11  23  38  59  90 123 155 194 245 304 362
#     4   9  17  31  52  79 113 150 183 218 272 343
#     4  10  21  38  58  81 117 162 202 241 290 357
#     4  10  22  40  60  82 113 156 200 240 291 357
#     4  11  21  37  64  93 118 146 189 250 306 350
#     4   9  18  33  56  85 118 159 201 242 293 351
#     4  11  25  45  67  87 111 151 202 252 305 368
#     4   9  18  34  57  86 122 165 212 256 294 342
#
# _framework density 21.799907999999999
#
# number of rings (size 3 to 8) (size 9 to 14) (size 15 to 20)
#    0.000    2.000    0.000    4.500    0.000    5.500 
#    0.000    5.625    0.000    4.125    0.000    0.000 
#    0.000    0.000    0.000    0.000    0.000    0.000 
#
# Total GULP energy -356314.625319 kJ/mol
# GULP energy per Si atom -5567.416021 kJ/mol
# Density = 2.175029 g / cm^3
# Si number density = 21.799908 Si / 1000 Ang^3
#
#
#
# Elastic Constant Matrix: (Units=GPa)
#
#
# Indices 1 2 3 4 5 6 
#
# 1 27.1104 40.3304 38.8545 0.0000 0.0000 0.0000
# 2 40.3304 111.3667 40.2421 0.0000 0.0000 0.0000
# 3 38.8545 40.2421 120.5577 0.0000 0.0000 0.0000
# 4 0.0000 0.0000 0.0000 -0.3405 0.0000 0.0000
# 5 0.0000 0.0000 0.0000 0.0000 36.9584 0.0000
# 6 0.0000 0.0000 0.0000 0.0000 0.0000 32.1882
#
#
#
# Elastic Compliance Matrix: (Units=1/GPa)
#
#
# Indices 1 2 3 4 5 6 
#
# 1 0.144009 -0.040233 -0.032983 0.000000 0.000000 0.000000
# 2 -0.040233 0.021451 0.005806 0.000000 0.000000 0.000000
# 3 -0.032983 0.005806 0.016987 0.000000 0.000000 0.000000
# 4 0.000000 0.000000 0.000000 -2.936546 0.000000 0.000000
# 5 0.000000 0.000000 0.000000 0.000000 0.027057 0.000000
# 6 0.000000 0.000000 0.000000 0.000000 0.000000 0.031067
#
#
# Mechanical properties :
#
#
# Convention : Reuss Voigt Hill
#
# Bulk Modulus (GPa) = 20.99618 55.32097 38.15858
# Shear Modulus (GPa) = -1.96442 23.06840 10.55199
#
# Velocity S-wave (km/s) = -0.95030 3.25651 2.20247
# Velocity P-wave (km/s) = 2.90657 6.29060 4.89999
#
# Compressibility (1/GPa) = 0.04762770
#
# Stress axis : x y z
#
# Youngs Moduli (GPa) = 6.94399 46.61715 58.86968
#
# Poissons Ratio (x) = 1.87556 1.94169
# Poissons Ratio (y) = 0.27938 -0.34182
# Poissons Ratio (z) = 0.22903 -0.27067
#
# Static dielectric constant tensor:
#      x y z
#    x 1.808960 0.000000 0.000000 
#    y 0.000000 1.989270 0.000000 
#    z 0.000000 0.000000 1.777150 
# 
# From -- ./inp_files/17578.got.cif
#   From: 2010.05.17/outbox.cif.g08.bks.cpg/sg51_9_cif.got.tgz:17578.got - 2010.06.03 11:52:47.
