data_PCOD9406044
_publ_section_title
;
Structure prediction by ZEFSAII (Michael W. Deem and Ramdas Pophale) SiO2 
 PCOD9406044
Probable space group: P M M A
;
_chemical_formula_sum "Si O2"
_cell_formula_units_Z 48
_cell_length_a 8.660791
_cell_length_b 32.010541
_cell_length_c 9.711677
_cell_angle_alpha 90.000000
_cell_angle_beta 90.000000
_cell_angle_gamma 90.000000
_cell_volume 2692.432364
_symmetry_space_group_name_H-M "P M M A"
_symmetry_group_IT_number 51
_symmetry_cell_setting 'orthorhombic'
loop_
_space_group_symop_operation_xyz
x,y,z
1/2-x,-y,z
1/2+x,-y,-z
-x,y,-z
-x,-y,-z
1/2+x,y,-z
1/2-x,y,z
x,-y,z
loop_
_atom_site_type_symbol
_atom_site_label
_atom_site_fract_x
_atom_site_fract_y
_atom_site_fract_z
Si Si1 0.064344 0.786013 0.345737
Si Si2 0.436444 0.955188 0.155818
Si Si3 0.063382 0.863390 0.155324
Si Si4 0.565483 0.382074 0.151564
Si Si5 0.565232 0.453300 0.653735
Si Si6 0.064609 0.713997 0.846928
O O1 0.250000 0.785351 0.350259
O O2 0.014199 0.826533 0.256891
O O3 0.000000 0.787287 0.500000
O O4 0.004411 0.745737 0.263185
O O5 0.250000 0.955259 0.152406
O O6 0.483990 0.909585 0.210170
O O7 0.485473 0.000000 0.219506
O O8 0.500000 0.955506 0.000000
O O9 0.250000 0.862426 0.146625
O O10 0.000000 0.857857 0.000000
O O11 0.750000 0.384519 0.148989
O O12 0.499984 0.416298 0.254350
O O13 0.523106 0.334120 0.187343
O O14 0.500000 0.390207 0.000000
O O15 0.500000 0.449528 0.500000
O O16 0.750000 0.450876 0.649896
O O17 0.522175 0.500000 0.705165
O O18 0.250000 0.717578 0.849945
O O19 0.000000 0.723109 0.000000
#
# Coordination Sequence:
#
# PCOD9406044 Si02
#       6
#     8   8   8   8   8   8
#     4  11  23  37  53  74 102 136 174 216 261 309
#     4   8  13  23  41  66  95 124 156 198 246 295
#     4   9  18  31  49  74 100 129 166 206 252 305
#     4  10  21  37  58  83 110 140 174 215 261 309
#     4  10  21  37  57  81 110 145 183 221 261 307
#     4  10  21  38  59  82 107 136 172 213 259 311
#
# _framework density 17.827746000000001
#
# number of rings (size 3 to 8) (size 9 to 14) (size 15 to 20)
#    0.000    2.333    0.000    2.500    0.000    6.667 
#    0.000    0.000    0.000    0.500    0.000    0.000 
#    0.000    0.000    0.000    0.000    0.000    0.167 
#
# Total GULP energy -267647.434015 kJ/mol
# GULP energy per Si atom -5575.988209 kJ/mol
# Density = 1.778717 g / cm^3
# Si number density = 17.827746 Si / 1000 Ang^3
#
#
#
# Elastic Constant Matrix: (Units=GPa)
#
#
# Indices 1 2 3 4 5 6 
#
# 1 38.3890 49.2798 33.5993 0.0000 0.0000 0.0000
# 2 49.2798 181.6705 111.0499 0.0000 0.0000 0.0000
# 3 33.5993 111.0499 102.0525 0.0000 0.0000 0.0000
# 4 0.0000 0.0000 0.0000 -20.1482 0.0000 0.0000
# 5 0.0000 0.0000 0.0000 0.0000 30.6203 0.0000
# 6 0.0000 0.0000 0.0000 0.0000 0.0000 28.4662
#
#
#
# Elastic Compliance Matrix: (Units=1/GPa)
#
#
# Indices 1 2 3 4 5 6 
#
# 1 0.040539 -0.008476 -0.004124 0.000000 0.000000 0.000000
# 2 -0.008476 0.018211 -0.017026 0.000000 0.000000 0.000000
# 3 -0.004124 -0.017026 0.029684 0.000000 0.000000 0.000000
# 4 0.000000 0.000000 0.000000 -0.049632 0.000000 0.000000
# 5 0.000000 0.000000 0.000000 0.000000 0.032658 0.000000
# 6 0.000000 0.000000 0.000000 0.000000 0.000000 0.035129
#
#
# Mechanical properties :
#
#
# Convention : Reuss Voigt Hill
#
# Bulk Modulus (GPa) = 34.26735 78.88556 56.57646
# Shear Modulus (GPa) = 28.47888 16.33319 22.40604
#
# Velocity S-wave (km/s) = 4.00114 3.03011 3.54899
# Velocity P-wave (km/s) = 6.37249 7.52243 6.97121
#
# Compressibility (1/GPa) = 0.02918230
#
# Stress axis : x y z
#
# Youngs Moduli (GPa) = 24.66781 54.91071 33.68806
#
# Poissons Ratio (x) = 0.46541 0.13892
# Poissons Ratio (y) = 0.20908 0.57359
# Poissons Ratio (z) = 0.10172 0.93493
#
# Static dielectric constant tensor:
#      x y z
#    x 1.601720 0.000000 0.000000 
#    y 0.000000 1.655130 0.000000 
#    z 0.000000 0.000000 1.557000 
# 
# From -- ./inp_files/5993.got.cif
#   From: 2010.05.17/outbox.cif.g08.bks.cpg/sg51_3_cif.got.tgz:5993.got - 2010.06.03 11:52:47.
