data_PCOD9406509
_publ_section_title
;
Structure prediction by ZEFSAII (Michael W. Deem and Ramdas Pophale) SiO2 
 PCOD9406509
Probable space group: P M M A
;
_chemical_formula_sum "Si O2"
_cell_formula_units_Z 56
_cell_length_a 14.293211
_cell_length_b 14.711260
_cell_length_c 12.928495
_cell_angle_alpha 90.000000
_cell_angle_beta 90.000000
_cell_angle_gamma 90.000000
_cell_volume 2718.489424
_symmetry_space_group_name_H-M "P M M A"
_symmetry_group_IT_number 51
_symmetry_cell_setting 'orthorhombic'
loop_
_space_group_symop_operation_xyz
x,y,z
1/2-x,-y,z
1/2+x,-y,-z
-x,y,-z
-x,-y,-z
1/2+x,y,-z
1/2-x,y,z
x,-y,z
loop_
_atom_site_type_symbol
_atom_site_label
_atom_site_fract_x
_atom_site_fract_y
_atom_site_fract_z
Si Si1 0.970844 0.644626 0.767717
Si Si2 0.361161 0.286852 0.420857
Si Si3 0.649409 0.107289 0.249479
Si Si4 0.938576 0.225255 0.089120
Si Si5 0.359476 0.395690 0.625902
Si Si6 0.360579 0.598734 0.029998
Si Si7 0.534478 0.101035 0.616211
O O1 0.906286 0.650058 0.667217
O O2 0.917516 0.597300 0.862376
O O3 0.991905 0.741558 0.820784
O O4 0.071124 0.612695 0.723360
O O5 0.250000 0.291927 0.416528
O O6 0.387695 0.324796 0.535193
O O7 0.394991 0.185520 0.391124
O O8 0.750000 0.132002 0.298281
O O9 0.636150 0.162490 0.144089
O O10 0.559956 0.123641 0.320921
O O11 0.649858 0.000000 0.228751
O O12 0.895950 0.316822 0.038262
O O13 0.000000 0.179079 0.000000
O O14 0.250000 0.379749 0.653356
O O15 0.366322 0.500000 0.586716
O O16 0.250000 0.609291 0.049819
O O17 0.375326 0.500000 0.978371
O O18 0.500000 0.091239 0.500000
O O19 0.569526 0.000000 0.650603
#
# Coordination Sequence:
#
# PCOD9406509 Si02
#       7
#     8   8   8   8   8   8   8
#     4  11  21  38  60  86 118 161 204 247 301 358
#     4  11  23  39  60  88 123 161 204 249 300 359
#     4  10  21  39  66  97 125 158 201 246 298 363
#     4  10  22  38  61  88 121 159 200 255 309 359
#     4  10  23  40  59  88 124 161 204 251 299 355
#     4  10  22  39  60  89 122 158 203 253 305 360
#     4  10  21  39  62  91 125 159 197 244 298 356
#
# _framework density 20.599675000000001
#
# number of rings (size 3 to 8) (size 9 to 14) (size 15 to 20)
#    0.000    1.714    1.429    2.571    0.000    7.143 
#    0.000    4.286    0.000    0.000    0.000    0.000 
#    0.000    0.000    0.000    0.000    0.000    0.000 
#
# Total GULP energy -312335.760385 kJ/mol
# GULP energy per Si atom -5577.424293 kJ/mol
# Density = 2.055279 g / cm^3
# Si number density = 20.599675 Si / 1000 Ang^3
#
#
#
# Elastic Constant Matrix: (Units=GPa)
#
#
# Indices 1 2 3 4 5 6 
#
# 1 107.1455 29.0198 46.6538 0.0000 0.0000 0.0000
# 2 29.0198 56.0913 35.1925 0.0000 0.0000 0.0000
# 3 46.6538 35.1925 98.1488 0.0000 0.0000 0.0000
# 4 0.0000 0.0000 0.0000 25.6972 0.0000 0.0000
# 5 0.0000 0.0000 0.0000 0.0000 28.9222 0.0000
# 6 0.0000 0.0000 0.0000 0.0000 0.0000 20.0937
#
#
#
# Elastic Compliance Matrix: (Units=1/GPa)
#
#
# Indices 1 2 3 4 5 6 
#
# 1 0.012271 -0.003469 -0.004589 0.000000 0.000000 0.000000
# 2 -0.003469 0.023984 -0.006951 0.000000 0.000000 0.000000
# 3 -0.004589 -0.006951 0.014862 0.000000 0.000000 0.000000
# 4 0.000000 0.000000 0.000000 0.038915 0.000000 0.000000
# 5 0.000000 0.000000 0.000000 0.000000 0.034575 0.000000
# 6 0.000000 0.000000 0.000000 0.000000 0.000000 0.049767
#
#
# Mechanical properties :
#
#
# Convention : Reuss Voigt Hill
#
# Bulk Modulus (GPa) = 47.39513 53.67975 50.53744
# Shear Modulus (GPa) = 23.64910 24.97727 24.31319
#
# Velocity S-wave (km/s) = 3.39194 3.48589 3.43923
# Velocity P-wave (km/s) = 6.19661 6.50515 6.35275
#
# Compressibility (1/GPa) = 0.02109921
#
# Stress axis : x y z
#
# Youngs Moduli (GPa) = 81.49389 41.69454 67.28554
#
# Poissons Ratio (x) = 0.14466 0.30876
# Poissons Ratio (y) = 0.28274 0.46767
# Poissons Ratio (z) = 0.37396 0.28980
#
# Static dielectric constant tensor:
#      x y z
#    x 1.746950 0.000000 0.000000 
#    y 0.000000 1.813100 0.000000 
#    z 0.000000 0.000000 1.743280 
# 
# From -- ./inp_files/16601.got.cif
#   From: 2010.05.17/outbox.cif.g08.bks.cpg/sg51_9_cif.got.tgz:16601.got - 2010.06.03 11:52:47.
