data_PCOD9406803
_publ_section_title
;
Structure prediction by ZEFSAII (Michael W. Deem and Ramdas Pophale) SiO2 
 PCOD9406803
Probable space group: P M M A
;
_chemical_formula_sum "Si O2"
_cell_formula_units_Z 32
_cell_length_a 15.547413
_cell_length_b 8.993832
_cell_length_c 12.060959
_cell_angle_alpha 90.000000
_cell_angle_beta 90.000000
_cell_angle_gamma 90.000000
_cell_volume 1686.493794
_symmetry_space_group_name_H-M "P M M A"
_symmetry_group_IT_number 51
_symmetry_cell_setting 'orthorhombic'
loop_
_space_group_symop_operation_xyz
x,y,z
1/2-x,-y,z
1/2+x,-y,-z
-x,y,-z
-x,-y,-z
1/2+x,y,-z
1/2-x,y,z
x,-y,z
loop_
_atom_site_type_symbol
_atom_site_label
_atom_site_fract_x
_atom_site_fract_y
_atom_site_fract_z
Si Si1 0.250000 0.178129 0.090306
Si Si2 0.406204 0.823717 0.718131
Si Si3 0.647478 0.673839 0.503065
Si Si4 0.250000 0.322884 0.850212
Si Si5 0.397843 0.176819 0.264761
O O1 0.333272 0.213657 0.165253
O O2 0.250000 0.000000 0.068737
O O3 0.250000 0.264675 0.975696
O O4 0.400303 0.765986 0.592002
O O5 0.333801 0.740215 0.787917
O O6 0.502400 0.795809 0.761922
O O7 0.389711 0.000000 0.721068
O O8 0.750000 0.688778 0.483864
O O9 0.625033 0.500000 0.494610
O O10 0.626796 0.735090 0.624576
O O11 0.250000 0.500000 0.844783
O O12 0.387906 0.000000 0.287604
#
# Coordination Sequence:
#
# PCOD9406803 Si02
#       5
#     4   8   8   4   8
#     4  10  22  43  66  87 118 157 201 253 299 354
#     4  11  23  40  64  92 121 159 204 251 299 356
#     4  11  22  36  59  92 129 164 198 243 302 361
#     4  12  26  43  62  87 120 159 203 251 305 364
#     4  10  22  40  65  93 121 158 205 249 298 357
#
# _framework density 18.974278000000002
#
# number of rings (size 3 to 8) (size 9 to 14) (size 15 to 20)
#    0.000    1.250    2.500    3.375    0.000    8.000 
#    0.000    5.000    0.000    0.000    0.000    0.000 
#    0.000    0.000    0.000    0.000    0.000    0.000 
#
# Total GULP energy -178983.902940 kJ/mol
# GULP energy per Si atom -5593.246967 kJ/mol
# Density = 1.893109 g / cm^3
# Si number density = 18.974278 Si / 1000 Ang^3
#
#
#
# Elastic Constant Matrix: (Units=GPa)
#
#
# Indices 1 2 3 4 5 6 
#
# 1 86.7920 57.8081 37.1339 0.0000 0.0000 0.0000
# 2 57.8081 88.6908 54.8262 0.0000 0.0000 0.0000
# 3 37.1339 54.8262 104.8247 0.0000 0.0000 0.0000
# 4 0.0000 0.0000 0.0000 99.4743 0.0000 0.0000
# 5 0.0000 0.0000 0.0000 0.0000 1.6670 0.0000
# 6 0.0000 0.0000 0.0000 0.0000 0.0000 15.2794
#
#
#
# Elastic Compliance Matrix: (Units=1/GPa)
#
#
# Indices 1 2 3 4 5 6 
#
# 1 0.020373 -0.013030 -0.000402 0.000000 0.000000 0.000000
# 2 -0.013030 0.024997 -0.008458 0.000000 0.000000 0.000000
# 3 -0.000402 -0.008458 0.014106 0.000000 0.000000 0.000000
# 4 0.000000 0.000000 0.000000 0.010053 0.000000 0.000000
# 5 0.000000 0.000000 0.000000 0.000000 0.599875 0.000000
# 6 0.000000 0.000000 0.000000 0.000000 0.000000 0.065447
#
#
# Mechanical properties :
#
#
# Convention : Reuss Voigt Hill
#
# Bulk Modulus (GPa) = 63.71469 64.42709 64.07089
# Shear Modulus (GPa) = 6.37867 31.98676 19.18271
#
# Velocity S-wave (km/s) = 1.83550 4.11030 3.18305
# Velocity P-wave (km/s) = 6.17612 7.52029 6.88111
#
# Compressibility (1/GPa) = 0.01569497
#
# Stress axis : x y z
#
# Youngs Moduli (GPa) = 49.08549 40.00513 70.89278
#
# Poissons Ratio (x) = 0.52128 0.02848
# Poissons Ratio (y) = 0.63961 0.59961
# Poissons Ratio (z) = 0.01972 0.33836
#
# Static dielectric constant tensor:
#      x y z
#    x 1.667790 0.000000 0.000000 
#    y 0.000000 1.631610 0.000000 
#    z 0.000000 0.000000 1.613900 
# 
# From -- ./inp_files/15838.got.cif
#   From: 2010.05.17/outbox.cif.g08.bks.cpg/sg51_8_cif.got.tgz:15838.got - 2010.06.03 11:52:47.
