data_PCOD9406634
_publ_section_title
;
Structure prediction by ZEFSAII (Michael W. Deem and Ramdas Pophale) SiO2 
 PCOD9406634
Probable space group: P M M A
;
_chemical_formula_sum "Si O2"
_cell_formula_units_Z 64
_cell_length_a 22.449236
_cell_length_b 7.467450
_cell_length_c 17.137054
_cell_angle_alpha 90.000000
_cell_angle_beta 90.000000
_cell_angle_gamma 90.000000
_cell_volume 2872.830839
_symmetry_space_group_name_H-M "P M M A"
_symmetry_group_IT_number 51
_symmetry_cell_setting 'orthorhombic'
loop_
_space_group_symop_operation_xyz
x,y,z
1/2-x,-y,z
1/2+x,-y,-z
-x,y,-z
-x,-y,-z
1/2+x,y,-z
1/2-x,y,z
x,-y,z
loop_
_atom_site_type_symbol
_atom_site_label
_atom_site_fract_x
_atom_site_fract_y
_atom_site_fract_z
Si Si1 0.312266 0.291065 0.284458
Si Si2 0.680716 0.217156 0.227686
Si Si3 0.563717 0.717776 0.780043
Si Si4 0.559599 0.285262 0.956838
Si Si5 0.638730 0.783036 0.553506
Si Si6 0.619167 0.780421 0.385832
Si Si7 0.681285 0.785409 0.051321
Si Si8 0.012647 0.207168 0.380704
O O1 0.250000 0.209771 0.258910
O O2 0.311801 0.500000 0.262876
O O3 0.371596 0.215158 0.247405
O O4 0.318787 0.279011 0.377539
O O5 0.750000 0.260318 0.240333
O O6 0.643941 0.281179 0.302596
O O7 0.665728 0.278588 0.139676
O O8 0.675566 0.000000 0.226740
O O9 0.562167 0.500000 0.777484
O O10 0.554861 0.778063 0.867813
O O11 0.519630 0.781952 0.712790
O O12 0.555124 0.500000 0.954806
O O13 0.500000 0.217799 0.000000
O O14 0.624600 0.251247 0.995547
O O15 0.653331 0.730136 0.465164
O O16 0.572542 0.718513 0.580186
O O17 0.638432 0.000000 0.556426
O O18 0.551637 0.717052 0.399510
O O19 0.618823 0.000000 0.382995
O O20 0.750000 0.723001 0.031821
O O21 0.685707 0.000000 0.054622
O O22 0.011093 0.000000 0.404825
#
# Coordination Sequence:
#
# PCOD9406634 Si02
#       8
#     8   8   8   8   8   8   8   8
#     4   9  18  33  51  68  91 127 166 201 240 291
#     4   8  15  28  45  68  97 126 162 206 244 289
#     4   9  19  35  51  70  98 130 164 202 246 301
#     4  10  22  37  54  80 111 138 171 218 268 319
#     4   9  17  29  45  70 101 127 158 204 249 287
#     4   9  16  26  45  70  96 130 166 198 240 293
#     4   9  19  36  56  78 105 137 175 218 262 312
#     4   9  17  29  47  71  99 128 163 203 244 290
#
# _framework density 22.277678000000002
#
# number of rings (size 3 to 8) (size 9 to 14) (size 15 to 20)
#    0.000    3.000    0.000    1.125    1.750    3.750 
#    0.000    3.125    0.000    3.750    0.000    0.000 
#    0.000    0.000    0.000    0.000    0.000    0.000 
#
# Total GULP energy -356829.104445 kJ/mol
# GULP energy per Si atom -5575.454757 kJ/mol
# Density = 2.222697 g / cm^3
# Si number density = 22.277678 Si / 1000 Ang^3
#
#
#
# Elastic Constant Matrix: (Units=GPa)
#
#
# Indices 1 2 3 4 5 6 
#
# 1 62.6740 -2.6449 32.9483 0.0000 0.0000 0.0000
# 2 -2.6449 66.5397 -3.9614 0.0000 0.0000 0.0000
# 3 32.9483 -3.9614 123.6645 0.0000 0.0000 0.0000
# 4 0.0000 0.0000 0.0000 9.4843 0.0000 0.0000
# 5 0.0000 0.0000 0.0000 0.0000 5.1331 0.0000
# 6 0.0000 0.0000 0.0000 0.0000 0.0000 6.7739
#
#
#
# Elastic Compliance Matrix: (Units=1/GPa)
#
#
# Indices 1 2 3 4 5 6 
#
# 1 0.018568 0.000444 -0.004933 0.000000 0.000000 0.000000
# 2 0.000444 0.015068 0.000364 0.000000 0.000000 0.000000
# 3 -0.004933 0.000364 0.009412 0.000000 0.000000 0.000000
# 4 0.000000 0.000000 0.000000 0.105437 0.000000 0.000000
# 5 0.000000 0.000000 0.000000 0.000000 0.194813 0.000000
# 6 0.000000 0.000000 0.000000 0.000000 0.000000 0.147626
#
#
# Mechanical properties :
#
#
# Convention : Reuss Voigt Hill
#
# Bulk Modulus (GPa) = 28.73597 33.95136 31.34367
# Shear Modulus (GPa) = 9.78909 19.38068 14.58488
#
# Velocity S-wave (km/s) = 2.09849 2.95271 2.56146
# Velocity P-wave (km/s) = 4.33573 5.18631 4.77998
#
# Compressibility (1/GPa) = 0.03479959
#
# Stress axis : x y z
#
# Youngs Moduli (GPa) = 53.85748 66.36597 106.24378
#
# Poissons Ratio (x) = -0.02949 0.52408
# Poissons Ratio (y) = -0.02393 -0.03870
# Poissons Ratio (z) = 0.26567 -0.02418
#
# Static dielectric constant tensor:
#      x y z
#    x 1.827770 0.000000 0.000000 
#    y 0.000000 1.865910 0.000000 
#    z 0.000000 0.000000 1.818090 
# 
# From -- ./inp_files/30680.got.cif
#   From: 2010.05.17/outbox.cif.g08.bks.cpg/sg51_16_cif.got.tgz:30680.got - 2010.06.03 11:52:47.
