data_PCOD9406343
_publ_section_title
;
Structure prediction by ZEFSAII (Michael W. Deem and Ramdas Pophale) SiO2 
 PCOD9406343
Probable space group: P M M A
;
_chemical_formula_sum "Si O2"
_cell_formula_units_Z 48
_cell_length_a 8.680116
_cell_length_b 31.323908
_cell_length_c 9.351091
_cell_angle_alpha 90.000000
_cell_angle_beta 90.000000
_cell_angle_gamma 90.000000
_cell_volume 2542.516337
_symmetry_space_group_name_H-M "P M M A"
_symmetry_group_IT_number 51
_symmetry_cell_setting 'orthorhombic'
loop_
_space_group_symop_operation_xyz
x,y,z
1/2-x,-y,z
1/2+x,-y,-z
-x,y,-z
-x,-y,-z
1/2+x,y,-z
1/2-x,y,z
x,-y,z
loop_
_atom_site_type_symbol
_atom_site_label
_atom_site_fract_x
_atom_site_fract_y
_atom_site_fract_z
Si Si1 0.935372 0.370551 0.159216
Si Si2 0.435556 0.208018 0.159540
Si Si3 0.935411 0.708273 0.660049
Si Si4 0.934506 0.950499 0.157500
Si Si5 0.935714 0.548447 0.342616
Si Si6 0.434947 0.125437 0.341390
O O1 0.750000 0.368486 0.156100
O O2 0.983002 0.415723 0.229612
O O3 0.999282 0.332782 0.258058
O O4 0.000000 0.366301 0.000000
O O5 0.250000 0.207690 0.151634
O O6 0.481172 0.249448 0.251387
O O7 0.484641 0.165107 0.241771
O O8 0.500000 0.209781 0.000000
O O9 0.750000 0.706109 0.655562
O O10 0.000000 0.710216 0.500000
O O11 0.750000 0.946564 0.155094
O O12 0.004508 0.918021 0.270868
O O13 0.973793 0.000000 0.188702
O O14 0.000000 0.940419 0.000000
O O15 0.750000 0.548905 0.350297
O O16 0.984796 0.500000 0.305921
O O17 0.000000 0.558588 0.500000
O O18 0.500000 0.130830 0.500000
O O19 0.250000 0.124846 0.346497
#
# Coordination Sequence:
#
# PCOD9406343 Si02
#       6
#     8   8   8   8   8   8
#     4  11  23  38  57  83 115 150 190 235 283 336
#     4  10  23  40  60  86 115 149 188 232 281 335
#     4  11  23  40  61  86 116 150 189 232 282 336
#     4  10  21  38  60  86 116 151 191 235 284 338
#     4   9  19  36  57  81 110 145 186 232 282 336
#     4  11  23  39  59  85 116 151 192 236 284 336
#
# _framework density 18.878934999999998
#
# number of rings (size 3 to 8) (size 9 to 14) (size 15 to 20)
#    0.000    1.667    0.000    4.000    0.000    9.667 
#    0.000    0.000    0.000    0.000    0.000    0.000 
#    0.000    0.000    0.000    0.000    0.000    0.000 
#
# Total GULP energy -268333.499435 kJ/mol
# GULP energy per Si atom -5590.281238 kJ/mol
# Density = 1.883597 g / cm^3
# Si number density = 18.878935 Si / 1000 Ang^3
#
#
#
# Elastic Constant Matrix: (Units=GPa)
#
#
# Indices 1 2 3 4 5 6 
#
# 1 46.3093 44.3289 47.9523 0.0000 0.0000 0.0000
# 2 44.3289 127.6045 110.0522 0.0000 0.0000 0.0000
# 3 47.9523 110.0522 195.2393 0.0000 0.0000 0.0000
# 4 0.0000 0.0000 0.0000 36.7399 0.0000 0.0000
# 5 0.0000 0.0000 0.0000 0.0000 40.7778 0.0000
# 6 0.0000 0.0000 0.0000 0.0000 0.0000 35.6272
#
#
#
# Elastic Compliance Matrix: (Units=1/GPa)
#
#
# Indices 1 2 3 4 5 6 
#
# 1 0.033369 -0.008804 -0.003233 0.000000 0.000000 0.000000
# 2 -0.008804 0.017573 -0.007744 0.000000 0.000000 0.000000
# 3 -0.003233 -0.007744 0.010281 0.000000 0.000000 0.000000
# 4 0.000000 0.000000 0.000000 0.027218 0.000000 0.000000
# 5 0.000000 0.000000 0.000000 0.000000 0.024523 0.000000
# 6 0.000000 0.000000 0.000000 0.000000 0.000000 0.028068
#
#
# Mechanical properties :
#
#
# Convention : Reuss Voigt Hill
#
# Bulk Modulus (GPa) = 46.16273 85.98002 66.07137
# Shear Modulus (GPa) = 26.62192 33.75029 30.18610
#
# Velocity S-wave (km/s) = 3.75926 4.23273 4.00300
# Velocity P-wave (km/s) = 6.58390 8.33845 7.51257
#
# Compressibility (1/GPa) = 0.02166250
#
# Stress axis : x y z
#
# Youngs Moduli (GPa) = 29.96786 56.90408 97.26782
#
# Poissons Ratio (x) = 0.50096 0.31449
# Poissons Ratio (y) = 0.26383 0.75320
# Poissons Ratio (z) = 0.09689 0.44064
#
# Static dielectric constant tensor:
#      x y z
#    x 1.638150 0.000000 0.000000 
#    y 0.000000 1.652910 0.000000 
#    z 0.000000 0.000000 1.603940 
# 
# From -- ./inp_files/5992.got.cif
#   From: 2010.05.17/outbox.cif.g08.bks.cpg/sg51_3_cif.got.tgz:5992.got - 2010.06.03 11:52:47.
