data_PCOD9406132
_publ_section_title
;
Structure prediction by ZEFSAII (Michael W. Deem and Ramdas Pophale) SiO2 
 PCOD9406132
Probable space group: P M M A
;
_chemical_formula_sum "Si O2"
_cell_formula_units_Z 48
_cell_length_a 29.149765
_cell_length_b 9.340591
_cell_length_c 10.035053
_cell_angle_alpha 90.000000
_cell_angle_beta 90.000000
_cell_angle_gamma 90.000000
_cell_volume 2732.304418
_symmetry_space_group_name_H-M "P M M A"
_symmetry_group_IT_number 51
_symmetry_cell_setting 'orthorhombic'
loop_
_space_group_symop_operation_xyz
x,y,z
1/2-x,-y,z
1/2+x,-y,-z
-x,y,-z
-x,-y,-z
1/2+x,y,-z
1/2-x,y,z
x,-y,z
loop_
_atom_site_type_symbol
_atom_site_label
_atom_site_fract_x
_atom_site_fract_y
_atom_site_fract_z
Si Si1 0.303826 0.668133 0.759205
Si Si2 0.520540 0.669571 0.646282
Si Si3 0.804291 0.829193 0.512879
Si Si4 0.873917 0.328275 0.707618
Si Si5 0.033911 0.164887 0.873765
Si Si6 0.877934 0.329305 0.019317
O O1 0.250000 0.688902 0.786998
O O2 0.310818 0.500000 0.725047
O O3 0.316312 0.763391 0.631686
O O4 0.333925 0.699889 0.888787
O O5 0.500000 0.693803 0.500000
O O6 0.516433 0.500000 0.676884
O O7 0.574522 0.705216 0.657108
O O8 0.491620 0.757867 0.752807
O O9 0.750000 0.798818 0.535653
O O10 0.836193 0.754751 0.622311
O O11 0.810437 0.000000 0.513188
O O12 0.867068 0.500000 0.694149
O O13 0.871394 0.291065 0.864422
O O14 0.079550 0.246956 0.916955
O O15 0.043906 0.000000 0.840845
O O16 0.000000 0.168505 0.000000
O O17 0.887083 0.500000 0.023134
#
# Coordination Sequence:
#
# PCOD9406132 Si02
#       6
#     8   8   8   8   8   8
#     4   9  19  37  60  85 111 141 183 232 279 333
#     4  10  22  39  59  84 114 150 192 237 282 334
#     4  10  22  39  58  82 115 153 187 225 279 338
#     4  10  21  37  58  85 114 148 190 237 285 330
#     4  11  23  38  57  83 116 153 189 229 279 335
#     4  10  21  37  60  86 112 147 188 233 285 337
#
# _framework density 17.567588000000001
#
# number of rings (size 3 to 8) (size 9 to 14) (size 15 to 20)
#    0.000    2.000    1.667    1.000    2.333    4.667 
#    0.000    1.667    0.000    2.000    0.000    0.000 
#    0.000    0.000    0.000    0.000    0.000    0.000 
#
# Total GULP energy -268013.480605 kJ/mol
# GULP energy per Si atom -5583.614179 kJ/mol
# Density = 1.752760 g / cm^3
# Si number density = 17.567588 Si / 1000 Ang^3
#
#
#
# Elastic Constant Matrix: (Units=GPa)
#
#
# Indices 1 2 3 4 5 6 
#
# 1 109.3671 68.6936 93.7176 0.0000 0.0000 0.0000
# 2 68.6936 65.1587 81.8582 0.0000 0.0000 0.0000
# 3 93.7176 81.8582 139.0551 0.0000 0.0000 0.0000
# 4 0.0000 0.0000 0.0000 11.2777 0.0000 0.0000
# 5 0.0000 0.0000 0.0000 0.0000 38.2974 0.0000
# 6 0.0000 0.0000 0.0000 0.0000 0.0000 20.6301
#
#
#
# Elastic Compliance Matrix: (Units=1/GPa)
#
#
# Indices 1 2 3 4 5 6 
#
# 1 0.028227 -0.022495 -0.005782 0.000000 0.000000 0.000000
# 2 -0.022495 0.076851 -0.030080 0.000000 0.000000 0.000000
# 3 -0.005782 -0.030080 0.028795 0.000000 0.000000 0.000000
# 4 0.000000 0.000000 0.000000 0.088671 0.000000 0.000000
# 5 0.000000 0.000000 0.000000 0.000000 0.026111 0.000000
# 6 0.000000 0.000000 0.000000 0.000000 0.000000 0.048473
#
#
# Mechanical properties :
#
#
# Convention : Reuss Voigt Hill
#
# Bulk Modulus (GPa) = 58.27224 89.12443 73.69834
# Shear Modulus (GPa) = 11.91722 18.66180 15.28951
#
# Velocity S-wave (km/s) = 2.60737 3.26281 2.95333
# Velocity P-wave (km/s) = 6.50437 8.06455 7.32611
#
# Compressibility (1/GPa) = 0.01716083
#
# Stress axis : x y z
#
# Youngs Moduli (GPa) = 35.42715 13.01219 34.72791
#
# Poissons Ratio (x) = 0.29270 0.20079
# Poissons Ratio (y) = 0.79692 1.04461
# Poissons Ratio (z) = 0.20483 0.39140
#
# Static dielectric constant tensor:
#      x y z
#    x 1.568360 0.000000 0.000000 
#    y 0.000000 1.586080 0.000000 
#    z 0.000000 0.000000 1.570090 
# 
# From -- ./inp_files/12751.got.cif
#   From: 2010.05.17/outbox.cif.g08.bks.cpg/sg51_7_cif.got.tgz:12751.got - 2010.06.03 11:52:47.
