data_PCOD9406899
_publ_section_title
;
Structure prediction by ZEFSAII (Michael W. Deem and Ramdas Pophale) SiO2 
 PCOD9406899
Probable space group: P M M A
;
_chemical_formula_sum "Si O2"
_cell_formula_units_Z 40
_cell_length_a 18.317734
_cell_length_b 8.611687
_cell_length_c 12.561897
_cell_angle_alpha 90.000000
_cell_angle_beta 90.000000
_cell_angle_gamma 90.000000
_cell_volume 1981.596438
_symmetry_space_group_name_H-M "P M M A"
_symmetry_group_IT_number 51
_symmetry_cell_setting 'orthorhombic'
loop_
_space_group_symop_operation_xyz
x,y,z
1/2-x,-y,z
1/2+x,-y,-z
-x,y,-z
-x,-y,-z
1/2+x,y,-z
1/2-x,y,z
x,-y,z
loop_
_atom_site_type_symbol
_atom_site_label
_atom_site_fract_x
_atom_site_fract_y
_atom_site_fract_z
Si Si1 0.087235 0.816929 0.769360
Si Si2 0.833060 0.813236 0.020088
Si Si3 0.164488 0.182819 0.341970
Si Si4 0.917186 0.683684 0.464024
Si Si5 0.064263 0.318486 0.160152
O O1 0.147961 0.778230 0.857407
O O2 0.092635 0.725829 0.659083
O O3 0.009682 0.777134 0.823207
O O4 0.090665 0.000000 0.746173
O O5 0.750000 0.768941 0.993493
O O6 0.839661 0.000000 0.006311
O O7 0.890915 0.732152 0.943474
O O8 0.250000 0.216185 0.329028
O O9 0.137545 0.223725 0.460051
O O10 0.116015 0.280916 0.260475
O O11 0.152803 0.000000 0.320238
O O12 0.907141 0.500000 0.480428
O O13 0.000000 0.723057 0.500000
O O14 0.046365 0.500000 0.156690
#
# Coordination Sequence:
#
# PCOD9406899 Si02
#       5
#     8   8   8   8   8
#     4  11  23  40  66  93 122 164 211 257 306 366
#     4  10  23  43  64  89 123 162 206 255 308 368
#     4  11  24  41  64  93 124 163 210 257 308 368
#     4  11  23  40  63  93 127 163 203 253 311 369
#     4  12  24  39  62  93 126 162 206 256 311 371
#
# _framework density 20.185746000000002
#
# number of rings (size 3 to 8) (size 9 to 14) (size 15 to 20)
#    0.000    1.000    2.000    4.800    0.000   10.000 
#    0.000    2.000    0.000    0.000    0.000    0.000 
#    0.000    0.000    0.000    0.000    0.000    0.000 
#
# Total GULP energy -223855.102877 kJ/mol
# GULP energy per Si atom -5596.377572 kJ/mol
# Density = 2.013980 g / cm^3
# Si number density = 20.185746 Si / 1000 Ang^3
#
#
#
# Elastic Constant Matrix: (Units=GPa)
#
#
# Indices 1 2 3 4 5 6 
#
# 1 26.2612 -3.7081 -11.4227 0.0000 0.0000 0.0000
# 2 -3.7081 15.1968 -3.0057 0.0000 0.0000 0.0000
# 3 -11.4227 -3.0057 71.0568 0.0000 0.0000 0.0000
# 4 0.0000 0.0000 0.0000 49.5698 0.0000 0.0000
# 5 0.0000 0.0000 0.0000 0.0000 84.1596 0.0000
# 6 0.0000 0.0000 0.0000 0.0000 0.0000 -10.4249
#
#
#
# Elastic Compliance Matrix: (Units=1/GPa)
#
#
# Indices 1 2 3 4 5 6 
#
# 1 0.042994 0.011958 0.007417 0.000000 0.000000 0.000000
# 2 0.011958 0.069684 0.004870 0.000000 0.000000 0.000000
# 3 0.007417 0.004870 0.015472 0.000000 0.000000 0.000000
# 4 0.000000 0.000000 0.000000 0.020174 0.000000 0.000000
# 5 0.000000 0.000000 0.000000 0.000000 0.011882 0.000000
# 6 0.000000 0.000000 0.000000 0.000000 0.000000 -0.095924
#
#
# Mechanical properties :
#
#
# Convention : Reuss Voigt Hill
#
# Bulk Modulus (GPa) = 5.66124 8.47130 7.06627
# Shear Modulus (GPa) = 66.96019 33.37099 50.16559
#
# Velocity S-wave (km/s) = 5.76576 4.07036 4.99059
# Velocity P-wave (km/s) = 6.86557 5.12799 6.05938
#
# Compressibility (1/GPa) = 0.17663988
#
# Stress axis : x y z
#
# Youngs Moduli (GPa) = 23.25919 14.35041 64.63456
#
# Poissons Ratio (x) = -0.17160 -0.47941
# Poissons Ratio (y) = -0.27813 -0.31477
# Poissons Ratio (z) = -0.17252 -0.06989
#
# Static dielectric constant tensor:
#      x y z
#    x 1.689950 0.000000 0.000000 
#    y 0.000000 1.676140 0.000000 
#    z 0.000000 0.000000 1.704950 
# 
# From -- ./inp_files/17063.got.cif
#   From: 2010.05.17/outbox.cif.g08.bks.cpg/sg51_9_cif.got.tgz:17063.got - 2010.06.03 11:52:47.
