data_PCOD9406590
_publ_section_title
;
Structure prediction by ZEFSAII (Michael W. Deem and Ramdas Pophale) SiO2 
 PCOD9406590
Probable space group: P M M A
;
_chemical_formula_sum "Si O2"
_cell_formula_units_Z 28
_cell_length_a 9.332313
_cell_length_b 7.504970
_cell_length_c 20.125764
_cell_angle_alpha 90.000000
_cell_angle_beta 90.000000
_cell_angle_gamma 90.000000
_cell_volume 1409.582933
_symmetry_space_group_name_H-M "P M M A"
_symmetry_group_IT_number 51
_symmetry_cell_setting 'orthorhombic'
loop_
_space_group_symop_operation_xyz
x,y,z
1/2-x,-y,z
1/2+x,-y,-z
-x,y,-z
-x,-y,-z
1/2+x,y,-z
1/2-x,y,z
x,-y,z
loop_
_atom_site_type_symbol
_atom_site_label
_atom_site_fract_x
_atom_site_fract_y
_atom_site_fract_z
Si Si1 0.418173 0.295293 0.845968
Si Si2 0.921771 0.000000 0.929097
Si Si3 0.914093 0.782112 0.565225
Si Si4 0.085105 0.784381 0.694750
O O1 0.250000 0.238997 0.851857
O O2 0.428170 0.500000 0.867289
O O3 0.455253 0.282218 0.767801
O O4 0.520222 0.169586 0.888143
O O5 0.750000 0.000000 0.935421
O O6 0.000000 0.000000 0.000000
O O7 0.750000 0.726033 0.561765
O O8 0.000000 0.724619 0.500000
O O9 0.987962 0.724633 0.633687
O O10 0.916670 0.000000 0.565341
O O11 0.250000 0.732696 0.682184
O O12 0.079766 0.000000 0.697479
#
# Coordination Sequence:
#
# PCOD9406590 Si02
#       4
#     8   4   8   8
#     4  10  21  40  66  94 125 161 202 247 298 358
#     4  12  26  44  68  94 127 162 199 244 294 354
#     4   9  16  25  40  67 103 144 192 244 297 350
#     4   9  16  29  51  78 111 150 191 239 295 353
#
# _framework density 19.864031000000001
#
# number of rings (size 3 to 8) (size 9 to 14) (size 15 to 20)
#    0.000    2.286    1.429    2.143    0.000    5.714 
#    0.000    0.000    0.000    0.857    0.000    0.000 
#    0.000    0.000    0.000    0.000    0.000    0.000 
#
# Total GULP energy -156452.357490 kJ/mol
# GULP energy per Si atom -5587.584196 kJ/mol
# Density = 1.981882 g / cm^3
# Si number density = 19.864031 Si / 1000 Ang^3
#
#
#
# Elastic Constant Matrix: (Units=GPa)
#
#
# Indices 1 2 3 4 5 6 
#
# 1 162.4142 47.0715 121.6341 0.0000 0.0000 0.0000
# 2 47.0715 78.0849 41.9998 0.0000 0.0000 0.0000
# 3 121.6341 41.9998 154.8327 0.0000 0.0000 0.0000
# 4 0.0000 0.0000 0.0000 -26.6525 0.0000 0.0000
# 5 0.0000 0.0000 0.0000 0.0000 41.6864 0.0000
# 6 0.0000 0.0000 0.0000 0.0000 0.0000 2.6084
#
#
#
# Elastic Compliance Matrix: (Units=1/GPa)
#
#
# Indices 1 2 3 4 5 6 
#
# 1 0.015652 -0.003304 -0.011400 0.000000 0.000000 0.000000
# 2 -0.003304 0.015692 -0.001661 0.000000 0.000000 0.000000
# 3 -0.011400 -0.001661 0.015865 0.000000 0.000000 0.000000
# 4 0.000000 0.000000 0.000000 -0.037520 0.000000 0.000000
# 5 0.000000 0.000000 0.000000 0.000000 0.023989 0.000000
# 6 0.000000 0.000000 0.000000 0.000000 0.000000 0.383383
#
#
# Mechanical properties :
#
#
# Convention : Reuss Voigt Hill
#
# Bulk Modulus (GPa) = 69.06568 90.74917 79.90742
# Shear Modulus (GPa) = 10.99829 15.83687 13.41758
#
# Velocity S-wave (km/s) = 2.35559 2.82665 2.60180
# Velocity P-wave (km/s) = 6.49947 7.51250 7.02427
#
# Compressibility (1/GPa) = 0.01447897
#
# Stress axis : x y z
#
# Youngs Moduli (GPa) = 63.88903 63.72815 63.03281
#
# Poissons Ratio (x) = 0.21054 0.71857
# Poissons Ratio (y) = 0.21108 0.10470
# Poissons Ratio (z) = 0.72833 0.10586
#
# Static dielectric constant tensor:
#      x y z
#    x 1.664220 0.000000 0.000000 
#    y 0.000000 1.769010 0.000000 
#    z 0.000000 0.000000 1.662380 
# 
# From -- ./inp_files/26871.got.cif
#   From: 2010.05.17/outbox.cif.g08.bks.cpg/sg51_14_cif.got.tgz:26871.got - 2010.06.03 11:52:47.
