data_PCOD9406961
_publ_section_title
;
Structure prediction by ZEFSAII (Michael W. Deem and Ramdas Pophale) SiO2 
 PCOD9406961
Probable space group: P M M A
;
_chemical_formula_sum "Si O2"
_cell_formula_units_Z 56
_cell_length_a 14.308299
_cell_length_b 18.695323
_cell_length_c 9.577770
_cell_angle_alpha 90.000000
_cell_angle_beta 90.000000
_cell_angle_gamma 90.000000
_cell_volume 2562.036919
_symmetry_space_group_name_H-M "P M M A"
_symmetry_group_IT_number 51
_symmetry_cell_setting 'orthorhombic'
loop_
_space_group_symop_operation_xyz
x,y,z
1/2-x,-y,z
1/2+x,-y,-z
-x,y,-z
-x,-y,-z
1/2+x,y,-z
1/2-x,y,z
x,-y,z
loop_
_atom_site_type_symbol
_atom_site_label
_atom_site_fract_x
_atom_site_fract_y
_atom_site_fract_z
Si Si1 0.363386 0.712310 0.125962
Si Si2 0.644120 0.915724 0.793837
Si Si3 0.419753 0.800227 0.385079
Si Si4 0.864590 0.081377 0.112265
Si Si5 0.647038 0.321988 0.442885
Si Si6 0.863869 0.418953 0.691148
Si Si7 0.363974 0.236975 0.815823
O O1 0.250000 0.721123 0.141431
O O2 0.417993 0.764299 0.231357
O O3 0.386126 0.632401 0.178534
O O4 0.386062 0.732771 0.968163
O O5 0.750000 0.886759 0.798717
O O6 0.599488 0.880627 0.658874
O O7 0.606137 0.904891 0.950994
O O8 0.646915 0.000000 0.777119
O O9 0.500000 0.797543 0.500000
O O10 0.345810 0.749719 0.463672
O O11 0.750000 0.079430 0.112608
O O12 0.895147 0.000000 0.152533
O O13 0.892887 0.152987 0.196778
O O14 0.750000 0.349620 0.406454
O O15 0.603553 0.379261 0.548989
O O16 0.601952 0.292903 0.301256
O O17 0.750000 0.420293 0.683556
O O18 0.897487 0.500000 0.702530
O O19 0.250000 0.235595 0.803026
#
# Coordination Sequence:
#
# PCOD9406961 Si02
#       7
#     8   8   8   8   8   8   8
#     4   9  16  29  50  68  87 119 160 197 227 274
#     4   9  16  28  48  69  88 119 163 203 237 274
#     4  11  20  30  45  67  95 126 158 196 235 282
#     4   8  13  22  41  67  89 112 149 194 231 265
#     4   9  18  31  48  69  95 123 152 191 240 285
#     4   8  14  26  45  69  96 124 152 185 230 282
#     4   9  15  26  46  70  91 116 156 200 237 273
#
# _framework density 21.857609
#
# number of rings (size 3 to 8) (size 9 to 14) (size 15 to 20)
#    0.000    3.000    1.429    3.000    0.000    0.286 
#    0.000    2.143    0.000   13.714    0.000    2.000 
#    0.000    9.143    0.000    0.000    0.000    0.000 
#
# Total GULP energy -312013.291402 kJ/mol
# GULP energy per Si atom -5571.665918 kJ/mol
# Density = 2.180786 g / cm^3
# Si number density = 21.857609 Si / 1000 Ang^3
#
#
#
# Elastic Constant Matrix: (Units=GPa)
#
#
# Indices 1 2 3 4 5 6 
#
# 1 42.3510 -3.3596 -6.1439 0.0000 0.0000 0.0000
# 2 -3.3596 142.9457 46.5242 0.0000 0.0000 0.0000
# 3 -6.1439 46.5242 101.0057 0.0000 0.0000 0.0000
# 4 0.0000 0.0000 0.0000 26.8665 0.0000 0.0000
# 5 0.0000 0.0000 0.0000 0.0000 -0.5578 0.0000
# 6 0.0000 0.0000 0.0000 0.0000 0.0000 -40.7819
#
#
#
# Elastic Compliance Matrix: (Units=1/GPa)
#
#
# Indices 1 2 3 4 5 6 
#
# 1 0.023824 0.000104 0.001401 0.000000 0.000000 0.000000
# 2 0.000104 0.008230 -0.003784 0.000000 0.000000 0.000000
# 3 0.001401 -0.003784 0.011729 0.000000 0.000000 0.000000
# 4 0.000000 0.000000 0.000000 0.037221 0.000000 0.000000
# 5 0.000000 0.000000 0.000000 0.000000 -1.792881 0.000000
# 6 0.000000 0.000000 0.000000 0.000000 0.000000 -0.024521
#
#
# Mechanical properties :
#
#
# Convention : Reuss Voigt Hill
#
# Bulk Modulus (GPa) = 25.49474 40.03821 32.76648
# Shear Modulus (GPa) = -2.90906 13.72414 5.40754
#
# Velocity S-wave (km/s) = -1.15491 2.50849 1.57460
# Velocity P-wave (km/s) = 3.14816 5.17180 4.28126
#
# Compressibility (1/GPa) = 0.03922378
#
# Stress axis : x y z
#
# Youngs Moduli (GPa) = 41.97499 121.50952 85.26019
#
# Poissons Ratio (x) = -0.01262 -0.11948
# Poissons Ratio (y) = -0.00436 0.32266
# Poissons Ratio (z) = -0.05882 0.45984
#
# Static dielectric constant tensor:
#      x y z
#    x 1.918510 0.000000 0.000000 
#    y 0.000000 1.804530 0.000000 
#    z 0.000000 0.000000 1.779720 
# 
# From -- ./inp_files/8500.got.cif
#   From: 2010.05.17/outbox.cif.g08.bks.cpg/sg51_5_cif.got.tgz:8500.got - 2010.06.03 11:52:47.
