data_PCOD9406333
_publ_section_title
;
Structure prediction by ZEFSAII (Michael W. Deem and Ramdas Pophale) SiO2 
 PCOD9406333
Probable space group: P M M A
;
_chemical_formula_sum "Si O2"
_cell_formula_units_Z 64
_cell_length_a 14.163779
_cell_length_b 8.970958
_cell_length_c 24.765411
_cell_angle_alpha 90.000000
_cell_angle_beta 90.000000
_cell_angle_gamma 90.000000
_cell_volume 3146.759159
_symmetry_space_group_name_H-M "P M M A"
_symmetry_group_IT_number 51
_symmetry_cell_setting 'orthorhombic'
loop_
_space_group_symop_operation_xyz
x,y,z
1/2-x,-y,z
1/2+x,-y,-z
-x,y,-z
-x,-y,-z
1/2+x,y,-z
1/2-x,y,z
x,-y,z
loop_
_atom_site_type_symbol
_atom_site_label
_atom_site_fract_x
_atom_site_fract_y
_atom_site_fract_z
Si Si1 0.856770 0.679105 0.862080
Si Si2 0.864814 0.670026 0.526748
Si Si3 0.364984 0.173013 0.026283
Si Si4 0.962354 0.321403 0.314328
Si Si5 0.635815 0.173174 0.416501
Si Si6 0.636804 0.824371 0.092457
Si Si7 0.039967 0.320777 0.805236
Si Si8 0.638905 0.823230 0.639239
O O1 0.750000 0.733363 0.852596
O O2 0.854380 0.500000 0.864353
O O3 0.931458 0.723823 0.816817
O O4 0.891308 0.738225 0.920195
O O5 0.750000 0.666204 0.524325
O O6 0.897534 0.500000 0.534546
O O7 0.896615 0.738599 0.469951
O O8 0.886829 0.771180 0.578419
O O9 0.250000 0.176521 0.024873
O O10 0.396569 0.228230 0.967152
O O11 0.392784 0.000000 0.031948
O O12 0.956450 0.500000 0.318638
O O13 0.070105 0.268307 0.322161
O O14 0.904411 0.246159 0.362448
O O15 0.929176 0.274084 0.254542
O O16 0.750000 0.179538 0.415156
O O17 0.608060 0.000000 0.420172
O O18 0.750000 0.810367 0.093133
O O19 0.596935 0.742591 0.144382
O O20 0.614023 0.000000 0.095693
O O21 0.045228 0.500000 0.806731
O O22 0.750000 0.791288 0.647630
O O23 0.624331 0.000000 0.644821
#
# Coordination Sequence:
#
# PCOD9406333 Si02
#       8
#     8   8   8   8   8   8   8   8
#     4   9  18  34  55  78 106 140 176 217 268 323
#     4   9  17  32  57  88 118 146 179 220 270 331
#     4   8  15  30  52  79 108 136 171 215 265 323
#     4  11  24  40  57  79 109 147 192 235 274 324
#     4  10  21  38  60  85 114 147 182 226 280 331
#     4   9  19  36  57  80 108 142 177 217 268 324
#     4  10  23  39  54  77 107 141 184 230 271 315
#     4  10  21  38  60  86 116 147 181 226 277 327
#
# _framework density 20.338384000000001
#
# number of rings (size 3 to 8) (size 9 to 14) (size 15 to 20)
#    0.000    2.500    0.000    2.250    0.000    7.250 
#    0.000   10.000    0.000    1.500    0.000    0.000 
#    0.000    0.000    0.000    0.000    0.000    0.000 
#
# Total GULP energy -357421.867921 kJ/mol
# GULP energy per Si atom -5584.716686 kJ/mol
# Density = 2.029209 g / cm^3
# Si number density = 20.338384 Si / 1000 Ang^3
#
#
#
# Elastic Constant Matrix: (Units=GPa)
#
#
# Indices 1 2 3 4 5 6 
#
# 1 18.1439 2.7142 0.1900 0.0000 0.0000 0.0000
# 2 2.7142 39.2720 13.2404 0.0000 0.0000 0.0000
# 3 0.1900 13.2404 92.7710 0.0000 0.0000 0.0000
# 4 0.0000 0.0000 0.0000 51.0093 0.0000 0.0000
# 5 0.0000 0.0000 0.0000 0.0000 25.8370 0.0000
# 6 0.0000 0.0000 0.0000 0.0000 0.0000 26.2853
#
#
#
# Elastic Compliance Matrix: (Units=1/GPa)
#
#
# Indices 1 2 3 4 5 6 
#
# 1 0.055709 -0.004004 0.000457 0.000000 0.000000 0.000000
# 2 -0.004004 0.027038 -0.003851 0.000000 0.000000 0.000000
# 3 0.000457 -0.003851 0.011328 0.000000 0.000000 0.000000
# 4 0.000000 0.000000 0.000000 0.019604 0.000000 0.000000
# 5 0.000000 0.000000 0.000000 0.000000 0.038704 0.000000
# 6 0.000000 0.000000 0.000000 0.000000 0.000000 0.038044
#
#
# Mechanical properties :
#
#
# Convention : Reuss Voigt Hill
#
# Bulk Modulus (GPa) = 12.61350 20.27512 16.44431
# Shear Modulus (GPa) = 21.58425 29.56247 25.57336
#
# Velocity S-wave (km/s) = 3.26123 3.81666 3.54982
# Velocity P-wave (km/s) = 4.51620 5.42338 4.99045
#
# Compressibility (1/GPa) = 0.07928015
#
# Stress axis : x y z
#
# Youngs Moduli (GPa) = 17.95032 36.98440 88.27775
#
# Poissons Ratio (x) = 0.14810 -0.04038
# Poissons Ratio (y) = 0.07188 0.33994
# Poissons Ratio (z) = -0.00821 0.14242
#
# Static dielectric constant tensor:
#      x y z
#    x 1.784750 0.000000 0.000000 
#    y 0.000000 1.678410 0.000000 
#    z 0.000000 0.000000 1.698800 
# 
# From -- ./inp_files/35863.got.cif
#   From: 2010.05.17/outbox.cif.g08.bks.cpg/sg51_18_cif.got.tgz:35863.got - 2010.06.03 11:52:47.
