data_PCOD9406104
_publ_section_title
;
Structure prediction by ZEFSAII (Michael W. Deem and Ramdas Pophale) SiO2 
 PCOD9406104
Probable space group: P M M A
;
_chemical_formula_sum "Si O2"
_cell_formula_units_Z 64
_cell_length_a 19.161292
_cell_length_b 8.650760
_cell_length_c 21.619923
_cell_angle_alpha 90.000000
_cell_angle_beta 90.000000
_cell_angle_gamma 90.000000
_cell_volume 3583.712780
_symmetry_space_group_name_H-M "P M M A"
_symmetry_group_IT_number 51
_symmetry_cell_setting 'orthorhombic'
loop_
_space_group_symop_operation_xyz
x,y,z
1/2-x,-y,z
1/2+x,-y,-z
-x,y,-z
-x,-y,-z
1/2+x,y,-z
1/2-x,y,z
x,-y,z
loop_
_atom_site_type_symbol
_atom_site_label
_atom_site_fract_x
_atom_site_fract_y
_atom_site_fract_z
Si Si1 0.827848 0.687914 0.874959
Si Si2 0.669194 0.686901 0.617472
Si Si3 0.829513 0.313853 0.250227
Si Si4 0.579931 0.183944 0.503804
Si Si5 0.830763 0.315140 0.394818
Si Si6 0.969379 0.312775 0.934466
Si Si7 0.900432 0.313188 0.746714
Si Si8 0.465790 0.816604 0.809825
O O1 0.750000 0.744519 0.888340
O O2 0.826046 0.500000 0.876388
O O3 0.889388 0.736410 0.921328
O O4 0.852454 0.730456 0.805631
O O5 0.750000 0.738559 0.613306
O O6 0.669840 0.500000 0.617084
O O7 0.623271 0.743405 0.560166
O O8 0.633949 0.736255 0.682280
O O9 0.750000 0.268875 0.234212
O O10 0.834191 0.500000 0.244527
O O11 0.840947 0.276654 0.322733
O O12 0.889265 0.236515 0.210226
O O13 0.500000 0.239756 0.500000
O O14 0.618446 0.227556 0.440470
O O15 0.579215 0.000000 0.512164
O O16 0.750000 0.281491 0.410652
O O17 0.840580 0.500000 0.401696
O O18 0.971093 0.500000 0.933114
O O19 0.013243 0.252829 0.876239
O O20 0.000000 0.261092 0.000000
O O21 0.905486 0.500000 0.746434
O O22 0.976792 0.246778 0.761106
O O23 0.470547 0.000000 0.812040
#
# Coordination Sequence:
#
# PCOD9406104 Si02
#       8
#     8   8   8   8   8   8   8   8
#     4   8  13  25  49  78 104 131 170 220 265 305
#     4  10  21  37  58  82 105 134 177 226 272 318
#     4   9  19  37  60  83 106 135 177 228 274 317
#     4  11  25  39  50  72 108 145 179 216 264 326
#     4   9  19  37  60  81  99 127 174 228 276 321
#     4   9  18  34  55  78 107 145 188 228 267 314
#     4   9  18  33  54  79 106 137 174 218 267 320
#     4  11  22  34  53  81 114 146 176 215 265 324
#
# _framework density 17.858573
#
# number of rings (size 3 to 8) (size 9 to 14) (size 15 to 20)
#    0.000    2.500    0.000    3.750    1.750    6.000 
#    0.000    1.875    0.000   11.250    0.000    0.000 
#    0.000    0.000    0.000    0.000    0.000    0.000 
#
# Total GULP energy -357087.147741 kJ/mol
# GULP energy per Si atom -5579.486683 kJ/mol
# Density = 1.781793 g / cm^3
# Si number density = 17.858573 Si / 1000 Ang^3
#
#
#
# Elastic Constant Matrix: (Units=GPa)
#
#
# Indices 1 2 3 4 5 6 
#
# 1 163.5308 30.9728 92.9489 0.0000 0.0000 0.0000
# 2 30.9728 14.5101 23.3003 0.0000 0.0000 0.0000
# 3 92.9489 23.3003 86.9237 0.0000 0.0000 0.0000
# 4 0.0000 0.0000 0.0000 -7.8149 0.0000 0.0000
# 5 0.0000 0.0000 0.0000 0.0000 23.9802 0.0000
# 6 0.0000 0.0000 0.0000 0.0000 0.0000 -4.7639
#
#
#
# Elastic Compliance Matrix: (Units=1/GPa)
#
#
# Indices 1 2 3 4 5 6 
#
# 1 0.016751 -0.012278 -0.014621 0.000000 0.000000 0.000000
# 2 -0.012278 0.130001 -0.021719 0.000000 0.000000 0.000000
# 3 -0.014621 -0.021719 0.032960 0.000000 0.000000 0.000000
# 4 0.000000 0.000000 0.000000 -0.127960 0.000000 0.000000
# 5 0.000000 0.000000 0.000000 0.000000 0.041701 0.000000
# 6 0.000000 0.000000 0.000000 0.000000 0.000000 -0.209913
#
#
# Mechanical properties :
#
#
# Convention : Reuss Voigt Hill
#
# Bulk Modulus (GPa) = 12.12447 62.15649 37.14048
# Shear Modulus (GPa) = 604.90344 10.12979 307.51662
#
# Velocity S-wave (km/s) = 18.42428 2.38423 13.13656
# Velocity P-wave (km/s) = 21.43384 6.51612 15.84092
#
# Compressibility (1/GPa) = 0.08247781
#
# Stress axis : x y z
#
# Youngs Moduli (GPa) = 59.69931 7.69226 30.33960
#
# Poissons Ratio (x) = 0.09444 0.44358
# Poissons Ratio (y) = 0.73296 0.65894
# Poissons Ratio (z) = 0.87284 0.16707
#
# Static dielectric constant tensor:
#      x y z
#    x 1.611470 0.000000 0.000000 
#    y 0.000000 1.597240 0.000000 
#    z 0.000000 0.000000 1.585310 
# 
# From -- ./inp_files/33845.got.cif
#   From: 2010.05.17/outbox.cif.g08.bks.cpg/sg51_17_cif.got.tgz:33845.got - 2010.06.03 11:52:47.
