data_PCOD9406224
_publ_section_title
;
Structure prediction by ZEFSAII (Michael W. Deem and Ramdas Pophale) SiO2 
 PCOD9406224
Probable space group: P M M A
;
_chemical_formula_sum "Si O2"
_cell_formula_units_Z 52
_cell_length_a 9.049277
_cell_length_b 12.485436
_cell_length_c 31.130968
_cell_angle_alpha 90.000000
_cell_angle_beta 90.000000
_cell_angle_gamma 90.000000
_cell_volume 3517.306544
_symmetry_space_group_name_H-M "P M M A"
_symmetry_group_IT_number 51
_symmetry_cell_setting 'orthorhombic'
loop_
_space_group_symop_operation_xyz
x,y,z
1/2-x,-y,z
1/2+x,-y,-z
-x,y,-z
-x,-y,-z
1/2+x,y,-z
1/2-x,y,z
x,-y,z
loop_
_atom_site_type_symbol
_atom_site_label
_atom_site_fract_x
_atom_site_fract_y
_atom_site_fract_z
Si Si1 0.420036 0.130521 0.956423
Si Si2 0.423993 0.627802 0.545671
Si Si3 0.079987 0.869459 0.130659
Si Si4 0.429344 0.000000 0.547454
Si Si5 0.926909 0.804216 0.600294
Si Si6 0.421549 0.130072 0.782910
Si Si7 0.074219 0.129017 0.686649
O O1 0.250000 0.162225 0.957298
O O2 0.494904 0.166000 0.912078
O O3 0.425700 0.000000 0.956366
O O4 0.500000 0.165979 0.000000
O O5 0.500000 0.653293 0.500000
O O6 0.250000 0.657027 0.545000
O O7 0.434345 0.500000 0.552055
O O8 0.511827 0.693430 0.581367
O O9 0.250000 0.838864 0.127593
O O10 0.011484 0.832464 0.175762
O O11 0.072695 0.000000 0.131080
O O12 0.500000 0.000000 0.500000
O O13 0.491081 0.103033 0.572925
O O14 0.250000 0.000000 0.546149
O O15 0.750000 0.813297 0.596001
O O16 0.978595 0.819214 0.649272
O O17 0.250000 0.159296 0.788189
O O18 0.469502 0.162925 0.735021
O O19 0.427692 0.000000 0.782704
O O20 0.250000 0.151025 0.680981
O O21 0.057637 0.000000 0.683597
#
# Coordination Sequence:
#
# PCOD9406224 Si02
#       7
#     8   8   8   4   8   8   8
#     4   9  15  21  28  37  51  72 100 138 184 234
#     4  10  21  38  58  76  94 118 147 178 212 251
#     4   9  15  21  29  42  59  80 108 144 186 231
#     4  12  24  38  52  68  94 122 150 178 209 252
#     4  12  23  34  50  73  97 120 146 177 215 256
#     4   8  14  24  37  51  67  92 124 155 191 233
#     4   9  17  30  46  62  84 114 142 171 206 249
#
# _framework density 14.784039999999999
#
# number of rings (size 3 to 8) (size 9 to 14) (size 15 to 20)
#    0.000    2.308    0.769    4.846    0.000    5.231 
#    0.000    1.538    0.000    0.000    0.000    0.000 
#    0.000    0.000    0.000    0.000    0.000    0.000 
#
# Total GULP energy -289816.164318 kJ/mol
# GULP energy per Si atom -5573.387775 kJ/mol
# Density = 1.475039 g / cm^3
# Si number density = 14.784040 Si / 1000 Ang^3
#
#
#
# Elastic Constant Matrix: (Units=GPa)
#
#
# Indices 1 2 3 4 5 6 
#
# 1 133.9148 22.5129 94.6889 0.0000 0.0000 0.0000
# 2 22.5129 14.2502 22.3182 0.0000 0.0000 0.0000
# 3 94.6889 22.3182 158.7508 0.0000 0.0000 0.0000
# 4 0.0000 0.0000 0.0000 5.6793 0.0000 0.0000
# 5 0.0000 0.0000 0.0000 0.0000 32.6721 0.0000
# 6 0.0000 0.0000 0.0000 0.0000 0.0000 12.5196
#
#
#
# Elastic Compliance Matrix: (Units=1/GPa)
#
#
# Indices 1 2 3 4 5 6 
#
# 1 0.014323 -0.011859 -0.006876 0.000000 0.000000 0.000000
# 2 -0.011859 0.099808 -0.006958 0.000000 0.000000 0.000000
# 3 -0.006876 -0.006958 0.011379 0.000000 0.000000 0.000000
# 4 0.000000 0.000000 0.000000 0.176079 0.000000 0.000000
# 5 0.000000 0.000000 0.000000 0.000000 0.030607 0.000000
# 6 0.000000 0.000000 0.000000 0.000000 0.000000 0.079875
#
#
# Mechanical properties :
#
#
# Convention : Reuss Voigt Hill
#
# Bulk Modulus (GPa) = 13.49109 65.10622 39.29865
# Shear Modulus (GPa) = 10.24246 21.33390 15.78818
#
# Velocity S-wave (km/s) = 2.63497 3.80285 3.27145
# Velocity P-wave (km/s) = 4.28984 7.96342 6.39604
#
# Compressibility (1/GPa) = 0.07412297
#
# Stress axis : x y z
#
# Youngs Moduli (GPa) = 69.81813 10.01929 87.88439
#
# Poissons Ratio (x) = 0.11882 0.60428
# Poissons Ratio (y) = 0.82798 0.61150
# Poissons Ratio (z) = 0.48006 0.06971
#
# Static dielectric constant tensor:
#      x y z
#    x 1.493500 0.000000 0.000000 
#    y 0.000000 1.462600 0.000000 
#    z 0.000000 0.000000 1.504850 
# 
# From -- ./inp_files/37323.got.cif
#   From: 2010.05.17/outbox.cif.g08.bks.cpg/sg51_19_cif.got.tgz:37323.got - 2010.06.03 11:52:47.
