data_PCOD9406502
_publ_section_title
;
Structure prediction by ZEFSAII (Michael W. Deem and Ramdas Pophale) SiO2 
 PCOD9406502
Probable space group: P M M A
;
_chemical_formula_sum "Si O2"
_cell_formula_units_Z 38
_cell_length_a 16.390907
_cell_length_b 12.350222
_cell_length_c 10.362379
_cell_angle_alpha 90.000000
_cell_angle_beta 90.000000
_cell_angle_gamma 90.000000
_cell_volume 2097.670269
_symmetry_space_group_name_H-M "P M M A"
_symmetry_group_IT_number 51
_symmetry_cell_setting 'orthorhombic'
loop_
_space_group_symop_operation_xyz
x,y,z
1/2-x,-y,z
1/2+x,-y,-z
-x,y,-z
-x,-y,-z
1/2+x,y,-z
1/2-x,y,z
x,-y,z
loop_
_atom_site_type_symbol
_atom_site_label
_atom_site_fract_x
_atom_site_fract_y
_atom_site_fract_z
Si Si1 0.079111 0.370282 0.412068
Si Si2 0.750000 0.184508 0.254814
Si Si3 0.574617 0.000000 0.603237
Si Si4 0.250000 0.000000 0.533653
Si Si5 0.750000 0.629333 0.444183
Si Si6 0.104187 0.129768 0.933651
Si Si7 0.062410 0.197934 0.198768
O O1 0.076613 0.500000 0.395935
O O2 0.165865 0.342805 0.480053
O O3 0.073530 0.308526 0.276286
O O4 0.000000 0.339578 0.500000
O O5 0.750000 0.105741 0.377192
O O6 0.750000 0.304945 0.311188
O O7 0.825843 0.155954 0.166266
O O8 0.500000 0.000000 0.500000
O O9 0.568147 0.895455 0.694216
O O10 0.664680 0.000000 0.542041
O O11 0.750000 0.500000 0.424996
O O12 0.024847 0.183441 0.869480
O O13 0.091985 0.000000 0.944176
O O14 0.121130 0.175588 0.076866
#
# Coordination Sequence:
#
# PCOD9406502 Si02
#       7
#     8   4   4   2   4   8   8
#     4  10  21  39  62  88 118 153 191 242 299 342
#     4  12  22  38  58  84 116 149 200 237 291 343
#     4  12  22  34  56  82 114 144 186 240 282 338
#     4  12  24  32  54  88 112 138 188 244 284 336
#     4  10  22  41  62  85 118 154 190 242 297 347
#     4  11  21  39  57  81 117 164 187 236 290 346
#     4  11  21  38  58  82 114 154 197 226 291 348
#
# _framework density 18.115335000000002
#
# number of rings (size 3 to 8) (size 9 to 14) (size 15 to 20)
#    0.000    1.053    3.158    5.053    0.000    1.684 
#    0.000    3.158    0.000    0.000    0.000    0.000 
#    0.000    0.000    0.000    0.000    0.000    0.000 
#
# Total GULP energy -212138.397295 kJ/mol
# GULP energy per Si atom -5582.589403 kJ/mol
# Density = 1.807410 g / cm^3
# Si number density = 18.115335 Si / 1000 Ang^3
#
#
#
# Elastic Constant Matrix: (Units=GPa)
#
#
# Indices 1 2 3 4 5 6 
#
# 1 113.9917 22.9479 55.5438 0.0000 0.0000 0.0000
# 2 22.9479 53.4620 42.7400 0.0000 0.0000 0.0000
# 3 55.5438 42.7400 129.3160 0.0000 0.0000 0.0000
# 4 0.0000 0.0000 0.0000 26.2424 0.0000 0.0000
# 5 0.0000 0.0000 0.0000 0.0000 31.5097 0.0000
# 6 0.0000 0.0000 0.0000 0.0000 0.0000 15.9456
#
#
#
# Elastic Compliance Matrix: (Units=1/GPa)
#
#
# Indices 1 2 3 4 5 6 
#
# 1 0.011161 -0.001302 -0.004363 0.000000 0.000000 0.000000
# 2 -0.001302 0.025574 -0.007893 0.000000 0.000000 0.000000
# 3 -0.004363 -0.007893 0.012216 0.000000 0.000000 0.000000
# 4 0.000000 0.000000 0.000000 0.038106 0.000000 0.000000
# 5 0.000000 0.000000 0.000000 0.000000 0.031736 0.000000
# 6 0.000000 0.000000 0.000000 0.000000 0.000000 0.062713
#
#
# Mechanical properties :
#
#
# Convention : Reuss Voigt Hill
#
# Bulk Modulus (GPa) = 45.80193 59.91481 52.85837
# Shear Modulus (GPa) = 23.15870 26.44207 24.80039
#
# Velocity S-wave (km/s) = 3.57936 3.82468 3.70405
# Velocity P-wave (km/s) = 6.51312 7.25604 6.89460
#
# Compressibility (1/GPa) = 0.02183314
#
# Stress axis : x y z
#
# Youngs Moduli (GPa) = 89.59891 39.10233 81.86091
#
# Poissons Ratio (x) = 0.05093 0.35719
# Poissons Ratio (y) = 0.11669 0.64613
# Poissons Ratio (z) = 0.39095 0.30863
#
# Static dielectric constant tensor:
#      x y z
#    x 1.680690 0.000000 0.000000 
#    y 0.000000 1.621060 0.000000 
#    z 0.000000 0.000000 1.607920 
# 
# From -- ./inp_files/9326.got.cif
#   From: 2010.05.17/outbox.cif.g08.bks.cpg/sg51_5_cif.got.tgz:9326.got - 2010.06.03 11:52:47.
