data_PCOD9406328
_publ_section_title
;
Structure prediction by ZEFSAII (Michael W. Deem and Ramdas Pophale) SiO2 
 PCOD9406328
Probable space group: P M M A
;
_chemical_formula_sum "Si O2"
_cell_formula_units_Z 48
_cell_length_a 8.058068
_cell_length_b 32.905159
_cell_length_c 9.383344
_cell_angle_alpha 90.000000
_cell_angle_beta 90.000000
_cell_angle_gamma 90.000000
_cell_volume 2488.012511
_symmetry_space_group_name_H-M "P M M A"
_symmetry_group_IT_number 51
_symmetry_cell_setting 'orthorhombic'
loop_
_space_group_symop_operation_xyz
x,y,z
1/2-x,-y,z
1/2+x,-y,-z
-x,y,-z
-x,-y,-z
1/2+x,y,-z
1/2-x,y,z
x,-y,z
loop_
_atom_site_type_symbol
_atom_site_label
_atom_site_fract_x
_atom_site_fract_y
_atom_site_fract_z
Si Si1 0.549216 0.701455 0.335892
Si Si2 0.450624 0.956286 0.832737
Si Si3 0.950264 0.868965 0.166707
Si Si4 0.552114 0.454422 0.661699
Si Si5 0.450630 0.219600 0.834363
Si Si6 0.552904 0.623305 0.163059
O O1 0.500000 0.700753 0.500000
O O2 0.750000 0.701511 0.328185
O O3 0.488974 0.742302 0.257149
O O4 0.485952 0.661292 0.254571
O O5 0.250000 0.956307 0.824948
O O6 0.509886 0.912590 0.773119
O O7 0.509774 0.000000 0.773326
O O8 0.500000 0.956268 0.000000
O O9 0.750000 0.869114 0.175929
O O10 0.009052 0.824893 0.220469
O O11 0.000000 0.869009 0.000000
O O12 0.500000 0.444496 0.500000
O O13 0.750000 0.455917 0.665910
O O14 0.487375 0.500000 0.694641
O O15 0.495992 0.419431 0.767540
O O16 0.250000 0.219481 0.829327
O O17 0.500000 0.224082 0.000000
O O18 0.750000 0.625885 0.168112
O O19 0.500000 0.626185 0.000000
#
# Coordination Sequence:
#
# PCOD9406328 Si02
#       6
#     8   8   8   8   8   8
#     4  10  22  37  53  74  99 128 162 201 245 293
#     4   8  12  17  26  43  69 102 138 173 212 261
#     4   8  13  21  34  52  77 109 142 179 222 269
#     4  10  21  38  60  85 113 145 179 214 252 294
#     4   9  17  30  47  68  93 121 155 193 236 285
#     4  11  23  38  57  81 108 138 172 210 253 299
#
# _framework density 19.292508000000002
#
# number of rings (size 3 to 8) (size 9 to 14) (size 15 to 20)
#    0.000    2.667    0.000    2.000    0.000    4.667 
#    0.000    0.000    0.000    0.000    0.000    0.000 
#    0.000    0.667    0.000    0.500    0.000   10.000 
#
# Total GULP energy -267409.431591 kJ/mol
# GULP energy per Si atom -5571.029825 kJ/mol
# Density = 1.924860 g / cm^3
# Si number density = 19.292508 Si / 1000 Ang^3
#
#
#
# Elastic Constant Matrix: (Units=GPa)
#
#
# Indices 1 2 3 4 5 6 
#
# 1 19.8885 16.7225 4.7804 0.0000 0.0000 0.0000
# 2 16.7225 207.8541 98.3086 0.0000 0.0000 0.0000
# 3 4.7804 98.3086 88.2679 0.0000 0.0000 0.0000
# 4 0.0000 0.0000 0.0000 -10.7031 0.0000 0.0000
# 5 0.0000 0.0000 0.0000 0.0000 23.6143 0.0000
# 6 0.0000 0.0000 0.0000 0.0000 0.0000 54.1189
#
#
#
# Elastic Compliance Matrix: (Units=1/GPa)
#
#
# Indices 1 2 3 4 5 6 
#
# 1 0.054619 -0.006329 0.004091 0.000000 0.000000 0.000000
# 2 -0.006329 0.010900 -0.011797 0.000000 0.000000 0.000000
# 3 0.004091 -0.011797 0.024247 0.000000 0.000000 0.000000
# 4 0.000000 0.000000 0.000000 -0.093431 0.000000 0.000000
# 5 0.000000 0.000000 0.000000 0.000000 0.042347 0.000000
# 6 0.000000 0.000000 0.000000 0.000000 0.000000 0.018478
#
#
# Mechanical properties :
#
#
# Convention : Reuss Voigt Hill
#
# Bulk Modulus (GPa) = 16.20881 61.73706 38.97294
# Shear Modulus (GPa) = 47.26133 26.48593 36.87363
#
# Velocity S-wave (km/s) = 4.95484 3.70923 4.37658
# Velocity P-wave (km/s) = 6.41512 7.10032 6.76640
#
# Compressibility (1/GPa) = 0.06169483
#
# Stress axis : x y z
#
# Youngs Moduli (GPa) = 18.30879 91.74394 41.24299
#
# Poissons Ratio (x) = 0.58067 -0.16873
# Poissons Ratio (y) = 0.11588 0.48654
# Poissons Ratio (z) = -0.07490 1.08231
#
# Static dielectric constant tensor:
#      x y z
#    x 1.695060 0.000000 0.000000 
#    y 0.000000 1.772370 0.000000 
#    z 0.000000 0.000000 1.608030 
# 
# From -- ./inp_files/5973.got.cif
#   From: 2010.05.17/outbox.cif.g08.bks.cpg/sg51_3_cif.got.tgz:5973.got - 2010.06.03 11:52:47.
