data_PCOD9406154
_publ_section_title
;
Structure prediction by ZEFSAII (Michael W. Deem and Ramdas Pophale) SiO2 
 PCOD9406154
Probable space group: P M M A
;
_chemical_formula_sum "Si O2"
_cell_formula_units_Z 48
_cell_length_a 20.506289
_cell_length_b 7.523875
_cell_length_c 15.675299
_cell_angle_alpha 90.000000
_cell_angle_beta 90.000000
_cell_angle_gamma 90.000000
_cell_volume 2418.491019
_symmetry_space_group_name_H-M "P M M A"
_symmetry_group_IT_number 51
_symmetry_cell_setting 'orthorhombic'
loop_
_space_group_symop_operation_xyz
x,y,z
1/2-x,-y,z
1/2+x,-y,-z
-x,y,-z
-x,-y,-z
1/2+x,y,-z
1/2-x,y,z
x,-y,z
loop_
_atom_site_type_symbol
_atom_site_label
_atom_site_fract_x
_atom_site_fract_y
_atom_site_fract_z
Si Si1 0.945154 0.706168 0.063713
Si Si2 0.872868 0.204191 0.770003
Si Si3 0.822202 0.215137 0.952441
Si Si4 0.172639 0.500000 0.545744
Si Si5 0.822583 0.500000 0.655568
Si Si6 0.521102 0.285985 0.244153
Si Si7 0.939698 0.795092 0.435668
O O1 0.964880 0.500000 0.075275
O O2 0.877736 0.716782 0.014244
O O3 0.937972 0.773067 0.160854
O O4 0.000000 0.786754 0.000000
O O5 0.857082 0.325977 0.690362
O O6 0.949329 0.226472 0.784184
O O7 0.855435 0.000000 0.754849
O O8 0.837047 0.269029 0.855214
O O9 0.750000 0.271021 0.977470
O O10 0.825453 0.000000 0.953123
O O11 0.250000 0.500000 0.578550
O O12 0.179430 0.500000 0.444597
O O13 0.124756 0.669331 0.564082
O O14 0.750000 0.500000 0.691424
O O15 0.524260 0.500000 0.254638
O O16 0.536208 0.210166 0.337372
O O17 0.000000 0.738855 0.500000
O O18 0.924121 0.000000 0.459025
#
# Coordination Sequence:
#
# PCOD9406154 Si02
#       7
#     8   8   8   4   4   8   8
#     4  10  21  37  58  89 121 158 208 255 303 368
#     4  11  22  37  59  92 128 162 205 256 315 382
#     4  10  22  38  56  82 122 168 209 255 310 371
#     4  11  25  45  67  94 132 176 217 267 331 395
#     4  11  24  39  61  89 123 170 207 248 317 381
#     4  11  21  38  65  92 123 162 208 262 322 382
#     4  11  24  43  70 102 131 166 217 277 334 388
#
# _framework density 19.847086000000001
#
# number of rings (size 3 to 8) (size 9 to 14) (size 15 to 20)
#    0.000    1.333    3.333    2.250    1.167    5.333 
#    0.000    2.500    0.000    0.000    0.000    0.000 
#    0.000    0.000    0.000    0.000    0.000    0.000 
#
# Total GULP energy -267744.039387 kJ/mol
# GULP energy per Si atom -5578.000821 kJ/mol
# Density = 1.980191 g / cm^3
# Si number density = 19.847086 Si / 1000 Ang^3
#
#
#
# Elastic Constant Matrix: (Units=GPa)
#
#
# Indices 1 2 3 4 5 6 
#
# 1 113.2148 14.6055 31.5813 0.0000 0.0000 0.0000
# 2 14.6055 82.1757 8.0269 0.0000 0.0000 0.0000
# 3 31.5813 8.0269 108.9420 0.0000 0.0000 0.0000
# 4 0.0000 0.0000 0.0000 9.9950 0.0000 0.0000
# 5 0.0000 0.0000 0.0000 0.0000 32.4721 0.0000
# 6 0.0000 0.0000 0.0000 0.0000 0.0000 27.0724
#
#
#
# Elastic Compliance Matrix: (Units=1/GPa)
#
#
# Indices 1 2 3 4 5 6 
#
# 1 0.009784 -0.001472 -0.002728 0.000000 0.000000 0.000000
# 2 -0.001472 0.012479 -0.000493 0.000000 0.000000 0.000000
# 3 -0.002728 -0.000493 0.010006 0.000000 0.000000 0.000000
# 4 0.000000 0.000000 0.000000 0.100050 0.000000 0.000000
# 5 0.000000 0.000000 0.000000 0.000000 0.030796 0.000000
# 6 0.000000 0.000000 0.000000 0.000000 0.000000 0.036938
#
#
# Mechanical properties :
#
#
# Convention : Reuss Voigt Hill
#
# Bulk Modulus (GPa) = 43.70016 45.86224 44.78120
# Shear Modulus (GPa) = 23.03449 30.58248 26.80848
#
# Velocity S-wave (km/s) = 3.41045 3.92970 3.67924
# Velocity P-wave (km/s) = 6.12980 6.61422 6.37661
#
# Compressibility (1/GPa) = 0.02288321
#
# Stress axis : x y z
#
# Youngs Moduli (GPa) = 102.21172 80.13548 99.93782
#
# Poissons Ratio (x) = 0.11800 0.27260
# Poissons Ratio (y) = 0.15050 0.04923
# Poissons Ratio (z) = 0.27880 0.03947
#
# Static dielectric constant tensor:
#      x y z
#    x 1.689520 0.000000 0.000000 
#    y 0.000000 1.738780 0.000000 
#    z 0.000000 0.000000 1.685890 
# 
# From -- ./inp_files/24907.got.cif
#   From: 2010.05.17/outbox.cif.g08.bks.cpg/sg51_13_cif.got.tgz:24907.got - 2010.06.03 11:52:47.
