data_PCOD9406756
_publ_section_title
;
Structure prediction by ZEFSAII (Michael W. Deem and Ramdas Pophale) SiO2 
 PCOD9406756
Probable space group: P M M A
;
_chemical_formula_sum "Si O2"
_cell_formula_units_Z 40
_cell_length_a 23.069083
_cell_length_b 7.894580
_cell_length_c 11.199064
_cell_angle_alpha 90.000000
_cell_angle_beta 90.000000
_cell_angle_gamma 90.000000
_cell_volume 2039.581613
_symmetry_space_group_name_H-M "P M M A"
_symmetry_group_IT_number 51
_symmetry_cell_setting 'orthorhombic'
loop_
_space_group_symop_operation_xyz
x,y,z
1/2-x,-y,z
1/2+x,-y,-z
-x,y,-z
-x,-y,-z
1/2+x,y,-z
1/2-x,y,z
x,-y,z
loop_
_atom_site_type_symbol
_atom_site_label
_atom_site_fract_x
_atom_site_fract_y
_atom_site_fract_z
Si Si1 0.873403 0.195546 0.234931
Si Si2 0.129130 0.796913 0.267853
Si Si3 0.567281 0.795958 0.485200
Si Si4 0.444433 0.500000 0.161366
Si Si5 0.432300 0.500000 0.882605
Si Si6 0.250000 0.297744 0.853233
Si Si7 0.750000 0.797251 0.863809
O O1 0.899907 0.249788 0.362833
O O2 0.899013 0.328229 0.142824
O O3 0.805282 0.216624 0.212348
O O4 0.889779 0.000000 0.214538
O O5 0.110966 0.758347 0.405025
O O6 0.086059 0.672025 0.200354
O O7 0.192855 0.754313 0.214859
O O8 0.120433 0.000000 0.249909
O O9 0.500000 0.732687 0.500000
O O10 0.562232 0.000000 0.483087
O O11 0.510885 0.500000 0.199458
O O12 0.444079 0.500000 0.020660
O O13 0.250000 0.500000 0.834759
O O14 0.250000 0.269906 0.998697
O O15 0.750000 0.000000 0.877187
#
# Coordination Sequence:
#
# PCOD9406756 Si02
#       7
#     8   8   8   4   4   4   4
#     4  11  23  41  66  93 126 166 209 259 316 375
#     4  10  22  40  62  92 125 162 213 263 311 378
#     4   9  19  38  65  94 126 167 209 255 315 373
#     4  11  24  38  60  89 122 170 208 261 322 375
#     4  11  24  40  58  91 126 160 218 259 314 377
#     4  12  24  41  64  91 130 168 210 262 311 376
#     4  10  22  39  64  92 123 169 214 257 322 374
#
# _framework density 19.611865999999999
#
# number of rings (size 3 to 8) (size 9 to 14) (size 15 to 20)
#    0.000    1.600    1.000    3.300    1.400    6.400 
#    0.000    7.000    0.000    0.000    0.000    0.000 
#    0.000    0.000    0.000    0.000    0.000    0.000 
#
# Total GULP energy -222861.382576 kJ/mol
# GULP energy per Si atom -5571.534564 kJ/mol
# Density = 1.956723 g / cm^3
# Si number density = 19.611866 Si / 1000 Ang^3
#
#
#
# Elastic Constant Matrix: (Units=GPa)
#
#
# Indices 1 2 3 4 5 6 
#
# 1 89.1352 9.8009 10.5981 0.0000 0.0000 0.0000
# 2 9.8009 68.4688 11.6278 0.0000 0.0000 0.0000
# 3 10.5981 11.6278 97.7623 0.0000 0.0000 0.0000
# 4 0.0000 0.0000 0.0000 20.9089 0.0000 0.0000
# 5 0.0000 0.0000 0.0000 0.0000 32.2690 0.0000
# 6 0.0000 0.0000 0.0000 0.0000 0.0000 -5.7764
#
#
#
# Elastic Compliance Matrix: (Units=1/GPa)
#
#
# Indices 1 2 3 4 5 6 
#
# 1 0.011508 -0.001465 -0.001073 0.000000 0.000000 0.000000
# 2 -0.001465 0.015093 -0.001636 0.000000 0.000000 0.000000
# 3 -0.001073 -0.001636 0.010540 0.000000 0.000000 0.000000
# 4 0.000000 0.000000 0.000000 0.047826 0.000000 0.000000
# 5 0.000000 0.000000 0.000000 0.000000 0.030989 0.000000
# 6 0.000000 0.000000 0.000000 0.000000 0.000000 -0.173118
#
#
# Mechanical properties :
#
#
# Convention : Reuss Voigt Hill
#
# Bulk Modulus (GPa) = 34.73287 35.49107 35.11197
# Shear Modulus (GPa) = -127.50045 24.36962 -51.56541
#
# Velocity S-wave (km/s) = -8.07174 3.52887 -5.13323
# Velocity P-wave (km/s) = 8.31397 5.89406 4.14621
#
# Compressibility (1/GPa) = 0.02879117
#
# Stress axis : x y z
#
# Youngs Moduli (GPa) = 86.89912 66.25681 94.87787
#
# Poissons Ratio (x) = 0.09706 0.10183
# Poissons Ratio (y) = 0.12730 0.15525
# Poissons Ratio (z) = 0.09326 0.10842
#
# Static dielectric constant tensor:
#      x y z
#    x 1.734350 0.000000 0.000000 
#    y 0.000000 1.830760 0.000000 
#    z 0.000000 0.000000 1.695710 
# 
# From -- ./inp_files/18012.got.cif
#   From: 2010.05.17/outbox.cif.g08.bks.cpg/sg51_10_cif.got.tgz:18012.got - 2010.06.03 11:52:47.
