data_PCOD9406169
_publ_section_title
;
Structure prediction by ZEFSAII (Michael W. Deem and Ramdas Pophale) SiO2 
 PCOD9406169
Probable space group: P M M A
;
_chemical_formula_sum "Si O2"
_cell_formula_units_Z 48
_cell_length_a 17.673581
_cell_length_b 14.107089
_cell_length_c 9.639367
_cell_angle_alpha 90.000000
_cell_angle_beta 90.000000
_cell_angle_gamma 90.000000
_cell_volume 2403.313779
_symmetry_space_group_name_H-M "P M M A"
_symmetry_group_IT_number 51
_symmetry_cell_setting 'orthorhombic'
loop_
_space_group_symop_operation_xyz
x,y,z
1/2-x,-y,z
1/2+x,-y,-z
-x,y,-z
-x,-y,-z
1/2+x,y,-z
1/2-x,y,z
x,-y,z
loop_
_atom_site_type_symbol
_atom_site_label
_atom_site_fract_x
_atom_site_fract_y
_atom_site_fract_z
Si Si1 0.105347 0.720268 0.746619
Si Si2 0.340445 0.107374 0.240957
Si Si3 0.833029 0.613780 0.996828
Si Si4 0.413643 0.890734 0.949485
Si Si5 0.447221 0.388254 0.243937
Si Si6 0.660195 0.718005 0.565557
O O1 0.099911 0.821165 0.822572
O O2 0.141195 0.727175 0.595668
O O3 0.022661 0.672416 0.738399
O O4 0.153439 0.655845 0.852086
O O5 0.250000 0.103320 0.248036
O O6 0.364367 0.187139 0.350392
O O7 0.370119 0.000000 0.267490
O O8 0.364110 0.133690 0.084844
O O9 0.750000 0.643955 0.942986
O O10 0.833544 0.500000 0.002621
O O11 0.901718 0.640515 0.895433
O O12 0.398175 0.000000 0.912649
O O13 0.500000 0.882967 0.000000
O O14 0.465153 0.500000 0.236480
O O15 0.388830 0.366110 0.367491
O O16 0.750000 0.703915 0.584955
#
# Coordination Sequence:
#
# PCOD9406169 Si02
#       6
#     8   8   8   8   8   8
#     4  12  23  37  59  89 122 153 188 241 299 346
#     4   9  19  38  62  85 113 153 197 235 276 337
#     4  10  21  38  61  87 114 148 192 241 291 343
#     4  10  21  37  59  87 116 149 191 237 286 342
#     4  11  24  42  62  83 112 155 202 240 282 346
#     4  11  24  39  58  86 118 154 194 238 292 347
#
# _framework density 19.972422999999999
#
# number of rings (size 3 to 8) (size 9 to 14) (size 15 to 20)
#    0.000    1.500    0.000    5.500    0.000    7.667 
#    0.000    0.000    0.000    5.000    0.000    0.000 
#    0.000    0.000    0.000    0.000    0.000    0.000 
#
# Total GULP energy -268386.771786 kJ/mol
# GULP energy per Si atom -5591.391079 kJ/mol
# Density = 1.992696 g / cm^3
# Si number density = 19.972423 Si / 1000 Ang^3
#
#
#
# Elastic Constant Matrix: (Units=GPa)
#
#
# Indices 1 2 3 4 5 6 
#
# 1 63.3182 17.5405 9.1717 0.0000 0.0000 0.0000
# 2 17.5405 61.3842 17.5331 0.0000 0.0000 0.0000
# 3 9.1717 17.5331 95.9867 0.0000 0.0000 0.0000
# 4 0.0000 0.0000 0.0000 -2.1659 0.0000 0.0000
# 5 0.0000 0.0000 0.0000 0.0000 20.6734 0.0000
# 6 0.0000 0.0000 0.0000 0.0000 0.0000 15.3699
#
#
#
# Elastic Compliance Matrix: (Units=1/GPa)
#
#
# Indices 1 2 3 4 5 6 
#
# 1 0.017207 -0.004692 -0.000787 0.000000 0.000000 0.000000
# 2 -0.004692 0.018467 -0.002925 0.000000 0.000000 0.000000
# 3 -0.000787 -0.002925 0.011028 0.000000 0.000000 0.000000
# 4 0.000000 0.000000 0.000000 -0.461710 0.000000 0.000000
# 5 0.000000 0.000000 0.000000 0.000000 0.048371 0.000000
# 6 0.000000 0.000000 0.000000 0.000000 0.000000 0.065062
#
#
# Mechanical properties :
#
#
# Convention : Reuss Voigt Hill
#
# Bulk Modulus (GPa) = 33.45207 34.35333 33.90270
# Shear Modulus (GPa) = -18.19493 18.53840 0.17173
#
# Velocity S-wave (km/s) = -3.02156 3.04994 0.29355
# Velocity P-wave (km/s) = 2.14765 5.44432 4.13842
#
# Compressibility (1/GPa) = 0.02989351
#
# Stress axis : x y z
#
# Youngs Moduli (GPa) = 58.11563 54.15053 90.68173
#
# Poissons Ratio (x) = 0.25408 0.07138
# Poissons Ratio (y) = 0.27268 0.26523
# Poissons Ratio (z) = 0.04574 0.15838
#
# Static dielectric constant tensor:
#      x y z
#    x 1.699650 0.000000 0.000000 
#    y 0.000000 1.732950 0.000000 
#    z 0.000000 0.000000 1.670560 
# 
# From -- ./inp_files/9574.got.cif
#   From: 2010.05.17/outbox.cif.g08.bks.cpg/sg51_5_cif.got.tgz:9574.got - 2010.06.03 11:52:47.
