data_PCOD9406610
_publ_section_title
;
Structure prediction by ZEFSAII (Michael W. Deem and Ramdas Pophale) SiO2 
 PCOD9406610
Probable space group: P M M A
;
_chemical_formula_sum "Si O2"
_cell_formula_units_Z 56
_cell_length_a 14.039170
_cell_length_b 20.709848
_cell_length_c 10.137112
_cell_angle_alpha 90.000000
_cell_angle_beta 90.000000
_cell_angle_gamma 90.000000
_cell_volume 2947.355955
_symmetry_space_group_name_H-M "P M M A"
_symmetry_group_IT_number 51
_symmetry_cell_setting 'orthorhombic'
loop_
_space_group_symop_operation_xyz
x,y,z
1/2-x,-y,z
1/2+x,-y,-z
-x,y,-z
-x,-y,-z
1/2+x,y,-z
1/2-x,y,z
x,-y,z
loop_
_atom_site_type_symbol
_atom_site_label
_atom_site_fract_x
_atom_site_fract_y
_atom_site_fract_z
Si Si1 0.520048 0.846180 0.341557
Si Si2 0.863981 0.570675 0.313509
Si Si3 0.137667 0.840000 0.118062
Si Si4 0.137436 0.305565 0.147998
Si Si5 0.135689 0.074664 0.862424
Si Si6 0.471403 0.703420 0.647663
Si Si7 0.864434 0.567959 0.003016
O O1 0.500000 0.854995 0.500000
O O2 0.423900 0.849494 0.251305
O O3 0.587912 0.897608 0.270006
O O4 0.565565 0.774680 0.311780
O O5 0.750000 0.573374 0.332639
O O6 0.896163 0.500000 0.368709
O O7 0.908541 0.638843 0.353643
O O8 0.883986 0.568170 0.157417
O O9 0.250000 0.850956 0.145159
O O10 0.126176 0.764284 0.081016
O O11 0.109912 0.883885 0.993242
O O12 0.250000 0.312142 0.181146
O O13 0.067836 0.307782 0.271342
O O14 0.105216 0.365555 0.060036
O O15 0.250000 0.078813 0.850247
O O16 0.108984 0.000000 0.881889
O O17 0.500000 0.714956 0.500000
O O18 0.750000 0.567352 0.989965
O O19 0.899768 0.500000 0.943532
#
# Coordination Sequence:
#
# PCOD9406610 Si02
#       7
#     8   8   8   8   8   8   8
#     4  10  22  38  57  85 119 155 192 231 282 338
#     4   9  19  35  53  74 103 139 180 228 279 328
#     4   9  19  36  58  83 114 151 190 235 285 337
#     4   9  18  33  53  76 104 137 176 221 272 327
#     4  10  22  40  62  89 117 147 188 234 280 334
#     4  10  22  36  51  76 107 142 184 225 264 320
#     4   8  15  29  49  74 101 128 166 217 272 325
#
# _framework density 19.000080000000001
#
# number of rings (size 3 to 8) (size 9 to 14) (size 15 to 20)
#    0.000    2.714    0.000    1.286    2.000    4.571 
#    0.000    4.286    0.000    3.429    0.000    0.000 
#    0.000    0.000    0.000    0.000    0.000    0.000 
#
# Total GULP energy -311739.896729 kJ/mol
# GULP energy per Si atom -5566.783870 kJ/mol
# Density = 1.895684 g / cm^3
# Si number density = 19.000080 Si / 1000 Ang^3
#
#
#
# Elastic Constant Matrix: (Units=GPa)
#
#
# Indices 1 2 3 4 5 6 
#
# 1 49.5435 27.6204 10.1811 0.0000 0.0000 0.0000
# 2 27.6204 110.6140 37.6585 0.0000 0.0000 0.0000
# 3 10.1811 37.6585 68.6202 0.0000 0.0000 0.0000
# 4 0.0000 0.0000 0.0000 103.8433 0.0000 0.0000
# 5 0.0000 0.0000 0.0000 0.0000 75.8037 0.0000
# 6 0.0000 0.0000 0.0000 0.0000 0.0000 22.2513
#
#
#
# Elastic Compliance Matrix: (Units=1/GPa)
#
#
# Indices 1 2 3 4 5 6 
#
# 1 0.023454 -0.005745 -0.000327 0.000000 0.000000 0.000000
# 2 -0.005745 0.012525 -0.006021 0.000000 0.000000 0.000000
# 3 -0.000327 -0.006021 0.017926 0.000000 0.000000 0.000000
# 4 0.000000 0.000000 0.000000 0.009630 0.000000 0.000000
# 5 0.000000 0.000000 0.000000 0.000000 0.013192 0.000000
# 6 0.000000 0.000000 0.000000 0.000000 0.000000 0.044941
#
#
# Mechanical properties :
#
#
# Convention : Reuss Voigt Hill
#
# Bulk Modulus (GPa) = 33.64913 42.18864 37.91888
# Shear Modulus (GPa) = 32.10035 50.60083 41.35059
#
# Velocity S-wave (km/s) = 4.11479 5.16621 4.67018
# Velocity P-wave (km/s) = 6.35010 7.60519 7.00581
#
# Compressibility (1/GPa) = 0.02971845
#
# Stress axis : x y z
#
# Youngs Moduli (GPa) = 42.63579 79.84040 55.78515
#
# Poissons Ratio (x) = 0.45871 0.01824
# Poissons Ratio (y) = 0.24496 0.33590
# Poissons Ratio (z) = 0.01394 0.48074
#
# Static dielectric constant tensor:
#      x y z
#    x 1.687060 0.000000 0.000000 
#    y 0.000000 1.741850 0.000000 
#    z 0.000000 0.000000 1.673330 
# 
# From -- ./inp_files/8546.got.cif
#   From: 2010.05.17/outbox.cif.g08.bks.cpg/sg51_5_cif.got.tgz:8546.got - 2010.06.03 11:52:47.
