data_PCOD9406130
_publ_section_title
;
Structure prediction by ZEFSAII (Michael W. Deem and Ramdas Pophale) SiO2 
 PCOD9406130
Probable space group: P M M A
;
_chemical_formula_sum "Si O2"
_cell_formula_units_Z 64
_cell_length_a 8.249350
_cell_length_b 30.768941
_cell_length_c 14.540511
_cell_angle_alpha 90.000000
_cell_angle_beta 90.000000
_cell_angle_gamma 90.000000
_cell_volume 3690.727224
_symmetry_space_group_name_H-M "P M M A"
_symmetry_group_IT_number 51
_symmetry_cell_setting 'orthorhombic'
loop_
_space_group_symop_operation_xyz
x,y,z
1/2-x,-y,z
1/2+x,-y,-z
-x,y,-z
-x,-y,-z
1/2+x,y,-z
1/2-x,y,z
x,-y,z
loop_
_atom_site_type_symbol
_atom_site_label
_atom_site_fract_x
_atom_site_fract_y
_atom_site_fract_z
Si Si1 0.557170 0.717453 0.105724
Si Si2 0.560845 0.365061 0.590414
Si Si3 0.440933 0.630109 0.786884
Si Si4 0.553245 0.143150 0.607341
Si Si5 0.055808 0.452141 0.105103
Si Si6 0.054563 0.953477 0.393969
Si Si7 0.565304 0.215838 0.750704
Si Si8 0.936130 0.730247 0.403721
O O1 0.750000 0.714324 0.105135
O O2 0.498507 0.674659 0.163143
O O3 0.511895 0.762113 0.159235
O O4 0.500000 0.716742 0.000000
O O5 0.500000 0.390554 0.500000
O O6 0.750000 0.354737 0.579759
O O7 0.530496 0.381958 0.692217
O O8 0.453501 0.321237 0.590459
O O9 0.250000 0.636392 0.767903
O O10 0.468325 0.588849 0.850966
O O11 0.500000 0.149875 0.500000
O O12 0.750000 0.145957 0.605638
O O13 0.501804 0.094342 0.637748
O O14 0.495375 0.176745 0.686469
O O15 0.250000 0.446349 0.110349
O O16 0.016505 0.500000 0.145569
O O17 0.000000 0.453345 0.000000
O O18 0.250000 0.953329 0.390054
O O19 0.000000 0.954478 0.500000
O O20 0.998846 0.000000 0.352533
O O21 0.750000 0.204566 0.773058
O O22 0.551999 0.254426 0.676660
O O23 0.750000 0.742394 0.386286
O O24 0.000000 0.748699 0.500000
#
# Coordination Sequence:
#
# PCOD9406130 Si02
#       8
#     8   8   8   8   8   8   8   8
#     4  11  24  39  55  74  99 129 167 209 250 300
#     4  11  21  34  53  76 105 136 170 209 248 290
#     4  11  22  37  58  83 109 137 172 209 249 300
#     4   9  18  29  43  67  96 130 170 208 248 295
#     4  10  21  37  58  85 114 142 173 211 257 307
#     4   8  13  23  39  59  87 123 162 203 245 290
#     4  11  21  33  48  67  95 130 167 208 250 295
#     4  11  20  31  46  67  95 128 167 205 245 288
#
# _framework density 17.340755999999999
#
# number of rings (size 3 to 8) (size 9 to 14) (size 15 to 20)
#    0.000    1.750    1.250    5.250    0.000    5.250 
#    0.000    0.000    0.000    0.375    0.000    0.000 
#    0.000    0.500    0.000    0.875    0.000    1.500 
#
# Total GULP energy -356323.147822 kJ/mol
# GULP energy per Si atom -5567.549185 kJ/mol
# Density = 1.730129 g / cm^3
# Si number density = 17.340756 Si / 1000 Ang^3
#
#
#
# Elastic Constant Matrix: (Units=GPa)
#
#
# Indices 1 2 3 4 5 6 
#
# 1 50.3445 11.7655 16.3004 0.0000 0.0000 0.0000
# 2 11.7655 95.7129 39.9797 0.0000 0.0000 0.0000
# 3 16.3004 39.9797 98.4324 0.0000 0.0000 0.0000
# 4 0.0000 0.0000 0.0000 15.8507 0.0000 0.0000
# 5 0.0000 0.0000 0.0000 0.0000 25.6158 0.0000
# 6 0.0000 0.0000 0.0000 0.0000 0.0000 13.0109
#
#
#
# Elastic Compliance Matrix: (Units=1/GPa)
#
#
# Indices 1 2 3 4 5 6 
#
# 1 0.021136 -0.001368 -0.002944 0.000000 0.000000 0.000000
# 2 -0.001368 0.012671 -0.004920 0.000000 0.000000 0.000000
# 3 -0.002944 -0.004920 0.012645 0.000000 0.000000 0.000000
# 4 0.000000 0.000000 0.000000 0.063089 0.000000 0.000000
# 5 0.000000 0.000000 0.000000 0.000000 0.039038 0.000000
# 6 0.000000 0.000000 0.000000 0.000000 0.000000 0.076858
#
#
# Mechanical properties :
#
#
# Convention : Reuss Voigt Hill
#
# Bulk Modulus (GPa) = 35.73057 42.28679 39.00868
# Shear Modulus (GPa) = 19.74469 22.65843 21.20156
#
# Velocity S-wave (km/s) = 3.37802 3.61869 3.50042
# Velocity P-wave (km/s) = 5.98869 6.47292 6.23550
#
# Compressibility (1/GPa) = 0.02798724
#
# Stress axis : x y z
#
# Youngs Moduli (GPa) = 47.31214 78.91901 79.08147
#
# Poissons Ratio (x) = 0.10798 0.23285
# Poissons Ratio (y) = 0.06474 0.38908
# Poissons Ratio (z) = 0.13931 0.38828
#
# Static dielectric constant tensor:
#      x y z
#    x 1.599200 0.000000 0.000000 
#    y 0.000000 1.640110 0.000000 
#    z 0.000000 0.000000 1.633510 
# 
# From -- ./inp_files/22583.got.cif
#   From: 2010.05.17/outbox.cif.g08.bks.cpg/sg51_12_cif.got.tgz:22583.got - 2010.06.03 11:52:47.
