data_PCOD9406118
_publ_section_title
;
Structure prediction by ZEFSAII (Michael W. Deem and Ramdas Pophale) SiO2 
 PCOD9406118
Probable space group: P M M A
;
_chemical_formula_sum "Si O2"
_cell_formula_units_Z 56
_cell_length_a 23.592045
_cell_length_b 7.753572
_cell_length_c 14.566030
_cell_angle_alpha 90.000000
_cell_angle_beta 90.000000
_cell_angle_gamma 90.000000
_cell_volume 2664.456364
_symmetry_space_group_name_H-M "P M M A"
_symmetry_group_IT_number 51
_symmetry_cell_setting 'orthorhombic'
loop_
_space_group_symop_operation_xyz
x,y,z
1/2-x,-y,z
1/2+x,-y,-z
-x,y,-z
-x,-y,-z
1/2+x,y,-z
1/2-x,y,z
x,-y,z
loop_
_atom_site_type_symbol
_atom_site_label
_atom_site_fract_x
_atom_site_fract_y
_atom_site_fract_z
Si Si1 0.028543 0.209190 0.405200
Si Si2 0.972855 0.205999 0.215888
Si Si3 0.407994 0.291308 0.144005
Si Si4 0.654843 0.794281 0.189774
Si Si5 0.250000 0.712899 0.452396
Si Si6 0.645073 0.698663 0.665667
Si Si7 0.250000 0.705709 0.664053
Si Si8 0.688548 0.703181 0.988743
O O1 0.090103 0.289831 0.397607
O O2 0.000000 0.256273 0.500000
O O3 0.993448 0.267326 0.316039
O O4 0.033607 0.000000 0.401260
O O5 0.909917 0.272997 0.195381
O O6 0.025789 0.241445 0.148171
O O7 0.967611 0.000000 0.221075
O O8 0.408742 0.500000 0.145496
O O9 0.376611 0.227188 0.237214
O O10 0.368035 0.229043 0.061176
O O11 0.694327 0.758103 0.277683
O O12 0.682581 0.721856 0.097551
O O13 0.653015 0.000000 0.178866
O O14 0.250000 0.500000 0.455373
O O15 0.303707 0.772684 0.392885
O O16 0.250000 0.770296 0.558666
O O17 0.660286 0.500000 0.685644
O O18 0.250000 0.500000 0.660310
O O19 0.750000 0.776863 0.959718
O O20 0.690126 0.500000 0.966485
#
# Coordination Sequence:
#
# PCOD9406118 Si02
#       8
#     8   8   8   8   4   8   4   8
#     4   9  18  33  53  75 104 142 182 223 271 320
#     4   9  20  37  55  78 110 146 181 226 281 328
#     4   9  19  35  58  86 112 143 184 226 270 328
#     4  11  23  39  59  82 109 144 188 231 273 325
#     4   9  20  35  54  81 112 144 177 219 272 321
#     4   9  18  34  54  80 111 141 178 221 264 319
#     4  11  23  39  56  79 112 148 183 225 276 325
#     4  10  21  37  58  84 113 147 184 224 276 328
#
# _framework density 21.017420000000001
#
# number of rings (size 3 to 8) (size 9 to 14) (size 15 to 20)
#    0.000    2.429    0.714    0.643    3.000    2.571 
#    0.000    3.929    0.000    0.000    0.000    0.000 
#    0.000    0.000    0.000    0.000    0.000    0.000 
#
# Total GULP energy -312322.805873 kJ/mol
# GULP energy per Si atom -5577.192962 kJ/mol
# Density = 2.096958 g / cm^3
# Si number density = 21.017420 Si / 1000 Ang^3
#
#
#
# Elastic Constant Matrix: (Units=GPa)
#
#
# Indices 1 2 3 4 5 6 
#
# 1 170.2504 0.8211 44.7705 0.0000 0.0000 0.0000
# 2 0.8211 26.4468 -6.5486 0.0000 0.0000 0.0000
# 3 44.7705 -6.5486 34.9890 0.0000 0.0000 0.0000
# 4 0.0000 0.0000 0.0000 9.1775 0.0000 0.0000
# 5 0.0000 0.0000 0.0000 0.0000 29.8264 0.0000
# 6 0.0000 0.0000 0.0000 0.0000 0.0000 19.8306
#
#
#
# Elastic Compliance Matrix: (Units=1/GPa)
#
#
# Indices 1 2 3 4 5 6 
#
# 1 0.009123 -0.003328 -0.012297 0.000000 0.000000 0.000000
# 2 -0.003328 0.040863 0.011907 0.000000 0.000000 0.000000
# 3 -0.012297 0.011907 0.046543 0.000000 0.000000 0.000000
# 4 0.000000 0.000000 0.000000 0.108962 0.000000 0.000000
# 5 0.000000 0.000000 0.000000 0.000000 0.033527 0.000000
# 6 0.000000 0.000000 0.000000 0.000000 0.000000 0.050427
#
#
# Mechanical properties :
#
#
# Convention : Reuss Voigt Hill
#
# Bulk Modulus (GPa) = 11.22417 34.41912 22.82165
# Shear Modulus (GPa) = 15.31011 24.60977 19.95994
#
# Velocity S-wave (km/s) = 2.70191 3.42559 3.08504
# Velocity P-wave (km/s) = 3.88404 5.66200 4.85510
#
# Compressibility (1/GPa) = 0.08909344
#
# Stress axis : x y z
#
# Youngs Moduli (GPa) = 109.60779 24.47179 21.48532
#
# Poissons Ratio (x) = 0.08145 0.26420
# Poissons Ratio (y) = 0.36479 -0.25582
# Poissons Ratio (z) = 1.34783 -0.29138
#
# Static dielectric constant tensor:
#      x y z
#    x 1.782250 0.000000 0.000000 
#    y 0.000000 1.781050 0.000000 
#    z 0.000000 0.000000 1.738460 
# 
# From -- ./inp_files/25879.got.cif
#   From: 2010.05.17/outbox.cif.g08.bks.cpg/sg51_13_cif.got.tgz:25879.got - 2010.06.03 11:52:47.
