data_PCOD9406098
_publ_section_title
;
Structure prediction by ZEFSAII (Michael W. Deem and Ramdas Pophale) SiO2 
 PCOD9406098
Probable space group: P M M A
;
_chemical_formula_sum "Si O2"
_cell_formula_units_Z 48
_cell_length_a 8.756658
_cell_length_b 20.759255
_cell_length_c 14.870215
_cell_angle_alpha 90.000000
_cell_angle_beta 90.000000
_cell_angle_gamma 90.000000
_cell_volume 2703.132908
_symmetry_space_group_name_H-M "P M M A"
_symmetry_group_IT_number 51
_symmetry_cell_setting 'orthorhombic'
loop_
_space_group_symop_operation_xyz
x,y,z
1/2-x,-y,z
1/2+x,-y,-z
-x,y,-z
-x,-y,-z
1/2+x,y,-z
1/2-x,y,z
x,-y,z
loop_
_atom_site_type_symbol
_atom_site_label
_atom_site_fract_x
_atom_site_fract_y
_atom_site_fract_z
Si Si1 0.933155 0.113328 0.593839
Si Si2 0.065915 0.072539 0.208096
Si Si3 0.566238 0.688384 0.787276
Si Si4 0.933281 0.735934 0.593685
Si Si5 0.067581 0.807777 0.899883
Si Si6 0.567545 0.575316 0.098156
O O1 0.750000 0.110222 0.587569
O O2 0.977982 0.079551 0.686704
O O3 0.978938 0.188722 0.602773
O O4 0.000000 0.088270 0.500000
O O5 0.250000 0.082499 0.203204
O O6 0.984942 0.127246 0.150412
O O7 0.032225 0.000000 0.177342
O O8 0.750000 0.690817 0.792244
O O9 0.519750 0.698790 0.683501
O O10 0.498990 0.747446 0.844645
O O11 0.505392 0.622519 0.829306
O O12 0.750000 0.734669 0.588657
O O13 0.000000 0.711212 0.500000
O O14 0.250000 0.803746 0.903147
O O15 0.000000 0.806910 0.000000
O O16 0.750000 0.583461 0.096106
O O17 0.533396 0.500000 0.115573
O O18 0.500000 0.591491 0.000000
#
# Coordination Sequence:
#
# PCOD9406098 Si02
#       6
#     8   8   8   8   8   8
#     4   9  17  32  52  78 109 141 178 221 275 329
#     4  10  21  39  59  78 107 145 183 228 281 334
#     4  11  21  37  60  86 116 148 186 229 276 326
#     4   9  18  32  53  80 112 144 179 225 274 326
#     4  12  25  40  59  81 108 141 183 232 280 331
#     4  10  21  37  57  85 120 155 190 228 273 326
#
# _framework density 17.757173999999999
#
# number of rings (size 3 to 8) (size 9 to 14) (size 15 to 20)
#    0.000    1.833    1.667    3.000    0.000    4.000 
#    0.000    0.000    0.000    0.500    0.000    0.000 
#    0.000    0.000    0.000    0.000    0.000    0.000 
#
# Total GULP energy -268089.401443 kJ/mol
# GULP energy per Si atom -5585.195863 kJ/mol
# Density = 1.771676 g / cm^3
# Si number density = 17.757174 Si / 1000 Ang^3
#
#
#
# Elastic Constant Matrix: (Units=GPa)
#
#
# Indices 1 2 3 4 5 6 
#
# 1 58.3758 42.2082 48.8851 0.0000 0.0000 0.0000
# 2 42.2082 81.8573 66.6419 0.0000 0.0000 0.0000
# 3 48.8851 66.6419 150.0714 0.0000 0.0000 0.0000
# 4 0.0000 0.0000 0.0000 -131.6080 0.0000 0.0000
# 5 0.0000 0.0000 0.0000 0.0000 34.3808 0.0000
# 6 0.0000 0.0000 0.0000 0.0000 0.0000 34.9947
#
#
#
# Elastic Compliance Matrix: (Units=1/GPa)
#
#
# Indices 1 2 3 4 5 6 
#
# 1 0.029061 -0.011399 -0.004405 0.000000 0.000000 0.000000
# 2 -0.011399 0.023605 -0.006769 0.000000 0.000000 0.000000
# 3 -0.004405 -0.006769 0.011104 0.000000 0.000000 0.000000
# 4 0.000000 0.000000 0.000000 -0.007598 0.000000 0.000000
# 5 0.000000 0.000000 0.000000 0.000000 0.029086 0.000000
# 6 0.000000 0.000000 0.000000 0.000000 0.000000 0.028576
#
#
# Mechanical properties :
#
#
# Convention : Reuss Voigt Hill
#
# Bulk Modulus (GPa) = 53.69152 67.30833 60.49993
# Shear Modulus (GPa) = 30.26894 -3.60854 13.33020
#
# Velocity S-wave (km/s) = 4.13316 -1.42708 2.74285
# Velocity P-wave (km/s) = 7.28557 5.93900 6.64648
#
# Compressibility (1/GPa) = 0.01862492
#
# Stress axis : x y z
#
# Youngs Moduli (GPa) = 34.41086 42.36435 90.05618
#
# Poissons Ratio (x) = 0.48290 0.39666
# Poissons Ratio (y) = 0.39224 0.60959
# Poissons Ratio (z) = 0.15156 0.28677
#
# Static dielectric constant tensor:
#      x y z
#    x 1.597330 0.000000 0.000000 
#    y 0.000000 1.595070 0.000000 
#    z 0.000000 0.000000 1.595260 
# 
# From -- ./inp_files/21099.got.cif
#   From: 2010.05.17/outbox.cif.g08.bks.cpg/sg51_11_cif.got.tgz:21099.got - 2010.06.03 11:52:47.
