data_PCOD9406955
_publ_section_title
;
Structure prediction by ZEFSAII (Michael W. Deem and Ramdas Pophale) SiO2 
 PCOD9406955
Probable space group: P M M A
;
_chemical_formula_sum "Si O2"
_cell_formula_units_Z 64
_cell_length_a 26.884508
_cell_length_b 9.115335
_cell_length_c 18.867674
_cell_angle_alpha 90.000000
_cell_angle_beta 90.000000
_cell_angle_gamma 90.000000
_cell_volume 4623.736657
_symmetry_space_group_name_H-M "P M M A"
_symmetry_group_IT_number 51
_symmetry_cell_setting 'orthorhombic'
loop_
_space_group_symop_operation_xyz
x,y,z
1/2-x,-y,z
1/2+x,-y,-z
-x,y,-z
-x,-y,-z
1/2+x,y,-z
1/2-x,y,z
x,-y,z
loop_
_atom_site_type_symbol
_atom_site_label
_atom_site_fract_x
_atom_site_fract_y
_atom_site_fract_z
Si Si1 0.308619 0.175409 0.838612
Si Si2 0.948341 0.669408 0.544831
Si Si3 0.553173 0.167868 0.959211
Si Si4 0.102602 0.176080 0.580098
Si Si5 0.002161 0.824780 0.667077
Si Si6 0.693738 0.178489 0.324956
Si Si7 0.898215 0.674746 0.084657
Si Si8 0.989036 0.177321 0.168740
O O1 0.250000 0.201121 0.852101
O O2 0.318493 0.217796 0.756390
O O3 0.345816 0.261981 0.888864
O O4 0.317413 0.000000 0.844991
O O5 0.935447 0.500000 0.554550
O O6 0.908694 0.750650 0.495171
O O7 0.961040 0.745985 0.619024
O O8 0.000000 0.677020 0.500000
O O9 0.536899 0.212441 0.880204
O O10 0.571745 0.000000 0.959385
O O11 0.500000 0.167181 0.000000
O O12 0.588539 0.269895 0.005487
O O13 0.152419 0.227623 0.619468
O O14 0.055892 0.207750 0.631946
O O15 0.104550 0.000000 0.571351
O O16 0.003086 0.783662 0.749487
O O17 0.994921 0.000000 0.662267
O O18 0.750000 0.227038 0.340822
O O19 0.693738 0.000000 0.326103
O O20 0.899755 0.500000 0.088480
O O21 0.940989 0.744113 0.135364
O O22 0.981402 0.000000 0.163737
#
# Coordination Sequence:
#
# PCOD9406955 Si02
#       8
#     8   8   8   8   8   8   8   8
#     4   9  17  30  46  60  77 105 140 174 204 235
#     4   9  17  27  37  52  77 105 131 160 193 232
#     4   8  15  28  43  57  76 104 136 167 197 233
#     4   9  15  24  40  58  77 103 132 161 193 232
#     4   9  16  26  41  59  77 100 133 168 199 231
#     4   8  14  25  42  62  79  98 131 172 204 228
#     4  11  20  27  39  59  84 111 136 165 200 239
#     4   9  17  29  44  60  79 105 137 170 200 235
#
# _framework density 13.841619
#
# number of rings (size 3 to 8) (size 9 to 14) (size 15 to 20)
#    0.000    3.000    0.000    3.750    0.000    6.500 
#    0.000    3.125    0.000    1.125    0.000    0.000 
#    0.000    1.000    0.000    8.000    0.000    3.625 
#
# Total GULP energy -356362.524323 kJ/mol
# GULP energy per Si atom -5568.164443 kJ/mol
# Density = 1.381012 g / cm^3
# Si number density = 13.841619 Si / 1000 Ang^3
#
#
#
# Elastic Constant Matrix: (Units=GPa)
#
#
# Indices 1 2 3 4 5 6 
#
# 1 65.5845 38.7112 44.7808 0.0000 0.0000 0.0000
# 2 38.7112 45.0295 43.8972 0.0000 0.0000 0.0000
# 3 44.7808 43.8972 102.0097 0.0000 0.0000 0.0000
# 4 0.0000 0.0000 0.0000 5.5981 0.0000 0.0000
# 5 0.0000 0.0000 0.0000 0.0000 25.6545 0.0000
# 6 0.0000 0.0000 0.0000 0.0000 0.0000 5.3948
#
#
#
# Elastic Compliance Matrix: (Units=1/GPa)
#
#
# Indices 1 2 3 4 5 6 
#
# 1 0.031779 -0.023635 -0.003780 0.000000 0.000000 0.000000
# 2 -0.023635 0.055835 -0.013651 0.000000 0.000000 0.000000
# 3 -0.003780 -0.013651 0.017337 0.000000 0.000000 0.000000
# 4 0.000000 0.000000 0.000000 0.178633 0.000000 0.000000
# 5 0.000000 0.000000 0.000000 0.000000 0.038979 0.000000
# 6 0.000000 0.000000 0.000000 0.000000 0.000000 0.185363
#
#
# Mechanical properties :
#
#
# Convention : Reuss Voigt Hill
#
# Bulk Modulus (GPa) = 43.82580 51.93357 47.87968
# Shear Modulus (GPa) = 8.36590 13.01178 10.68884
#
# Velocity S-wave (km/s) = 2.46113 3.06935 2.78191
# Velocity P-wave (km/s) = 6.30930 7.08255 6.70708
#
# Compressibility (1/GPa) = 0.02281761
#
# Stress axis : x y z
#
# Youngs Moduli (GPa) = 31.46733 17.91001 57.68089
#
# Poissons Ratio (x) = 0.42331 0.21802
# Poissons Ratio (y) = 0.74374 0.78743
# Poissons Ratio (z) = 0.11894 0.24450
#
# Static dielectric constant tensor:
#      x y z
#    x 1.441480 0.000000 0.000000 
#    y 0.000000 1.456550 0.000000 
#    z 0.000000 0.000000 1.459860 
# 
# From -- ./inp_files/30990.got.cif
#   From: 2010.05.17/outbox.cif.g08.bks.cpg/sg51_16_cif.got.tgz:30990.got - 2010.06.03 11:52:47.
