data_PCOD9406989
_publ_section_title
;
Structure prediction by ZEFSAII (Michael W. Deem and Ramdas Pophale) SiO2 
 PCOD9406989
Probable space group: P M M A
;
_chemical_formula_sum "Si O2"
_cell_formula_units_Z 52
_cell_length_a 8.139635
_cell_length_b 27.711570
_cell_length_c 14.166814
_cell_angle_alpha 90.000000
_cell_angle_beta 90.000000
_cell_angle_gamma 90.000000
_cell_volume 3195.495821
_symmetry_space_group_name_H-M "P M M A"
_symmetry_group_IT_number 51
_symmetry_cell_setting 'orthorhombic'
loop_
_space_group_symop_operation_xyz
x,y,z
1/2-x,-y,z
1/2+x,-y,-z
-x,y,-z
-x,-y,-z
1/2+x,y,-z
1/2-x,y,z
x,-y,z
loop_
_atom_site_type_symbol
_atom_site_label
_atom_site_fract_x
_atom_site_fract_y
_atom_site_fract_z
Si Si1 0.052083 0.000000 0.890491
Si Si2 0.444165 0.704572 0.105777
Si Si3 0.449219 0.105334 0.890513
Si Si4 0.448752 0.648312 0.714804
Si Si5 0.448532 0.445673 0.607612
Si Si6 0.946541 0.799549 0.212629
Si Si7 0.552022 0.255906 0.393463
O O1 0.995097 0.052363 0.854196
O O2 0.250000 0.000000 0.884610
O O3 0.000000 0.000000 0.000000
O O4 0.250000 0.710314 0.107521
O O5 0.494460 0.664040 0.181610
O O6 0.520627 0.754934 0.142372
O O7 0.500000 0.693725 0.000000
O O8 0.250000 0.105853 0.888511
O O9 0.511661 0.150536 0.829924
O O10 0.500000 0.110665 0.000000
O O11 0.250000 0.648094 0.715250
O O12 0.507024 0.596833 0.676208
O O13 0.502320 0.691356 0.644054
O O14 0.500000 0.435265 0.500000
O O15 0.250000 0.445922 0.610658
O O16 0.506140 0.500000 0.631064
O O17 0.750000 0.804726 0.220476
O O18 0.008647 0.782459 0.315284
O O19 0.500000 0.246875 0.500000
O O20 0.750000 0.255776 0.390340
#
# Coordination Sequence:
#
# PCOD9406989 Si02
#       7
#     4   8   8   8   8   8   8
#     4   8  14  24  38  58  81 108 140 172 207 250
#     4  11  21  32  47  66  88 115 147 181 216 257
#     4   9  16  26  41  60  85 113 141 173 210 252
#     4   9  18  32  47  65  91 119 146 178 215 255
#     4   9  17  29  47  71  97 123 149 180 219 260
#     4   9  18  31  44  62  88 116 144 177 216 256
#     4   9  17  28  42  60  84 112 141 175 213 251
#
# _framework density 16.272904
#
# number of rings (size 3 to 8) (size 9 to 14) (size 15 to 20)
#    0.000    2.769    0.000    3.231    0.000    4.923 
#    0.000    0.000    0.000    0.462    0.000    0.538 
#    0.000    0.000    0.000    0.000    0.000    0.000 
#
# Total GULP energy -289688.420844 kJ/mol
# GULP energy per Si atom -5570.931170 kJ/mol
# Density = 1.623587 g / cm^3
# Si number density = 16.272904 Si / 1000 Ang^3
#
#
#
# Elastic Constant Matrix: (Units=GPa)
#
#
# Indices 1 2 3 4 5 6 
#
# 1 1.9991 5.2942 3.4549 0.0000 0.0000 0.0000
# 2 5.2942 149.6849 86.6433 0.0000 0.0000 0.0000
# 3 3.4549 86.6433 122.6129 0.0000 0.0000 0.0000
# 4 0.0000 0.0000 0.0000 30.4869 0.0000 0.0000
# 5 0.0000 0.0000 0.0000 0.0000 22.6411 0.0000
# 6 0.0000 0.0000 0.0000 0.0000 0.0000 14.5333
#
#
#
# Elastic Compliance Matrix: (Units=1/GPa)
#
#
# Indices 1 2 3 4 5 6 
#
# 1 0.552570 -0.017821 -0.002977 0.000000 0.000000 0.000000
# 2 -0.017821 0.011879 -0.007892 0.000000 0.000000 0.000000
# 3 -0.002977 -0.007892 0.013817 0.000000 0.000000 0.000000
# 4 0.000000 0.000000 0.000000 0.032801 0.000000 0.000000
# 5 0.000000 0.000000 0.000000 0.000000 0.044168 0.000000
# 6 0.000000 0.000000 0.000000 0.000000 0.000000 0.068807
#
#
# Mechanical properties :
#
#
# Convention : Reuss Voigt Hill
#
# Bulk Modulus (GPa) = 1.91980 51.67574 26.79777
# Shear Modulus (GPa) = 5.23532 25.45922 15.34727
#
# Velocity S-wave (km/s) = 1.79560 3.95969 3.07435
# Velocity P-wave (km/s) = 2.34120 7.26155 5.39497
#
# Compressibility (1/GPa) = 0.52088666
#
# Stress axis : x y z
#
# Youngs Moduli (GPa) = 1.80972 84.17956 72.37631
#
# Poissons Ratio (x) = 1.50013 0.21547
# Poissons Ratio (y) = 0.03225 0.57122
# Poissons Ratio (z) = 0.00539 0.66437
#
# Static dielectric constant tensor:
#      x y z
#    x 1.569290 0.000000 0.000000 
#    y 0.000000 1.581770 0.000000 
#    z 0.000000 0.000000 1.509380 
# 
# From -- ./inp_files/14741.got.cif
#   From: 2010.05.17/outbox.cif.g08.bks.cpg/sg51_8_cif.got.tgz:14741.got - 2010.06.03 11:52:47.
