data_PCOD9406420
_publ_section_title
;
Structure prediction by ZEFSAII (Michael W. Deem and Ramdas Pophale) SiO2 
 PCOD9406420
Probable space group: P M M A
;
_chemical_formula_sum "Si O2"
_cell_formula_units_Z 48
_cell_length_a 8.947762
_cell_length_b 9.685267
_cell_length_c 29.692516
_cell_angle_alpha 90.000000
_cell_angle_beta 90.000000
_cell_angle_gamma 90.000000
_cell_volume 2573.196907
_symmetry_space_group_name_H-M "P M M A"
_symmetry_group_IT_number 51
_symmetry_cell_setting 'orthorhombic'
loop_
_space_group_symop_operation_xyz
x,y,z
1/2-x,-y,z
1/2+x,-y,-z
-x,y,-z
-x,-y,-z
1/2+x,y,-z
1/2-x,y,z
x,-y,z
loop_
_atom_site_type_symbol
_atom_site_label
_atom_site_fract_x
_atom_site_fract_y
_atom_site_fract_z
Si Si1 0.429569 0.662506 0.872033
Si Si2 0.072623 0.236771 0.608596
Si Si3 0.070329 0.162985 0.209151
Si Si4 0.070697 0.337002 0.299449
Si Si5 0.577112 0.500000 0.452483
Si Si6 0.928868 0.159441 0.950600
Si Si7 0.927093 0.000000 0.549773
O O1 0.250000 0.670535 0.873917
O O2 0.470841 0.500000 0.867609
O O3 0.490310 0.753972 0.830706
O O4 0.499657 0.731961 0.916421
O O5 0.250000 0.204760 0.610089
O O6 0.046596 0.371314 0.578814
O O7 0.011823 0.268870 0.658185
O O8 0.982552 0.125090 0.580484
O O9 0.250000 0.168367 0.201902
O O10 0.038102 0.246196 0.255186
O O11 0.028952 0.000000 0.211279
O O12 0.250000 0.332258 0.306791
O O13 0.029677 0.500000 0.294386
O O14 0.750000 0.500000 0.463429
O O15 0.500000 0.500000 0.500000
O O16 0.750000 0.176678 0.952688
O O17 0.958331 0.000000 0.935712
O O18 0.000000 0.175033 0.000000
O O19 0.000000 0.000000 0.500000
O O20 0.750000 0.000000 0.543968
#
# Coordination Sequence:
#
# PCOD9406420 Si02
#       7
#     8   8   8   8   4   8   4
#     4  11  24  40  59  87 123 163 208 256 308 364
#     4  11  23  41  62  90 123 160 200 246 300 357
#     4  10  22  40  63  91 122 157 202 252 304 364
#     4  10  21  38  61  90 123 161 202 246 300 361
#     4  10  22  38  60  88 120 154 196 242 291 350
#     4  10  21  38  62  91 123 162 207 255 308 365
#     4  12  26  44  64  90 122 160 202 248 299 356
#
# _framework density 18.653838
#
# number of rings (size 3 to 8) (size 9 to 14) (size 15 to 20)
#    0.000    1.500    0.833    3.750    1.167    9.000 
#    0.000    0.000    0.000    0.000    0.000    0.000 
#    0.000    0.000    0.000    0.000    0.000    0.000 
#
# Total GULP energy -268081.092206 kJ/mol
# GULP energy per Si atom -5585.022754 kJ/mol
# Density = 1.861138 g / cm^3
# Si number density = 18.653838 Si / 1000 Ang^3
#
#
#
# Elastic Constant Matrix: (Units=GPa)
#
#
# Indices 1 2 3 4 5 6 
#
# 1 73.0620 94.3304 77.4823 0.0000 0.0000 0.0000
# 2 94.3304 165.4720 92.7702 0.0000 0.0000 0.0000
# 3 77.4823 92.7702 146.2424 0.0000 0.0000 0.0000
# 4 0.0000 0.0000 0.0000 36.4397 0.0000 0.0000
# 5 0.0000 0.0000 0.0000 0.0000 42.1387 0.0000
# 6 0.0000 0.0000 0.0000 0.0000 0.0000 27.7877
#
#
#
# Elastic Compliance Matrix: (Units=1/GPa)
#
#
# Indices 1 2 3 4 5 6 
#
# 1 0.077720 -0.032932 -0.020287 0.000000 0.000000 0.000000
# 2 -0.032932 0.023333 0.002646 0.000000 0.000000 0.000000
# 3 -0.020287 0.002646 0.015908 0.000000 0.000000 0.000000
# 4 0.000000 0.000000 0.000000 0.027443 0.000000 0.000000
# 5 0.000000 0.000000 0.000000 0.000000 0.023731 0.000000
# 6 0.000000 0.000000 0.000000 0.000000 0.000000 0.035987
#
#
# Mechanical properties :
#
#
# Convention : Reuss Voigt Hill
#
# Bulk Modulus (GPa) = 63.22837 101.54913 82.38875
# Shear Modulus (GPa) = 16.10112 29.28613 22.69363
#
# Velocity S-wave (km/s) = 2.94113 3.96659 3.49171
# Velocity P-wave (km/s) = 6.74558 8.69111 7.77941
#
# Compressibility (1/GPa) = 0.01581569
#
# Stress axis : x y z
#
# Youngs Moduli (GPa) = 12.86677 42.85771 62.86331
#
# Poissons Ratio (x) = 1.41139 1.27530
# Poissons Ratio (y) = 0.42373 -0.16637
# Poissons Ratio (z) = 0.26103 -0.11342
#
# Static dielectric constant tensor:
#      x y z
#    x 1.630240 0.000000 0.000000 
#    y 0.000000 1.619730 0.000000 
#    z 0.000000 0.000000 1.614440 
# 
# From -- ./inp_files/37183.got.cif
#   From: 2010.05.17/outbox.cif.g08.bks.cpg/sg51_19_cif.got.tgz:37183.got - 2010.06.03 11:52:47.
