data_PCOD9406032
_publ_section_title
;
Structure prediction by ZEFSAII (Michael W. Deem and Ramdas Pophale) SiO2 
 PCOD9406032
Probable space group: P M M A
;
_chemical_formula_sum "Si O2"
_cell_formula_units_Z 48
_cell_length_a 9.161935
_cell_length_b 9.240088
_cell_length_c 31.783256
_cell_angle_alpha 90.000000
_cell_angle_beta 90.000000
_cell_angle_gamma 90.000000
_cell_volume 2690.677825
_symmetry_space_group_name_H-M "P M M A"
_symmetry_group_IT_number 51
_symmetry_cell_setting 'orthorhombic'
loop_
_space_group_symop_operation_xyz
x,y,z
1/2-x,-y,z
1/2+x,-y,-z
-x,y,-z
-x,-y,-z
1/2+x,y,-z
1/2-x,y,z
x,-y,z
loop_
_atom_site_type_symbol
_atom_site_label
_atom_site_fract_x
_atom_site_fract_y
_atom_site_fract_z
Si Si1 0.923053 0.326988 0.285155
Si Si2 0.425111 0.328996 0.870866
Si Si3 0.924764 0.830390 0.043351
Si Si4 0.924197 0.828569 0.542802
Si Si5 0.578419 0.673093 0.628150
Si Si6 0.423880 0.171696 0.207175
O O1 0.750000 0.301423 0.283592
O O2 0.947581 0.500000 0.279727
O O3 0.988036 0.285391 0.330578
O O4 0.003443 0.242012 0.248234
O O5 0.250000 0.308484 0.865853
O O6 0.454649 0.500000 0.869354
O O7 0.467098 0.262427 0.916033
O O8 0.507172 0.247126 0.833645
O O9 0.750000 0.820167 0.038522
O O10 0.961347 0.000000 0.050525
O O11 0.000000 0.783977 0.000000
O O12 0.750000 0.808795 0.538828
O O13 0.971983 0.748675 0.585253
O O14 0.000000 0.776839 0.500000
O O15 0.953511 0.000000 0.547070
O O16 0.750000 0.708853 0.634624
O O17 0.567508 0.500000 0.623161
O O18 0.250000 0.194620 0.208117
O O19 0.452091 0.000000 0.206006
#
# Coordination Sequence:
#
# PCOD9406032 Si02
#       6
#     8   8   8   8   8   8
#     4  10  21  37  57  81 108 138 173 214 262 316
#     4  10  21  37  57  81 109 142 180 221 266 316
#     4   9  18  33  53  77 107 143 180 219 263 310
#     4   9  18  32  49  70  98 132 169 210 256 305
#     4   9  18  33  52  74 102 136 171 209 256 308
#     4  11  24  39  56  80 108 139 177 219 263 314
#
# _framework density 17.839371
#
# number of rings (size 3 to 8) (size 9 to 14) (size 15 to 20)
#    0.000    2.333    0.000    2.000    0.000    8.000 
#    0.000    3.333    0.000    0.000    0.000    0.000 
#    0.000    0.000    0.000    0.000    0.000    0.000 
#
# Total GULP energy -267960.909326 kJ/mol
# GULP energy per Si atom -5582.518944 kJ/mol
# Density = 1.779877 g / cm^3
# Si number density = 17.839371 Si / 1000 Ang^3
#
#
#
# Elastic Constant Matrix: (Units=GPa)
#
#
# Indices 1 2 3 4 5 6 
#
# 1 61.1958 66.8045 90.4400 0.0000 0.0000 0.0000
# 2 66.8045 77.9453 102.6098 0.0000 0.0000 0.0000
# 3 90.4400 102.6098 221.8368 0.0000 0.0000 0.0000
# 4 0.0000 0.0000 0.0000 41.1994 0.0000 0.0000
# 5 0.0000 0.0000 0.0000 0.0000 41.0871 0.0000
# 6 0.0000 0.0000 0.0000 0.0000 0.0000 23.3868
#
#
#
# Elastic Compliance Matrix: (Units=1/GPa)
#
#
# Indices 1 2 3 4 5 6 
#
# 1 0.258534 -0.211788 -0.007439 0.000000 0.000000 0.000000
# 2 -0.211788 0.206300 -0.009080 0.000000 0.000000 0.000000
# 3 -0.007439 -0.009080 0.011740 0.000000 0.000000 0.000000
# 4 0.000000 0.000000 0.000000 0.024272 0.000000 0.000000
# 5 0.000000 0.000000 0.000000 0.000000 0.024339 0.000000
# 6 0.000000 0.000000 0.000000 0.000000 0.000000 0.042759
#
#
# Mechanical properties :
#
#
# Convention : Reuss Voigt Hill
#
# Bulk Modulus (GPa) = 50.10109 97.85406 73.97757
# Shear Modulus (GPa) = 4.84867 27.87623 16.36245
#
# Velocity S-wave (km/s) = 1.65041 3.95729 3.03183
# Velocity P-wave (km/s) = 5.63714 8.70931 7.33585
#
# Compressibility (1/GPa) = 0.01995965
#
# Stress axis : x y z
#
# Youngs Moduli (GPa) = 3.86797 4.84731 85.17598
#
# Poissons Ratio (x) = 1.02660 0.63361
# Poissons Ratio (y) = 0.81919 0.77338
# Poissons Ratio (z) = 0.02877 0.04401
#
# Static dielectric constant tensor:
#      x y z
#    x 1.596370 0.000000 0.000000 
#    y 0.000000 1.596710 0.000000 
#    z 0.000000 0.000000 1.580150 
# 
# From -- ./inp_files/36973.got.cif
#   From: 2010.05.17/outbox.cif.g08.bks.cpg/sg51_19_cif.got.tgz:36973.got - 2010.06.03 11:52:47.
