data_PCOD9406050
_publ_section_title
;
Structure prediction by ZEFSAII (Michael W. Deem and Ramdas Pophale) SiO2 
 PCOD9406050
Probable space group: P M M A
;
_chemical_formula_sum "Si O2"
_cell_formula_units_Z 48
_cell_length_a 9.382218
_cell_length_b 7.805274
_cell_length_c 31.916594
_cell_angle_alpha 90.000000
_cell_angle_beta 90.000000
_cell_angle_gamma 90.000000
_cell_volume 2337.277144
_symmetry_space_group_name_H-M "P M M A"
_symmetry_group_IT_number 51
_symmetry_cell_setting 'orthorhombic'
loop_
_space_group_symop_operation_xyz
x,y,z
1/2-x,-y,z
1/2+x,-y,-z
-x,y,-z
-x,-y,-z
1/2+x,y,-z
1/2-x,y,z
x,-y,z
loop_
_atom_site_type_symbol
_atom_site_label
_atom_site_fract_x
_atom_site_fract_y
_atom_site_fract_z
Si Si1 0.912520 0.793458 0.123808
Si Si2 0.588956 0.203905 0.796574
Si Si3 0.588772 0.297099 0.284579
Si Si4 0.586880 0.706597 0.959452
Si Si5 0.914810 0.207063 0.633356
Si Si6 0.084113 0.791266 0.459557
O O1 0.750000 0.728975 0.121287
O O2 0.994586 0.727370 0.164999
O O3 0.002326 0.751198 0.082580
O O4 0.905065 0.000000 0.126885
O O5 0.750000 0.274229 0.795845
O O6 0.508994 0.228616 0.752789
O O7 0.600332 0.000000 0.803192
O O8 0.750000 0.226617 0.282939
O O9 0.596524 0.500000 0.278781
O O10 0.515186 0.262902 0.329096
O O11 0.750000 0.770078 0.958661
O O12 0.592720 0.500000 0.962202
O O13 0.500000 0.769699 0.000000
O O14 0.750000 0.263151 0.639710
O O15 0.963379 0.264377 0.586913
O O16 0.912803 0.000000 0.633134
O O17 0.250000 0.746938 0.463422
O O18 0.000000 0.727686 0.500000
O O19 0.074934 0.000000 0.459770
#
# Coordination Sequence:
#
# PCOD9406050 Si02
#       6
#     8   8   8   8   8   8
#     4  10  21  37  58  84 112 142 176 216 264 315
#     4  10  21  38  60  83 106 135 173 216 262 314
#     4  11  24  38  52  75 106 138 174 216 260 308
#     4  10  21  37  57  81 110 146 186 225 266 312
#     4   9  18  33  53  77 104 135 172 213 258 309
#     4   8  14  25  43  70 102 131 162 204 252 302
#
# _framework density 20.536716999999999
#
# number of rings (size 3 to 8) (size 9 to 14) (size 15 to 20)
#    0.000    2.333    0.000    3.500    0.000    8.333 
#    0.000    1.667    0.000    0.500    0.000    0.000 
#    0.000    0.000    0.000    0.000    0.000    0.000 
#
# Total GULP energy -268032.516603 kJ/mol
# GULP energy per Si atom -5584.010763 kJ/mol
# Density = 2.048997 g / cm^3
# Si number density = 20.536717 Si / 1000 Ang^3
#
#
#
# Elastic Constant Matrix: (Units=GPa)
#
#
# Indices 1 2 3 4 5 6 
#
# 1 191.3311 7.5778 122.2209 0.0000 0.0000 0.0000
# 2 7.5778 24.1909 -5.0923 0.0000 0.0000 0.0000
# 3 122.2209 -5.0923 196.8948 0.0000 0.0000 0.0000
# 4 0.0000 0.0000 0.0000 46.7331 0.0000 0.0000
# 5 0.0000 0.0000 0.0000 0.0000 43.9503 0.0000
# 6 0.0000 0.0000 0.0000 0.0000 0.0000 -4.4851
#
#
#
# Elastic Compliance Matrix: (Units=1/GPa)
#
#
# Indices 1 2 3 4 5 6 
#
# 1 0.009036 -0.004033 -0.005713 0.000000 0.000000 0.000000
# 2 -0.004033 0.043364 0.003625 0.000000 0.000000 0.000000
# 3 -0.005713 0.003625 0.008719 0.000000 0.000000 0.000000
# 4 0.000000 0.000000 0.000000 0.021398 0.000000 0.000000
# 5 0.000000 0.000000 0.000000 0.000000 0.022753 0.000000
# 6 0.000000 0.000000 0.000000 0.000000 0.000000 -0.222960
#
#
# Mechanical properties :
#
#
# Convention : Reuss Voigt Hill
#
# Bulk Modulus (GPa) = 20.45969 73.53660 46.99815
# Shear Modulus (GPa) = -56.08245 36.42035 -9.83105
#
# Velocity S-wave (km/s) = -5.23141 4.21578 -2.19031
# Velocity P-wave (km/s) = 5.14841 7.71895 4.06670
#
# Compressibility (1/GPa) = 0.04887659
#
# Stress axis : x y z
#
# Youngs Moduli (GPa) = 110.67023 23.06045 114.69129
#
# Poissons Ratio (x) = 0.09301 0.65526
# Poissons Ratio (y) = 0.44635 -0.41576
# Poissons Ratio (z) = 0.63229 -0.08360
#
# Static dielectric constant tensor:
#      x y z
#    x 1.721440 0.000000 0.000000 
#    y 0.000000 1.761400 0.000000 
#    z 0.000000 0.000000 1.700180 
# 
# From -- ./inp_files/36940.got.cif
#   From: 2010.05.17/outbox.cif.g08.bks.cpg/sg51_19_cif.got.tgz:36940.got - 2010.06.03 11:52:47.
