data_PCOD9406490
_publ_section_title
;
Structure prediction by ZEFSAII (Michael W. Deem and Ramdas Pophale) SiO2 
 PCOD9406490
Probable space group: P M M A
;
_chemical_formula_sum "Si O2"
_cell_formula_units_Z 64
_cell_length_a 14.297106
_cell_length_b 23.458357
_cell_length_c 9.437966
_cell_angle_alpha 90.000000
_cell_angle_beta 90.000000
_cell_angle_gamma 90.000000
_cell_volume 3165.367484
_symmetry_space_group_name_H-M "P M M A"
_symmetry_group_IT_number 51
_symmetry_cell_setting 'orthorhombic'
loop_
_space_group_symop_operation_xyz
x,y,z
1/2-x,-y,z
1/2+x,-y,-z
-x,y,-z
-x,-y,-z
1/2+x,y,-z
1/2-x,y,z
x,-y,z
loop_
_atom_site_type_symbol
_atom_site_label
_atom_site_fract_x
_atom_site_fract_y
_atom_site_fract_z
Si Si1 0.360907 0.242090 0.725787
Si Si2 0.140228 0.728484 0.415463
Si Si3 0.474667 0.132745 0.836669
Si Si4 0.361560 0.063836 0.638690
Si Si5 0.638029 0.630861 0.800877
Si Si6 0.640851 0.360963 0.128301
Si Si7 0.857932 0.137498 0.634662
Si Si8 0.010783 0.566154 0.663044
O O1 0.250000 0.224325 0.708049
O O2 0.397055 0.267694 0.575915
O O3 0.424010 0.190347 0.780050
O O4 0.363571 0.294380 0.833327
O O5 0.250000 0.712720 0.433393
O O6 0.104821 0.684648 0.296331
O O7 0.136464 0.793977 0.367678
O O8 0.404902 0.083200 0.786784
O O9 0.569614 0.119470 0.752604
O O10 0.500000 0.137388 0.000000
O O11 0.250000 0.064466 0.649508
O O12 0.385500 0.109550 0.515832
O O13 0.391620 0.000000 0.598678
O O14 0.750000 0.629548 0.797149
O O15 0.590366 0.576085 0.732464
O O16 0.610362 0.633546 0.965252
O O17 0.750000 0.378366 0.139536
O O18 0.580917 0.396917 0.240640
O O19 0.750000 0.121530 0.661619
O O20 0.038522 0.500000 0.664199
O O21 0.000000 0.585142 0.500000
#
# Coordination Sequence:
#
# PCOD9406490 Si02
#       8
#     8   8   8   8   8   8   8   8
#     4  10  21  39  61  87 126 167 210 260 316 380
#     4   9  18  35  60  87 120 158 205 258 308 366
#     4  12  26  37  59  96 132 173 210 258 322 389
#     4  10  22  45  72  93 121 165 218 272 321 377
#     4  10  22  40  64  93 124 164 207 259 326 383
#     4  10  23  41  63  92 127 167 208 259 321 386
#     4  10  22  40  61  91 124 164 215 264 313 370
#     4  11  25  43  64  91 124 167 216 265 309 370
#
# _framework density 20.218820000000001
#
# number of rings (size 3 to 8) (size 9 to 14) (size 15 to 20)
#    0.000    1.750    1.250    1.875    3.500    5.250 
#    0.000    2.500    0.000    1.500    0.000    0.000 
#    0.000    0.000    0.000    0.000    0.000    0.000 
#
# Total GULP energy -357355.708286 kJ/mol
# GULP energy per Si atom -5583.682942 kJ/mol
# Density = 2.017280 g / cm^3
# Si number density = 20.218820 Si / 1000 Ang^3
#
#
#
# Elastic Constant Matrix: (Units=GPa)
#
#
# Indices 1 2 3 4 5 6 
#
# 1 79.5096 30.5729 55.8993 0.0000 0.0000 0.0000
# 2 30.5729 66.4538 36.3814 0.0000 0.0000 0.0000
# 3 55.8993 36.3814 151.8470 0.0000 0.0000 0.0000
# 4 0.0000 0.0000 0.0000 9.9175 0.0000 0.0000
# 5 0.0000 0.0000 0.0000 0.0000 27.7316 0.0000
# 6 0.0000 0.0000 0.0000 0.0000 0.0000 -90.6708
#
#
#
# Elastic Compliance Matrix: (Units=1/GPa)
#
#
# Indices 1 2 3 4 5 6 
#
# 1 0.018581 -0.005529 -0.005515 0.000000 0.000000 0.000000
# 2 -0.005529 0.018965 -0.002509 0.000000 0.000000 0.000000
# 3 -0.005515 -0.002509 0.009217 0.000000 0.000000 0.000000
# 4 0.000000 0.000000 0.000000 0.100832 0.000000 0.000000
# 5 0.000000 0.000000 0.000000 0.000000 0.036060 0.000000
# 6 0.000000 0.000000 0.000000 0.000000 0.000000 -0.011029
#
#
# Mechanical properties :
#
#
# Convention : Reuss Voigt Hill
#
# Bulk Modulus (GPa) = 50.87211 60.39085 55.63148
# Shear Modulus (GPa) = 24.23853 1.05946 12.64899
#
# Velocity S-wave (km/s) = 3.46614 0.72466 2.50392
# Velocity P-wave (km/s) = 6.42139 5.53477 5.99449
#
# Compressibility (1/GPa) = 0.01965714
#
# Stress axis : x y z
#
# Youngs Moduli (GPa) = 53.81957 52.72884 108.49515
#
# Poissons Ratio (x) = 0.29152 0.59840
# Poissons Ratio (y) = 0.29755 0.27217
# Poissons Ratio (z) = 0.29684 0.13227
#
# Static dielectric constant tensor:
#      x y z
#    x 1.766570 0.000000 0.000000 
#    y 0.000000 1.704480 0.000000 
#    z 0.000000 0.000000 1.706810 
# 
# From -- ./inp_files/8723.got.cif
#   From: 2010.05.17/outbox.cif.g08.bks.cpg/sg51_5_cif.got.tgz:8723.got - 2010.06.03 11:52:47.
