data_PCOD9406579
_publ_section_title
;
Structure prediction by ZEFSAII (Michael W. Deem and Ramdas Pophale) SiO2 
 PCOD9406579
Probable space group: P M M A
;
_chemical_formula_sum "Si O2"
_cell_formula_units_Z 32
_cell_length_a 16.435133
_cell_length_b 13.793727
_cell_length_c 6.959658
_cell_angle_alpha 90.000000
_cell_angle_beta 90.000000
_cell_angle_gamma 90.000000
_cell_volume 1577.766563
_symmetry_space_group_name_H-M "P M M A"
_symmetry_group_IT_number 51
_symmetry_cell_setting 'orthorhombic'
loop_
_space_group_symop_operation_xyz
x,y,z
1/2-x,-y,z
1/2+x,-y,-z
-x,y,-z
-x,-y,-z
1/2+x,y,-z
1/2-x,y,z
x,-y,z
loop_
_atom_site_type_symbol
_atom_site_label
_atom_site_fract_x
_atom_site_fract_y
_atom_site_fract_z
Si Si1 0.500000 0.764044 0.500000
Si Si2 0.750000 0.610678 0.022479
Si Si3 0.750000 0.886532 0.782458
Si Si4 0.750000 0.305334 0.616130
Si Si5 0.884661 0.612371 0.343832
Si Si6 0.567957 0.884979 0.842016
O O1 0.454742 0.690678 0.644386
O O2 0.553319 0.830725 0.640166
O O3 0.750000 0.500000 0.951406
O O4 0.750000 0.678510 0.841926
O O5 0.828421 0.623186 0.156941
O O6 0.750000 0.811204 0.603101
O O7 0.663765 0.871086 0.892724
O O8 0.750000 0.000000 0.722931
O O9 0.673287 0.357756 0.521140
O O10 0.910108 0.500000 0.358031
O O11 0.555857 0.000000 0.813995
O O12 0.500000 0.854542 0.000000
#
# Coordination Sequence:
#
# PCOD9406579 Si02
#       6
#     4   4   4   4   8   8
#     4  12  22  36  60  88 120 164 196 244 306 376
#     4   9  20  37  59  83 111 152 204 247 291 358
#     4  10  21  40  64  91 121 154 203 262 308 363
#     4  11  19  39  63  82 114 162 203 243 309 359
#     4  10  22  37  56  87 121 155 200 252 299 356
#     4  10  23  43  64  90 123 159 205 258 309 367
#
# _framework density 20.281835000000001
#
# number of rings (size 3 to 8) (size 9 to 14) (size 15 to 20)
#    0.000    1.750    2.500    2.625    3.500    0.000 
#    0.000    1.250    0.000   13.500    0.000    0.000 
#    0.000    0.000    0.000    0.000    0.000    0.000 
#
# Total GULP energy -178427.938938 kJ/mol
# GULP energy per Si atom -5575.873092 kJ/mol
# Density = 2.023567 g / cm^3
# Si number density = 20.281835 Si / 1000 Ang^3
#
#
#
# Elastic Constant Matrix: (Units=GPa)
#
#
# Indices 1 2 3 4 5 6 
#
# 1 99.2732 30.9631 18.9086 0.0000 0.0000 0.0000
# 2 30.9631 89.9702 40.1564 0.0000 0.0000 0.0000
# 3 18.9086 40.1564 56.4728 0.0000 0.0000 0.0000
# 4 0.0000 0.0000 0.0000 21.7715 0.0000 0.0000
# 5 0.0000 0.0000 0.0000 0.0000 4.2233 0.0000
# 6 0.0000 0.0000 0.0000 0.0000 0.0000 45.3505
#
#
#
# Elastic Compliance Matrix: (Units=1/GPa)
#
#
# Indices 1 2 3 4 5 6 
#
# 1 0.011371 -0.003243 -0.001501 0.000000 0.000000 0.000000
# 2 -0.003243 0.017207 -0.011150 0.000000 0.000000 0.000000
# 3 -0.001501 -0.011150 0.026139 0.000000 0.000000 0.000000
# 4 0.000000 0.000000 0.000000 0.045932 0.000000 0.000000
# 5 0.000000 0.000000 0.000000 0.000000 0.236780 0.000000
# 6 0.000000 0.000000 0.000000 0.000000 0.000000 0.022050
#
#
# Mechanical properties :
#
#
# Convention : Reuss Voigt Hill
#
# Bulk Modulus (GPa) = 43.61386 47.30803 45.46094
# Shear Modulus (GPa) = 12.53415 24.64827 18.59121
#
# Velocity S-wave (km/s) = 2.48866 3.48988 3.03090
# Velocity P-wave (km/s) = 5.45971 6.29404 5.89167
#
# Compressibility (1/GPa) = 0.02292849
#
# Stress axis : x y z
#
# Youngs Moduli (GPa) = 87.94551 58.11423 38.25756
#
# Poissons Ratio (x) = 0.18848 0.05742
# Poissons Ratio (y) = 0.28523 0.42657
# Poissons Ratio (z) = 0.13201 0.64797
#
# Static dielectric constant tensor:
#      x y z
#    x 1.791550 0.000000 0.000000 
#    y 0.000000 1.719190 0.000000 
#    z 0.000000 0.000000 1.684320 
# 
# From -- ./inp_files/1875.got.cif
#   From: 2010.05.17/outbox.cif.g08.bks.cpg/sg51_1_cif.got.tgz:1875.got - 2010.06.03 11:52:47.
