data_PCOD9406782
_publ_section_title
;
Structure prediction by ZEFSAII (Michael W. Deem and Ramdas Pophale) SiO2 
 PCOD9406782
Probable space group: P M M A
;
_chemical_formula_sum "Si O2"
_cell_formula_units_Z 64
_cell_length_a 8.555008
_cell_length_b 15.936881
_cell_length_c 24.408443
_cell_angle_alpha 90.000000
_cell_angle_beta 90.000000
_cell_angle_gamma 90.000000
_cell_volume 3327.850644
_symmetry_space_group_name_H-M "P M M A"
_symmetry_group_IT_number 51
_symmetry_cell_setting 'orthorhombic'
loop_
_space_group_symop_operation_xyz
x,y,z
1/2-x,-y,z
1/2+x,-y,-z
-x,y,-z
-x,-y,-z
1/2+x,y,-z
1/2-x,y,z
x,-y,z
loop_
_atom_site_type_symbol
_atom_site_label
_atom_site_fract_x
_atom_site_fract_y
_atom_site_fract_z
Si Si1 0.561238 0.905824 0.866332
Si Si2 0.062502 0.661171 0.748683
Si Si3 0.936701 0.150002 0.744662
Si Si4 0.937391 0.752867 0.061433
Si Si5 0.438690 0.406281 0.364169
Si Si6 0.059763 0.406273 0.867933
Si Si7 0.563106 0.749615 0.561385
Si Si8 0.936599 0.906440 0.370722
O O1 0.750000 0.900938 0.869251
O O2 0.517346 0.889512 0.802957
O O3 0.491670 0.833330 0.903970
O O4 0.513520 0.000000 0.882561
O O5 0.250000 0.671102 0.748481
O O6 0.016841 0.616775 0.805538
O O7 0.984344 0.752502 0.745794
O O8 0.009922 0.610088 0.695560
O O9 0.750000 0.142291 0.738605
O O10 0.016392 0.108014 0.692391
O O11 0.750000 0.751516 0.060561
O O12 0.993459 0.668183 0.092206
O O13 0.000000 0.756528 0.000000
O O14 0.250000 0.401252 0.359662
O O15 0.479498 0.500000 0.383360
O O16 0.491395 0.332262 0.404648
O O17 0.250000 0.406854 0.869742
O O18 0.005481 0.500000 0.882283
O O19 0.500000 0.749024 0.500000
O O20 0.750000 0.747698 0.559948
O O21 0.510283 0.832706 0.593437
O O22 0.750000 0.901267 0.375595
O O23 0.987461 0.000000 0.387674
#
# Coordination Sequence:
#
# PCOD9406782 Si02
#       8
#     8   8   8   8   8   8   8   8
#     4  10  22  40  62  88 119 155 195 240 293 354
#     4  11  20  34  60  91 123 159 199 241 294 356
#     4  11  21  36  61  91 125 160 194 239 299 359
#     4  11  23  40  61  85 115 154 199 248 297 348
#     4  10  22  40  61  89 124 160 199 245 299 357
#     4   9  19  36  58  86 120 155 193 239 292 349
#     4  11  24  42  64  88 119 161 204 253 302 351
#     4  11  24  41  63  92 124 158 199 247 297 356
#
# _framework density 19.231632000000001
#
# number of rings (size 3 to 8) (size 9 to 14) (size 15 to 20)
#    0.000    1.500    2.500    2.625    0.000    4.500 
#    0.000    0.000    0.000    3.375    0.000    0.000 
#    0.000    0.000    0.000    0.000    0.000    0.000 
#
# Total GULP energy -357711.404451 kJ/mol
# GULP energy per Si atom -5589.240695 kJ/mol
# Density = 1.918786 g / cm^3
# Si number density = 19.231632 Si / 1000 Ang^3
#
#
#
# Elastic Constant Matrix: (Units=GPa)
#
#
# Indices 1 2 3 4 5 6 
#
# 1 25.2232 26.7336 27.6182 0.0000 0.0000 0.0000
# 2 26.7336 170.3314 75.5796 0.0000 0.0000 0.0000
# 3 27.6182 75.5796 145.7736 0.0000 0.0000 0.0000
# 4 0.0000 0.0000 0.0000 -0.8977 0.0000 0.0000
# 5 0.0000 0.0000 0.0000 0.0000 19.4472 0.0000
# 6 0.0000 0.0000 0.0000 0.0000 0.0000 20.2362
#
#
#
# Elastic Compliance Matrix: (Units=1/GPa)
#
#
# Indices 1 2 3 4 5 6 
#
# 1 0.053148 -0.005031 -0.007461 0.000000 0.000000 0.000000
# 2 -0.005031 0.008101 -0.003247 0.000000 0.000000 0.000000
# 3 -0.007461 -0.003247 0.009957 0.000000 0.000000 0.000000
# 4 0.000000 0.000000 0.000000 -1.113910 0.000000 0.000000
# 5 0.000000 0.000000 0.000000 0.000000 0.051421 0.000000
# 6 0.000000 0.000000 0.000000 0.000000 0.000000 0.049416
#
#
# Mechanical properties :
#
#
# Convention : Reuss Voigt Hill
#
# Bulk Modulus (GPa) = 25.17124 66.79899 45.98511
# Shear Modulus (GPa) = -5.57323 21.85027 8.13852
#
# Velocity S-wave (km/s) = -1.70418 3.37436 2.05938
# Velocity P-wave (km/s) = 3.04048 7.07043 5.44222
#
# Compressibility (1/GPa) = 0.03972789
#
# Stress axis : x y z
#
# Youngs Moduli (GPa) = 18.81556 123.43609 100.43131
#
# Poissons Ratio (x) = 0.62100 0.74931
# Poissons Ratio (y) = 0.09466 0.32612
# Poissons Ratio (z) = 0.14038 0.40082
#
# Static dielectric constant tensor:
#      x y z
#    x 1.657260 0.000000 0.000000 
#    y 0.000000 1.676790 0.000000 
#    z 0.000000 0.000000 1.634220 
# 
# From -- ./inp_files/34838.got.cif
#   From: 2010.05.17/outbox.cif.g08.bks.cpg/sg51_18_cif.got.tgz:34838.got - 2010.06.03 11:52:47.
