data_PCOD9406085
_publ_section_title
;
Structure prediction by ZEFSAII (Michael W. Deem and Ramdas Pophale) SiO2 
 PCOD9406085
Probable space group: P M M A
;
_chemical_formula_sum "Si O2"
_cell_formula_units_Z 40
_cell_length_a 25.998974
_cell_length_b 8.805718
_cell_length_c 9.407835
_cell_angle_alpha 90.000000
_cell_angle_beta 90.000000
_cell_angle_gamma 90.000000
_cell_volume 2153.826295
_symmetry_space_group_name_H-M "P M M A"
_symmetry_group_IT_number 51
_symmetry_cell_setting 'orthorhombic'
loop_
_space_group_symop_operation_xyz
x,y,z
1/2-x,-y,z
1/2+x,-y,-z
-x,y,-z
-x,-y,-z
1/2+x,y,-z
1/2-x,y,z
x,-y,z
loop_
_atom_site_type_symbol
_atom_site_label
_atom_site_fract_x
_atom_site_fract_y
_atom_site_fract_z
Si Si1 0.498271 0.817887 0.165680
Si Si2 0.808822 0.682533 0.147437
Si Si3 0.905787 0.316824 0.335357
Si Si4 0.597869 0.682094 0.665428
Si Si5 0.690238 0.818736 0.837434
O O1 0.548445 0.757752 0.246787
O O2 0.448250 0.750443 0.242034
O O3 0.496451 0.000000 0.172700
O O4 0.500000 0.772603 0.000000
O O5 0.750000 0.722354 0.187271
O O6 0.810844 0.500000 0.127817
O O7 0.851224 0.723855 0.263981
O O8 0.820834 0.760460 0.997007
O O9 0.911252 0.500000 0.327810
O O10 0.907864 0.272858 0.500529
O O11 0.596052 0.500000 0.673316
O O12 0.651322 0.740701 0.729514
O O13 0.750000 0.781661 0.807343
O O14 0.684020 0.000000 0.832493
#
# Coordination Sequence:
#
# PCOD9406085 Si02
#       5
#     8   8   8   8   8
#     4  11  24  40  59  83 111 145 186 230 277 332
#     4   9  18  35  59  84 111 146 186 227 273 325
#     4  10  22  38  57  84 115 146 184 230 278 329
#     4  11  23  38  58  84 114 147 185 230 278 330
#     4  10  21  37  57  83 115 149 187 230 274 325
#
# _framework density 18.5716
#
# number of rings (size 3 to 8) (size 9 to 14) (size 15 to 20)
#    0.000    1.800    0.000    3.600    0.000   11.600 
#    0.000    2.000    0.000    2.400    0.000    0.000 
#    0.000    0.000    0.000    0.000    0.000    0.000 
#
# Total GULP energy -223547.171922 kJ/mol
# GULP energy per Si atom -5588.679298 kJ/mol
# Density = 1.852933 g / cm^3
# Si number density = 18.571600 Si / 1000 Ang^3
#
#
#
# Elastic Constant Matrix: (Units=GPa)
#
#
# Indices 1 2 3 4 5 6 
#
# 1 124.3565 49.3014 116.7247 0.0000 0.0000 0.0000
# 2 49.3014 35.8659 61.9660 0.0000 0.0000 0.0000
# 3 116.7247 61.9660 192.8173 0.0000 0.0000 0.0000
# 4 0.0000 0.0000 0.0000 -4.0194 0.0000 0.0000
# 5 0.0000 0.0000 0.0000 0.0000 -66.8394 0.0000
# 6 0.0000 0.0000 0.0000 0.0000 0.0000 31.7349
#
#
#
# Elastic Compliance Matrix: (Units=1/GPa)
#
#
# Indices 1 2 3 4 5 6 
#
# 1 0.022231 -0.016430 -0.008178 0.000000 0.000000 0.000000
# 2 -0.016430 0.074832 -0.014103 0.000000 0.000000 0.000000
# 3 -0.008178 -0.014103 0.014669 0.000000 0.000000 0.000000
# 4 0.000000 0.000000 0.000000 -0.248793 0.000000 0.000000
# 5 0.000000 0.000000 0.000000 0.000000 -0.014961 0.000000
# 6 0.000000 0.000000 0.000000 0.000000 0.000000 0.031511
#
#
# Mechanical properties :
#
#
# Convention : Reuss Voigt Hill
#
# Bulk Modulus (GPa) = 29.14529 89.89156 59.51842
# Shear Modulus (GPa) = -157.95547 0.51173 -78.72187
#
# Velocity S-wave (km/s) = -9.23238 0.52549 -6.51769
# Velocity P-wave (km/s) = 9.89553 6.99113 4.95205
#
# Compressibility (1/GPa) = 0.03431086
#
# Stress axis : x y z
#
# Youngs Moduli (GPa) = 44.98239 13.36332 68.17143
#
# Poissons Ratio (x) = 0.21956 0.55748
# Poissons Ratio (y) = 0.73906 0.96140
# Poissons Ratio (z) = 0.36785 0.18846
#
# Static dielectric constant tensor:
#      x y z
#    x 1.624920 0.000000 0.000000 
#    y 0.000000 1.623140 0.000000 
#    z 0.000000 0.000000 1.608780 
# 
# From -- ./inp_files/11415.got.cif
#   From: 2010.05.17/outbox.cif.g08.bks.cpg/sg51_6_cif.got.tgz:11415.got - 2010.06.03 11:52:47.
