data_PCOD9406425
_publ_section_title
;
Structure prediction by ZEFSAII (Michael W. Deem and Ramdas Pophale) SiO2 
 PCOD9406425
Probable space group: P M M A
;
_chemical_formula_sum "Si O2"
_cell_formula_units_Z 56
_cell_length_a 16.469080
_cell_length_b 13.407428
_cell_length_c 12.258723
_cell_angle_alpha 90.000000
_cell_angle_beta 90.000000
_cell_angle_gamma 90.000000
_cell_volume 2706.824161
_symmetry_space_group_name_H-M "P M M A"
_symmetry_group_IT_number 51
_symmetry_cell_setting 'orthorhombic'
loop_
_space_group_symop_operation_xyz
x,y,z
1/2-x,-y,z
1/2+x,-y,-z
-x,y,-z
-x,-y,-z
1/2+x,y,-z
1/2-x,y,z
x,-y,z
loop_
_atom_site_type_symbol
_atom_site_label
_atom_site_fract_x
_atom_site_fract_y
_atom_site_fract_z
Si Si1 0.960625 0.610633 0.186231
Si Si2 0.064458 0.388720 0.405825
Si Si3 0.559518 0.210959 0.907794
Si Si4 0.904552 0.889847 0.474773
Si Si5 0.344632 0.799142 0.313276
Si Si6 0.154223 0.110787 0.931813
Si Si7 0.153256 0.772449 0.728081
O O1 0.946880 0.500000 0.140892
O O2 0.880305 0.669382 0.223396
O O3 0.011384 0.602005 0.297100
O O4 0.015052 0.684604 0.113322
O O5 0.097193 0.500000 0.433260
O O6 0.129905 0.305429 0.372403
O O7 0.000000 0.360147 0.500000
O O8 0.592357 0.180244 0.787144
O O9 0.500000 0.158146 0.000000
O O10 0.639280 0.197777 0.980627
O O11 0.858628 0.876545 0.589074
O O12 0.880156 0.805549 0.388530
O O13 0.000000 0.883339 0.500000
O O14 0.886370 0.000000 0.428808
O O15 0.250000 0.797745 0.278905
O O16 0.250000 0.104249 0.916126
O O17 0.120622 0.145752 0.815115
O O18 0.127095 0.000000 0.966480
O O19 0.250000 0.771838 0.722892
#
# Coordination Sequence:
#
# PCOD9406425 Si02
#       7
#     8   8   8   8   8   8   8
#     4  10  21  38  61  91 123 161 210 261 316 373
#     4   9  18  35  60  87 120 161 204 250 305 375
#     4  11  22  41  62  88 121 170 217 267 316 379
#     4  11  24  41  64  93 127 164 206 252 311 386
#     4  11  23  38  60  90 127 161 204 263 322 377
#     4  10  22  40  62  88 120 162 214 268 318 372
#     4  11  22  40  63  90 125 162 205 257 317 382
#
# _framework density 20.688452000000002
#
# number of rings (size 3 to 8) (size 9 to 14) (size 15 to 20)
#    0.000    1.571    1.429    4.286    0.000    3.429 
#    0.000    0.000    0.000    5.571    0.000    0.000 
#    0.000    0.000    0.000    0.000    0.000    0.000 
#
# Total GULP energy -311736.615768 kJ/mol
# GULP energy per Si atom -5566.725282 kJ/mol
# Density = 2.064136 g / cm^3
# Si number density = 20.688452 Si / 1000 Ang^3
#
#
#
# Elastic Constant Matrix: (Units=GPa)
#
#
# Indices 1 2 3 4 5 6 
#
# 1 70.2262 40.5546 23.4608 0.0000 0.0000 0.0000
# 2 40.5546 84.8676 28.0470 0.0000 0.0000 0.0000
# 3 23.4608 28.0470 124.3198 0.0000 0.0000 0.0000
# 4 0.0000 0.0000 0.0000 24.4550 0.0000 0.0000
# 5 0.0000 0.0000 0.0000 0.0000 33.3526 0.0000
# 6 0.0000 0.0000 0.0000 0.0000 0.0000 -45.2802
#
#
#
# Elastic Compliance Matrix: (Units=1/GPa)
#
#
# Indices 1 2 3 4 5 6 
#
# 1 0.020013 -0.008985 -0.001750 0.000000 0.000000 0.000000
# 2 -0.008985 0.016766 -0.002087 0.000000 0.000000 0.000000
# 3 -0.001750 -0.002087 0.008845 0.000000 0.000000 0.000000
# 4 0.000000 0.000000 0.000000 0.040891 0.000000 0.000000
# 5 0.000000 0.000000 0.000000 0.000000 0.029983 0.000000
# 6 0.000000 0.000000 0.000000 0.000000 0.000000 -0.022085
#
#
# Mechanical properties :
#
#
# Convention : Reuss Voigt Hill
#
# Bulk Modulus (GPa) = 50.04828 51.50426 50.77627
# Shear Modulus (GPa) = 39.45798 14.99557 27.22678
#
# Velocity S-wave (km/s) = 4.37194 2.69518 3.63166
# Velocity P-wave (km/s) = 7.05189 5.88511 6.49475
#
# Compressibility (1/GPa) = 0.01998071
#
# Stress axis : x y z
#
# Youngs Moduli (GPa) = 49.96757 59.64326 113.06114
#
# Poissons Ratio (x) = 0.53590 0.19782
# Poissons Ratio (y) = 0.44896 0.23595
# Poissons Ratio (z) = 0.08743 0.12447
#
# Static dielectric constant tensor:
#      x y z
#    x 1.820630 0.000000 0.000000 
#    y 0.000000 1.807670 0.000000 
#    z 0.000000 0.000000 1.769420 
# 
# From -- ./inp_files/16632.got.cif
#   From: 2010.05.17/outbox.cif.g08.bks.cpg/sg51_9_cif.got.tgz:16632.got - 2010.06.03 11:52:47.
