data_PCOD9406993
_publ_section_title
;
Structure prediction by ZEFSAII (Michael W. Deem and Ramdas Pophale) SiO2 
 PCOD9406993
Probable space group: P M M A
;
_chemical_formula_sum "Si O2"
_cell_formula_units_Z 36
_cell_length_a 8.787686
_cell_length_b 13.089897
_cell_length_c 20.436789
_cell_angle_alpha 90.000000
_cell_angle_beta 90.000000
_cell_angle_gamma 90.000000
_cell_volume 2350.841889
_symmetry_space_group_name_H-M "P M M A"
_symmetry_group_IT_number 51
_symmetry_cell_setting 'orthorhombic'
loop_
_space_group_symop_operation_xyz
x,y,z
1/2-x,-y,z
1/2+x,-y,-z
-x,y,-z
-x,-y,-z
1/2+x,y,-z
1/2-x,y,z
x,-y,z
loop_
_atom_site_type_symbol
_atom_site_label
_atom_site_fract_x
_atom_site_fract_y
_atom_site_fract_z
Si Si1 0.066945 0.377945 0.211319
Si Si2 0.932515 0.310977 0.345710
Si Si3 0.567628 0.500000 0.572972
Si Si4 0.068108 0.378643 0.066912
Si Si5 0.433242 0.115958 0.571319
O O1 0.250000 0.366660 0.216474
O O2 0.035936 0.500000 0.216143
O O3 0.018888 0.341010 0.138727
O O4 0.986304 0.323199 0.271280
O O5 0.750000 0.321823 0.349636
O O6 0.977269 0.202369 0.376983
O O7 0.008936 0.400926 0.387941
O O8 0.750000 0.500000 0.570595
O O9 0.500000 0.500000 0.500000
O O10 0.250000 0.369860 0.063857
O O11 0.031498 0.500000 0.067633
O O12 0.000000 0.334712 0.000000
O O13 0.500000 0.140679 0.500000
O O14 0.250000 0.116863 0.566594
O O15 0.481036 0.000000 0.588290
#
# Coordination Sequence:
#
# PCOD9406993 Si02
#       5
#     8   8   4   8   8
#     4   9  17  29  43  61  90 126 154 183 224 266
#     4  11  21  32  48  70  92 118 154 188 223 272
#     4  12  24  36  48  64  91 122 151 186 226 268
#     4   8  14  24  38  57  82 115 153 185 217 255
#     4   9  19  35  52  69  89 113 145 189 235 274
#
# _framework density 15.313663
#
# number of rings (size 3 to 8) (size 9 to 14) (size 15 to 20)
#    0.000    2.444    1.111    3.667    0.000    4.444 
#    0.000    2.222    0.000    0.000    0.000    0.000 
#    0.000    0.889    0.000    2.000    0.000    3.111 
#
# Total GULP energy -200612.948465 kJ/mol
# GULP energy per Si atom -5572.581902 kJ/mol
# Density = 1.527881 g / cm^3
# Si number density = 15.313663 Si / 1000 Ang^3
#
#
#
# Elastic Constant Matrix: (Units=GPa)
#
#
# Indices 1 2 3 4 5 6 
#
# 1 36.0460 28.3442 46.3978 0.0000 0.0000 0.0000
# 2 28.3442 66.7394 65.9955 0.0000 0.0000 0.0000
# 3 46.3978 65.9955 171.9354 0.0000 0.0000 0.0000
# 4 0.0000 0.0000 0.0000 11.7220 0.0000 0.0000
# 5 0.0000 0.0000 0.0000 0.0000 31.0070 0.0000
# 6 0.0000 0.0000 0.0000 0.0000 0.0000 5.6126
#
#
#
# Elastic Compliance Matrix: (Units=1/GPa)
#
#
# Indices 1 2 3 4 5 6 
#
# 1 0.047973 -0.012205 -0.008261 0.000000 0.000000 0.000000
# 2 -0.012205 0.027255 -0.007168 0.000000 0.000000 0.000000
# 3 -0.008261 -0.007168 0.010797 0.000000 0.000000 0.000000
# 4 0.000000 0.000000 0.000000 0.085310 0.000000 0.000000
# 5 0.000000 0.000000 0.000000 0.000000 0.032251 0.000000
# 6 0.000000 0.000000 0.000000 0.000000 0.000000 0.178170
#
#
# Mechanical properties :
#
#
# Convention : Reuss Voigt Hill
#
# Bulk Modulus (GPa) = 32.51321 61.79954 47.15638
# Shear Modulus (GPa) = 11.17876 18.60053 14.88964
#
# Velocity S-wave (km/s) = 2.70476 3.48894 3.12157
# Velocity P-wave (km/s) = 5.57063 7.52820 6.62214
#
# Compressibility (1/GPa) = 0.03075673
#
# Stress axis : x y z
#
# Youngs Moduli (GPa) = 20.84501 36.69000 92.62038
#
# Poissons Ratio (x) = 0.44781 0.76513
# Poissons Ratio (y) = 0.25442 0.66390
# Poissons Ratio (z) = 0.17220 0.26299
#
# Static dielectric constant tensor:
#      x y z
#    x 1.513300 0.000000 0.000000 
#    y 0.000000 1.493710 0.000000 
#    z 0.000000 0.000000 1.528560 
# 
# From -- ./inp_files/31299.got.cif
#   From: 2010.05.17/outbox.cif.g08.bks.cpg/sg51_16_cif.got.tgz:31299.got - 2010.06.03 11:52:47.
