data_PCOD9406727
_publ_section_title
;
Structure prediction by ZEFSAII (Michael W. Deem and Ramdas Pophale) SiO2 
 PCOD9406727
Probable space group: P M M A
;
_chemical_formula_sum "Si O2"
_cell_formula_units_Z 48
_cell_length_a 21.001315
_cell_length_b 8.596433
_cell_length_c 12.726431
_cell_angle_alpha 90.000000
_cell_angle_beta 90.000000
_cell_angle_gamma 90.000000
_cell_volume 2297.584003
_symmetry_space_group_name_H-M "P M M A"
_symmetry_group_IT_number 51
_symmetry_cell_setting 'orthorhombic'
loop_
_space_group_symop_operation_xyz
x,y,z
1/2-x,-y,z
1/2+x,-y,-z
-x,y,-z
-x,-y,-z
1/2+x,y,-z
1/2-x,y,z
x,-y,z
loop_
_atom_site_type_symbol
_atom_site_label
_atom_site_fract_x
_atom_site_fract_y
_atom_site_fract_z
Si Si1 0.415603 0.178854 0.520391
Si Si2 0.326735 0.323665 0.154082
Si Si3 0.676630 0.816715 0.065915
Si Si4 0.035575 0.811578 0.891499
Si Si5 0.825265 0.322384 0.612951
Si Si6 0.997511 0.682433 0.673110
O O1 0.345392 0.209784 0.479553
O O2 0.434169 0.282903 0.619124
O O3 0.454053 0.234366 0.415732
O O4 0.428264 0.000000 0.544179
O O5 0.250000 0.332935 0.159739
O O6 0.349913 0.500000 0.132497
O O7 0.348848 0.276286 0.270073
O O8 0.338630 0.210900 0.057584
O O9 0.750000 0.754640 0.085398
O O10 0.610098 0.757331 0.116325
O O11 0.680009 0.000000 0.087972
O O12 0.998203 0.750952 0.789513
O O13 0.036168 0.000000 0.890110
O O14 0.000000 0.763752 0.000000
O O15 0.750000 0.326799 0.619023
O O16 0.847277 0.500000 0.592706
O O17 0.984669 0.500000 0.675481
#
# Coordination Sequence:
#
# PCOD9406727 Si02
#       6
#     8   8   8   8   8   8
#     4  11  22  38  62  86 114 151 192 239 294 351
#     4   8  15  28  47  73 108 147 184 225 273 326
#     4   9  18  33  53  78 110 150 192 231 279 342
#     4  10  22  39  58  84 119 153 189 240 297 345
#     4   9  18  33  53  82 119 154 190 236 288 341
#     4  11  23  41  62  84 111 148 196 242 292 351
#
# _framework density 20.89151
#
# number of rings (size 3 to 8) (size 9 to 14) (size 15 to 20)
#    0.000    2.333    0.000    5.000    2.333    2.000 
#    0.000    2.500    0.000    3.000    0.000    0.000 
#    0.000    0.000    0.000    0.000    0.000    0.000 
#
# Total GULP energy -267376.049620 kJ/mol
# GULP energy per Si atom -5570.334367 kJ/mol
# Density = 2.084396 g / cm^3
# Si number density = 20.891510 Si / 1000 Ang^3
#
#
#
# Elastic Constant Matrix: (Units=GPa)
#
#
# Indices 1 2 3 4 5 6 
#
# 1 75.9425 16.9125 23.2969 0.0000 0.0000 0.0000
# 2 16.9125 28.5759 11.8277 0.0000 0.0000 0.0000
# 3 23.2969 11.8277 91.1166 0.0000 0.0000 0.0000
# 4 0.0000 0.0000 0.0000 6.2013 0.0000 0.0000
# 5 0.0000 0.0000 0.0000 0.0000 33.8990 0.0000
# 6 0.0000 0.0000 0.0000 0.0000 0.0000 16.5082
#
#
#
# Elastic Compliance Matrix: (Units=1/GPa)
#
#
# Indices 1 2 3 4 5 6 
#
# 1 0.015910 -0.008172 -0.003007 0.000000 0.000000 0.000000
# 2 -0.008172 0.041179 -0.003256 0.000000 0.000000 0.000000
# 3 -0.003007 -0.003256 0.012166 0.000000 0.000000 0.000000
# 4 0.000000 0.000000 0.000000 0.161257 0.000000 0.000000
# 5 0.000000 0.000000 0.000000 0.000000 0.029499 0.000000
# 6 0.000000 0.000000 0.000000 0.000000 0.000000 0.060576
#
#
# Mechanical properties :
#
#
# Convention : Reuss Voigt Hill
#
# Bulk Modulus (GPa) = 24.76136 33.30103 29.03119
# Shear Modulus (GPa) = 13.77716 20.89489 17.33602
#
# Velocity S-wave (km/s) = 2.57079 3.16596 2.88377
# Velocity P-wave (km/s) = 4.54863 5.41655 5.00145
#
# Compressibility (1/GPa) = 0.04038551
#
# Stress axis : x y z
#
# Youngs Moduli (GPa) = 62.85266 24.28451 82.19294
#
# Poissons Ratio (x) = 0.19844 0.24717
# Poissons Ratio (y) = 0.51361 0.26762
# Poissons Ratio (z) = 0.18901 0.07907
#
# Static dielectric constant tensor:
#      x y z
#    x 1.955700 0.000000 0.000000 
#    y 0.000000 1.744980 0.000000 
#    z 0.000000 0.000000 1.738660 
# 
# From -- ./inp_files/18634.got.cif
#   From: 2010.05.17/outbox.cif.g08.bks.cpg/sg51_10_cif.got.tgz:18634.got - 2010.06.03 11:52:47.
