data_PCOD9406540
_publ_section_title
;
Structure prediction by ZEFSAII (Michael W. Deem and Ramdas Pophale) SiO2 
 PCOD9406540
Probable space group: P M M A
;
_chemical_formula_sum "Si O2"
_cell_formula_units_Z 48
_cell_length_a 8.613711
_cell_length_b 31.620140
_cell_length_c 9.240547
_cell_angle_alpha 90.000000
_cell_angle_beta 90.000000
_cell_angle_gamma 90.000000
_cell_volume 2516.817734
_symmetry_space_group_name_H-M "P M M A"
_symmetry_group_IT_number 51
_symmetry_cell_setting 'orthorhombic'
loop_
_space_group_symop_operation_xyz
x,y,z
1/2-x,-y,z
1/2+x,-y,-z
-x,y,-z
-x,-y,-z
1/2+x,y,-z
1/2-x,y,z
x,-y,z
loop_
_atom_site_type_symbol
_atom_site_label
_atom_site_fract_x
_atom_site_fract_y
_atom_site_fract_z
Si Si1 0.564441 0.865719 0.835568
Si Si2 0.064097 0.214375 0.662531
Si Si3 0.064850 0.373990 0.661427
Si Si4 0.064234 0.294639 0.162367
Si Si5 0.935701 0.450726 0.839059
Si Si6 0.063649 0.046237 0.835447
O O1 0.750000 0.863703 0.839879
O O2 0.496040 0.827585 0.742723
O O3 0.510642 0.911236 0.773046
O O4 0.500000 0.862472 0.000000
O O5 0.250000 0.215002 0.661422
O O6 0.000000 0.215463 0.500000
O O7 0.001014 0.254896 0.748782
O O8 0.250000 0.370221 0.660888
O O9 0.000000 0.369462 0.500000
O O10 0.992906 0.337352 0.760837
O O11 0.013989 0.418843 0.727775
O O12 0.250000 0.293245 0.160663
O O13 0.000000 0.293049 0.000000
O O14 0.750000 0.444816 0.838104
O O15 0.968900 0.500000 0.806325
O O16 0.000000 0.442001 0.000000
O O17 0.250000 0.050566 0.839085
O O18 0.025828 0.000000 0.770105
O O19 0.000000 0.044914 0.000000
#
# Coordination Sequence:
#
# PCOD9406540 Si02
#       6
#     8   8   8   8   8   8
#     4  11  21  35  56  84 116 153 195 240 290 344
#     4  12  25  43  63  87 118 153 193 238 291 349
#     4  12  25  42  63  90 124 162 202 246 298 354
#     4  12  25  44  67  93 122 155 196 241 291 346
#     4  10  21  39  63  91 123 161 205 252 301 353
#     4   9  16  27  46  75 110 147 188 237 290 341
#
# _framework density 19.071702999999999
#
# number of rings (size 3 to 8) (size 9 to 14) (size 15 to 20)
#    0.000    1.000    0.000    9.500    0.000    2.333 
#    0.000    0.000    0.000    0.500    0.000    0.000 
#    0.000    0.000    0.000    0.000    0.000    0.000 
#
# Total GULP energy -268468.995015 kJ/mol
# GULP energy per Si atom -5593.104063 kJ/mol
# Density = 1.902830 g / cm^3
# Si number density = 19.071703 Si / 1000 Ang^3
#
#
#
# Elastic Constant Matrix: (Units=GPa)
#
#
# Indices 1 2 3 4 5 6 
#
# 1 200.9418 77.8511 68.0949 0.0000 0.0000 0.0000
# 2 77.8511 132.8422 81.3727 0.0000 0.0000 0.0000
# 3 68.0949 81.3727 128.4240 0.0000 0.0000 0.0000
# 4 0.0000 0.0000 0.0000 -19.6184 0.0000 0.0000
# 5 0.0000 0.0000 0.0000 0.0000 33.4828 0.0000
# 6 0.0000 0.0000 0.0000 0.0000 0.0000 44.5851
#
#
#
# Elastic Compliance Matrix: (Units=1/GPa)
#
#
# Indices 1 2 3 4 5 6 
#
# 1 0.006666 -0.002846 -0.001731 0.000000 0.000000 0.000000
# 2 -0.002846 0.013518 -0.007056 0.000000 0.000000 0.000000
# 3 -0.001731 -0.007056 0.013176 0.000000 0.000000 0.000000
# 4 0.000000 0.000000 0.000000 -0.050973 0.000000 0.000000
# 5 0.000000 0.000000 0.000000 0.000000 0.029866 0.000000
# 6 0.000000 0.000000 0.000000 0.000000 0.000000 0.022429
#
#
# Mechanical properties :
#
#
# Convention : Reuss Voigt Hill
#
# Bulk Modulus (GPa) = 99.08277 101.87170 100.47723
# Shear Modulus (GPa) = 81.54886 27.34920 54.44903
#
# Velocity S-wave (km/s) = 6.54614 3.79095 5.34898
# Velocity P-wave (km/s) = 10.44995 8.52601 9.53662
#
# Compressibility (1/GPa) = 0.01009257
#
# Stress axis : x y z
#
# Youngs Moduli (GPa) = 150.01809 73.97572 75.89776
#
# Poissons Ratio (x) = 0.21054 0.13139
# Poissons Ratio (y) = 0.42696 0.53555
# Poissons Ratio (z) = 0.25970 0.52199
#
# Static dielectric constant tensor:
#      x y z
#    x 1.633510 0.000000 0.000000 
#    y 0.000000 1.675660 0.000000 
#    z 0.000000 0.000000 1.625240 
# 
# From -- ./inp_files/6055.got.cif
#   From: 2010.05.17/outbox.cif.g08.bks.cpg/sg51_4_cif.got.tgz:6055.got - 2010.06.03 11:52:47.
