data_PCOD9406785
_publ_section_title
;
Structure prediction by ZEFSAII (Michael W. Deem and Ramdas Pophale) SiO2 
 PCOD9406785
Probable space group: P M M A
;
_chemical_formula_sum "Si O2"
_cell_formula_units_Z 30
_cell_length_a 35.807156
_cell_length_b 7.181882
_cell_length_c 5.024107
_cell_angle_alpha 90.000000
_cell_angle_beta 90.000000
_cell_angle_gamma 90.000000
_cell_volume 1292.013269
_symmetry_space_group_name_H-M "P M M A"
_symmetry_group_IT_number 51
_symmetry_cell_setting 'orthorhombic'
loop_
_space_group_symop_operation_xyz
x,y,z
1/2-x,-y,z
1/2+x,-y,-z
-x,y,-z
-x,-y,-z
1/2+x,y,-z
1/2-x,y,z
x,-y,z
loop_
_atom_site_type_symbol
_atom_site_label
_atom_site_fract_x
_atom_site_fract_y
_atom_site_fract_z
Si Si1 0.250000 0.000000 0.808929
Si Si2 0.407425 0.722996 0.659324
Si Si3 0.026990 0.000000 0.750528
Si Si4 0.790356 0.280460 0.513761
Si Si5 0.138641 0.724527 0.155558
O O1 0.217550 0.162356 0.749960
O O2 0.411323 0.500000 0.676176
O O3 0.394511 0.770969 0.361806
O O4 0.445123 0.824631 0.739461
O O5 0.374383 0.780268 0.863179
O O6 0.000000 0.000000 0.500000
O O7 0.000000 0.000000 0.000000
O O8 0.750000 0.250171 0.659383
O O9 0.794845 0.500000 0.455376
O O10 0.823604 0.213734 0.699434
O O11 0.142092 0.500000 0.146633
#
# Coordination Sequence:
#
# PCOD9406785 Si02
#       5
#     2   8   4   8   8
#     4   8  14  24  46  68 100 146 186 226 284 326
#     4  10  22  40  62  88 116 151 191 232 284 344
#     4  12  26  42  63  92 119 148 185 228 288 351
#     4   8  15  28  47  76 111 146 192 241 277 322
#     4   9  18  36  60  84 115 155 196 238 285 332
#
# _framework density 23.219574999999999
#
# number of rings (size 3 to 8) (size 9 to 14) (size 15 to 20)
#    0.800    1.867    0.000    1.600    0.000    3.200 
#    0.000    1.333    0.000    9.600    0.000    0.000 
#    0.000    0.000    0.000    0.000    0.000    0.000 
#
# Total GULP energy -167004.241642 kJ/mol
# GULP energy per Si atom -5566.808055 kJ/mol
# Density = 2.316673 g / cm^3
# Si number density = 23.219575 Si / 1000 Ang^3
#
#
#
# Elastic Constant Matrix: (Units=GPa)
#
#
# Indices 1 2 3 4 5 6 
#
# 1 94.2496 29.0985 8.0824 0.0000 0.0000 0.0000
# 2 29.0985 105.5804 -2.2144 0.0000 0.0000 0.0000
# 3 8.0824 -2.2144 92.6646 0.0000 0.0000 0.0000
# 4 0.0000 0.0000 0.0000 -6.2004 0.0000 0.0000
# 5 0.0000 0.0000 0.0000 0.0000 26.1243 0.0000
# 6 0.0000 0.0000 0.0000 0.0000 0.0000 62.6417
#
#
#
# Elastic Compliance Matrix: (Units=1/GPa)
#
#
# Indices 1 2 3 4 5 6 
#
# 1 0.011708 -0.003250 -0.001099 0.000000 0.000000 0.000000
# 2 -0.003250 0.010378 0.000531 0.000000 0.000000 0.000000
# 3 -0.001099 0.000531 0.010900 0.000000 0.000000 0.000000
# 4 0.000000 0.000000 0.000000 -0.161281 0.000000 0.000000
# 5 0.000000 0.000000 0.000000 0.000000 0.038279 0.000000
# 6 0.000000 0.000000 0.000000 0.000000 0.000000 0.015964
#
#
# Mechanical properties :
#
#
# Convention : Reuss Voigt Hill
#
# Bulk Modulus (GPa) = 39.44486 40.26974 39.85730
# Shear Modulus (GPa) = -86.25486 33.68166 -26.28660
#
# Velocity S-wave (km/s) = -6.10149 3.81277 -3.36830
# Velocity P-wave (km/s) = 5.71077 6.06330 1.44062
#
# Compressibility (1/GPa) = 0.02535185
#
# Stress axis : x y z
#
# Youngs Moduli (GPa) = 85.41405 96.35541 91.74186
#
# Poissons Ratio (x) = 0.31313 0.10081
# Poissons Ratio (y) = 0.27757 -0.04876
# Poissons Ratio (z) = 0.09386 -0.05121
#
# Static dielectric constant tensor:
#      x y z
#    x 1.865220 0.000000 0.000000 
#    y 0.000000 1.887360 0.000000 
#    z 0.000000 0.000000 1.894390 
# 
# From -- ./inp_files/3766.got.cif
#   From: 2010.05.17/outbox.cif.g08.bks.cpg/sg51_2_cif.got.tgz:3766.got - 2010.06.03 11:52:47.
