data_PCOD9406126
_publ_section_title
;
Structure prediction by ZEFSAII (Michael W. Deem and Ramdas Pophale) SiO2 
 PCOD9406126
Probable space group: P M M A
;
_chemical_formula_sum "Si O2"
_cell_formula_units_Z 30
_cell_length_a 9.319906
_cell_length_b 10.943240
_cell_length_c 15.074490
_cell_angle_alpha 90.000000
_cell_angle_beta 90.000000
_cell_angle_gamma 90.000000
_cell_volume 1537.446755
_symmetry_space_group_name_H-M "P M M A"
_symmetry_group_IT_number 51
_symmetry_cell_setting 'orthorhombic'
loop_
_space_group_symop_operation_xyz
x,y,z
1/2-x,-y,z
1/2+x,-y,-z
-x,y,-z
-x,-y,-z
1/2+x,y,-z
1/2-x,y,z
x,-y,z
loop_
_atom_site_type_symbol
_atom_site_label
_atom_site_fract_x
_atom_site_fract_y
_atom_site_fract_z
Si Si1 0.411313 0.145431 0.915963
Si Si2 0.920212 0.354932 0.406491
Si Si3 0.453442 0.500000 0.132370
Si Si4 0.750000 0.500000 0.039720
Si Si5 0.085433 0.253393 0.241021
O O1 0.250000 0.199453 0.914786
O O2 0.496982 0.167899 0.826084
O O3 0.398468 0.000000 0.928905
O O4 0.500000 0.196198 0.000000
O O5 0.750000 0.328602 0.412023
O O6 0.935025 0.500000 0.385064
O O7 0.000000 0.335533 0.500000
O O8 0.999377 0.276684 0.331315
O O9 0.369913 0.500000 0.040434
O O10 0.412986 0.618705 0.188656
O O11 0.622449 0.500000 0.114406
O O12 0.250000 0.213015 0.254952
#
# Coordination Sequence:
#
# PCOD9406126 Si02
#       5
#     8   8   4   2   8
#     4  10  23  41  60  83 113 152 198 244 289 337
#     4  10  21  37  58  84 117 153 190 235 286 343
#     4  11  24  36  51  80 114 154 190 230 280 341
#     4  10  24  38  48  70 120 158 188 228 280 340
#     4  12  23  36  58  84 117 151 193 235 282 345
#
# _framework density 19.512872000000002
#
# number of rings (size 3 to 8) (size 9 to 14) (size 15 to 20)
#    0.000    1.333    2.667    2.400    7.467    2.667 
#    0.000    0.000    0.000    0.800    0.000    0.000 
#    0.000    0.000    0.000    0.000    0.000    0.000 
#
# Total GULP energy -167156.531705 kJ/mol
# GULP energy per Si atom -5571.884390 kJ/mol
# Density = 1.946846 g / cm^3
# Si number density = 19.512872 Si / 1000 Ang^3
#
#
#
# Elastic Constant Matrix: (Units=GPa)
#
#
# Indices 1 2 3 4 5 6 
#
# 1 247.5619 11.1018 92.7073 0.0000 0.0000 0.0000
# 2 11.1018 14.9389 4.7334 0.0000 0.0000 0.0000
# 3 92.7073 4.7334 136.2402 0.0000 0.0000 0.0000
# 4 0.0000 0.0000 0.0000 94.5207 0.0000 0.0000
# 5 0.0000 0.0000 0.0000 0.0000 43.2929 0.0000
# 6 0.0000 0.0000 0.0000 0.0000 0.0000 26.0468
#
#
#
# Elastic Compliance Matrix: (Units=1/GPa)
#
#
# Indices 1 2 3 4 5 6 
#
# 1 0.005547 -0.002959 -0.003672 0.000000 0.000000 0.000000
# 2 -0.002959 0.069263 -0.000393 0.000000 0.000000 0.000000
# 3 -0.003672 -0.000393 0.009852 0.000000 0.000000 0.000000
# 4 0.000000 0.000000 0.000000 0.010580 0.000000 0.000000
# 5 0.000000 0.000000 0.000000 0.000000 0.023098 0.000000
# 6 0.000000 0.000000 0.000000 0.000000 0.000000 0.038392
#
#
# Mechanical properties :
#
#
# Convention : Reuss Voigt Hill
#
# Bulk Modulus (GPa) = 14.16138 68.42510 41.29324
# Shear Modulus (GPa) = 25.73100 52.11864 38.92482
#
# Velocity S-wave (km/s) = 3.63529 5.17377 4.47119
# Velocity P-wave (km/s) = 4.98935 8.41625 6.91834
#
# Compressibility (1/GPa) = 0.07061458
#
# Stress axis : x y z
#
# Youngs Moduli (GPa) = 180.27362 14.43780 101.50008
#
# Poissons Ratio (x) = 0.04272 0.37269
# Poissons Ratio (y) = 0.53341 0.03988
# Poissons Ratio (z) = 0.66194 0.00567
#
# Static dielectric constant tensor:
#      x y z
#    x 1.719710 0.000000 0.000000 
#    y 0.000000 1.771010 0.000000 
#    z 0.000000 0.000000 1.636870 
# 
# From -- ./inp_files/20019.got.cif
#   From: 2010.05.17/outbox.cif.g08.bks.cpg/sg51_11_cif.got.tgz:20019.got - 2010.06.03 11:52:47.
