data_PCOD9406222
_publ_section_title
;
Structure prediction by ZEFSAII (Michael W. Deem and Ramdas Pophale) SiO2 
 PCOD9406222
Probable space group: P M M A
;
_chemical_formula_sum "Si O2"
_cell_formula_units_Z 30
_cell_length_a 7.374749
_cell_length_b 21.235133
_cell_length_c 7.726322
_cell_angle_alpha 90.000000
_cell_angle_beta 90.000000
_cell_angle_gamma 90.000000
_cell_volume 1209.971199
_symmetry_space_group_name_H-M "P M M A"
_symmetry_group_IT_number 51
_symmetry_cell_setting 'orthorhombic'
loop_
_space_group_symop_operation_xyz
x,y,z
1/2-x,-y,z
1/2+x,-y,-z
-x,y,-z
-x,-y,-z
1/2+x,y,-z
1/2-x,y,z
x,-y,z
loop_
_atom_site_type_symbol
_atom_site_label
_atom_site_fract_x
_atom_site_fract_y
_atom_site_fract_z
Si Si1 0.465309 0.271750 0.801794
Si Si2 0.966278 0.864941 0.294607
Si Si3 0.966875 0.000000 0.291793
Si Si4 0.500000 0.500000 0.000000
Si Si5 0.466646 0.404205 0.692626
O O1 0.250000 0.267990 0.766471
O O2 0.540261 0.201645 0.770906
O O3 0.535725 0.332113 0.698748
O O4 0.500000 0.287442 0.000000
O O5 0.750000 0.865273 0.263327
O O6 0.000000 0.864756 0.500000
O O7 0.037381 0.932413 0.226117
O O8 0.000000 0.000000 0.500000
O O9 0.750000 0.000000 0.267405
O O10 0.536800 0.445686 0.850821
O O11 0.500000 0.428843 0.500000
O O12 0.250000 0.404721 0.721273
#
# Coordination Sequence:
#
# PCOD9406222 Si02
#       5
#     8   8   4   2   8
#     4  10  21  38  57  82 114 153 195 241 293 348
#     4   9  17  30  51  77 108 142 187 235 287 345
#     4   8  14  26  45  72 104 142 180 230 285 339
#     4  12  24  44  66  92 128 158 196 240 296 360
#     4  11  25  43  67  96 125 162 204 248 303 360
#
# _framework density 24.793977000000002
#
# number of rings (size 3 to 8) (size 9 to 14) (size 15 to 20)
#    0.000    2.133    1.333    1.600    0.000    4.267 
#    0.000    0.667    0.000    0.000    0.000    0.000 
#    0.000    0.000    0.000    0.000    0.000    0.000 
#
# Total GULP energy -167024.059103 kJ/mol
# GULP energy per Si atom -5567.468637 kJ/mol
# Density = 2.473754 g / cm^3
# Si number density = 24.793977 Si / 1000 Ang^3
#
#
#
# Elastic Constant Matrix: (Units=GPa)
#
#
# Indices 1 2 3 4 5 6 
#
# 1 102.2337 17.4753 -18.7670 0.0000 0.0000 0.0000
# 2 17.4753 265.5322 69.6998 0.0000 0.0000 0.0000
# 3 -18.7670 69.6998 135.3141 0.0000 0.0000 0.0000
# 4 0.0000 0.0000 0.0000 54.8573 0.0000 0.0000
# 5 0.0000 0.0000 0.0000 0.0000 9.6633 0.0000
# 6 0.0000 0.0000 0.0000 0.0000 0.0000 -145.1896
#
#
#
# Elastic Compliance Matrix: (Units=1/GPa)
#
#
# Indices 1 2 3 4 5 6 
#
# 1 0.010371 -0.001226 0.002070 0.000000 0.000000 0.000000
# 2 -0.001226 0.004500 -0.002488 0.000000 0.000000 0.000000
# 3 0.002070 -0.002488 0.008959 0.000000 0.000000 0.000000
# 4 0.000000 0.000000 0.000000 0.018229 0.000000 0.000000
# 5 0.000000 0.000000 0.000000 0.000000 0.103484 0.000000
# 6 0.000000 0.000000 0.000000 0.000000 0.000000 -0.006888
#
#
# Mechanical properties :
#
#
# Convention : Reuss Voigt Hill
#
# Bulk Modulus (GPa) = 48.68128 71.09957 59.89042
# Shear Modulus (GPa) = 33.60432 12.84433 23.22432
#
# Velocity S-wave (km/s) = 3.68549 2.27852 3.06386
# Velocity P-wave (km/s) = 6.14715 5.97165 6.06003
#
# Compressibility (1/GPa) = 0.02054178
#
# Stress axis : x y z
#
# Youngs Moduli (GPa) = 96.42264 222.23588 111.62289
#
# Poissons Ratio (x) = 0.27243 -0.23104
# Poissons Ratio (y) = 0.11820 0.27770
# Poissons Ratio (z) = -0.19958 0.55288
#
# Static dielectric constant tensor:
#      x y z
#    x 1.964060 0.000000 0.000000 
#    y 0.000000 2.032650 0.000000 
#    z 0.000000 0.000000 1.879750 
# 
# From -- ./inp_files/706.got.cif
#   From: 2010.05.17/outbox.cif.g08.bks.cpg/sg51_1_cif.got.tgz:706.got - 2010.06.03 11:52:47.
