data_PCOD9406075
_publ_section_title
;
Structure prediction by ZEFSAII (Michael W. Deem and Ramdas Pophale) SiO2 
 PCOD9406075
Probable space group: P M M A
;
_chemical_formula_sum "Si O2"
_cell_formula_units_Z 52
_cell_length_a 8.690139
_cell_length_b 23.349157
_cell_length_c 14.553592
_cell_angle_alpha 90.000000
_cell_angle_beta 90.000000
_cell_angle_gamma 90.000000
_cell_volume 2953.031802
_symmetry_space_group_name_H-M "P M M A"
_symmetry_group_IT_number 51
_symmetry_cell_setting 'orthorhombic'
loop_
_space_group_symop_operation_xyz
x,y,z
1/2-x,-y,z
1/2+x,-y,-z
-x,y,-z
-x,-y,-z
1/2+x,y,-z
1/2-x,y,z
x,-y,z
loop_
_atom_site_type_symbol
_atom_site_label
_atom_site_fract_x
_atom_site_fract_y
_atom_site_fract_z
Si Si1 0.566328 0.333710 0.722628
Si Si2 0.566013 0.847970 0.901343
Si Si3 0.433628 0.719784 0.902187
Si Si4 0.434326 0.778744 0.397378
Si Si5 0.066014 0.566955 0.600739
Si Si6 0.065055 0.113373 0.714212
Si Si7 0.564689 0.000000 0.397430
O O1 0.750000 0.335212 0.735276
O O2 0.485497 0.320184 0.818945
O O3 0.530069 0.280529 0.654748
O O4 0.507587 0.391302 0.675176
O O5 0.750000 0.847025 0.903825
O O6 0.504847 0.783061 0.886240
O O7 0.505641 0.884541 0.815910
O O8 0.500000 0.866775 0.000000
O O9 0.250000 0.724803 0.906698
O O10 0.500000 0.699827 0.000000
O O11 0.500000 0.777976 0.500000
O O12 0.250000 0.785489 0.399919
O O13 0.506328 0.831103 0.340692
O O14 0.250000 0.573882 0.599644
O O15 0.030624 0.500000 0.618163
O O16 0.000000 0.581410 0.500000
O O17 0.250000 0.115151 0.720666
O O18 0.018405 0.056825 0.658081
O O19 0.500000 0.000000 0.500000
O O20 0.750000 0.000000 0.403046
#
# Coordination Sequence:
#
# PCOD9406075 Si02
#       7
#     8   8   8   8   8   8   4
#     4  11  22  36  56  84 117 149 191 236 284 340
#     4  11  21  36  58  86 116 148 187 230 283 342
#     4  11  21  35  57  84 117 152 188 231 283 340
#     4  11  23  36  53  80 114 147 185 233 284 339
#     4  10  21  37  57  82 114 154 199 241 284 337
#     4  11  22  39  60  83 112 148 189 236 285 339
#     4  10  24  42  61  84 111 148 195 236 280 340
#
# _framework density 17.609020999999998
#
# number of rings (size 3 to 8) (size 9 to 14) (size 15 to 20)
#    0.000    1.231    1.538    6.462    0.000    6.462 
#    0.000    0.385    0.000    0.462    0.000    0.000 
#    0.000    0.000    0.000    0.000    0.000    0.000 
#
# Total GULP energy -290745.974556 kJ/mol
# GULP energy per Si atom -5591.268741 kJ/mol
# Density = 1.756894 g / cm^3
# Si number density = 17.609021 Si / 1000 Ang^3
#
#
#
# Elastic Constant Matrix: (Units=GPa)
#
#
# Indices 1 2 3 4 5 6 
#
# 1 104.9866 48.5194 68.6179 0.0000 0.0000 0.0000
# 2 48.5194 82.5613 71.1282 0.0000 0.0000 0.0000
# 3 68.6179 71.1282 175.6643 0.0000 0.0000 0.0000
# 4 0.0000 0.0000 0.0000 28.9501 0.0000 0.0000
# 5 0.0000 0.0000 0.0000 0.0000 36.4628 0.0000
# 6 0.0000 0.0000 0.0000 0.0000 0.0000 17.4376
#
#
#
# Elastic Compliance Matrix: (Units=1/GPa)
#
#
# Indices 1 2 3 4 5 6 
#
# 1 0.014248 -0.005495 -0.003340 0.000000 0.000000 0.000000
# 2 -0.005495 0.020720 -0.006243 0.000000 0.000000 0.000000
# 3 -0.003340 -0.006243 0.009525 0.000000 0.000000 0.000000
# 4 0.000000 0.000000 0.000000 0.034542 0.000000 0.000000
# 5 0.000000 0.000000 0.000000 0.000000 0.027425 0.000000
# 6 0.000000 0.000000 0.000000 0.000000 0.000000 0.057347
#
#
# Mechanical properties :
#
#
# Convention : Reuss Voigt Hill
#
# Bulk Modulus (GPa) = 69.75585 82.19370 75.97478
# Shear Modulus (GPa) = 25.15781 28.23320 26.69551
#
# Velocity S-wave (km/s) = 3.78390 4.00851 3.89783
# Velocity P-wave (km/s) = 7.66748 8.25849 7.96846
#
# Compressibility (1/GPa) = 0.01433571
#
# Stress axis : x y z
#
# Youngs Moduli (GPa) = 70.18560 48.26143 104.98146
#
# Poissons Ratio (x) = 0.26521 0.35068
# Poissons Ratio (y) = 0.38570 0.65543
# Poissons Ratio (z) = 0.23445 0.30131
#
# Static dielectric constant tensor:
#      x y z
#    x 1.588770 0.000000 0.000000 
#    y 0.000000 1.579030 0.000000 
#    z 0.000000 0.000000 1.586590 
# 
# From -- ./inp_files/21516.got.cif
#   From: 2010.05.17/outbox.cif.g08.bks.cpg/sg51_11_cif.got.tgz:21516.got - 2010.06.03 11:52:47.
