data_PCOD9406111
_publ_section_title
;
Structure prediction by ZEFSAII (Michael W. Deem and Ramdas Pophale) SiO2 
 PCOD9406111
Probable space group: P M M A
;
_chemical_formula_sum "Si O2"
_cell_formula_units_Z 64
_cell_length_a 14.683801
_cell_length_b 8.709611
_cell_length_c 25.808824
_cell_angle_alpha 90.000000
_cell_angle_beta 90.000000
_cell_angle_gamma 90.000000
_cell_volume 3300.695527
_symmetry_space_group_name_H-M "P M M A"
_symmetry_group_IT_number 51
_symmetry_cell_setting 'orthorhombic'
loop_
_space_group_symop_operation_xyz
x,y,z
1/2-x,-y,z
1/2+x,-y,-z
-x,y,-z
-x,-y,-z
1/2+x,y,-z
1/2-x,y,z
x,-y,z
loop_
_atom_site_type_symbol
_atom_site_label
_atom_site_fract_x
_atom_site_fract_y
_atom_site_fract_z
Si Si1 0.593934 0.180891 0.062159
Si Si2 0.151486 0.682369 0.156928
Si Si3 0.042295 0.818043 0.624215
Si Si4 0.102351 0.680803 0.041130
Si Si5 0.349157 0.313915 0.408404
Si Si6 0.603612 0.326570 0.479492
Si Si7 0.144092 0.315982 0.723465
Si Si8 0.548435 0.815658 0.175031
O O1 0.487604 0.217958 0.051412
O O2 0.601403 0.232789 0.121936
O O3 0.612792 0.000000 0.058934
O O4 0.641791 0.266272 0.014122
O O5 0.250000 0.736991 0.177993
O O6 0.144012 0.500000 0.167755
O O7 0.155414 0.699811 0.094517
O O8 0.056966 0.759740 0.174066
O O9 0.098588 0.770042 0.572677
O O10 0.089461 0.744234 0.673865
O O11 0.938860 0.756367 0.617248
O O12 0.040251 0.000000 0.628855
O O13 0.079519 0.500000 0.037557
O O14 0.250000 0.275763 0.385305
O O15 0.358846 0.500000 0.408326
O O16 0.347915 0.265952 0.469074
O O17 0.500000 0.337174 0.500000
O O18 0.635453 0.500000 0.467702
O O19 0.250000 0.269759 0.720150
O O20 0.139435 0.500000 0.724772
O O21 0.098878 0.249444 0.775198
O O22 0.548215 0.000000 0.175317
#
# Coordination Sequence:
#
# PCOD9406111 Si02
#       8
#     8   8   8   8   8   8   8   8
#     4   9  16  27  45  70 102 138 172 210 265 326
#     4   9  18  33  53  79 113 151 188 225 267 320
#     4  11  22  36  57  86 120 153 186 233 289 337
#     4   9  15  24  43  71 102 138 180 221 257 301
#     4   9  18  34  57  85 120 162 201 234 271 321
#     4   8  15  30  52  79 113 154 197 232 264 312
#     4  11  25  45  67  85 102 134 183 234 282 335
#     4  10  21  37  58  83 111 142 178 228 285 336
#
# _framework density 19.389852999999999
#
# number of rings (size 3 to 8) (size 9 to 14) (size 15 to 20)
#    0.000    2.500    0.000    4.125    0.000    6.250 
#    0.000    2.500    0.000    6.000    0.000    0.000 
#    0.000    0.000    0.000    0.000    0.000    0.000 
#
# Total GULP energy -356597.238852 kJ/mol
# GULP energy per Si atom -5571.831857 kJ/mol
# Density = 1.934572 g / cm^3
# Si number density = 19.389853 Si / 1000 Ang^3
#
#
#
# Elastic Constant Matrix: (Units=GPa)
#
#
# Indices 1 2 3 4 5 6 
#
# 1 117.9179 29.8043 56.1585 0.0000 0.0000 0.0000
# 2 29.8043 46.6697 35.2504 0.0000 0.0000 0.0000
# 3 56.1585 35.2504 128.0475 0.0000 0.0000 0.0000
# 4 0.0000 0.0000 0.0000 29.8974 0.0000 0.0000
# 5 0.0000 0.0000 0.0000 0.0000 0.2562 0.0000
# 6 0.0000 0.0000 0.0000 0.0000 0.0000 13.1409
#
#
#
# Elastic Compliance Matrix: (Units=1/GPa)
#
#
# Indices 1 2 3 4 5 6 
#
# 1 0.011400 -0.004424 -0.003782 0.000000 0.000000 0.000000
# 2 -0.004424 0.028769 -0.005980 0.000000 0.000000 0.000000
# 3 -0.003782 -0.005980 0.011114 0.000000 0.000000 0.000000
# 4 0.000000 0.000000 0.000000 0.033448 0.000000 0.000000
# 5 0.000000 0.000000 0.000000 0.000000 3.903487 0.000000
# 6 0.000000 0.000000 0.000000 0.000000 0.000000 0.076098
#
#
# Mechanical properties :
#
#
# Convention : Reuss Voigt Hill
#
# Bulk Modulus (GPa) = 43.64424 59.45127 51.54776
# Shear Modulus (GPa) = 1.21942 20.08704 10.65323
#
# Velocity S-wave (km/s) = 0.79389 3.22212 2.34652
# Velocity P-wave (km/s) = 4.83715 6.67610 5.82959
#
# Compressibility (1/GPa) = 0.02291253
#
# Stress axis : x y z
#
# Youngs Moduli (GPa) = 87.72201 34.75990 89.97348
#
# Poissons Ratio (x) = 0.15376 0.34026
# Poissons Ratio (y) = 0.38805 0.53802
# Poissons Ratio (z) = 0.33175 0.20786
#
# Static dielectric constant tensor:
#      x y z
#    x 1.711280 0.000000 0.000000 
#    y 0.000000 1.651920 0.000000 
#    z 0.000000 0.000000 1.693270 
# 
# From -- ./inp_files/35849.got.cif
#   From: 2010.05.17/outbox.cif.g08.bks.cpg/sg51_18_cif.got.tgz:35849.got - 2010.06.03 11:52:47.
