data_PCOD9406764
_publ_section_title
;
Structure prediction by ZEFSAII (Michael W. Deem and Ramdas Pophale) SiO2 
 PCOD9406764
Probable space group: P M M A
;
_chemical_formula_sum "Si O2"
_cell_formula_units_Z 48
_cell_length_a 17.874308
_cell_length_b 14.752802
_cell_length_c 9.752919
_cell_angle_alpha 90.000000
_cell_angle_beta 90.000000
_cell_angle_gamma 90.000000
_cell_volume 2571.806965
_symmetry_space_group_name_H-M "P M M A"
_symmetry_group_IT_number 51
_symmetry_cell_setting 'orthorhombic'
loop_
_space_group_symop_operation_xyz
x,y,z
1/2-x,-y,z
1/2+x,-y,-z
-x,y,-z
-x,-y,-z
1/2+x,y,-z
1/2-x,y,z
x,-y,z
loop_
_atom_site_type_symbol
_atom_site_label
_atom_site_fract_x
_atom_site_fract_y
_atom_site_fract_z
Si Si1 0.467146 0.400197 0.726803
Si Si2 0.408544 0.787303 0.785702
Si Si3 0.837334 0.894138 0.964434
Si Si4 0.442204 0.106264 0.301131
Si Si5 0.882248 0.600646 0.568117
Si Si6 0.332192 0.793179 0.498281
O O1 0.456152 0.500000 0.788403
O O2 0.435983 0.315545 0.809670
O O3 0.553700 0.389205 0.683668
O O4 0.424395 0.399327 0.579640
O O5 0.372367 0.832676 0.917596
O O6 0.481410 0.842915 0.736211
O O7 0.350423 0.787668 0.659448
O O8 0.750000 0.873263 0.940836
O O9 0.842531 0.000000 0.006843
O O10 0.885709 0.884450 0.827126
O O11 0.398984 0.151556 0.427650
O O12 0.456197 0.000000 0.325366
O O13 0.847843 0.500000 0.583034
O O14 0.834299 0.691369 0.563123
O O15 0.250000 0.833586 0.474667
#
# Coordination Sequence:
#
# PCOD9406764 Si02
#       6
#     8   8   8   8   8   8
#     4   8  14  27  51  80 108 138 174 218 267 315
#     4  11  20  35  59  86 108 138 184 234 269 317
#     4  10  22  40  59  79 106 142 182 226 279 333
#     4  11  23  39  57  77 106 146 188 226 270 331
#     4   8  14  28  49  75 108 143 177 215 261 317
#     4  11  22  34  52  83 116 144 177 224 280 325
#
# _framework density 18.663919
#
# number of rings (size 3 to 8) (size 9 to 14) (size 15 to 20)
#    0.000    2.167    1.667    3.500    0.000    4.667 
#    0.000    0.000    0.000    4.500    0.000    0.000 
#    0.000    0.000    0.000    0.000    0.000    0.000 
#
# Total GULP energy -267816.558361 kJ/mol
# GULP energy per Si atom -5579.511633 kJ/mol
# Density = 1.862144 g / cm^3
# Si number density = 18.663919 Si / 1000 Ang^3
#
#
#
# Elastic Constant Matrix: (Units=GPa)
#
#
# Indices 1 2 3 4 5 6 
#
# 1 68.1310 19.2201 -1.8654 0.0000 0.0000 0.0000
# 2 19.2201 91.1688 20.4408 0.0000 0.0000 0.0000
# 3 -1.8654 20.4408 37.1024 0.0000 0.0000 0.0000
# 4 0.0000 0.0000 0.0000 390.8049 0.0000 0.0000
# 5 0.0000 0.0000 0.0000 0.0000 18.8581 0.0000
# 6 0.0000 0.0000 0.0000 0.0000 0.0000 20.1283
#
#
#
# Elastic Compliance Matrix: (Units=1/GPa)
#
#
# Indices 1 2 3 4 5 6 
#
# 1 0.015897 -0.004028 0.003018 0.000000 0.000000 0.000000
# 2 -0.004028 0.013535 -0.007659 0.000000 0.000000 0.000000
# 3 0.003018 -0.007659 0.031324 0.000000 0.000000 0.000000
# 4 0.000000 0.000000 0.000000 0.002559 0.000000 0.000000
# 5 0.000000 0.000000 0.000000 0.000000 0.053028 0.000000
# 6 0.000000 0.000000 0.000000 0.000000 0.000000 0.049681
#
#
# Mechanical properties :
#
#
# Convention : Reuss Voigt Hill
#
# Bulk Modulus (GPa) = 23.03215 30.22147 26.62681
# Shear Modulus (GPa) = 25.27371 96.53205 60.90288
#
# Velocity S-wave (km/s) = 3.68387 7.19955 5.71858
# Velocity P-wave (km/s) = 5.51922 9.23791 7.60923
#
# Compressibility (1/GPa) = 0.04341758
#
# Stress axis : x y z
#
# Youngs Moduli (GPa) = 62.90662 73.88158 31.92436
#
# Poissons Ratio (x) = 0.29760 -0.09636
# Poissons Ratio (y) = 0.25339 0.24452
# Poissons Ratio (z) = -0.18988 0.56589
#
# Static dielectric constant tensor:
#      x y z
#    x 1.641370 0.000000 0.000000 
#    y 0.000000 1.666090 0.000000 
#    z 0.000000 0.000000 1.616110 
# 
# From -- ./inp_files/9635.got.cif
#   From: 2010.05.17/outbox.cif.g08.bks.cpg/sg51_5_cif.got.tgz:9635.got - 2010.06.03 11:52:47.
