data_PCOD9406763
_publ_section_title
;
Structure prediction by ZEFSAII (Michael W. Deem and Ramdas Pophale) SiO2 
 PCOD9406763
Probable space group: P M M A
;
_chemical_formula_sum "Si O2"
_cell_formula_units_Z 40
_cell_length_a 26.142970
_cell_length_b 7.709146
_cell_length_c 9.368728
_cell_angle_alpha 90.000000
_cell_angle_beta 90.000000
_cell_angle_gamma 90.000000
_cell_volume 1888.173184
_symmetry_space_group_name_H-M "P M M A"
_symmetry_group_IT_number 51
_symmetry_cell_setting 'orthorhombic'
loop_
_space_group_symop_operation_xyz
x,y,z
1/2-x,-y,z
1/2+x,-y,-z
-x,y,-z
-x,-y,-z
1/2+x,y,-z
1/2-x,y,z
x,-y,z
loop_
_atom_site_type_symbol
_atom_site_label
_atom_site_fract_x
_atom_site_fract_y
_atom_site_fract_z
Si Si1 0.807506 0.211471 0.140402
Si Si2 0.308170 0.209851 0.189115
Si Si3 0.991545 0.700347 0.843426
Si Si4 0.093548 0.798655 0.692358
Si Si5 0.094194 0.702060 0.367454
O O1 0.750000 0.269912 0.178613
O O2 0.853181 0.269568 0.242380
O O3 0.806400 0.000000 0.144570
O O4 0.817909 0.260715 0.975803
O O5 0.250000 0.261407 0.224982
O O6 0.350822 0.281992 0.293437
O O7 0.310466 0.000000 0.195226
O O8 0.975491 0.500000 0.867845
O O9 0.044657 0.705735 0.759006
O O10 0.947568 0.777839 0.742759
O O11 0.000000 0.779693 0.000000
O O12 0.093548 0.787150 0.522104
O O13 0.088922 0.000000 0.734930
O O14 0.081570 0.500000 0.391635
#
# Coordination Sequence:
#
# PCOD9406763 Si02
#       5
#     8   8   8   8   8
#     4   8  16  33  56  81 108 138 175 220 268 316
#     4   9  18  35  59  83 107 138 178 224 270 315
#     4  10  22  40  59  78 105 143 183 225 277 331
#     4  11  22  35  56  84 111 142 182 226 271 323
#     4  11  23  37  54  78 111 147 180 219 270 327
#
# _framework density 21.184497
#
# number of rings (size 3 to 8) (size 9 to 14) (size 15 to 20)
#    0.000    2.200    0.000    4.200    0.000    5.600 
#    0.000    3.000    0.000    4.200    0.000    0.000 
#    0.000    0.000    0.000    0.000    0.000    0.000 
#
# Total GULP energy -223446.401622 kJ/mol
# GULP energy per Si atom -5586.160041 kJ/mol
# Density = 2.113628 g / cm^3
# Si number density = 21.184497 Si / 1000 Ang^3
#
#
#
# Elastic Constant Matrix: (Units=GPa)
#
#
# Indices 1 2 3 4 5 6 
#
# 1 123.3698 -11.8169 84.1957 0.0000 0.0000 0.0000
# 2 -11.8169 36.0269 -11.0021 0.0000 0.0000 0.0000
# 3 84.1957 -11.0021 132.4136 0.0000 0.0000 0.0000
# 4 0.0000 0.0000 0.0000 -6.9263 0.0000 0.0000
# 5 0.0000 0.0000 0.0000 0.0000 -69.5899 0.0000
# 6 0.0000 0.0000 0.0000 0.0000 0.0000 23.9494
#
#
#
# Elastic Compliance Matrix: (Units=1/GPa)
#
#
# Indices 1 2 3 4 5 6 
#
# 1 0.014457 0.001985 -0.009027 0.000000 0.000000 0.000000
# 2 0.001985 0.028752 0.001127 0.000000 0.000000 0.000000
# 3 -0.009027 0.001127 0.013386 0.000000 0.000000 0.000000
# 4 0.000000 0.000000 0.000000 -0.144377 0.000000 0.000000
# 5 0.000000 0.000000 0.000000 0.000000 -0.014370 0.000000
# 6 0.000000 0.000000 0.000000 0.000000 0.000000 0.041755
#
#
# Mechanical properties :
#
#
# Convention : Reuss Voigt Hill
#
# Bulk Modulus (GPa) = 22.33959 46.06263 34.20111
# Shear Modulus (GPa) = -148.61195 4.84889 -71.88153
#
# Velocity S-wave (km/s) = -8.38472 1.51455 -5.83137
# Velocity P-wave (km/s) = 9.11976 4.98490 5.40003
#
# Compressibility (1/GPa) = 0.04476357
#
# Stress axis : x y z
#
# Youngs Moduli (GPa) = 69.17172 34.77992 74.70564
#
# Poissons Ratio (x) = -0.06904 0.67440
# Poissons Ratio (y) = -0.13730 -0.08418
# Poissons Ratio (z) = 0.62445 -0.03919
#
# Static dielectric constant tensor:
#      x y z
#    x 1.741600 0.000000 0.000000 
#    y 0.000000 1.800270 0.000000 
#    z 0.000000 0.000000 1.725540 
# 
# From -- ./inp_files/11414.got.cif
#   From: 2010.05.17/outbox.cif.g08.bks.cpg/sg51_6_cif.got.tgz:11414.got - 2010.06.03 11:52:47.
