data_PCOD9406952
_publ_section_title
;
Structure prediction by ZEFSAII (Michael W. Deem and Ramdas Pophale) SiO2 
 PCOD9406952
Probable space group: P M M A
;
_chemical_formula_sum "Si O2"
_cell_formula_units_Z 26
_cell_length_a 16.981276
_cell_length_b 7.806350
_cell_length_c 10.270638
_cell_angle_alpha 90.000000
_cell_angle_beta 90.000000
_cell_angle_gamma 90.000000
_cell_volume 1361.494095
_symmetry_space_group_name_H-M "P M M A"
_symmetry_group_IT_number 51
_symmetry_cell_setting 'orthorhombic'
loop_
_space_group_symop_operation_xyz
x,y,z
1/2-x,-y,z
1/2+x,-y,-z
-x,y,-z
-x,-y,-z
1/2+x,y,-z
1/2-x,y,z
x,-y,z
loop_
_atom_site_type_symbol
_atom_site_label
_atom_site_fract_x
_atom_site_fract_y
_atom_site_fract_z
Si Si1 0.561578 0.304831 0.802099
Si Si2 0.250000 0.694337 0.740490
Si Si3 0.076980 0.000000 0.403282
Si Si4 0.105925 0.793932 0.921612
Si Si5 0.250000 0.000000 0.536798
O O1 0.573337 0.500000 0.759369
O O2 0.474023 0.280390 0.860633
O O3 0.571619 0.167270 0.688588
O O4 0.614698 0.263375 0.928716
O O5 0.250000 0.500000 0.692563
O O6 0.175502 0.729350 0.831804
O O7 0.250000 0.831467 0.626131
O O8 0.000000 0.000000 0.500000
O O9 0.164847 0.000000 0.464982
O O10 0.100694 0.000000 0.918754
#
# Coordination Sequence:
#
# PCOD9406952 Si02
#       5
#     8   4   4   8   2
#     4  11  22  40  66  95 125 161 207 261 317 379
#     4  12  24  41  65  94 125 161 207 262 320 377
#     4  12  26  44  64  88 130 178 220 256 308 372
#     4  11  19  39  67  97 126 158 197 262 331 380
#     4  12  28  44  64  90 126 174 222 262 304 374
#
# _framework density 19.096667
#
# number of rings (size 3 to 8) (size 9 to 14) (size 15 to 20)
#    0.000    0.615    4.615    6.462    0.000    3.077 
#    0.000    1.538    0.000    0.000    0.000    0.000 
#    0.000    0.000    0.000    0.000    0.000    0.000 
#
# Total GULP energy -145298.173022 kJ/mol
# GULP energy per Si atom -5588.391270 kJ/mol
# Density = 1.905320 g / cm^3
# Si number density = 19.096667 Si / 1000 Ang^3
#
#
#
# Elastic Constant Matrix: (Units=GPa)
#
#
# Indices 1 2 3 4 5 6 
#
# 1 101.0933 32.0728 70.9822 0.0000 0.0000 0.0000
# 2 32.0728 212.8587 84.1836 0.0000 0.0000 0.0000
# 3 70.9822 84.1836 146.3968 0.0000 0.0000 0.0000
# 4 0.0000 0.0000 0.0000 -19.9881 0.0000 0.0000
# 5 0.0000 0.0000 0.0000 0.0000 10.4940 0.0000
# 6 0.0000 0.0000 0.0000 0.0000 0.0000 -2.6828
#
#
#
# Elastic Compliance Matrix: (Units=1/GPa)
#
#
# Indices 1 2 3 4 5 6 
#
# 1 0.015103 0.000803 -0.007785 0.000000 0.000000 0.000000
# 2 0.000803 0.006124 -0.003911 0.000000 0.000000 0.000000
# 3 -0.007785 -0.003911 0.012854 0.000000 0.000000 0.000000
# 4 0.000000 0.000000 0.000000 -0.050030 0.000000 0.000000
# 5 0.000000 0.000000 0.000000 0.000000 0.095293 0.000000
# 6 0.000000 0.000000 0.000000 0.000000 0.000000 -0.372748
#
#
# Mechanical properties :
#
#
# Convention : Reuss Voigt Hill
#
# Bulk Modulus (GPa) = 81.32653 92.75845 87.04249
# Shear Modulus (GPa) = -18.69010 15.77196 -1.45907
#
# Velocity S-wave (km/s) = -3.13183 2.87697 -0.87504
# Velocity P-wave (km/s) = 5.44072 7.72751 6.68266
#
# Compressibility (1/GPa) = 0.01229611
#
# Stress axis : x y z
#
# Youngs Moduli (GPa) = 66.21177 163.30322 77.79658
#
# Poissons Ratio (x) = -0.13115 0.60562
# Poissons Ratio (y) = -0.05317 0.30424
# Poissons Ratio (z) = 0.51544 0.63863
#
# Static dielectric constant tensor:
#      x y z
#    x 1.666280 0.000000 0.000000 
#    y 0.000000 1.656970 0.000000 
#    z 0.000000 0.000000 1.651460 
# 
# From -- ./inp_files/9036.got.cif
#   From: 2010.05.17/outbox.cif.g08.bks.cpg/sg51_5_cif.got.tgz:9036.got - 2010.06.03 11:52:47.
