data_PCOD9406066
_publ_section_title
;
Structure prediction by ZEFSAII (Michael W. Deem and Ramdas Pophale) SiO2 
 PCOD9406066
Probable space group: P M M A
;
_chemical_formula_sum "Si O2"
_cell_formula_units_Z 48
_cell_length_a 9.449706
_cell_length_b 8.746693
_cell_length_c 31.841816
_cell_angle_alpha 90.000000
_cell_angle_beta 90.000000
_cell_angle_gamma 90.000000
_cell_volume 2631.843185
_symmetry_space_group_name_H-M "P M M A"
_symmetry_group_IT_number 51
_symmetry_cell_setting 'orthorhombic'
loop_
_space_group_symop_operation_xyz
x,y,z
1/2-x,-y,z
1/2+x,-y,-z
-x,y,-z
-x,-y,-z
1/2+x,y,-z
1/2-x,y,z
x,-y,z
loop_
_atom_site_type_symbol
_atom_site_label
_atom_site_fract_x
_atom_site_fract_y
_atom_site_fract_z
Si Si1 0.917563 0.682090 0.541448
Si Si2 0.585444 0.816834 0.787573
Si Si3 0.086499 0.686261 0.959844
Si Si4 0.584134 0.182530 0.631177
Si Si5 0.582172 0.315815 0.134181
Si Si6 0.085487 0.683300 0.708933
O O1 0.750000 0.705531 0.535236
O O2 0.942188 0.500000 0.546613
O O3 0.958691 0.764948 0.584499
O O4 0.000000 0.733856 0.500000
O O5 0.750000 0.768775 0.786469
O O6 0.510043 0.761157 0.830003
O O7 0.500556 0.748867 0.748293
O O8 0.580705 0.000000 0.785233
O O9 0.250000 0.730411 0.964182
O O10 0.081646 0.500000 0.960095
O O11 0.038250 0.731733 0.913109
O O12 0.000000 0.741494 0.000000
O O13 0.750000 0.226727 0.636987
O O14 0.488464 0.258848 0.666539
O O15 0.575228 0.000000 0.634693
O O16 0.750000 0.281410 0.139155
O O17 0.568430 0.500000 0.137333
O O18 0.250000 0.731153 0.710745
O O19 0.080723 0.500000 0.710354
#
# Coordination Sequence:
#
# PCOD9406066 Si02
#       6
#     8   8   8   8   8   8
#     4   9  18  33  53  77 107 144 184 225 267 310
#     4  11  24  39  55  78 107 138 174 216 262 314
#     4   8  14  25  43  70 103 135 168 210 258 306
#     4  10  21  37  57  82 112 145 181 220 264 316
#     4   9  18  33  53  78 107 138 175 218 262 311
#     4  11  24  40  59  83 108 136 174 218 263 315
#
# _framework density 18.238168999999999
#
# number of rings (size 3 to 8) (size 9 to 14) (size 15 to 20)
#    0.000    2.333    0.000    3.500    0.000    9.667 
#    0.000    3.333    0.000    0.500    0.000    0.000 
#    0.000    0.000    0.000    0.000    0.000    0.000 
#
# Total GULP energy -267927.677895 kJ/mol
# GULP energy per Si atom -5581.826623 kJ/mol
# Density = 1.819666 g / cm^3
# Si number density = 18.238169 Si / 1000 Ang^3
#
#
#
# Elastic Constant Matrix: (Units=GPa)
#
#
# Indices 1 2 3 4 5 6 
#
# 1 114.3235 45.1205 111.0014 0.0000 0.0000 0.0000
# 2 45.1205 31.5471 48.3352 0.0000 0.0000 0.0000
# 3 111.0014 48.3352 193.9874 0.0000 0.0000 0.0000
# 4 0.0000 0.0000 0.0000 -76.1139 0.0000 0.0000
# 5 0.0000 0.0000 0.0000 0.0000 42.2221 0.0000
# 6 0.0000 0.0000 0.0000 0.0000 0.0000 20.9678
#
#
#
# Elastic Compliance Matrix: (Units=1/GPa)
#
#
# Indices 1 2 3 4 5 6 
#
# 1 0.028432 -0.025456 -0.009926 0.000000 0.000000 0.000000
# 2 -0.025456 0.074065 -0.003888 0.000000 0.000000 0.000000
# 3 -0.009926 -0.003888 0.011804 0.000000 0.000000 0.000000
# 4 0.000000 0.000000 0.000000 -0.013138 0.000000 0.000000
# 5 0.000000 0.000000 0.000000 0.000000 0.023684 0.000000
# 6 0.000000 0.000000 0.000000 0.000000 0.000000 0.047692
#
#
# Mechanical properties :
#
#
# Convention : Reuss Voigt Hill
#
# Bulk Modulus (GPa) = 27.96480 83.19689 55.58085
# Shear Modulus (GPa) = 19.01146 6.44192 12.72669
#
# Velocity S-wave (km/s) = 3.23212 1.88143 2.64447
# Velocity P-wave (km/s) = 5.41251 7.10181 6.31391
#
# Compressibility (1/GPa) = 0.03575924
#
# Stress axis : x y z
#
# Youngs Moduli (GPa) = 35.17213 13.50163 84.72062
#
# Poissons Ratio (x) = 0.34370 0.84093
# Poissons Ratio (y) = 0.89536 0.32941
# Poissons Ratio (z) = 0.34912 0.05250
#
# Static dielectric constant tensor:
#      x y z
#    x 1.612640 0.000000 0.000000 
#    y 0.000000 1.613450 0.000000 
#    z 0.000000 0.000000 1.609570 
# 
# From -- ./inp_files/36955.got.cif
#   From: 2010.05.17/outbox.cif.g08.bks.cpg/sg51_19_cif.got.tgz:36955.got - 2010.06.03 11:52:47.
