data_PCOD9406878
_publ_section_title
;
Structure prediction by ZEFSAII (Michael W. Deem and Ramdas Pophale) SiO2 
 PCOD9406878
Probable space group: P M M A
;
_chemical_formula_sum "Si O2"
_cell_formula_units_Z 56
_cell_length_a 18.645942
_cell_length_b 8.881221
_cell_length_c 19.398780
_cell_angle_alpha 90.000000
_cell_angle_beta 90.000000
_cell_angle_gamma 90.000000
_cell_volume 3212.413364
_symmetry_space_group_name_H-M "P M M A"
_symmetry_group_IT_number 51
_symmetry_cell_setting 'orthorhombic'
loop_
_space_group_symop_operation_xyz
x,y,z
1/2-x,-y,z
1/2+x,-y,-z
-x,y,-z
-x,-y,-z
1/2+x,y,-z
1/2-x,y,z
x,-y,z
loop_
_atom_site_type_symbol
_atom_site_label
_atom_site_fract_x
_atom_site_fract_y
_atom_site_fract_z
Si Si1 0.167939 0.170593 0.698161
Si Si2 0.512208 0.820445 0.079786
Si Si3 0.167922 0.318424 0.467084
Si Si4 0.886554 0.670607 0.177468
Si Si5 0.451069 0.328089 0.206674
Si Si6 0.934351 0.322000 0.406935
Si Si7 0.580142 0.820633 0.650089
O O1 0.250000 0.171588 0.675491
O O2 0.163246 0.224871 0.776983
O O3 0.122718 0.284204 0.652355
O O4 0.139206 0.000000 0.692043
O O5 0.585883 0.744518 0.106770
O O6 0.451782 0.754994 0.132364
O O7 0.515671 0.000000 0.088625
O O8 0.500000 0.784965 0.000000
O O9 0.250000 0.278471 0.486701
O O10 0.164884 0.500000 0.461272
O O11 0.107807 0.274767 0.523668
O O12 0.144976 0.243663 0.395497
O O13 0.860525 0.500000 0.169533
O O14 0.962663 0.665566 0.218845
O O15 0.425273 0.500000 0.201647
O O16 0.418786 0.243342 0.271970
O O17 0.949693 0.500000 0.410970
O O18 0.007370 0.237698 0.387316
O O19 0.580317 0.000000 0.651622
#
# Coordination Sequence:
#
# PCOD9406878 Si02
#       7
#     8   8   8   8   8   8   8
#     4  11  22  33  48  72 104 140 174 213 262 313
#     4   9  16  27  46  73 105 134 160 200 253 300
#     4  10  23  41  57  74  99 133 173 217 264 313
#     4   9  18  30  46  68  98 134 171 210 247 292
#     4   9  18  31  49  73 101 133 169 210 249 293
#     4  11  21  36  56  77 100 132 174 216 257 309
#     4  12  23  35  55  79 105 135 169 213 263 310
#
# _framework density 17.432376999999999
#
# number of rings (size 3 to 8) (size 9 to 14) (size 15 to 20)
#    0.857    1.000    1.429    3.857    0.000    6.000 
#    0.000    0.000    0.000    0.000    0.000    1.000 
#    0.000    1.143    0.000    0.000    0.000    0.000 
#
# Total GULP energy -311897.445945 kJ/mol
# GULP energy per Si atom -5569.597249 kJ/mol
# Density = 1.739270 g / cm^3
# Si number density = 17.432377 Si / 1000 Ang^3
#
#
#
# Elastic Constant Matrix: (Units=GPa)
#
#
# Indices 1 2 3 4 5 6 
#
# 1 20.3007 0.9728 9.5027 0.0000 0.0000 0.0000
# 2 0.9728 50.8125 32.9189 0.0000 0.0000 0.0000
# 3 9.5027 32.9189 116.5068 0.0000 0.0000 0.0000
# 4 0.0000 0.0000 0.0000 29.8849 0.0000 0.0000
# 5 0.0000 0.0000 0.0000 0.0000 9.3321 0.0000
# 6 0.0000 0.0000 0.0000 0.0000 0.0000 12.9495
#
#
#
# Elastic Compliance Matrix: (Units=1/GPa)
#
#
# Indices 1 2 3 4 5 6 
#
# 1 0.051401 0.002120 -0.004791 0.000000 0.000000 0.000000
# 2 0.002120 0.024177 -0.007004 0.000000 0.000000 0.000000
# 3 -0.004791 -0.007004 0.010953 0.000000 0.000000 0.000000
# 4 0.000000 0.000000 0.000000 0.033462 0.000000 0.000000
# 5 0.000000 0.000000 0.000000 0.000000 0.107157 0.000000
# 6 0.000000 0.000000 0.000000 0.000000 0.000000 0.077223
#
#
# Mechanical properties :
#
#
# Convention : Reuss Voigt Hill
#
# Bulk Modulus (GPa) = 14.88542 30.48987 22.68764
# Shear Modulus (GPa) = 14.44599 20.04834 17.24716
#
# Velocity S-wave (km/s) = 2.88182 3.39494 3.14885
# Velocity P-wave (km/s) = 4.43065 5.73549 5.12477
#
# Compressibility (1/GPa) = 0.06717984
#
# Stress axis : x y z
#
# Youngs Moduli (GPa) = 19.45500 41.36115 91.29893
#
# Poissons Ratio (x) = -0.08769 0.43745
# Poissons Ratio (y) = -0.04125 0.63948
# Poissons Ratio (z) = 0.09322 0.28970
#
# Static dielectric constant tensor:
#      x y z
#    x 1.595170 0.000000 0.000000 
#    y 0.000000 1.594680 0.000000 
#    z 0.000000 0.000000 1.612220 
# 
# From -- ./inp_files/33671.got.cif
#   From: 2010.05.17/outbox.cif.g08.bks.cpg/sg51_17_cif.got.tgz:33671.got - 2010.06.03 11:52:47.
