data_PCOD9406609
_publ_section_title
;
Structure prediction by ZEFSAII (Michael W. Deem and Ramdas Pophale) SiO2 
 PCOD9406609
Probable space group: P M M A
;
_chemical_formula_sum "Si O2"
_cell_formula_units_Z 48
_cell_length_a 14.012371
_cell_length_b 13.779283
_cell_length_c 13.887078
_cell_angle_alpha 90.000000
_cell_angle_beta 90.000000
_cell_angle_gamma 90.000000
_cell_volume 2681.322929
_symmetry_space_group_name_H-M "P M M A"
_symmetry_group_IT_number 51
_symmetry_cell_setting 'orthorhombic'
loop_
_space_group_symop_operation_xyz
x,y,z
1/2-x,-y,z
1/2+x,-y,-z
-x,y,-z
-x,-y,-z
1/2+x,y,-z
1/2-x,y,z
x,-y,z
loop_
_atom_site_type_symbol
_atom_site_label
_atom_site_fract_x
_atom_site_fract_y
_atom_site_fract_z
Si Si1 0.539139 0.387086 0.349454
Si Si2 0.864590 0.111150 0.056353
Si Si3 0.360987 0.116687 0.164550
Si Si4 0.544198 0.200078 0.243500
Si Si5 0.138450 0.307767 0.464997
Si Si6 0.364587 0.110448 0.565091
O O1 0.540643 0.500000 0.327074
O O2 0.559182 0.313174 0.263808
O O3 0.614121 0.362165 0.434536
O O4 0.435763 0.354438 0.390998
O O5 0.750000 0.111256 0.063404
O O6 0.907173 0.170151 0.143930
O O7 0.897842 0.000000 0.067720
O O8 0.886112 0.141385 0.946757
O O9 0.250000 0.139964 0.181695
O O10 0.433597 0.171275 0.233207
O O11 0.371145 0.000000 0.174234
O O12 0.588065 0.141963 0.334139
O O13 0.250000 0.316538 0.440706
O O14 0.114356 0.194398 0.486863
O O15 0.250000 0.113359 0.578577
O O16 0.390567 0.000000 0.538556
#
# Coordination Sequence:
#
# PCOD9406609 Si02
#       6
#     8   8   8   8   8   8
#     4  10  22  36  49  71  95 117 160 212 246 277
#     4   9  17  30  50  75 100 126 156 188 225 276
#     4   9  18  31  47  71 102 131 158 187 221 273
#     4  11  19  29  48  71  96 129 159 191 237 283
#     4   9  18  35  56  72  91 125 161 193 236 284
#     4   9  17  29  47  74 104 127 151 187 231 283
#
# _framework density 17.901612
#
# number of rings (size 3 to 8) (size 9 to 14) (size 15 to 20)
#    0.000    2.500    0.000    4.500    0.000    5.333 
#    0.000    8.333    0.000    4.000    0.000    2.333 
#    0.000    0.000    0.000    0.000    0.000    0.000 
#
# Total GULP energy -267945.284204 kJ/mol
# GULP energy per Si atom -5582.193421 kJ/mol
# Density = 1.786087 g / cm^3
# Si number density = 17.901612 Si / 1000 Ang^3
#
#
#
# Elastic Constant Matrix: (Units=GPa)
#
#
# Indices 1 2 3 4 5 6 
#
# 1 47.8899 10.8264 8.2210 0.0000 0.0000 0.0000
# 2 10.8264 105.6863 18.5272 0.0000 0.0000 0.0000
# 3 8.2210 18.5272 28.6931 0.0000 0.0000 0.0000
# 4 0.0000 0.0000 0.0000 17.0271 0.0000 0.0000
# 5 0.0000 0.0000 0.0000 0.0000 20.6999 0.0000
# 6 0.0000 0.0000 0.0000 0.0000 0.0000 12.7771
#
#
#
# Elastic Compliance Matrix: (Units=1/GPa)
#
#
# Indices 1 2 3 4 5 6 
#
# 1 0.022119 -0.001302 -0.005497 0.000000 0.000000 0.000000
# 2 -0.001302 0.010746 -0.006566 0.000000 0.000000 0.000000
# 3 -0.005497 -0.006566 0.040666 0.000000 0.000000 0.000000
# 4 0.000000 0.000000 0.000000 0.058730 0.000000 0.000000
# 5 0.000000 0.000000 0.000000 0.000000 0.048309 0.000000
# 6 0.000000 0.000000 0.000000 0.000000 0.000000 0.078265
#
#
# Mechanical properties :
#
#
# Convention : Reuss Voigt Hill
#
# Bulk Modulus (GPa) = 21.36652 28.60206 24.98429
# Shear Modulus (GPa) = 16.60213 19.74713 18.17463
#
# Velocity S-wave (km/s) = 3.04864 3.32489 3.18976
# Velocity P-wave (km/s) = 4.93495 5.54544 5.24908
#
# Compressibility (1/GPa) = 0.04680220
#
# Stress axis : x y z
#
# Youngs Moduli (GPa) = 45.20953 93.05455 24.59052
#
# Poissons Ratio (x) = 0.12119 0.13516
# Poissons Ratio (y) = 0.05888 0.16146
# Poissons Ratio (z) = 0.24850 0.61098
#
# Static dielectric constant tensor:
#      x y z
#    x 1.653510 0.000000 0.000000 
#    y 0.000000 1.599350 0.000000 
#    z 0.000000 0.000000 1.603950 
# 
# From -- ./inp_files/24005.got.cif
#   From: 2010.05.17/outbox.cif.g08.bks.cpg/sg51_13_cif.got.tgz:24005.got - 2010.06.03 11:52:47.
