data_PCOD9406777
_publ_section_title
;
Structure prediction by ZEFSAII (Michael W. Deem and Ramdas Pophale) SiO2 
 PCOD9406777
Probable space group: P M M A
;
_chemical_formula_sum "Si O2"
_cell_formula_units_Z 30
_cell_length_a 30.837015
_cell_length_b 7.999614
_cell_length_c 5.160790
_cell_angle_alpha 90.000000
_cell_angle_beta 90.000000
_cell_angle_gamma 90.000000
_cell_volume 1273.085440
_symmetry_space_group_name_H-M "P M M A"
_symmetry_group_IT_number 51
_symmetry_cell_setting 'orthorhombic'
loop_
_space_group_symop_operation_xyz
x,y,z
1/2-x,-y,z
1/2+x,-y,-z
-x,y,-z
-x,-y,-z
1/2+x,y,-z
1/2-x,y,z
x,-y,z
loop_
_atom_site_type_symbol
_atom_site_label
_atom_site_fract_x
_atom_site_fract_y
_atom_site_fract_z
Si Si1 0.551620 0.174841 0.455305
Si Si2 0.822202 0.301096 0.314491
Si Si3 0.030724 0.500000 0.755012
Si Si4 0.882079 0.693662 0.822955
Si Si5 0.750000 0.000000 0.311624
O O1 0.500000 0.166903 0.500000
O O2 0.558669 0.334128 0.275063
O O3 0.576658 0.202912 0.723421
O O4 0.565934 0.000000 0.338117
O O5 0.807646 0.500000 0.287016
O O6 0.854786 0.266466 0.076873
O O7 0.848171 0.291844 0.583730
O O8 0.787213 0.152046 0.312067
O O9 0.000000 0.500000 0.500000
O O10 0.000000 0.500000 0.000000
O O11 0.896259 0.500000 0.832444
#
# Coordination Sequence:
#
# PCOD9406777 Si02
#       5
#     8   8   4   8   2
#     4  10  22  40  65  96 135 178 227 274 322 380
#     4  10  25  44  68 100 133 168 216 271 329 399
#     4  10  22  40  60  88 124 169 220 267 316 370
#     4  10  22  44  67  96 137 176 217 271 326 384
#     4  12  26  46  76 100 130 174 210 270 344 408
#
# _framework density 23.564799000000001
#
# number of rings (size 3 to 8) (size 9 to 14) (size 15 to 20)
#    0.000    1.867    1.333    0.400    3.733    6.933 
#    0.000    9.333    0.000    0.000    0.000    0.000 
#    0.000    0.000    0.000    0.000    0.000    0.000 
#
# Total GULP energy -167205.975998 kJ/mol
# GULP energy per Si atom -5573.532533 kJ/mol
# Density = 2.351116 g / cm^3
# Si number density = 23.564799 Si / 1000 Ang^3
#
#
#
# Elastic Constant Matrix: (Units=GPa)
#
#
# Indices 1 2 3 4 5 6 
#
# 1 141.9617 64.7697 37.1402 0.0000 0.0000 0.0000
# 2 64.7697 208.3393 34.4660 0.0000 0.0000 0.0000
# 3 37.1402 34.4660 129.5579 0.0000 0.0000 0.0000
# 4 0.0000 0.0000 0.0000 -28.0270 0.0000 0.0000
# 5 0.0000 0.0000 0.0000 0.0000 -41.3320 0.0000
# 6 0.0000 0.0000 0.0000 0.0000 0.0000 95.0142
#
#
#
# Elastic Compliance Matrix: (Units=1/GPa)
#
#
# Indices 1 2 3 4 5 6 
#
# 1 0.008607 -0.002372 -0.001836 0.000000 0.000000 0.000000
# 2 -0.002372 0.005675 -0.000830 0.000000 0.000000 0.000000
# 3 -0.001836 -0.000830 0.008466 0.000000 0.000000 0.000000
# 4 0.000000 0.000000 0.000000 -0.035680 0.000000 0.000000
# 5 0.000000 0.000000 0.000000 0.000000 -0.024194 0.000000
# 6 0.000000 0.000000 0.000000 0.000000 0.000000 0.010525
#
#
# Mechanical properties :
#
#
# Convention : Reuss Voigt Hill
#
# Bulk Modulus (GPa) = 78.91881 83.62339 81.27110
# Shear Modulus (GPa) = -406.40208 28.02991 -189.18609
#
# Velocity S-wave (km/s) = -13.14671 3.45263 -8.96982
# Velocity P-wave (km/s) = 14.03157 7.17341 8.52723
#
# Compressibility (1/GPa) = 0.01267125
#
# Stress axis : x y z
#
# Youngs Moduli (GPa) = 116.18778 176.22671 118.12423
#
# Poissons Ratio (x) = 0.41800 0.21691
# Poissons Ratio (y) = 0.27559 0.09800
# Poissons Ratio (z) = 0.21335 0.14620
#
# Static dielectric constant tensor:
#      x y z
#    x 1.653320 0.000000 0.000000 
#    y 0.000000 1.989760 0.000000 
#    z 0.000000 0.000000 1.540930 
# 
# From -- ./inp_files/3761.got.cif
#   From: 2010.05.17/outbox.cif.g08.bks.cpg/sg51_2_cif.got.tgz:3761.got - 2010.06.03 11:52:47.
