data_PCOD9406236
_publ_section_title
;
Structure prediction by ZEFSAII (Michael W. Deem and Ramdas Pophale) SiO2 
 PCOD9406236
Probable space group: P M M A
;
_chemical_formula_sum "Si O2"
_cell_formula_units_Z 44
_cell_length_a 8.606776
_cell_length_b 29.835969
_cell_length_c 9.741574
_cell_angle_alpha 90.000000
_cell_angle_beta 90.000000
_cell_angle_gamma 90.000000
_cell_volume 2501.553419
_symmetry_space_group_name_H-M "P M M A"
_symmetry_group_IT_number 51
_symmetry_cell_setting 'orthorhombic'
loop_
_space_group_symop_operation_xyz
x,y,z
1/2-x,-y,z
1/2+x,-y,-z
-x,y,-z
-x,-y,-z
1/2+x,y,-z
1/2-x,y,z
x,-y,z
loop_
_atom_site_type_symbol
_atom_site_label
_atom_site_fract_x
_atom_site_fract_y
_atom_site_fract_z
Si Si1 0.938214 0.097919 0.155173
Si Si2 0.934769 0.371083 0.654931
Si Si3 0.063786 0.448684 0.846749
Si Si4 0.437179 0.000000 0.844694
Si Si5 0.563735 0.721828 0.344268
Si Si6 0.437604 0.179448 0.654762
O O1 0.750000 0.099136 0.150222
O O2 0.992050 0.138814 0.249820
O O3 0.985606 0.048599 0.212462
O O4 0.000000 0.102129 0.000000
O O5 0.750000 0.370418 0.648623
O O6 0.000000 0.374771 0.500000
O O7 0.993803 0.412453 0.744231
O O8 0.993765 0.323606 0.716646
O O9 0.250000 0.444967 0.847728
O O10 0.022838 0.500000 0.807631
O O11 0.000000 0.441213 0.000000
O O12 0.250000 0.000000 0.846921
O O13 0.500000 0.000000 0.000000
O O14 0.500000 0.722781 0.500000
O O15 0.750000 0.717965 0.345939
O O16 0.520318 0.770993 0.288021
O O17 0.500000 0.175102 0.500000
O O18 0.250000 0.178079 0.648120
#
# Coordination Sequence:
#
# PCOD9406236 Si02
#       6
#     8   8   8   4   8   8
#     4   9  17  30  47  69  93 121 157 197 240 285
#     4  11  21  34  54  79 105 133 168 210 251 292
#     4  10  21  38  58  79 105 137 170 204 246 297
#     4   8  14  26  45  64  88 120 154 192 235 284
#     4   9  16  29  48  69  95 127 162 201 243 290
#     4   9  18  31  48  69  95 126 160 197 240 290
#
# _framework density 17.589071000000001
#
# number of rings (size 3 to 8) (size 9 to 14) (size 15 to 20)
#    0.000    2.545    0.000    3.818    0.000    2.909 
#    0.000    1.364    0.000    2.182    0.000    0.000 
#    0.000    0.000    0.000    0.000    0.000    0.000 
#
# Total GULP energy -245119.201918 kJ/mol
# GULP energy per Si atom -5570.890953 kJ/mol
# Density = 1.754904 g / cm^3
# Si number density = 17.589071 Si / 1000 Ang^3
#
#
#
# Elastic Constant Matrix: (Units=GPa)
#
#
# Indices 1 2 3 4 5 6 
#
# 1 57.4897 57.4868 22.1744 0.0000 0.0000 0.0000
# 2 57.4868 219.1066 81.2435 0.0000 0.0000 0.0000
# 3 22.1744 81.2435 52.4900 0.0000 0.0000 0.0000
# 4 0.0000 0.0000 0.0000 73.9772 0.0000 0.0000
# 5 0.0000 0.0000 0.0000 0.0000 23.7665 0.0000
# 6 0.0000 0.0000 0.0000 0.0000 0.0000 -128.6207
#
#
#
# Elastic Compliance Matrix: (Units=1/GPa)
#
#
# Indices 1 2 3 4 5 6 
#
# 1 0.023599 -0.005856 -0.000906 0.000000 0.000000 0.000000
# 2 -0.005856 0.012164 -0.016354 0.000000 0.000000 0.000000
# 3 -0.000906 -0.016354 0.044747 0.000000 0.000000 0.000000
# 4 0.000000 0.000000 0.000000 0.013518 0.000000 0.000000
# 5 0.000000 0.000000 0.000000 0.000000 0.042076 0.000000
# 6 0.000000 0.000000 0.000000 0.000000 0.000000 -0.007775
#
#
# Mechanical properties :
#
#
# Convention : Reuss Voigt Hill
#
# Bulk Modulus (GPa) = 29.17264 72.32175 50.74719
# Shear Modulus (GPa) = 26.88350 5.03670 15.96010
#
# Velocity S-wave (km/s) = 3.91374 1.69403 3.01555
# Velocity P-wave (km/s) = 6.08645 6.71067 6.40616
#
# Compressibility (1/GPa) = 0.03427870
#
# Stress axis : x y z
#
# Youngs Moduli (GPa) = 42.37398 82.20695 22.34794
#
# Poissons Ratio (x) = 0.48139 0.02025
# Poissons Ratio (y) = 0.24813 0.36548
# Poissons Ratio (z) = 0.03839 1.34443
#
# Static dielectric constant tensor:
#      x y z
#    x 1.587280 0.000000 0.000000 
#    y 0.000000 1.663610 0.000000 
#    z 0.000000 0.000000 1.537470 
# 
# From -- ./inp_files/5729.got.cif
#   From: 2010.05.17/outbox.cif.g08.bks.cpg/sg51_3_cif.got.tgz:5729.got - 2010.06.03 11:52:47.
