data_PCOD9406906
_publ_section_title
;
Structure prediction by ZEFSAII (Michael W. Deem and Ramdas Pophale) SiO2 
 PCOD9406906
Probable space group: P M M A
;
_chemical_formula_sum "Si O2"
_cell_formula_units_Z 40
_cell_length_a 8.516158
_cell_length_b 14.900674
_cell_length_c 15.979905
_cell_angle_alpha 90.000000
_cell_angle_beta 90.000000
_cell_angle_gamma 90.000000
_cell_volume 2027.793920
_symmetry_space_group_name_H-M "P M M A"
_symmetry_group_IT_number 51
_symmetry_cell_setting 'orthorhombic'
loop_
_space_group_symop_operation_xyz
x,y,z
1/2-x,-y,z
1/2+x,-y,-z
-x,y,-z
-x,-y,-z
1/2+x,y,-z
1/2-x,y,z
x,-y,z
loop_
_atom_site_type_symbol
_atom_site_label
_atom_site_fract_x
_atom_site_fract_y
_atom_site_fract_z
Si Si1 0.440035 0.895961 0.751131
Si Si2 0.938156 0.788784 0.910947
Si Si3 0.440523 0.401618 0.152622
Si Si4 0.939087 0.400093 0.649807
Si Si5 0.563167 0.785983 0.411352
O O1 0.250000 0.891817 0.753323
O O2 0.504299 0.848180 0.833724
O O3 0.494688 0.842740 0.668456
O O4 0.486530 0.000000 0.747732
O O5 0.750000 0.788023 0.911482
O O6 0.996671 0.686349 0.895413
O O7 0.000000 0.821529 0.000000
O O8 0.250000 0.402536 0.147808
O O9 0.496989 0.500000 0.123896
O O10 0.478821 0.392115 0.251267
O O11 0.750000 0.395015 0.643240
O O12 0.988357 0.500000 0.621958
O O13 0.012697 0.317053 0.602037
O O14 0.500000 0.819239 0.500000
O O15 0.750000 0.790973 0.412572
#
# Coordination Sequence:
#
# PCOD9406906 Si02
#       5
#     8   8   8   8   8
#     4  10  23  44  65  85 113 148 190 244 299 347
#     4  11  22  37  61  90 121 155 194 237 286 344
#     4   8  15  30  54  83 116 154 192 231 278 333
#     4   9  17  33  58  85 116 155 196 237 282 335
#     4  11  23  38  60  88 119 152 191 238 290 347
#
# _framework density 19.725871999999999
#
# number of rings (size 3 to 8) (size 9 to 14) (size 15 to 20)
#    0.000    2.200    2.000    2.400    0.000    3.200 
#    0.000    0.000    0.000    1.800    0.000    0.000 
#    0.000    0.000    0.000    0.000    0.000    0.000 
#
# Total GULP energy -223353.622340 kJ/mol
# GULP energy per Si atom -5583.840559 kJ/mol
# Density = 1.968097 g / cm^3
# Si number density = 19.725872 Si / 1000 Ang^3
#
#
#
# Elastic Constant Matrix: (Units=GPa)
#
#
# Indices 1 2 3 4 5 6 
#
# 1 21.1112 28.9857 29.9561 0.0000 0.0000 0.0000
# 2 28.9857 134.8443 85.1477 0.0000 0.0000 0.0000
# 3 29.9561 85.1477 159.5280 0.0000 0.0000 0.0000
# 4 0.0000 0.0000 0.0000 -4.1602 0.0000 0.0000
# 5 0.0000 0.0000 0.0000 0.0000 23.8831 0.0000
# 6 0.0000 0.0000 0.0000 0.0000 0.0000 22.2906
#
#
#
# Elastic Compliance Matrix: (Units=1/GPa)
#
#
# Indices 1 2 3 4 5 6 
#
# 1 0.073548 -0.010692 -0.008104 0.000000 0.000000 0.000000
# 2 -0.010692 0.012741 -0.004792 0.000000 0.000000 0.000000
# 3 -0.008104 -0.004792 0.010348 0.000000 0.000000 0.000000
# 4 0.000000 0.000000 0.000000 -0.240374 0.000000 0.000000
# 5 0.000000 0.000000 0.000000 0.000000 0.041871 0.000000
# 6 0.000000 0.000000 0.000000 0.000000 0.000000 0.044862
#
#
# Mechanical properties :
#
#
# Convention : Reuss Voigt Hill
#
# Bulk Modulus (GPa) = 20.21860 67.07361 43.64611
# Shear Modulus (GPa) = 750.86715 19.82896 385.34805
#
# Velocity S-wave (km/s) = 19.53144 3.17397 13.99199
# Velocity P-wave (km/s) = 22.77956 6.89266 16.82880
#
# Compressibility (1/GPa) = 0.04945941
#
# Stress axis : x y z
#
# Youngs Moduli (GPa) = 13.59657 78.48953 96.63561
#
# Poissons Ratio (x) = 0.83925 0.78311
# Poissons Ratio (y) = 0.14538 0.46312
# Poissons Ratio (z) = 0.11018 0.37615
#
# Static dielectric constant tensor:
#      x y z
#    x 1.669530 0.000000 0.000000 
#    y 0.000000 1.694940 0.000000 
#    z 0.000000 0.000000 1.685210 
# 
# From -- ./inp_files/20477.got.cif
#   From: 2010.05.17/outbox.cif.g08.bks.cpg/sg51_11_cif.got.tgz:20477.got - 2010.06.03 11:52:47.
