data_PCOD9406114
_publ_section_title
;
Structure prediction by ZEFSAII (Michael W. Deem and Ramdas Pophale) SiO2 
 PCOD9406114
Probable space group: P M M A
;
_chemical_formula_sum "Si O2"
_cell_formula_units_Z 48
_cell_length_a 9.054634
_cell_length_b 9.105034
_cell_length_c 31.517775
_cell_angle_alpha 90.000000
_cell_angle_beta 90.000000
_cell_angle_gamma 90.000000
_cell_volume 2598.412058
_symmetry_space_group_name_H-M "P M M A"
_symmetry_group_IT_number 51
_symmetry_cell_setting 'orthorhombic'
loop_
_space_group_symop_operation_xyz
x,y,z
1/2-x,-y,z
1/2+x,-y,-z
-x,y,-z
-x,-y,-z
1/2+x,y,-z
1/2-x,y,z
x,-y,z
loop_
_atom_site_type_symbol
_atom_site_label
_atom_site_fract_x
_atom_site_fract_y
_atom_site_fract_z
Si Si1 0.926892 0.173784 0.212807
Si Si2 0.075140 0.675430 0.455158
Si Si3 0.425954 0.325752 0.293439
Si Si4 0.574497 0.825809 0.955669
Si Si5 0.074601 0.174827 0.625431
Si Si6 0.426513 0.672898 0.875657
O O1 0.750000 0.194485 0.218286
O O2 0.968422 0.243228 0.167513
O O3 0.010414 0.252999 0.250944
O O4 0.956643 0.000000 0.213109
O O5 0.250000 0.705006 0.456726
O O6 0.055365 0.500000 0.448458
O O7 0.000000 0.713100 0.500000
O O8 0.999965 0.761268 0.416786
O O9 0.250000 0.303541 0.296011
O O10 0.455042 0.500000 0.293151
O O11 0.503248 0.252272 0.333863
O O12 0.750000 0.805686 0.958336
O O13 0.508479 0.738960 0.916114
O O14 0.544234 0.000000 0.949851
O O15 0.500000 0.780363 0.000000
O O16 0.250000 0.202823 0.624493
O O17 0.051472 0.000000 0.628097
O O18 0.250000 0.692013 0.881446
O O19 0.456626 0.500000 0.871127
#
# Coordination Sequence:
#
# PCOD9406114 Si02
#       6
#     8   8   8   8   8   8
#     4  10  21  38  61  87 114 147 188 232 279 333
#     4  10  21  38  61  88 117 151 192 236 284 338
#     4  11  24  40  59  85 116 150 189 233 282 336
#     4  10  21  37  58  83 111 146 188 233 282 335
#     4  11  24  40  59  85 116 151 192 236 284 338
#     4  10  21  37  58  84 114 149 188 230 279 334
#
# _framework density 18.472819000000001
#
# number of rings (size 3 to 8) (size 9 to 14) (size 15 to 20)
#    0.000    1.667    0.000    4.000    0.000   12.000 
#    0.000    0.000    0.000    0.000    0.000    0.000 
#    0.000    0.000    0.000    0.000    0.000    0.000 
#
# Total GULP energy -268385.466730 kJ/mol
# GULP energy per Si atom -5591.363890 kJ/mol
# Density = 1.843077 g / cm^3
# Si number density = 18.472819 Si / 1000 Ang^3
#
#
#
# Elastic Constant Matrix: (Units=GPa)
#
#
# Indices 1 2 3 4 5 6 
#
# 1 97.5013 97.6984 104.5621 0.0000 0.0000 0.0000
# 2 97.6984 112.3157 111.8226 0.0000 0.0000 0.0000
# 3 104.5621 111.8226 206.2815 0.0000 0.0000 0.0000
# 4 0.0000 0.0000 0.0000 42.2367 0.0000 0.0000
# 5 0.0000 0.0000 0.0000 0.0000 42.0923 0.0000
# 6 0.0000 0.0000 0.0000 0.0000 0.0000 31.6595
#
#
#
# Elastic Compliance Matrix: (Units=1/GPa)
#
#
# Indices 1 2 3 4 5 6 
#
# 1 0.083628 -0.066349 -0.006423 0.000000 0.000000 0.000000
# 2 -0.066349 0.071984 -0.005390 0.000000 0.000000 0.000000
# 3 -0.006423 -0.005390 0.011025 0.000000 0.000000 0.000000
# 4 0.000000 0.000000 0.000000 0.023676 0.000000 0.000000
# 5 0.000000 0.000000 0.000000 0.000000 0.023757 0.000000
# 6 0.000000 0.000000 0.000000 0.000000 0.000000 0.031586
#
#
# Mechanical properties :
#
#
# Convention : Reuss Voigt Hill
#
# Bulk Modulus (GPa) = 96.96678 116.02940 106.49809
# Shear Modulus (GPa) = 12.33296 29.99875 21.16586
#
# Velocity S-wave (km/s) = 2.58665 4.03419 3.38862
# Velocity P-wave (km/s) = 7.84389 9.20037 8.54907
#
# Compressibility (1/GPa) = 0.01031281
#
# Stress axis : x y z
#
# Youngs Moduli (GPa) = 11.95776 13.89203 90.70129
#
# Poissons Ratio (x) = 0.92172 0.58257
# Poissons Ratio (y) = 0.79339 0.48886
# Poissons Ratio (z) = 0.07680 0.07487
#
# Static dielectric constant tensor:
#      x y z
#    x 1.616560 0.000000 0.000000 
#    y 0.000000 1.617680 0.000000 
#    z 0.000000 0.000000 1.590520 
# 
# From -- ./inp_files/36944.got.cif
#   From: 2010.05.17/outbox.cif.g08.bks.cpg/sg51_19_cif.got.tgz:36944.got - 2010.06.03 11:52:47.
