data_PCOD9406511
_publ_section_title
;
Structure prediction by ZEFSAII (Michael W. Deem and Ramdas Pophale) SiO2 
 PCOD9406511
Probable space group: P M M A
;
_chemical_formula_sum "Si O2"
_cell_formula_units_Z 24
_cell_length_a 16.929004
_cell_length_b 13.966796
_cell_length_c 5.047249
_cell_angle_alpha 90.000000
_cell_angle_beta 90.000000
_cell_angle_gamma 90.000000
_cell_volume 1193.391467
_symmetry_space_group_name_H-M "P M M A"
_symmetry_group_IT_number 51
_symmetry_cell_setting 'orthorhombic'
loop_
_space_group_symop_operation_xyz
x,y,z
1/2-x,-y,z
1/2+x,-y,-z
-x,y,-z
-x,-y,-z
1/2+x,y,-z
1/2-x,y,z
x,-y,z
loop_
_atom_site_type_symbol
_atom_site_label
_atom_site_fract_x
_atom_site_fract_y
_atom_site_fract_z
Si Si1 0.158282 0.212319 0.884321
Si Si2 0.588810 0.887942 0.606448
Si Si3 0.443884 0.391026 0.744781
O O1 0.250000 0.217432 0.956033
O O2 0.144811 0.142108 0.635763
O O3 0.124311 0.314514 0.791994
O O4 0.108986 0.173562 0.134798
O O5 0.500000 0.872021 0.500000
O O6 0.597280 0.000000 0.672058
O O7 0.500000 0.363896 0.500000
O O8 0.415058 0.500000 0.699958
O O9 0.500000 0.391277 0.000000
#
# Coordination Sequence:
#
# PCOD9406511 Si02
#       3
#     8   8   8
#     4  12  24  38  61  92 125 157 194 252 314 362
#     4  11  24  42  63  86 117 162 210 250 295 361
#     4  10  21  39  63  87 115 156 201 242 288 351
#
# _framework density 20.110754
#
# number of rings (size 3 to 8) (size 9 to 14) (size 15 to 20)
#    0.000    1.000    0.000    8.000    0.000    7.333 
#    0.000    0.000    0.000   10.000    0.000    0.000 
#    0.000    0.000    0.000    0.000    0.000    0.000 
#
# Total GULP energy -134313.905453 kJ/mol
# GULP energy per Si atom -5596.412727 kJ/mol
# Density = 2.006498 g / cm^3
# Si number density = 20.110754 Si / 1000 Ang^3
#
#
#
# Elastic Constant Matrix: (Units=GPa)
#
#
# Indices 1 2 3 4 5 6 
#
# 1 95.4197 65.6562 22.6432 0.0000 0.0000 0.0000
# 2 65.6562 143.2741 35.4789 0.0000 0.0000 0.0000
# 3 22.6432 35.4789 126.5396 0.0000 0.0000 0.0000
# 4 0.0000 0.0000 0.0000 27.5351 0.0000 0.0000
# 5 0.0000 0.0000 0.0000 0.0000 21.8609 0.0000
# 6 0.0000 0.0000 0.0000 0.0000 0.0000 -3.7904
#
#
#
# Elastic Compliance Matrix: (Units=1/GPa)
#
#
# Indices 1 2 3 4 5 6 
#
# 1 0.015388 -0.006845 -0.000834 0.000000 0.000000 0.000000
# 2 -0.006845 0.010545 -0.001732 0.000000 0.000000 0.000000
# 3 -0.000834 -0.001732 0.008538 0.000000 0.000000 0.000000
# 4 0.000000 0.000000 0.000000 0.036317 0.000000 0.000000
# 5 0.000000 0.000000 0.000000 0.000000 0.045744 0.000000
# 6 0.000000 0.000000 0.000000 0.000000 0.000000 -0.263828
#
#
# Mechanical properties :
#
#
# Convention : Reuss Voigt Hill
#
# Bulk Modulus (GPa) = 63.90441 68.08778 65.99609
# Shear Modulus (GPa) = -40.56541 25.21815 -7.67363
#
# Velocity S-wave (km/s) = -4.49609 3.54498 -1.95550
# Velocity P-wave (km/s) = 2.21182 7.11939 5.27152
#
# Compressibility (1/GPa) = 0.01564837
#
# Stress axis : x y z
#
# Youngs Moduli (GPa) = 64.98622 94.82973 117.13005
#
# Poissons Ratio (x) = 0.64911 0.09773
# Poissons Ratio (y) = 0.44483 0.20284
# Poissons Ratio (z) = 0.05422 0.16422
#
# Static dielectric constant tensor:
#      x y z
#    x 1.680370 0.000000 0.000000 
#    y 0.000000 1.731730 0.000000 
#    z 0.000000 0.000000 1.677760 
# 
# From -- ./inp_files/1139.got.cif
#   From: 2010.05.17/outbox.cif.g08.bks.cpg/sg51_1_cif.got.tgz:1139.got - 2010.06.03 11:52:47.
