data_PCOD9406379
_publ_section_title
;
Structure prediction by ZEFSAII (Michael W. Deem and Ramdas Pophale) SiO2 
 PCOD9406379
Probable space group: P M M A
;
_chemical_formula_sum "Si O2"
_cell_formula_units_Z 40
_cell_length_a 14.468831
_cell_length_b 9.320874
_cell_length_c 15.137721
_cell_angle_alpha 90.000000
_cell_angle_beta 90.000000
_cell_angle_gamma 90.000000
_cell_volume 2041.505610
_symmetry_space_group_name_H-M "P M M A"
_symmetry_group_IT_number 51
_symmetry_cell_setting 'orthorhombic'
loop_
_space_group_symop_operation_xyz
x,y,z
1/2-x,-y,z
1/2+x,-y,-z
-x,y,-z
-x,-y,-z
1/2+x,y,-z
1/2-x,y,z
x,-y,z
loop_
_atom_site_type_symbol
_atom_site_label
_atom_site_fract_x
_atom_site_fract_y
_atom_site_fract_z
Si Si1 0.139000 0.166353 0.271121
Si Si2 0.637246 0.663121 0.905013
Si Si3 0.505059 0.329280 0.604413
Si Si4 0.640666 0.828431 0.276202
Si Si5 0.862669 0.163929 0.076311
O O1 0.250000 0.171909 0.277462
O O2 0.111569 0.239993 0.178651
O O3 0.092372 0.252758 0.350293
O O4 0.110332 0.000000 0.272112
O O5 0.750000 0.660049 0.906079
O O6 0.604587 0.500000 0.895472
O O7 0.607812 0.734147 0.997042
O O8 0.500000 0.302082 0.500000
O O9 0.508876 0.500000 0.618661
O O10 0.417767 0.260406 0.654207
O O11 0.750000 0.801363 0.285229
O O12 0.612029 0.791161 0.175528
O O13 0.626669 0.000000 0.286639
O O14 0.750000 0.161005 0.075511
O O15 0.893412 0.000000 0.061267
#
# Coordination Sequence:
#
# PCOD9406379 Si02
#       5
#     8   8   8   8   8
#     4  10  21  38  61  86 112 147 190 234 280 331
#     4   9  16  27  48  80 116 151 184 221 269 326
#     4  11  25  42  59  82 113 147 184 233 291 344
#     4   9  19  37  61  87 115 149 189 233 279 329
#     4   8  14  27  49  78 112 148 184 222 267 321
#
# _framework density 19.593384
#
# number of rings (size 3 to 8) (size 9 to 14) (size 15 to 20)
#    0.000    2.600    0.000    3.000    0.000    7.200 
#    0.000    7.000    0.000    6.000    0.000    0.000 
#    0.000    0.000    0.000    0.000    0.000    0.000 
#
# Total GULP energy -223470.580313 kJ/mol
# GULP energy per Si atom -5586.764508 kJ/mol
# Density = 1.954879 g / cm^3
# Si number density = 19.593384 Si / 1000 Ang^3
#
#
#
# Elastic Constant Matrix: (Units=GPa)
#
#
# Indices 1 2 3 4 5 6 
#
# 1 75.4122 41.1041 44.8844 0.0000 0.0000 0.0000
# 2 41.1041 130.2856 119.4367 0.0000 0.0000 0.0000
# 3 44.8844 119.4367 177.7046 0.0000 0.0000 0.0000
# 4 0.0000 0.0000 0.0000 38.0673 0.0000 0.0000
# 5 0.0000 0.0000 0.0000 0.0000 35.6633 0.0000
# 6 0.0000 0.0000 0.0000 0.0000 0.0000 21.3955
#
#
#
# Elastic Compliance Matrix: (Units=1/GPa)
#
#
# Indices 1 2 3 4 5 6 
#
# 1 0.016212 -0.003545 -0.001712 0.000000 0.000000 0.000000
# 2 -0.003545 0.020771 -0.013065 0.000000 0.000000 0.000000
# 3 -0.001712 -0.013065 0.014841 0.000000 0.000000 0.000000
# 4 0.000000 0.000000 0.000000 0.026269 0.000000 0.000000
# 5 0.000000 0.000000 0.000000 0.000000 0.028040 0.000000
# 6 0.000000 0.000000 0.000000 0.000000 0.000000 0.046739
#
#
# Mechanical properties :
#
#
# Convention : Reuss Voigt Hill
#
# Bulk Modulus (GPa) = 65.87946 88.25030 77.06488
# Shear Modulus (GPa) = 25.69702 30.89037 28.29369
#
# Velocity S-wave (km/s) = 3.62541 3.97491 3.80418
# Velocity P-wave (km/s) = 7.15689 8.13666 7.66245
#
# Compressibility (1/GPa) = 0.01517924
#
# Stress axis : x y z
#
# Youngs Moduli (GPa) = 61.68360 48.14443 67.38251
#
# Poissons Ratio (x) = 0.17069 0.11535
# Poissons Ratio (y) = 0.21869 0.88034
# Poissons Ratio (z) = 0.10560 0.62900
#
# Static dielectric constant tensor:
#      x y z
#    x 1.737260 0.000000 0.000000 
#    y 0.000000 1.654730 0.000000 
#    z 0.000000 0.000000 1.646180 
# 
# From -- ./inp_files/23714.got.cif
#   From: 2010.05.17/outbox.cif.g08.bks.cpg/sg51_12_cif.got.tgz:23714.got - 2010.06.03 11:52:47.
