data_PCOD9406992
_publ_section_title
;
Structure prediction by ZEFSAII (Michael W. Deem and Ramdas Pophale) SiO2 
 PCOD9406992
Probable space group: P M M A
;
_chemical_formula_sum "Si O2"
_cell_formula_units_Z 48
_cell_length_a 8.594461
_cell_length_b 24.607869
_cell_length_c 14.190536
_cell_angle_alpha 90.000000
_cell_angle_beta 90.000000
_cell_angle_gamma 90.000000
_cell_volume 3001.175906
_symmetry_space_group_name_H-M "P M M A"
_symmetry_group_IT_number 51
_symmetry_cell_setting 'orthorhombic'
loop_
_space_group_symop_operation_xyz
x,y,z
1/2-x,-y,z
1/2+x,-y,-z
-x,y,-z
-x,-y,-z
1/2+x,y,-z
1/2-x,y,z
x,-y,z
loop_
_atom_site_type_symbol
_atom_site_label
_atom_site_fract_x
_atom_site_fract_y
_atom_site_fract_z
Si Si1 0.061994 0.938726 0.105121
Si Si2 0.562100 0.561757 0.604431
Si Si3 0.061824 0.665479 0.279925
Si Si4 0.938496 0.168300 0.789303
Si Si5 0.564829 0.273128 0.103846
Si Si6 0.063226 0.227953 0.396117
O O1 0.250000 0.938018 0.102069
O O2 0.011035 0.890671 0.174459
O O3 0.012906 0.000000 0.132135
O O4 0.000000 0.928054 0.000000
O O5 0.500000 0.574421 0.500000
O O6 0.750000 0.562881 0.600979
O O7 0.513340 0.500000 0.627995
O O8 0.512136 0.607637 0.678248
O O9 0.250000 0.666351 0.271665
O O10 0.017774 0.713104 0.353939
O O11 0.991485 0.682566 0.180059
O O12 0.750000 0.170593 0.792283
O O13 0.987043 0.184578 0.683428
O O14 0.000730 0.215433 0.857818
O O15 0.750000 0.271222 0.101498
O O16 0.500000 0.283637 0.000000
O O17 0.250000 0.226903 0.400455
O O18 0.000000 0.218995 0.500000
#
# Coordination Sequence:
#
# PCOD9406992 Si02
#       6
#     8   8   8   8   8   8
#     4   9  17  29  46  67  90 117 148 182 222 268
#     4   9  17  29  47  71  98 127 156 188 227 270
#     4   9  18  32  47  66  94 123 152 187 226 267
#     4   9  18  32  47  66  93 121 150 185 225 268
#     4  11  21  32  48  69  92 119 151 186 227 273
#     4   9  17  28  43  63  88 118 149 184 222 261
#
# _framework density 15.993731
#
# number of rings (size 3 to 8) (size 9 to 14) (size 15 to 20)
#    0.000    2.667    0.000    3.500    0.000    5.333 
#    0.000    0.000    0.000    1.000    0.000    0.000 
#    0.000    0.000    0.000    0.000    0.000    0.333 
#
# Total GULP energy -267573.501495 kJ/mol
# GULP energy per Si atom -5574.447948 kJ/mol
# Density = 1.595733 g / cm^3
# Si number density = 15.993731 Si / 1000 Ang^3
#
#
#
# Elastic Constant Matrix: (Units=GPa)
#
#
# Indices 1 2 3 4 5 6 
#
# 1 15.5428 26.5211 28.4363 0.0000 0.0000 0.0000
# 2 26.5211 130.1756 97.2521 0.0000 0.0000 0.0000
# 3 28.4363 97.2521 151.8584 0.0000 0.0000 0.0000
# 4 0.0000 0.0000 0.0000 23.9916 0.0000 0.0000
# 5 0.0000 0.0000 0.0000 0.0000 28.7429 0.0000
# 6 0.0000 0.0000 0.0000 0.0000 0.0000 15.3502
#
#
#
# Elastic Compliance Matrix: (Units=1/GPa)
#
#
# Indices 1 2 3 4 5 6 
#
# 1 0.108686 -0.013303 -0.011833 0.000000 0.000000 0.000000
# 2 -0.013303 0.016357 -0.007984 0.000000 0.000000 0.000000
# 3 -0.011833 -0.007984 0.013914 0.000000 0.000000 0.000000
# 4 0.000000 0.000000 0.000000 0.041681 0.000000 0.000000
# 5 0.000000 0.000000 0.000000 0.000000 0.034791 0.000000
# 6 0.000000 0.000000 0.000000 0.000000 0.000000 0.065146
#
#
# Mechanical properties :
#
#
# Convention : Reuss Voigt Hill
#
# Bulk Modulus (GPa) = 13.75191 66.88844 40.32017
# Shear Modulus (GPa) = 13.47514 23.30808 18.39161
#
# Velocity S-wave (km/s) = 2.90578 3.82164 3.39473
# Velocity P-wave (km/s) = 4.45814 7.83490 6.37419
#
# Compressibility (1/GPa) = 0.07271717
#
# Stress axis : x y z
#
# Youngs Moduli (GPa) = 9.20085 61.13555 71.86996
#
# Poissons Ratio (x) = 0.81328 0.85041
# Poissons Ratio (y) = 0.12240 0.57383
# Poissons Ratio (z) = 0.10887 0.48812
#
# Static dielectric constant tensor:
#      x y z
#    x 1.542940 0.000000 0.000000 
#    y 0.000000 1.547380 0.000000 
#    z 0.000000 0.000000 1.509790 
# 
# From -- ./inp_files/14430.got.cif
#   From: 2010.05.17/outbox.cif.g08.bks.cpg/sg51_8_cif.got.tgz:14430.got - 2010.06.03 11:52:47.
