data_PCOD9406718
_publ_section_title
;
Structure prediction by ZEFSAII (Michael W. Deem and Ramdas Pophale) SiO2 
 PCOD9406718
Probable space group: P M M A
;
_chemical_formula_sum "Si O2"
_cell_formula_units_Z 40
_cell_length_a 10.093425
_cell_length_b 25.323824
_cell_length_c 9.224775
_cell_angle_alpha 90.000000
_cell_angle_beta 90.000000
_cell_angle_gamma 90.000000
_cell_volume 2357.890480
_symmetry_space_group_name_H-M "P M M A"
_symmetry_group_IT_number 51
_symmetry_cell_setting 'orthorhombic'
loop_
_space_group_symop_operation_xyz
x,y,z
1/2-x,-y,z
1/2+x,-y,-z
-x,y,-z
-x,-y,-z
1/2+x,y,-z
1/2-x,y,z
x,-y,z
loop_
_atom_site_type_symbol
_atom_site_label
_atom_site_fract_x
_atom_site_fract_y
_atom_site_fract_z
Si Si1 0.250000 0.935714 0.677579
Si Si2 0.493940 0.885661 0.173696
Si Si3 0.594008 0.443206 0.640672
Si Si4 0.908659 0.232255 0.861432
Si Si5 0.250000 0.062594 0.336205
Si Si6 0.904602 0.327393 0.638100
O O1 0.375232 0.908924 0.753908
O O2 0.250000 0.922798 0.506146
O O3 0.250000 0.000000 0.693540
O O4 0.464417 0.823550 0.196818
O O5 0.375483 0.915948 0.250827
O O6 0.500000 0.893562 0.000000
O O7 0.500000 0.443303 0.500000
O O8 0.750000 0.443596 0.599659
O O9 0.569739 0.500000 0.717390
O O10 0.571759 0.385502 0.709723
O O11 0.750000 0.226402 0.894501
O O12 0.924135 0.279421 0.747623
O O13 0.000000 0.244224 0.000000
O O14 0.250000 0.000000 0.331827
O O15 0.750000 0.325989 0.591950
O O16 0.000000 0.322614 0.500000
#
# Coordination Sequence:
#
# PCOD9406718 Si02
#       6
#     4   8   8   8   4   8
#     4  11  25  41  61  89 117 147 178 219 282 333
#     4  11  23  40  61  85 111 146 190 229 266 327
#     4   8  13  23  42  68 101 138 173 215 264 312
#     4  10  22  39  57  78 106 142 180 223 270 317
#     4  11  23  41  61  85 119 147 176 223 276 327
#     4   9  18  32  50  79 110 138 180 224 268 322
#
# _framework density 16.964314999999999
#
# number of rings (size 3 to 8) (size 9 to 14) (size 15 to 20)
#    0.000    2.200    1.000    1.800    4.200    6.400 
#    0.000    0.000    0.000    0.600    0.000    0.000 
#    0.000    0.000    0.000    0.000    0.000    0.000 
#
# Total GULP energy -222698.248910 kJ/mol
# GULP energy per Si atom -5567.456223 kJ/mol
# Density = 1.692570 g / cm^3
# Si number density = 16.964315 Si / 1000 Ang^3
#
#
#
# Elastic Constant Matrix: (Units=GPa)
#
#
# Indices 1 2 3 4 5 6 
#
# 1 123.2182 77.5687 53.9275 0.0000 0.0000 0.0000
# 2 77.5687 146.7913 89.5546 0.0000 0.0000 0.0000
# 3 53.9275 89.5546 77.9701 0.0000 0.0000 0.0000
# 4 0.0000 0.0000 0.0000 -552.5350 0.0000 0.0000
# 5 0.0000 0.0000 0.0000 0.0000 3009.6484 0.0000
# 6 0.0000 0.0000 0.0000 0.0000 0.0000 27.6375
#
#
#
# Elastic Compliance Matrix: (Units=1/GPa)
#
#
# Indices 1 2 3 4 5 6 
#
# 1 0.012444 -0.004427 -0.003522 0.000000 0.000000 0.000000
# 2 -0.004427 0.024338 -0.024892 0.000000 0.000000 0.000000
# 3 -0.003522 -0.024892 0.043852 0.000000 0.000000 0.000000
# 4 0.000000 0.000000 0.000000 -0.001810 0.000000 0.000000
# 5 0.000000 0.000000 0.000000 0.000000 0.000332 0.000000
# 6 0.000000 0.000000 0.000000 0.000000 0.000000 0.036183
#
#
# Mechanical properties :
#
#
# Convention : Reuss Voigt Hill
#
# Bulk Modulus (GPa) = 66.88263 87.78681 77.33472
# Shear Modulus (GPa) = 26.88100 505.41211 266.14656
#
# Velocity S-wave (km/s) = 3.98497 17.27928 12.53901
# Velocity P-wave (km/s) = 7.79002 21.21222 15.97878
#
# Compressibility (1/GPa) = 0.01495157
#
# Stress axis : x y z
#
# Youngs Moduli (GPa) = 80.35957 41.08811 22.80409
#
# Poissons Ratio (x) = 0.18190 0.08032
# Poissons Ratio (y) = 0.35576 0.56764
# Poissons Ratio (z) = 0.28303 1.02277
#
# Static dielectric constant tensor:
#      x y z
#    x 1.537730 0.000000 0.000000 
#    y 0.000000 1.618860 0.000000 
#    z 0.000000 0.000000 1.542390 
# 
# From -- ./inp_files/5561.got.cif
#   From: 2010.05.17/outbox.cif.g08.bks.cpg/sg51_3_cif.got.tgz:5561.got - 2010.06.03 11:52:47.
