data_PCOD9406812
_publ_section_title
;
Structure prediction by ZEFSAII (Michael W. Deem and Ramdas Pophale) SiO2 
 PCOD9406812
Probable space group: P M M A
;
_chemical_formula_sum "Si O2"
_cell_formula_units_Z 48
_cell_length_a 15.716522
_cell_length_b 10.424890
_cell_length_c 14.080697
_cell_angle_alpha 90.000000
_cell_angle_beta 90.000000
_cell_angle_gamma 90.000000
_cell_volume 2307.023822
_symmetry_space_group_name_H-M "P M M A"
_symmetry_group_IT_number 51
_symmetry_cell_setting 'orthorhombic'
loop_
_space_group_symop_operation_xyz
x,y,z
1/2-x,-y,z
1/2+x,-y,-z
-x,y,-z
-x,-y,-z
1/2+x,y,-z
1/2-x,y,z
x,-y,z
loop_
_atom_site_type_symbol
_atom_site_label
_atom_site_fract_x
_atom_site_fract_y
_atom_site_fract_z
Si Si1 0.349193 0.857521 0.595013
Si Si2 0.900439 0.500000 0.889678
Si Si3 0.407453 0.734715 0.239845
Si Si4 0.853442 0.353541 0.551456
Si Si5 0.108996 0.500000 0.892077
Si Si6 0.850318 0.000000 0.847082
Si Si7 0.893740 0.764755 0.199275
Si Si8 0.646589 0.000000 0.063782
O O1 0.250000 0.867875 0.568330
O O2 0.385402 0.745875 0.528273
O O3 0.352012 0.815735 0.704495
O O4 0.388040 0.000000 0.584266
O O5 0.873721 0.373748 0.832326
O O6 0.004630 0.500000 0.891028
O O7 0.868227 0.500000 0.997042
O O8 0.382469 0.694590 0.345570
O O9 0.375235 0.873593 0.209802
O O10 0.508571 0.741314 0.227076
O O11 0.750000 0.355245 0.549910
O O12 0.882058 0.500000 0.534908
O O13 0.139103 0.629151 0.840417
O O14 0.750000 0.000000 0.857993
O O15 0.885214 0.000000 0.955001
O O16 0.884728 0.873812 0.119333
O O17 0.750000 0.000000 0.066720
#
# Coordination Sequence:
#
# PCOD9406812 Si02
#       8
#     8   4   8   8   4   4   8   4
#     4  10  22  41  63  86 118 160 203 248 302 363
#     4   9  18  38  58  83 122 162 195 239 296 353
#     4  11  22  39  62  92 125 156 202 252 307 362
#     4  10  22  41  64  88 119 161 203 247 303 366
#     4   9  20  34  58  89 122 156 197 241 292 359
#     4  11  25  39  60  91 124 163 205 250 296 361
#     4  11  22  38  63  93 121 161 200 251 310 356
#     4  11  23  43  62  85 124 167 209 248 298 361
#
# _framework density 20.806027
#
# number of rings (size 3 to 8) (size 9 to 14) (size 15 to 20)
#    0.000    1.667    1.667    2.500    2.333    3.333 
#    0.000    2.917    0.000    5.000    0.000    0.000 
#    0.000    0.000    0.000    0.000    0.000    0.000 
#
# Total GULP energy -268260.299683 kJ/mol
# GULP energy per Si atom -5588.756243 kJ/mol
# Density = 2.075867 g / cm^3
# Si number density = 20.806027 Si / 1000 Ang^3
#
#
#
# Elastic Constant Matrix: (Units=GPa)
#
#
# Indices 1 2 3 4 5 6 
#
# 1 21.0336 6.9651 -2.3368 0.0000 0.0000 0.0000
# 2 6.9651 233.6995 95.0107 0.0000 0.0000 0.0000
# 3 -2.3368 95.0107 112.4896 0.0000 0.0000 0.0000
# 4 0.0000 0.0000 0.0000 41.4525 0.0000 0.0000
# 5 0.0000 0.0000 0.0000 0.0000 22.7349 0.0000
# 6 0.0000 0.0000 0.0000 0.0000 0.0000 139.6861
#
#
#
# Elastic Compliance Matrix: (Units=1/GPa)
#
#
# Indices 1 2 3 4 5 6 
#
# 1 0.048865 -0.002846 0.003419 0.000000 0.000000 0.000000
# 2 -0.002846 0.006683 -0.005703 0.000000 0.000000 0.000000
# 3 0.003419 -0.005703 0.013778 0.000000 0.000000 0.000000
# 4 0.000000 0.000000 0.000000 0.024124 0.000000 0.000000
# 5 0.000000 0.000000 0.000000 0.000000 0.043985 0.000000
# 6 0.000000 0.000000 0.000000 0.000000 0.000000 0.007159
#
#
# Mechanical properties :
#
#
# Convention : Reuss Voigt Hill
#
# Bulk Modulus (GPa) = 16.93056 62.94451 39.93754
# Shear Modulus (GPa) = 28.64620 58.61360 43.62990
#
# Velocity S-wave (km/s) = 3.71458 5.31344 4.58425
# Velocity P-wave (km/s) = 5.15291 8.24392 6.87440
#
# Compressibility (1/GPa) = 0.05906479
#
# Stress axis : x y z
#
# Youngs Moduli (GPa) = 20.46436 149.64421 72.58024
#
# Poissons Ratio (x) = 0.42596 -0.24817
# Poissons Ratio (y) = 0.05825 0.41395
# Poissons Ratio (z) = -0.06997 0.85347
#
# Static dielectric constant tensor:
#      x y z
#    x 1.748090 0.000000 0.000000 
#    y 0.000000 1.732500 0.000000 
#    z 0.000000 0.000000 1.703820 
# 
# From -- ./inp_files/25015.got.cif
#   From: 2010.05.17/outbox.cif.g08.bks.cpg/sg51_13_cif.got.tgz:25015.got - 2010.06.03 11:52:47.
