data_PCOD9406849
_publ_section_title
;
Structure prediction by ZEFSAII (Michael W. Deem and Ramdas Pophale) SiO2 
 PCOD9406849
Probable space group: P M M A
;
_chemical_formula_sum "Si O2"
_cell_formula_units_Z 38
_cell_length_a 9.726643
_cell_length_b 24.175388
_cell_length_c 7.934080
_cell_angle_alpha 90.000000
_cell_angle_beta 90.000000
_cell_angle_gamma 90.000000
_cell_volume 1865.662165
_symmetry_space_group_name_H-M "P M M A"
_symmetry_group_IT_number 51
_symmetry_cell_setting 'orthorhombic'
loop_
_space_group_symop_operation_xyz
x,y,z
1/2-x,-y,z
1/2+x,-y,-z
-x,y,-z
-x,-y,-z
1/2+x,y,-z
1/2-x,y,z
x,-y,z
loop_
_atom_site_type_symbol
_atom_site_label
_atom_site_fract_x
_atom_site_fract_y
_atom_site_fract_z
Si Si1 0.019244 0.269881 0.304835
Si Si2 0.250000 0.350285 0.171228
Si Si3 0.250000 0.584494 0.507913
Si Si4 0.587819 0.158546 0.843748
Si Si5 0.913503 0.063655 0.326110
Si Si6 0.000000 0.500000 0.500000
Si Si7 0.250000 0.676737 0.797989
O O1 0.122205 0.312088 0.218332
O O2 0.074623 0.207517 0.292090
O O3 0.000000 0.283929 0.500000
O O4 0.877714 0.282092 0.212173
O O5 0.250000 0.399353 0.307976
O O6 0.250000 0.359144 0.970220
O O7 0.115601 0.548177 0.538860
O O8 0.250000 0.636802 0.634440
O O9 0.750000 0.147432 0.875705
O O10 0.500028 0.105022 0.789778
O O11 0.500000 0.181242 0.000000
O O12 0.750000 0.078579 0.345748
O O13 0.000000 0.065121 0.500000
O O14 0.916450 0.000000 0.265322
#
# Coordination Sequence:
#
# PCOD9406849 Si02
#       7
#     8   4   4   8   8   2   4
#     4  12  24  42  65  99 135 180 228 280 347 425
#     4  12  23  45  67 102 139 181 231 280 342 411
#     4  11  22  46  68 102 138 184 227 282 338 396
#     4  12  26  42  63  94 135 177 227 290 360 425
#     4  10  22  42  68  95 126 174 233 290 352 423
#     4  10  24  42  74  98 140 184 228 282 336 394
#     4  12  25  41  73 100 139 183 229 282 342 417
#
# _framework density 20.368105
#
# number of rings (size 3 to 8) (size 9 to 14) (size 15 to 20)
#    0.000    0.632    3.158    5.053    2.947    1.684 
#    0.000    3.158    0.000    0.000    0.000    0.000 
#    0.000    0.000    0.000    0.000    0.000    0.000 
#
# Total GULP energy -211606.287460 kJ/mol
# GULP energy per Si atom -5568.586512 kJ/mol
# Density = 2.032175 g / cm^3
# Si number density = 20.368105 Si / 1000 Ang^3
#
#
#
# Elastic Constant Matrix: (Units=GPa)
#
#
# Indices 1 2 3 4 5 6 
#
# 1 184.7870 39.2962 10.4490 0.0000 0.0000 0.0000
# 2 39.2962 75.1506 6.8860 0.0000 0.0000 0.0000
# 3 10.4490 6.8860 83.4774 0.0000 0.0000 0.0000
# 4 0.0000 0.0000 0.0000 -7.7866 0.0000 0.0000
# 5 0.0000 0.0000 0.0000 0.0000 25.3600 0.0000
# 6 0.0000 0.0000 0.0000 0.0000 0.0000 153.0596
#
#
#
# Elastic Compliance Matrix: (Units=1/GPa)
#
#
# Indices 1 2 3 4 5 6 
#
# 1 0.006110 -0.003149 -0.000505 0.000000 0.000000 0.000000
# 2 -0.003149 0.015030 -0.000846 0.000000 0.000000 0.000000
# 3 -0.000505 -0.000846 0.012112 0.000000 0.000000 0.000000
# 4 0.000000 0.000000 0.000000 -0.128426 0.000000 0.000000
# 5 0.000000 0.000000 0.000000 0.000000 0.039432 0.000000
# 6 0.000000 0.000000 0.000000 0.000000 0.000000 0.006533
#
#
# Mechanical properties :
#
#
# Convention : Reuss Voigt Hill
#
# Bulk Modulus (GPa) = 41.23053 50.74195 45.98624
# Shear Modulus (GPa) = -155.64580 53.24552 -51.20014
#
# Velocity S-wave (km/s) = -8.75113 5.11843 -5.01916
# Velocity P-wave (km/s) = 9.04561 7.73936 3.31100
#
# Compressibility (1/GPa) = 0.02425387
#
# Stress axis : x y z
#
# Youngs Moduli (GPa) = 163.67293 66.53155 82.56093
#
# Poissons Ratio (x) = 0.20948 0.04170
# Poissons Ratio (y) = 0.51533 0.06983
# Poissons Ratio (z) = 0.08266 0.05627
#
# Static dielectric constant tensor:
#      x y z
#    x 1.768430 0.000000 0.000000 
#    y 0.000000 1.683090 0.000000 
#    z 0.000000 0.000000 1.792700 
# 
# From -- ./inp_files/5409.got.cif
#   From: 2010.05.17/outbox.cif.g08.bks.cpg/sg51_3_cif.got.tgz:5409.got - 2010.06.03 11:52:47.
