data_PCOD9406837
_publ_section_title
;
Structure prediction by ZEFSAII (Michael W. Deem and Ramdas Pophale) SiO2 
 PCOD9406837
Probable space group: P M M A
;
_chemical_formula_sum "Si O2"
_cell_formula_units_Z 32
_cell_length_a 14.897862
_cell_length_b 10.436703
_cell_length_c 10.601369
_cell_angle_alpha 90.000000
_cell_angle_beta 90.000000
_cell_angle_gamma 90.000000
_cell_volume 1648.349205
_symmetry_space_group_name_H-M "P M M A"
_symmetry_group_IT_number 51
_symmetry_cell_setting 'orthorhombic'
loop_
_space_group_symop_operation_xyz
x,y,z
1/2-x,-y,z
1/2+x,-y,-z
-x,y,-z
-x,-y,-z
1/2+x,y,-z
1/2-x,y,z
x,-y,z
loop_
_atom_site_type_symbol
_atom_site_label
_atom_site_fract_x
_atom_site_fract_y
_atom_site_fract_z
Si Si1 0.904033 0.350028 0.433608
Si Si2 0.107399 0.500000 0.997643
Si Si3 0.750000 0.000000 0.781465
Si Si4 0.353913 0.000000 0.970168
Si Si5 0.250000 0.252607 0.390177
Si Si6 0.644326 0.747291 0.167396
Si Si7 0.750000 0.500000 0.786347
O O1 0.874206 0.500000 0.422136
O O2 0.835628 0.270542 0.519716
O O3 0.906544 0.287303 0.295600
O O4 0.000000 0.350174 0.500000
O O5 0.137557 0.373925 0.923765
O O6 0.160351 0.500000 0.128894
O O7 0.000000 0.500000 0.000000
O O8 0.750000 0.875172 0.693645
O O9 0.836044 0.000000 0.878711
O O10 0.391821 0.129045 0.908702
O O11 0.250000 0.000000 0.926247
O O12 0.250000 0.373653 0.297233
O O13 0.750000 0.763138 0.200005
#
# Coordination Sequence:
#
# PCOD9406837 Si02
#       7
#     8   4   2   4   4   8   2
#     4  11  24  41  65  99 132 165 215 272 321 374
#     4  12  26  37  64  98 126 165 219 269 319 376
#     4  10  22  42  62  94 134 166 216 262 326 382
#     4   8  20  41  65  93 121 170 214 264 310 377
#     4  12  24  40  67  91 129 175 206 262 331 379
#     4  11  20  42  68  90 125 169 222 264 311 380
#     4  12  24  40  62  92 124 164 220 260 318 386
#
# _framework density 19.413361999999999
#
# number of rings (size 3 to 8) (size 9 to 14) (size 15 to 20)
#    0.375    0.750    5.000    1.500    3.500    1.000 
#    0.000    3.125    0.000    0.000    0.000    0.000 
#    0.000    0.000    0.000    0.000    0.000    0.000 
#
# Total GULP energy -178608.953243 kJ/mol
# GULP energy per Si atom -5581.529789 kJ/mol
# Density = 1.936918 g / cm^3
# Si number density = 19.413362 Si / 1000 Ang^3
#
#
#
# Elastic Constant Matrix: (Units=GPa)
#
#
# Indices 1 2 3 4 5 6 
#
# 1 43.8823 -8.2991 -5.4939 0.0000 0.0000 0.0000
# 2 -8.2991 164.6523 63.5018 0.0000 0.0000 0.0000
# 3 -5.4939 63.5018 103.0899 0.0000 0.0000 0.0000
# 4 0.0000 0.0000 0.0000 47.8719 0.0000 0.0000
# 5 0.0000 0.0000 0.0000 0.0000 22.1958 0.0000
# 6 0.0000 0.0000 0.0000 0.0000 0.0000 -13.5771
#
#
#
# Elastic Compliance Matrix: (Units=1/GPa)
#
#
# Indices 1 2 3 4 5 6 
#
# 1 0.023043 0.000902 0.000672 0.000000 0.000000 0.000000
# 2 0.000902 0.008001 -0.004881 0.000000 0.000000 0.000000
# 3 0.000672 -0.004881 0.012742 0.000000 0.000000 0.000000
# 4 0.000000 0.000000 0.000000 0.020889 0.000000 0.000000
# 5 0.000000 0.000000 0.000000 0.000000 0.045054 0.000000
# 6 0.000000 0.000000 0.000000 0.000000 0.000000 -0.073653
#
#
# Mechanical properties :
#
#
# Convention : Reuss Voigt Hill
#
# Bulk Modulus (GPa) = 26.90014 45.67134 36.28574
# Shear Modulus (GPa) = 90.77775 28.75916 59.76845
#
# Velocity S-wave (km/s) = 6.84558 3.85309 5.55465
# Velocity P-wave (km/s) = 8.73895 6.58573 7.73760
#
# Compressibility (1/GPa) = 0.03717453
#
# Stress axis : x y z
#
# Youngs Moduli (GPa) = 43.39705 124.98204 78.47806
#
# Poissons Ratio (x) = -0.11275 -0.05276
# Poissons Ratio (y) = -0.03915 0.38301
# Poissons Ratio (z) = -0.02918 0.60998
#
# Static dielectric constant tensor:
#      x y z
#    x 1.725310 0.000000 0.000000 
#    y 0.000000 1.673610 0.000000 
#    z 0.000000 0.000000 1.664550 
# 
# From -- ./inp_files/16025.got.cif
#   From: 2010.05.17/outbox.cif.g08.bks.cpg/sg51_9_cif.got.tgz:16025.got - 2010.06.03 11:52:47.
