data_PCOD9406795
_publ_section_title
;
Structure prediction by ZEFSAII (Michael W. Deem and Ramdas Pophale) SiO2 
 PCOD9406795
Probable space group: P M M A
;
_chemical_formula_sum "Si O2"
_cell_formula_units_Z 64
_cell_length_a 24.110234
_cell_length_b 8.910975
_cell_length_c 15.741463
_cell_angle_alpha 90.000000
_cell_angle_beta 90.000000
_cell_angle_gamma 90.000000
_cell_volume 3381.985518
_symmetry_space_group_name_H-M "P M M A"
_symmetry_group_IT_number 51
_symmetry_cell_setting 'orthorhombic'
loop_
_space_group_symop_operation_xyz
x,y,z
1/2-x,-y,z
1/2+x,-y,-z
-x,y,-z
-x,-y,-z
1/2+x,y,-z
1/2-x,y,z
x,-y,z
loop_
_atom_site_type_symbol
_atom_site_label
_atom_site_fract_x
_atom_site_fract_y
_atom_site_fract_z
Si Si1 0.383183 0.678439 0.408651
Si Si2 0.314929 0.179900 0.255579
Si Si3 0.500742 0.679495 0.843156
Si Si4 0.112603 0.179416 0.089886
Si Si5 0.618376 0.179341 0.414102
Si Si6 0.121451 0.321606 0.913309
Si Si7 0.996315 0.179427 0.655579
Si Si8 0.184561 0.179166 0.755819
O O1 0.386333 0.500000 0.406267
O O2 0.343136 0.738047 0.334664
O O3 0.364664 0.735838 0.500885
O O4 0.443698 0.748438 0.390216
O O5 0.250000 0.215724 0.248345
O O6 0.347881 0.217841 0.169381
O O7 0.320370 0.000000 0.268070
O O8 0.506503 0.500000 0.835213
O O9 0.553066 0.745554 0.892944
O O10 0.442702 0.711550 0.889532
O O11 0.499886 0.753675 0.750141
O O12 0.106726 0.000000 0.086950
O O13 0.135527 0.239835 0.001011
O O14 0.553906 0.209593 0.392554
O O15 0.653893 0.222389 0.331451
O O16 0.624394 0.000000 0.427013
O O17 0.127090 0.500000 0.923128
O O18 0.158166 0.263775 0.835359
O O19 0.988780 0.000000 0.660625
O O20 0.250000 0.206395 0.749703
O O21 0.175571 0.000000 0.767133
#
# Coordination Sequence:
#
# PCOD9406795 Si02
#       8
#     8   8   8   8   8   8   8   8
#     4  12  25  39  61  93 128 161 198 248 309 370
#     4  10  23  44  66  87 116 158 208 258 304 355
#     4  11  22  37  60  91 127 163 197 245 310 368
#     4  11  23  39  64  93 122 161 207 252 302 361
#     4  10  22  40  63  91 123 161 207 253 301 361
#     4  11  24  40  61  91 129 165 199 246 308 369
#     4  11  21  37  63  91 122 161 204 249 300 362
#     4  10  22  42  66  90 118 158 210 260 303 354
#
# _framework density 18.923795999999999
#
# number of rings (size 3 to 8) (size 9 to 14) (size 15 to 20)
#    0.000    1.250    2.500    3.375    0.000    8.000 
#    0.000    2.500    0.000    0.000    0.000    0.000 
#    0.000    0.000    0.000    0.000    0.000    0.000 
#
# Total GULP energy -357977.313917 kJ/mol
# GULP energy per Si atom -5593.395530 kJ/mol
# Density = 1.888072 g / cm^3
# Si number density = 18.923796 Si / 1000 Ang^3
#
#
#
# Elastic Constant Matrix: (Units=GPa)
#
#
# Indices 1 2 3 4 5 6 
#
# 1 92.8915 47.4417 43.6618 0.0000 0.0000 0.0000
# 2 47.4417 52.4942 53.5622 0.0000 0.0000 0.0000
# 3 43.6618 53.5622 146.2670 0.0000 0.0000 0.0000
# 4 0.0000 0.0000 0.0000 -80.0400 0.0000 0.0000
# 5 0.0000 0.0000 0.0000 0.0000 -3.4974 0.0000
# 6 0.0000 0.0000 0.0000 0.0000 0.0000 16.6440
#
#
#
# Elastic Compliance Matrix: (Units=1/GPa)
#
#
# Indices 1 2 3 4 5 6 
#
# 1 0.020092 -0.019220 0.001041 0.000000 0.000000 0.000000
# 2 -0.019220 0.048800 -0.012133 0.000000 0.000000 0.000000
# 3 0.001041 -0.012133 0.010969 0.000000 0.000000 0.000000
# 4 0.000000 0.000000 0.000000 -0.012494 0.000000 0.000000
# 5 0.000000 0.000000 0.000000 0.000000 -0.285929 0.000000
# 6 0.000000 0.000000 0.000000 0.000000 0.000000 0.060082
#
#
# Mechanical properties :
#
#
# Convention : Reuss Voigt Hill
#
# Bulk Modulus (GPa) = 51.98498 64.55381 58.26939
# Shear Modulus (GPa) = -54.67917 -3.57955 -29.12936
#
# Velocity S-wave (km/s) = -5.38118 -1.37683 -3.92765
# Velocity P-wave (km/s) = 3.32854 5.62663 3.20779
#
# Compressibility (1/GPa) = 0.01923633
#
# Stress axis : x y z
#
# Youngs Moduli (GPa) = 49.77026 20.49188 91.16479
#
# Poissons Ratio (x) = 0.39386 -0.09487
# Poissons Ratio (y) = 0.95660 1.10609
# Poissons Ratio (z) = -0.05179 0.24862
#
# Static dielectric constant tensor:
#      x y z
#    x 1.636850 0.000000 0.000000 
#    y 0.000000 1.629360 0.000000 
#    z 0.000000 0.000000 1.640860 
# 
# From -- ./inp_files/26239.got.cif
#   From: 2010.05.17/outbox.cif.g08.bks.cpg/sg51_14_cif.got.tgz:26239.got - 2010.06.03 11:52:47.
