data_PCOD9406968
_publ_section_title
;
Structure prediction by ZEFSAII (Michael W. Deem and Ramdas Pophale) SiO2 
 PCOD9406968
Probable space group: P M M A
;
_chemical_formula_sum "Si O2"
_cell_formula_units_Z 56
_cell_length_a 15.548849
_cell_length_b 14.894267
_cell_length_c 11.933263
_cell_angle_alpha 90.000000
_cell_angle_beta 90.000000
_cell_angle_gamma 90.000000
_cell_volume 2763.608967
_symmetry_space_group_name_H-M "P M M A"
_symmetry_group_IT_number 51
_symmetry_cell_setting 'orthorhombic'
loop_
_space_group_symop_operation_xyz
x,y,z
1/2-x,-y,z
1/2+x,-y,-z
-x,y,-z
-x,-y,-z
1/2+x,y,-z
1/2-x,y,z
x,-y,z
loop_
_atom_site_type_symbol
_atom_site_label
_atom_site_fract_x
_atom_site_fract_y
_atom_site_fract_z
Si Si1 0.849263 0.893719 0.239047
Si Si2 0.499990 0.206935 0.371340
Si Si3 0.099846 0.145898 0.013585
Si Si4 0.488513 0.605615 0.275925
Si Si5 0.841661 0.601809 0.146102
Si Si6 0.152469 0.100752 0.254742
Si Si7 0.150712 0.340589 0.098900
O O1 0.750000 0.879988 0.273176
O O2 0.916215 0.832767 0.307969
O O3 0.870279 0.000000 0.252927
O O4 0.857663 0.871309 0.106505
O O5 0.500000 0.177427 0.500000
O O6 0.490399 0.315135 0.366412
O O7 0.418223 0.166196 0.305863
O O8 0.140771 0.097536 0.120391
O O9 0.109693 0.248976 0.051917
O O10 0.000000 0.121811 0.000000
O O11 0.494263 0.500000 0.309196
O O12 0.570657 0.634203 0.199679
O O13 0.405029 0.618445 0.197920
O O14 0.750000 0.648810 0.172220
O O15 0.835438 0.500000 0.187138
O O16 0.849431 0.599778 0.012566
O O17 0.250000 0.128982 0.279877
O O18 0.138993 0.000000 0.298819
O O19 0.250000 0.324970 0.131728
#
# Coordination Sequence:
#
# PCOD9406968 Si02
#       7
#     8   8   8   8   8   8   8
#     4  11  24  42  67 101 137 172 213 264 325 392
#     4  12  27  46  67  91 124 171 227 284 333 383
#     4  12  21  35  63 101 141 174 204 251 313 389
#     4  11  23  40  62  88 121 165 218 272 329 386
#     4   9  18  32  53  85 122 158 199 250 312 386
#     4  11  24  43  68  98 133 173 215 263 325 398
#     4  11  20  32  55  89 132 173 208 249 309 385
#
# _framework density 20.263359000000001
#
# number of rings (size 3 to 8) (size 9 to 14) (size 15 to 20)
#    0.000    1.000    2.857    4.714    0.000    7.429 
#    0.000    1.429    0.000    0.000    0.000    4.000 
#    0.000    0.000    0.000    0.000    0.000    0.000 
#
# Total GULP energy -312625.941170 kJ/mol
# GULP energy per Si atom -5582.606092 kJ/mol
# Density = 2.021724 g / cm^3
# Si number density = 20.263359 Si / 1000 Ang^3
#
#
#
# Elastic Constant Matrix: (Units=GPa)
#
#
# Indices 1 2 3 4 5 6 
#
# 1 122.3059 29.0316 35.0321 0.0000 0.0000 0.0000
# 2 29.0316 121.0474 26.6102 0.0000 0.0000 0.0000
# 3 35.0321 26.6102 92.2641 0.0000 0.0000 0.0000
# 4 0.0000 0.0000 0.0000 9.6058 0.0000 0.0000
# 5 0.0000 0.0000 0.0000 0.0000 -1.8832 0.0000
# 6 0.0000 0.0000 0.0000 0.0000 0.0000 -29.8004
#
#
#
# Elastic Compliance Matrix: (Units=1/GPa)
#
#
# Indices 1 2 3 4 5 6 
#
# 1 0.009448 -0.001577 -0.003132 0.000000 0.000000 0.000000
# 2 -0.001577 0.009084 -0.002021 0.000000 0.000000 0.000000
# 3 -0.003132 -0.002021 0.012611 0.000000 0.000000 0.000000
# 4 0.000000 0.000000 0.000000 0.104104 0.000000 0.000000
# 5 0.000000 0.000000 0.000000 0.000000 -0.531025 0.000000
# 6 0.000000 0.000000 0.000000 0.000000 0.000000 -0.033557
#
#
# Mechanical properties :
#
#
# Convention : Reuss Voigt Hill
#
# Bulk Modulus (GPa) = 56.55807 57.44057 56.99932
# Shear Modulus (GPa) = -12.19569 11.91402 -0.14083
#
# Velocity S-wave (km/s) = -2.45594 2.42742 -0.26392
# Velocity P-wave (km/s) = 4.46429 6.02204 5.30070
#
# Compressibility (1/GPa) = 0.01768094
#
# Stress axis : x y z
#
# Youngs Moduli (GPa) = 105.84440 110.08594 79.29799
#
# Poissons Ratio (x) = 0.17364 0.24839
# Poissons Ratio (y) = 0.16695 0.16026
# Poissons Ratio (z) = 0.33154 0.22248
#
# Static dielectric constant tensor:
#      x y z
#    x 1.737880 0.000000 0.000000 
#    y 0.000000 1.944210 0.000000 
#    z 0.000000 0.000000 1.672830 
# 
# From -- ./inp_files/16658.got.cif
#   From: 2010.05.17/outbox.cif.g08.bks.cpg/sg51_9_cif.got.tgz:16658.got - 2010.06.03 11:52:47.
