data_PCOD9406758
_publ_section_title
;
Structure prediction by ZEFSAII (Michael W. Deem and Ramdas Pophale) SiO2 
 PCOD9406758
Probable space group: P M M A
;
_chemical_formula_sum "Si O2"
_cell_formula_units_Z 40
_cell_length_a 17.001263
_cell_length_b 8.178371
_cell_length_c 12.643019
_cell_angle_alpha 90.000000
_cell_angle_beta 90.000000
_cell_angle_gamma 90.000000
_cell_volume 1757.918692
_symmetry_space_group_name_H-M "P M M A"
_symmetry_group_IT_number 51
_symmetry_cell_setting 'orthorhombic'
loop_
_space_group_symop_operation_xyz
x,y,z
1/2-x,-y,z
1/2+x,-y,-z
-x,y,-z
-x,-y,-z
1/2+x,y,-z
1/2-x,y,z
x,-y,z
loop_
_atom_site_type_symbol
_atom_site_label
_atom_site_fract_x
_atom_site_fract_y
_atom_site_fract_z
Si Si1 0.250000 0.804612 0.054801
Si Si2 0.337766 0.697378 0.680121
Si Si3 0.998939 0.194008 0.726833
Si Si4 0.250000 0.805206 0.307529
Si Si5 0.921278 0.200413 0.938866
Si Si6 0.607526 0.692162 0.550176
O O1 0.250000 0.781698 0.181964
O O2 0.336018 0.740782 0.020280
O O3 0.250000 0.000000 0.033101
O O4 0.250000 0.755017 0.709231
O O5 0.335567 0.500000 0.678365
O O6 0.412179 0.750237 0.749104
O O7 0.360671 0.758700 0.561771
O O8 0.939593 0.251959 0.818198
O O9 0.970054 0.247927 0.611081
O O10 0.997100 0.000000 0.729029
O O11 0.324562 0.730096 0.365646
O O12 0.250000 0.000000 0.324664
O O13 0.918233 0.000000 0.940891
O O14 0.000000 0.249796 0.000000
O O15 0.598137 0.500000 0.535078
#
# Coordination Sequence:
#
# PCOD9406758 Si02
#       6
#     4   8   8   4   8   8
#     4   9  16  31  55  80 109 144 180 229 291 335
#     4  10  22  40  56  75 111 159 198 225 272 345
#     4  11  22  36  56  86 115 142 186 243 291 330
#     4  11  19  31  55  86 115 144 186 243 287 317
#     4   9  18  34  55  82 114 146 184 233 290 349
#     4  11  21  36  57  82 112 153 195 227 273 342
#
# _framework density 22.754179000000001
#
# number of rings (size 3 to 8) (size 9 to 14) (size 15 to 20)
#    0.000    1.800    3.000    2.100    0.000    4.400 
#    1.800    0.000    0.000    2.400    0.000    0.000 
#    0.000    0.000    0.000    0.000    0.000    0.000 
#
# Total GULP energy -223291.644654 kJ/mol
# GULP energy per Si atom -5582.291116 kJ/mol
# Density = 2.270239 g / cm^3
# Si number density = 22.754179 Si / 1000 Ang^3
#
#
#
# Elastic Constant Matrix: (Units=GPa)
#
#
# Indices 1 2 3 4 5 6 
#
# 1 192.9650 7.4708 15.5088 0.0000 0.0000 0.0000
# 2 7.4708 10.6888 -2.5836 0.0000 0.0000 0.0000
# 3 15.5088 -2.5836 26.2518 0.0000 0.0000 0.0000
# 4 0.0000 0.0000 0.0000 14.3351 0.0000 0.0000
# 5 0.0000 0.0000 0.0000 0.0000 34.4197 0.0000
# 6 0.0000 0.0000 0.0000 0.0000 0.0000 50.3723
#
#
#
# Elastic Compliance Matrix: (Units=1/GPa)
#
#
# Indices 1 2 3 4 5 6 
#
# 1 0.005680 -0.004898 -0.003838 0.000000 0.000000 0.000000
# 2 -0.004898 0.100059 0.012741 0.000000 0.000000 0.000000
# 3 -0.003838 0.012741 0.041614 0.000000 0.000000 0.000000
# 4 0.000000 0.000000 0.000000 0.069759 0.000000 0.000000
# 5 0.000000 0.000000 0.000000 0.000000 0.029053 0.000000
# 6 0.000000 0.000000 0.000000 0.000000 0.000000 0.019852
#
#
# Mechanical properties :
#
#
# Convention : Reuss Voigt Hill
#
# Bulk Modulus (GPa) = 6.43654 30.07751 18.25702
# Shear Modulus (GPa) = 16.13974 33.79273 24.96623
#
# Velocity S-wave (km/s) = 2.66617 3.85791 3.31602
# Velocity P-wave (km/s) = 3.50897 5.75254 4.76469
#
# Compressibility (1/GPa) = 0.15536303
#
# Stress axis : x y z
#
# Youngs Moduli (GPa) = 176.04515 9.99415 24.03048
#
# Poissons Ratio (x) = 0.04895 0.09222
# Poissons Ratio (y) = 0.86224 -0.30617
# Poissons Ratio (z) = 0.67563 -0.12733
#
# Static dielectric constant tensor:
#      x y z
#    x 1.902260 0.000000 0.000000 
#    y 0.000000 1.779010 0.000000 
#    z 0.000000 0.000000 1.892410 
# 
# From -- ./inp_files/23728.got.cif
#   From: 2010.05.17/outbox.cif.g08.bks.cpg/sg51_12_cif.got.tgz:23728.got - 2010.06.03 11:52:47.
