data_PCOD9406943
_publ_section_title
;
Structure prediction by ZEFSAII (Michael W. Deem and Ramdas Pophale) SiO2 
 PCOD9406943
Probable space group: P M M A
;
_chemical_formula_sum "Si O2"
_cell_formula_units_Z 48
_cell_length_a 18.598998
_cell_length_b 17.029684
_cell_length_c 8.697230
_cell_angle_alpha 90.000000
_cell_angle_beta 90.000000
_cell_angle_gamma 90.000000
_cell_volume 2754.717654
_symmetry_space_group_name_H-M "P M M A"
_symmetry_group_IT_number 51
_symmetry_cell_setting 'orthorhombic'
loop_
_space_group_symop_operation_xyz
x,y,z
1/2-x,-y,z
1/2+x,-y,-z
-x,y,-z
-x,-y,-z
1/2+x,y,-z
1/2-x,y,z
x,-y,z
loop_
_atom_site_type_symbol
_atom_site_label
_atom_site_fract_x
_atom_site_fract_y
_atom_site_fract_z
Si Si1 0.964139 0.707500 0.655511
Si Si2 0.835383 0.723931 0.132852
Si Si3 0.665343 0.087721 0.668402
Si Si4 0.930278 0.166288 0.914101
Si Si5 0.666826 0.247590 0.494553
Si Si6 0.052075 0.409503 0.852022
O O1 0.961488 0.768757 0.794915
O O2 0.882703 0.696146 0.597992
O O3 0.000000 0.740510 0.500000
O O4 0.008452 0.633056 0.714622
O O5 0.750000 0.720934 0.099486
O O6 0.845072 0.744228 0.313214
O O7 0.877181 0.641688 0.112465
O O8 0.876689 0.787574 0.028702
O O9 0.750000 0.092671 0.710042
O O10 0.615758 0.105563 0.814716
O O11 0.651604 0.158409 0.549349
O O12 0.652001 0.000000 0.608064
O O13 0.000000 0.133053 0.000000
O O14 0.750000 0.263967 0.525513
O O15 0.068222 0.500000 0.817877
O O16 0.000000 0.405882 0.000000
#
# Coordination Sequence:
#
# PCOD9406943 Si02
#       6
#     8   8   8   8   8   8
#     4  11  18  34  57  80 105 142 182 225 269 317
#     4  11  20  36  57  81 108 144 186 225 270 322
#     4   9  19  35  53  78 111 144 178 225 282 330
#     4  11  19  33  56  82 106 141 189 224 266 321
#     4   9  19  33  55  80 106 142 185 227 272 329
#     4  11  22  38  56  80 110 144 181 222 275 327
#
# _framework density 17.424652999999999
#
# number of rings (size 3 to 8) (size 9 to 14) (size 15 to 20)
#    0.000    1.667    5.000    0.500    0.000    1.667 
#    0.000    0.833    0.000   20.500    0.000    0.000 
#    0.000    0.000    0.000    0.000    0.000    0.000 
#
# Total GULP energy -267571.266532 kJ/mol
# GULP energy per Si atom -5574.401386 kJ/mol
# Density = 1.738499 g / cm^3
# Si number density = 17.424653 Si / 1000 Ang^3
#
#
#
# Elastic Constant Matrix: (Units=GPa)
#
#
# Indices 1 2 3 4 5 6 
#
# 1 91.2595 36.2973 28.4470 0.0000 0.0000 0.0000
# 2 36.2973 58.3725 -0.1767 0.0000 0.0000 0.0000
# 3 28.4470 -0.1767 44.8552 0.0000 0.0000 0.0000
# 4 0.0000 0.0000 0.0000 12.5994 0.0000 0.0000
# 5 0.0000 0.0000 0.0000 0.0000 35.3239 0.0000
# 6 0.0000 0.0000 0.0000 0.0000 0.0000 21.7221
#
#
#
# Elastic Compliance Matrix: (Units=1/GPa)
#
#
# Indices 1 2 3 4 5 6 
#
# 1 0.019799 -0.012349 -0.012605 0.000000 0.000000 0.000000
# 2 -0.012349 0.024835 0.007930 0.000000 0.000000 0.000000
# 3 -0.012605 0.007930 0.030319 0.000000 0.000000 0.000000
# 4 0.000000 0.000000 0.000000 0.079369 0.000000 0.000000
# 5 0.000000 0.000000 0.000000 0.000000 0.028309 0.000000
# 6 0.000000 0.000000 0.000000 0.000000 0.000000 0.046036
#
#
# Mechanical properties :
#
#
# Convention : Reuss Voigt Hill
#
# Bulk Modulus (GPa) = 24.44788 35.95803 30.20296
# Shear Modulus (GPa) = 18.09298 22.59040 20.34169
#
# Velocity S-wave (km/s) = 3.22585 3.60455 3.42044
# Velocity P-wave (km/s) = 5.28544 6.16480 5.74198
#
# Compressibility (1/GPa) = 0.04090334
#
# Stress axis : x y z
#
# Youngs Moduli (GPa) = 50.50818 40.26651 32.98237
#
# Poissons Ratio (x) = 0.49727 0.41574
# Poissons Ratio (y) = 0.62375 -0.26154
# Poissons Ratio (z) = 0.63665 -0.31931
#
# Static dielectric constant tensor:
#      x y z
#    x 1.641940 0.000000 0.000000 
#    y 0.000000 1.570990 0.000000 
#    z 0.000000 0.000000 1.594230 
# 
# From -- ./inp_files/9626.got.cif
#   From: 2010.05.17/outbox.cif.g08.bks.cpg/sg51_5_cif.got.tgz:9626.got - 2010.06.03 11:52:47.
