data_PCOD9406012
_publ_section_title
;
Structure prediction by ZEFSAII (Michael W. Deem and Ramdas Pophale) SiO2 
 PCOD9406012
Probable space group: P M M A
;
_chemical_formula_sum "Si O2"
_cell_formula_units_Z 40
_cell_length_a 9.707810
_cell_length_b 8.655797
_cell_length_c 26.455666
_cell_angle_alpha 90.000000
_cell_angle_beta 90.000000
_cell_angle_gamma 90.000000
_cell_volume 2223.038732
_symmetry_space_group_name_H-M "P M M A"
_symmetry_group_IT_number 51
_symmetry_cell_setting 'orthorhombic'
loop_
_space_group_symop_operation_xyz
x,y,z
1/2-x,-y,z
1/2+x,-y,-z
-x,y,-z
-x,-y,-z
1/2+x,y,-z
1/2-x,y,z
x,-y,z
loop_
_atom_site_type_symbol
_atom_site_label
_atom_site_fract_x
_atom_site_fract_y
_atom_site_fract_z
Si Si1 0.409158 0.185007 0.751779
Si Si2 0.090023 0.684728 0.157347
Si Si3 0.588587 0.686579 0.660514
Si Si4 0.091400 0.688293 0.453448
Si Si5 0.588753 0.814534 0.951980
O O1 0.250000 0.237883 0.751622
O O2 0.490895 0.245624 0.800571
O O3 0.490613 0.243147 0.702566
O O4 0.410143 0.000000 0.752451
O O5 0.250000 0.734437 0.165498
O O6 0.086398 0.500000 0.160593
O O7 0.049376 0.737956 0.101097
O O8 0.750000 0.727938 0.668586
O O9 0.581145 0.500000 0.663345
O O10 0.549088 0.734384 0.603301
O O11 0.250000 0.733626 0.460604
O O12 0.087434 0.500000 0.453786
O O13 0.000000 0.743930 0.500000
O O14 0.750000 0.781322 0.960884
O O15 0.573255 0.000000 0.946855
O O16 0.500000 0.763421 0.000000
#
# Coordination Sequence:
#
# PCOD9406012 Si02
#       5
#     8   8   8   8   8
#     4  11  24  38  52  74 103 134 171 215 261 309
#     4  10  21  37  57  80 105 135 173 214 256 306
#     4   9  18  33  53  77 104 134 170 211 254 304
#     4   8  14  25  43  70 102 132 163 201 246 297
#     4   9  18  33  53  77 106 140 175 209 247 294
#
# _framework density 17.993389000000001
#
# number of rings (size 3 to 8) (size 9 to 14) (size 15 to 20)
#    0.000    2.600    0.000    3.000    0.000    7.600 
#    0.000    4.000    0.000    0.600    0.000    0.000 
#    0.000    0.000    0.000    0.000    0.000    0.000 
#
# Total GULP energy -223151.969057 kJ/mol
# GULP energy per Si atom -5578.799226 kJ/mol
# Density = 1.795244 g / cm^3
# Si number density = 17.993389 Si / 1000 Ang^3
#
#
#
# Elastic Constant Matrix: (Units=GPa)
#
#
# Indices 1 2 3 4 5 6 
#
# 1 114.5039 35.9344 127.2248 0.0000 0.0000 0.0000
# 2 35.9344 20.5753 43.8819 0.0000 0.0000 0.0000
# 3 127.2248 43.8819 201.6673 0.0000 0.0000 0.0000
# 4 0.0000 0.0000 0.0000 58.9466 0.0000 0.0000
# 5 0.0000 0.0000 0.0000 0.0000 39.5552 0.0000
# 6 0.0000 0.0000 0.0000 0.0000 0.0000 18.5415
#
#
#
# Elastic Compliance Matrix: (Units=1/GPa)
#
#
# Indices 1 2 3 4 5 6 
#
# 1 0.035627 -0.026658 -0.016675 0.000000 0.000000 0.000000
# 2 -0.026658 0.110635 -0.007256 0.000000 0.000000 0.000000
# 3 -0.016675 -0.007256 0.017057 0.000000 0.000000 0.000000
# 4 0.000000 0.000000 0.000000 0.016965 0.000000 0.000000
# 5 0.000000 0.000000 0.000000 0.000000 0.025281 0.000000
# 6 0.000000 0.000000 0.000000 0.000000 0.000000 0.053933
#
#
# Mechanical properties :
#
#
# Convention : Reuss Voigt Hill
#
# Bulk Modulus (GPa) = 16.09251 83.42539 49.75895
# Shear Modulus (GPa) = 13.10995 32.05570 22.58282
#
# Velocity S-wave (km/s) = 2.70218 4.22539 3.54653
# Velocity P-wave (km/s) = 4.32420 8.38274 6.66967
#
# Compressibility (1/GPa) = 0.06214072
#
# Stress axis : x y z
#
# Youngs Moduli (GPa) = 28.06856 9.03875 58.62585
#
# Poissons Ratio (x) = 0.24096 0.97760
# Poissons Ratio (y) = 0.74825 0.42539
# Poissons Ratio (z) = 0.46805 0.06559
#
# Static dielectric constant tensor:
#      x y z
#    x 1.604690 0.000000 0.000000 
#    y 0.000000 1.615060 0.000000 
#    z 0.000000 0.000000 1.600150 
# 
# From -- ./inp_files/34311.got.cif
#   From: 2010.05.17/outbox.cif.g08.bks.cpg/sg51_18_cif.got.tgz:34311.got - 2010.06.03 11:52:47.
