data_PCOD9406628
_publ_section_title
;
Structure prediction by ZEFSAII (Michael W. Deem and Ramdas Pophale) SiO2 
 PCOD9406628
Probable space group: P M M A
;
_chemical_formula_sum "Si O2"
_cell_formula_units_Z 36
_cell_length_a 8.302858
_cell_length_b 24.490222
_cell_length_c 9.214766
_cell_angle_alpha 90.000000
_cell_angle_beta 90.000000
_cell_angle_gamma 90.000000
_cell_volume 1873.719789
_symmetry_space_group_name_H-M "P M M A"
_symmetry_group_IT_number 51
_symmetry_cell_setting 'orthorhombic'
loop_
_space_group_symop_operation_xyz
x,y,z
1/2-x,-y,z
1/2+x,-y,-z
-x,y,-z
-x,-y,-z
1/2+x,y,-z
1/2-x,y,z
x,-y,z
loop_
_atom_site_type_symbol
_atom_site_label
_atom_site_fract_x
_atom_site_fract_y
_atom_site_fract_z
Si Si1 0.944863 0.785145 0.165138
Si Si2 0.555067 0.322365 0.333079
Si Si3 0.944610 0.441396 0.332044
Si Si4 0.441219 0.000000 0.165300
Si Si5 0.442717 0.106977 0.665232
O O1 0.750000 0.784964 0.168128
O O2 0.001953 0.728946 0.239484
O O3 0.001178 0.837774 0.256027
O O4 0.000000 0.788996 0.000000
O O5 0.500000 0.316821 0.500000
O O6 0.750000 0.321915 0.332647
O O7 0.501176 0.382163 0.274957
O O8 0.750000 0.441538 0.328083
O O9 0.000110 0.500000 0.268620
O O10 0.000000 0.441464 0.500000
O O11 0.501248 0.053870 0.247695
O O12 0.250000 0.000000 0.166477
O O13 0.500000 0.000000 0.000000
O O14 0.500000 0.104882 0.500000
O O15 0.250000 0.107780 0.666126
#
# Coordination Sequence:
#
# PCOD9406628 Si02
#       5
#     8   8   8   4   8
#     4  10  22  37  54  76 104 138 176 217 262 313
#     4   9  17  30  48  73 101 130 168 212 258 309
#     4   8  13  22  39  64  94 126 160 202 252 303
#     4  12  25  42  63  88 118 150 182 218 261 310
#     4  11  23  40  61  86 113 143 180 221 266 314
#
# _framework density 19.21312
#
# number of rings (size 3 to 8) (size 9 to 14) (size 15 to 20)
#    0.000    2.222    0.000    3.333    0.000    4.444 
#    0.000    0.000    0.000    0.667    0.000    0.000 
#    0.000    0.000    0.000    0.000    0.000    0.000 
#
# Total GULP energy -200815.265778 kJ/mol
# GULP energy per Si atom -5578.201827 kJ/mol
# Density = 1.916939 g / cm^3
# Si number density = 19.213120 Si / 1000 Ang^3
#
#
#
# Elastic Constant Matrix: (Units=GPa)
#
#
# Indices 1 2 3 4 5 6 
#
# 1 27.6552 30.5089 16.3820 0.0000 0.0000 0.0000
# 2 30.5089 249.7751 107.4317 0.0000 0.0000 0.0000
# 3 16.3820 107.4317 130.4376 0.0000 0.0000 0.0000
# 4 0.0000 0.0000 0.0000 -8.7790 0.0000 0.0000
# 5 0.0000 0.0000 0.0000 0.0000 29.2987 0.0000
# 6 0.0000 0.0000 0.0000 0.0000 0.0000 -3.8106
#
#
#
# Elastic Compliance Matrix: (Units=1/GPa)
#
#
# Indices 1 2 3 4 5 6 
#
# 1 0.042012 -0.004432 -0.001626 0.000000 0.000000 0.000000
# 2 -0.004432 0.006668 -0.004935 0.000000 0.000000 0.000000
# 3 -0.001626 -0.004935 0.011935 0.000000 0.000000 0.000000
# 4 0.000000 0.000000 0.000000 -0.113908 0.000000 0.000000
# 5 0.000000 0.000000 0.000000 0.000000 0.034131 0.000000
# 6 0.000000 0.000000 0.000000 0.000000 0.000000 -0.262429
#
#
# Mechanical properties :
#
#
# Convention : Reuss Voigt Hill
#
# Bulk Modulus (GPa) = 25.88728 79.61254 52.74991
# Shear Modulus (GPa) = -20.26521 20.24485 -0.01018
#
# Velocity S-wave (km/s) = -3.25123 3.24959 -0.07288
# Velocity P-wave (km/s) = 0.76875 7.45697 5.24478
#
# Compressibility (1/GPa) = 0.03862901
#
# Stress axis : x y z
#
# Youngs Moduli (GPa) = 23.80248 149.97994 83.78570
#
# Poissons Ratio (x) = 0.66476 0.13622
# Poissons Ratio (y) = 0.10550 0.41347
# Poissons Ratio (z) = 0.03870 0.74014
#
# Static dielectric constant tensor:
#      x y z
#    x 1.655920 0.000000 0.000000 
#    y 0.000000 1.732250 0.000000 
#    z 0.000000 0.000000 1.607390 
# 
# From -- ./inp_files/5235.got.cif
#   From: 2010.05.17/outbox.cif.g08.bks.cpg/sg51_3_cif.got.tgz:5235.got - 2010.06.03 11:52:47.
