data_PCOD9406934
_publ_section_title
;
Structure prediction by ZEFSAII (Michael W. Deem and Ramdas Pophale) SiO2 
 PCOD9406934
Probable space group: P M M A
;
_chemical_formula_sum "Si O2"
_cell_formula_units_Z 48
_cell_length_a 17.112005
_cell_length_b 16.779537
_cell_length_c 7.952597
_cell_angle_alpha 90.000000
_cell_angle_beta 90.000000
_cell_angle_gamma 90.000000
_cell_volume 2283.441273
_symmetry_space_group_name_H-M "P M M A"
_symmetry_group_IT_number 51
_symmetry_cell_setting 'orthorhombic'
loop_
_space_group_symop_operation_xyz
x,y,z
1/2-x,-y,z
1/2+x,-y,-z
-x,y,-z
-x,-y,-z
1/2+x,y,-z
1/2-x,y,z
x,-y,z
loop_
_atom_site_type_symbol
_atom_site_label
_atom_site_fract_x
_atom_site_fract_y
_atom_site_fract_z
Si Si1 0.155805 0.800144 0.392937
Si Si2 0.338983 0.500000 0.230297
Si Si3 0.838169 0.500000 0.175475
Si Si4 0.063655 0.355528 0.378866
Si Si5 0.061211 0.645263 0.870947
Si Si6 0.344118 0.909088 0.706867
Si Si7 0.593140 0.192527 0.983122
O O1 0.250000 0.795018 0.388006
O O2 0.118739 0.714724 0.442605
O O3 0.131546 0.862311 0.537604
O O4 0.125365 0.820896 0.204996
O O5 0.250000 0.500000 0.292478
O O6 0.384062 0.577700 0.293505
O O7 0.336300 0.500000 0.028230
O O8 0.750000 0.500000 0.240645
O O9 0.884846 0.580268 0.216910
O O10 0.000000 0.395312 0.500000
O O11 0.000976 0.314282 0.253217
O O12 0.108400 0.714656 0.963869
O O13 0.000000 0.603649 0.000000
O O14 0.250000 0.910833 0.703330
O O15 0.368780 0.862802 0.875008
O O16 0.373117 0.000000 0.707736
O O17 0.500000 0.180693 0.000000
#
# Coordination Sequence:
#
# PCOD9406934 Si02
#       7
#     8   4   4   8   8   8   8
#     4  11  23  41  68  96 128 173 221 265 322 392
#     4  11  22  37  57  88 122 159 217 266 309 373
#     4  11  22  36  61  91 124 165 215 268 314 374
#     4  12  23  39  62  87 124 170 209 265 325 380
#     4  11  20  39  60  87 125 163 210 259 316 381
#     4  10  24  45  67  96 134 171 212 269 332 394
#     4  11  22  40  68  99 132 171 217 269 327 393
#
# _framework density 21.020903000000001
#
# number of rings (size 3 to 8) (size 9 to 14) (size 15 to 20)
#    0.000    1.000    5.000    3.000    0.000    3.667 
#    0.000    5.000    0.000    0.000    0.000    0.000 
#    0.000    0.000    0.000    0.000    0.000    0.000 
#
# Total GULP energy -267962.771951 kJ/mol
# GULP energy per Si atom -5582.557749 kJ/mol
# Density = 2.097306 g / cm^3
# Si number density = 21.020903 Si / 1000 Ang^3
#
#
#
# Elastic Constant Matrix: (Units=GPa)
#
#
# Indices 1 2 3 4 5 6 
#
# 1 89.9411 40.8743 35.4485 0.0000 0.0000 0.0000
# 2 40.8743 144.7849 51.1139 0.0000 0.0000 0.0000
# 3 35.4485 51.1139 88.1911 0.0000 0.0000 0.0000
# 4 0.0000 0.0000 0.0000 27.2012 0.0000 0.0000
# 5 0.0000 0.0000 0.0000 0.0000 36.3303 0.0000
# 6 0.0000 0.0000 0.0000 0.0000 0.0000 18.4858
#
#
#
# Elastic Compliance Matrix: (Units=1/GPa)
#
#
# Indices 1 2 3 4 5 6 
#
# 1 0.013869 -0.002448 -0.004156 0.000000 0.000000 0.000000
# 2 -0.002448 0.009116 -0.004299 0.000000 0.000000 0.000000
# 3 -0.004156 -0.004299 0.015501 0.000000 0.000000 0.000000
# 4 0.000000 0.000000 0.000000 0.036763 0.000000 0.000000
# 5 0.000000 0.000000 0.000000 0.000000 0.027525 0.000000
# 6 0.000000 0.000000 0.000000 0.000000 0.000000 0.054096
#
#
# Mechanical properties :
#
#
# Convention : Reuss Voigt Hill
#
# Bulk Modulus (GPa) = 59.95389 64.19895 62.07642
# Shear Modulus (GPa) = 27.13915 29.43549 28.28732
#
# Velocity S-wave (km/s) = 3.59702 3.74611 3.67232
# Velocity P-wave (km/s) = 6.77011 7.02268 6.89755
#
# Compressibility (1/GPa) = 0.01667948
#
# Stress axis : x y z
#
# Youngs Moduli (GPa) = 72.10388 109.70045 64.51143
#
# Poissons Ratio (x) = 0.26857 0.26809
# Poissons Ratio (y) = 0.17653 0.27735
# Poissons Ratio (z) = 0.29964 0.47163
#
# Static dielectric constant tensor:
#      x y z
#    x 1.727740 0.000000 0.000000 
#    y 0.000000 1.740340 0.000000 
#    z 0.000000 0.000000 1.894940 
# 
# From -- ./inp_files/8370.got.cif
#   From: 2010.05.17/outbox.cif.g08.bks.cpg/sg51_5_cif.got.tgz:8370.got - 2010.06.03 11:52:47.
