data_PCOD9406192
_publ_section_title
;
Structure prediction by ZEFSAII (Michael W. Deem and Ramdas Pophale) SiO2 
 PCOD9406192
Probable space group: P M M A
;
_chemical_formula_sum "Si O2"
_cell_formula_units_Z 38
_cell_length_a 9.460100
_cell_length_b 9.449951
_cell_length_c 22.777845
_cell_angle_alpha 90.000000
_cell_angle_beta 90.000000
_cell_angle_gamma 90.000000
_cell_volume 2036.281976
_symmetry_space_group_name_H-M "P M M A"
_symmetry_group_IT_number 51
_symmetry_cell_setting 'orthorhombic'
loop_
_space_group_symop_operation_xyz
x,y,z
1/2-x,-y,z
1/2+x,-y,-z
-x,y,-z
-x,-y,-z
1/2+x,y,-z
1/2-x,y,z
x,-y,z
loop_
_atom_site_type_symbol
_atom_site_label
_atom_site_fract_x
_atom_site_fract_y
_atom_site_fract_z
Si Si1 0.917430 0.167709 0.939252
Si Si2 0.418176 0.164735 0.718427
Si Si3 0.582409 0.659575 0.623606
Si Si4 0.000000 0.777178 0.500000
Si Si5 0.250000 0.000000 0.523862
Si Si6 0.417659 0.331891 0.838389
O O1 0.750000 0.196409 0.945342
O O2 0.988442 0.260442 0.888582
O O3 0.933850 0.000000 0.925678
O O4 0.000000 0.194534 0.000000
O O5 0.250000 0.173557 0.707044
O O6 0.501357 0.228726 0.663833
O O7 0.448641 0.255591 0.776620
O O8 0.453474 0.000000 0.727785
O O9 0.750000 0.674953 0.632519
O O10 0.540099 0.500000 0.640348
O O11 0.548902 0.686528 0.555692
O O12 0.127114 0.877070 0.520872
O O13 0.250000 0.309536 0.850881
O O14 0.442115 0.500000 0.834586
#
# Coordination Sequence:
#
# PCOD9406192 Si02
#       6
#     8   8   8   4   2   8
#     4  10  21  37  60  89 120 157 200 245 292 345
#     4  10  23  40  64  90 116 152 198 245 294 350
#     4  11  25  42  60  86 121 157 195 240 297 354
#     4  11  23  42  62  90 120 156 192 250 294 356
#     4  10  24  38  66  90 120 150 198 242 298 350
#     4  10  21  39  61  87 120 156 196 242 293 350
#
# _framework density 18.661463000000001
#
# number of rings (size 3 to 8) (size 9 to 14) (size 15 to 20)
#    0.000    1.684    1.053    2.211    4.421    5.474 
#    0.000    0.000    0.000    0.000    0.000    0.000 
#    0.000    0.000    0.000    0.000    0.000    0.000 
#
# Total GULP energy -211784.118253 kJ/mol
# GULP energy per Si atom -5573.266270 kJ/mol
# Density = 1.861899 g / cm^3
# Si number density = 18.661463 Si / 1000 Ang^3
#
#
#
# Elastic Constant Matrix: (Units=GPa)
#
#
# Indices 1 2 3 4 5 6 
#
# 1 65.4004 55.6988 45.7709 0.0000 0.0000 0.0000
# 2 55.6988 113.5581 69.6276 0.0000 0.0000 0.0000
# 3 45.7709 69.6276 113.1817 0.0000 0.0000 0.0000
# 4 0.0000 0.0000 0.0000 -102.7296 0.0000 0.0000
# 5 0.0000 0.0000 0.0000 0.0000 14.7995 0.0000
# 6 0.0000 0.0000 0.0000 0.0000 0.0000 35.5903
#
#
#
# Elastic Compliance Matrix: (Units=1/GPa)
#
#
# Indices 1 2 3 4 5 6 
#
# 1 0.027651 -0.010768 -0.004558 0.000000 0.000000 0.000000
# 2 -0.010768 0.018333 -0.006923 0.000000 0.000000 0.000000
# 3 -0.004558 -0.006923 0.014938 0.000000 0.000000 0.000000
# 4 0.000000 0.000000 0.000000 -0.009734 0.000000 0.000000
# 5 0.000000 0.000000 0.000000 0.000000 0.067570 0.000000
# 6 0.000000 0.000000 0.000000 0.000000 0.000000 0.028098
#
#
# Mechanical properties :
#
#
# Convention : Reuss Voigt Hill
#
# Bulk Modulus (GPa) = 60.89017 70.48163 65.68590
# Shear Modulus (GPa) = 25.40313 -2.39842 11.50235
#
# Velocity S-wave (km/s) = 3.69353 -1.13491 2.48537
# Velocity P-wave (km/s) = 7.13367 6.01109 6.59630
#
# Compressibility (1/GPa) = 0.01642301
#
# Stress axis : x y z
#
# Youngs Moduli (GPa) = 36.16549 54.54787 66.94457
#
# Poissons Ratio (x) = 0.58735 0.30513
# Poissons Ratio (y) = 0.38942 0.46348
# Poissons Ratio (z) = 0.16484 0.37766
#
# Static dielectric constant tensor:
#      x y z
#    x 1.619270 0.000000 0.000000 
#    y 0.000000 1.627390 0.000000 
#    z 0.000000 0.000000 1.620290 
# 
# From -- ./inp_files/34385.got.cif
#   From: 2010.05.17/outbox.cif.g08.bks.cpg/sg51_18_cif.got.tgz:34385.got - 2010.06.03 11:52:47.
