data_PCOD9406312
_publ_section_title
;
Structure prediction by ZEFSAII (Michael W. Deem and Ramdas Pophale) SiO2 
 PCOD9406312
Probable space group: P M M A
;
_chemical_formula_sum "Si O2"
_cell_formula_units_Z 64
_cell_length_a 18.560679
_cell_length_b 14.130281
_cell_length_c 12.024406
_cell_angle_alpha 90.000000
_cell_angle_beta 90.000000
_cell_angle_gamma 90.000000
_cell_volume 3153.612221
_symmetry_space_group_name_H-M "P M M A"
_symmetry_group_IT_number 51
_symmetry_cell_setting 'orthorhombic'
loop_
_space_group_symop_operation_xyz
x,y,z
1/2-x,-y,z
1/2+x,-y,-z
-x,y,-z
-x,-y,-z
1/2+x,y,-z
1/2-x,y,z
x,-y,z
loop_
_atom_site_type_symbol
_atom_site_label
_atom_site_fract_x
_atom_site_fract_y
_atom_site_fract_z
Si Si1 0.670295 0.112015 0.475125
Si Si2 0.831334 0.386265 0.447638
Si Si3 0.114867 0.807841 0.303914
Si Si4 0.915901 0.392007 0.670831
Si Si5 0.078210 0.390135 0.758197
Si Si6 0.460465 0.112824 0.689564
Si Si7 0.567866 0.217813 0.082466
Si Si8 0.664257 0.106153 0.923682
O O1 0.750000 0.126327 0.426011
O O2 0.663205 0.167923 0.590240
O O3 0.605970 0.136333 0.391365
O O4 0.663073 0.000000 0.500909
O O5 0.750000 0.352169 0.471831
O O6 0.827202 0.500000 0.439278
O O7 0.889485 0.371156 0.545203
O O8 0.862369 0.354406 0.329609
O O9 0.117678 0.698127 0.266684
O O10 0.134136 0.871001 0.198406
O O11 0.033758 0.833469 0.342001
O O12 0.892334 0.500000 0.697827
O O13 0.001065 0.388350 0.694406
O O14 0.091721 0.500000 0.787615
O O15 0.075189 0.320985 0.862723
O O16 0.443664 0.147185 0.813993
O O17 0.472197 0.000000 0.684539
O O18 0.500000 0.215173 0.000000
O O19 0.634479 0.181498 0.010776
O O20 0.750000 0.108890 0.918634
O O21 0.640940 0.000000 0.956508
#
# Coordination Sequence:
#
# PCOD9406312 Si02
#       8
#     8   8   8   8   8   8   8   8
#     4  10  23  41  61  92 133 169 203 255 326 393
#     4   9  19  35  57  88 125 165 207 254 311 372
#     4  12  22  39  66  95 125 167 215 259 315 382
#     4  10  21  38  59  90 129 167 209 255 304 369
#     4  10  21  39  63  89 124 168 216 265 314 372
#     4  11  23  39  64  93 123 161 212 268 318 379
#     4  12  24  42  64  92 122 165 216 269 321 371
#     4  11  25  44  67  94 125 164 212 266 322 382
#
# _framework density 20.294187999999998
#
# number of rings (size 3 to 8) (size 9 to 14) (size 15 to 20)
#    0.000    1.375    2.500    2.625    1.750    7.250 
#    0.000    1.875    0.000    0.750    0.000    0.000 
#    0.000    0.000    0.000    0.000    0.000    0.000 
#
# Total GULP energy -357517.091181 kJ/mol
# GULP energy per Si atom -5586.204550 kJ/mol
# Density = 2.024800 g / cm^3
# Si number density = 20.294188 Si / 1000 Ang^3
#
#
#
# Elastic Constant Matrix: (Units=GPa)
#
#
# Indices 1 2 3 4 5 6 
#
# 1 97.0935 33.2628 48.7496 0.0000 0.0000 0.0000
# 2 33.2628 122.5487 26.6816 0.0000 0.0000 0.0000
# 3 48.7496 26.6816 83.1829 0.0000 0.0000 0.0000
# 4 0.0000 0.0000 0.0000 36.7470 0.0000 0.0000
# 5 0.0000 0.0000 0.0000 0.0000 18.9586 0.0000
# 6 0.0000 0.0000 0.0000 0.0000 0.0000 9.8621
#
#
#
# Elastic Compliance Matrix: (Units=1/GPa)
#
#
# Indices 1 2 3 4 5 6 
#
# 1 0.015198 -0.002350 -0.008153 0.000000 0.000000 0.000000
# 2 -0.002350 0.009136 -0.001553 0.000000 0.000000 0.000000
# 3 -0.008153 -0.001553 0.017298 0.000000 0.000000 0.000000
# 4 0.000000 0.000000 0.000000 0.027213 0.000000 0.000000
# 5 0.000000 0.000000 0.000000 0.000000 0.052747 0.000000
# 6 0.000000 0.000000 0.000000 0.000000 0.000000 0.101399
#
#
# Mechanical properties :
#
#
# Convention : Reuss Voigt Hill
#
# Bulk Modulus (GPa) = 57.07927 57.80144 57.44036
# Shear Modulus (GPa) = 19.76730 26.05559 22.91145
#
# Velocity S-wave (km/s) = 3.12434 3.58703 3.36365
# Velocity P-wave (km/s) = 6.41891 6.76013 6.59173
#
# Compressibility (1/GPa) = 0.01751949
#
# Stress axis : x y z
#
# Youngs Moduli (GPa) = 65.79817 109.45651 57.81005
#
# Poissons Ratio (x) = 0.25722 0.47133
# Poissons Ratio (y) = 0.15463 0.08979
# Poissons Ratio (z) = 0.53646 0.17001
#
# Static dielectric constant tensor:
#      x y z
#    x 1.718610 0.000000 0.000000 
#    y 0.000000 1.771410 0.000000 
#    z 0.000000 0.000000 1.681470 
# 
# From -- ./inp_files/17558.got.cif
#   From: 2010.05.17/outbox.cif.g08.bks.cpg/sg51_9_cif.got.tgz:17558.got - 2010.06.03 11:52:47.
