data_PCOD9406775
_publ_section_title
;
Structure prediction by ZEFSAII (Michael W. Deem and Ramdas Pophale) SiO2 
 PCOD9406775
Probable space group: P M M A
;
_chemical_formula_sum "Si O2"
_cell_formula_units_Z 48
_cell_length_a 14.965739
_cell_length_b 14.988417
_cell_length_c 10.608806
_cell_angle_alpha 90.000000
_cell_angle_beta 90.000000
_cell_angle_gamma 90.000000
_cell_volume 2379.690309
_symmetry_space_group_name_H-M "P M M A"
_symmetry_group_IT_number 51
_symmetry_cell_setting 'orthorhombic'
loop_
_space_group_symop_operation_xyz
x,y,z
1/2-x,-y,z
1/2+x,-y,-z
-x,y,-z
-x,-y,-z
1/2+x,y,-z
1/2-x,y,z
x,-y,z
loop_
_atom_site_type_symbol
_atom_site_label
_atom_site_fract_x
_atom_site_fract_y
_atom_site_fract_z
Si Si1 0.641884 0.772359 0.997808
Si Si2 0.356284 0.100518 0.221520
Si Si3 0.487116 0.602582 0.649572
Si Si4 0.854946 0.396657 0.843163
Si Si5 0.645734 0.240582 0.278343
Si Si6 0.606648 0.897568 0.498524
O O1 0.750000 0.778475 0.995519
O O2 0.615450 0.792947 0.140285
O O3 0.606938 0.838398 0.889805
O O4 0.619896 0.672149 0.953368
O O5 0.250000 0.093774 0.201719
O O6 0.367552 0.137270 0.362703
O O7 0.394369 0.000000 0.219764
O O8 0.500000 0.610748 0.500000
O O9 0.460065 0.500000 0.676816
O O10 0.579391 0.618597 0.725358
O O11 0.414369 0.674523 0.689693
O O12 0.750000 0.381340 0.810440
O O13 0.863697 0.500000 0.881832
O O14 0.750000 0.265963 0.270221
O O15 0.636466 0.165428 0.385361
O O16 0.500000 0.900218 0.500000
O O17 0.640071 0.000000 0.485920
#
# Coordination Sequence:
#
# PCOD9406775 Si02
#       6
#     8   8   8   8   8   8
#     4   9  20  36  56  87 120 152 196 247 295 352
#     4   9  18  35  59  83 110 151 198 241 292 355
#     4  10  23  41  60  88 123 157 201 251 299 357
#     4   9  19  38  63  87 115 155 201 248 299 357
#     4  11  24  39  59  90 125 161 198 244 305 358
#     4  10  22  40  60  85 118 156 202 252 300 356
#
# _framework density 20.170691000000001
#
# number of rings (size 3 to 8) (size 9 to 14) (size 15 to 20)
#    0.000    2.333    0.000    1.000    4.667    4.000 
#    0.000    6.667    0.000    3.000    0.000    0.000 
#    0.000    0.000    0.000    0.000    0.000    0.000 
#
# Total GULP energy -267963.695891 kJ/mol
# GULP energy per Si atom -5582.576998 kJ/mol
# Density = 2.012478 g / cm^3
# Si number density = 20.170691 Si / 1000 Ang^3
#
#
#
# Elastic Constant Matrix: (Units=GPa)
#
#
# Indices 1 2 3 4 5 6 
#
# 1 62.8091 35.0543 24.7668 0.0000 0.0000 0.0000
# 2 35.0543 97.6010 95.9163 0.0000 0.0000 0.0000
# 3 24.7668 95.9163 178.8641 0.0000 0.0000 0.0000
# 4 0.0000 0.0000 0.0000 316.6435 0.0000 0.0000
# 5 0.0000 0.0000 0.0000 0.0000 -8.1820 0.0000
# 6 0.0000 0.0000 0.0000 0.0000 0.0000 1935.3124
#
#
#
# Elastic Compliance Matrix: (Units=1/GPa)
#
#
# Indices 1 2 3 4 5 6 
#
# 1 0.020362 -0.009603 0.002330 0.000000 0.000000 0.000000
# 2 -0.009603 0.026190 -0.012715 0.000000 0.000000 0.000000
# 3 0.002330 -0.012715 0.012087 0.000000 0.000000 0.000000
# 4 0.000000 0.000000 0.000000 0.003158 0.000000 0.000000
# 5 0.000000 0.000000 0.000000 0.000000 -0.122220 0.000000
# 6 0.000000 0.000000 0.000000 0.000000 0.000000 0.000517
#
#
# Mechanical properties :
#
#
# Convention : Reuss Voigt Hill
#
# Bulk Modulus (GPa) = 53.58142 72.30544 62.94343
# Shear Modulus (GPa) = -364.71722 460.99057 48.13667
#
# Velocity S-wave (km/s) = -13.46135 15.13410 4.89045
# Velocity P-wave (km/s) = 14.66250 18.47464 7.94744
#
# Compressibility (1/GPa) = 0.01866319
#
# Stress axis : x y z
#
# Youngs Moduli (GPa) = 49.11091 38.18203 82.73664
#
# Poissons Ratio (x) = 0.36667 -0.19280
# Poissons Ratio (y) = 0.47163 1.05199
# Poissons Ratio (z) = -0.11444 0.48548
#
# Static dielectric constant tensor:
#      x y z
#    x 1.709990 0.000000 0.000000 
#    y 0.000000 1.720580 0.000000 
#    z 0.000000 0.000000 1.703600 
# 
# From -- ./inp_files/9561.got.cif
#   From: 2010.05.17/outbox.cif.g08.bks.cpg/sg51_5_cif.got.tgz:9561.got - 2010.06.03 11:52:47.
