data_PCOD9406133
_publ_section_title
;
Structure prediction by ZEFSAII (Michael W. Deem and Ramdas Pophale) SiO2 
 PCOD9406133
Probable space group: P M M A
;
_chemical_formula_sum "Si O2"
_cell_formula_units_Z 44
_cell_length_a 10.154304
_cell_length_b 7.785642
_cell_length_c 30.343471
_cell_angle_alpha 90.000000
_cell_angle_beta 90.000000
_cell_angle_gamma 90.000000
_cell_volume 2398.887324
_symmetry_space_group_name_H-M "P M M A"
_symmetry_group_IT_number 51
_symmetry_cell_setting 'orthorhombic'
loop_
_space_group_symop_operation_xyz
x,y,z
1/2-x,-y,z
1/2+x,-y,-z
-x,y,-z
-x,-y,-z
1/2+x,y,-z
1/2-x,y,z
x,-y,z
loop_
_atom_site_type_symbol
_atom_site_label
_atom_site_fract_x
_atom_site_fract_y
_atom_site_fract_z
Si Si1 0.601690 0.706179 0.213075
Si Si2 0.901809 0.790201 0.962125
Si Si3 0.903263 0.707896 0.312357
Si Si4 0.097311 0.194817 0.389936
Si Si5 0.405868 0.500000 0.458049
Si Si6 0.601076 0.793636 0.863181
O O1 0.750000 0.769656 0.203363
O O2 0.608496 0.500000 0.215672
O O3 0.564037 0.765060 0.262397
O O4 0.499683 0.749100 0.175074
O O5 0.750000 0.740565 0.970180
O O6 0.938028 0.734596 0.912428
O O7 0.905121 0.000000 0.962593
O O8 0.000000 0.729280 0.000000
O O9 0.750000 0.753050 0.320583
O O10 0.912254 0.500000 0.314091
O O11 0.000799 0.780218 0.348785
O O12 0.250000 0.222006 0.376210
O O13 0.068438 0.333958 0.427504
O O14 0.085251 0.000000 0.406552
O O15 0.250000 0.500000 0.469936
O O16 0.500000 0.500000 0.500000
O O17 0.750000 0.730987 0.854194
O O18 0.606986 0.000000 0.865270
#
# Coordination Sequence:
#
# PCOD9406133 Si02
#       6
#     8   8   8   8   4   8
#     4   9  19  34  50  71 100 134 171 210 251 301
#     4   8  14  25  41  62  88 117 152 197 248 302
#     4   9  18  34  55  77 104 139 179 221 266 317
#     4  10  21  37  58  85 115 147 185 228 273 323
#     4  10  22  40  60  84 116 152 188 230 275 320
#     4   9  18  31  46  68  98 127 159 204 254 306
#
# _framework density 18.341837000000002
#
# number of rings (size 3 to 8) (size 9 to 14) (size 15 to 20)
#    0.000    2.909    0.909    2.182    0.000    4.364 
#    0.000    7.273    0.000    0.545    0.000    0.000 
#    0.000    0.000    0.000    0.000    0.000    0.000 
#
# Total GULP energy -245331.389437 kJ/mol
# GULP energy per Si atom -5575.713396 kJ/mol
# Density = 1.830009 g / cm^3
# Si number density = 18.341837 Si / 1000 Ang^3
#
#
#
# Elastic Constant Matrix: (Units=GPa)
#
#
# Indices 1 2 3 4 5 6 
#
# 1 113.2545 37.4420 125.7251 0.0000 0.0000 0.0000
# 2 37.4420 56.6068 46.5646 0.0000 0.0000 0.0000
# 3 125.7251 46.5646 175.5495 0.0000 0.0000 0.0000
# 4 0.0000 0.0000 0.0000 18.1672 0.0000 0.0000
# 5 0.0000 0.0000 0.0000 0.0000 44.1601 0.0000
# 6 0.0000 0.0000 0.0000 0.0000 0.0000 21.3476
#
#
#
# Elastic Compliance Matrix: (Units=1/GPa)
#
#
# Indices 1 2 3 4 5 6 
#
# 1 0.043794 -0.004051 -0.030290 0.000000 0.000000 0.000000
# 2 -0.004051 0.022971 -0.003192 0.000000 0.000000 0.000000
# 3 -0.030290 -0.003192 0.028236 0.000000 0.000000 0.000000
# 4 0.000000 0.000000 0.000000 0.055044 0.000000 0.000000
# 5 0.000000 0.000000 0.000000 0.000000 0.022645 0.000000
# 6 0.000000 0.000000 0.000000 0.000000 0.000000 0.046844
#
#
# Mechanical properties :
#
#
# Convention : Reuss Voigt Hill
#
# Bulk Modulus (GPa) = 50.16143 84.98601 67.57372
# Shear Modulus (GPa) = 16.59781 25.78027 21.18904
#
# Velocity S-wave (km/s) = 3.01144 3.75313 3.40255
# Velocity P-wave (km/s) = 6.28484 8.07567 7.23587
#
# Compressibility (1/GPa) = 0.01993564
#
# Stress axis : x y z
#
# Youngs Moduli (GPa) = 22.83409 43.53372 35.41552
#
# Poissons Ratio (x) = 0.17634 1.07274
# Poissons Ratio (y) = 0.09249 0.11304
# Poissons Ratio (z) = 0.69165 0.13896
#
# Static dielectric constant tensor:
#      x y z
#    x 1.619610 0.000000 0.000000 
#    y 0.000000 1.682160 0.000000 
#    z 0.000000 0.000000 1.605430 
# 
# From -- ./inp_files/36798.got.cif
#   From: 2010.05.17/outbox.cif.g08.bks.cpg/sg51_19_cif.got.tgz:36798.got - 2010.06.03 11:52:47.
