data_PCOD9406214
_publ_section_title
;
Structure prediction by ZEFSAII (Michael W. Deem and Ramdas Pophale) SiO2 
 PCOD9406214
Probable space group: P M M A
;
_chemical_formula_sum "Si O2"
_cell_formula_units_Z 64
_cell_length_a 8.789035
_cell_length_b 29.327007
_cell_length_c 14.193942
_cell_angle_alpha 90.000000
_cell_angle_beta 90.000000
_cell_angle_gamma 90.000000
_cell_volume 3658.575005
_symmetry_space_group_name_H-M "P M M A"
_symmetry_group_IT_number 51
_symmetry_cell_setting 'orthorhombic'
loop_
_space_group_symop_operation_xyz
x,y,z
1/2-x,-y,z
1/2+x,-y,-z
-x,y,-z
-x,-y,-z
1/2+x,y,-z
1/2-x,y,z
x,-y,z
loop_
_atom_site_type_symbol
_atom_site_label
_atom_site_fract_x
_atom_site_fract_y
_atom_site_fract_z
Si Si1 0.432894 0.948358 0.295582
Si Si2 0.423336 0.055450 0.903551
Si Si3 0.933329 0.223478 0.288519
Si Si4 0.066662 0.447828 0.897636
Si Si5 0.432721 0.141067 0.398705
Si Si6 0.931883 0.274307 0.102621
Si Si7 0.067778 0.310562 0.396581
Si Si8 0.433920 0.362560 0.775060
O O1 0.250000 0.949770 0.294593
O O2 0.488194 0.933684 0.191940
O O3 0.480085 0.910213 0.370003
O O4 0.488866 0.000000 0.314311
O O5 0.250000 0.071251 0.897517
O O6 0.421974 0.000000 0.908271
O O7 0.500000 0.071817 0.000000
O O8 0.250000 0.223436 0.703927
O O9 0.001927 0.176129 0.322628
O O10 0.999455 0.263416 0.355071
O O11 0.975446 0.237115 0.181593
O O12 0.250000 0.446479 0.904309
O O13 0.020857 0.500000 0.876021
O O14 0.021917 0.410963 0.819423
O O15 0.000000 0.435840 0.000000
O O16 0.500000 0.153225 0.500000
O O17 0.250000 0.143744 0.400790
O O18 0.750000 0.273578 0.094540
O O19 0.973557 0.323102 0.149006
O O20 0.000000 0.267854 0.000000
O O21 0.250000 0.307865 0.400055
O O22 0.000000 0.318459 0.500000
O O23 0.013576 0.348830 0.322124
O O24 0.250000 0.361028 0.761991
#
# Coordination Sequence:
#
# PCOD9406214 Si02
#       8
#     8   8   8   8   8   8   8   8
#     4   9  19  36  55  76 104 135 168 207 249 295
#     4   9  16  27  47  74 101 129 161 198 240 284
#     4  10  21  38  56  77 106 137 169 206 249 298
#     4   9  17  29  47  72 104 142 181 222 266 311
#     4  11  23  38  57  79 102 132 168 207 252 301
#     4   9  18  31  50  75 104 137 168 204 248 297
#     4  11  21  34  54  78 102 130 167 213 263 312
#     4   9  18  32  48  72 106 140 176 217 262 309
#
# _framework density 17.49315
#
# number of rings (size 3 to 8) (size 9 to 14) (size 15 to 20)
#    0.000    2.375    0.000    3.750    0.000    5.750 
#    0.000    0.625    0.000    1.875    0.000    0.000 
#    0.000    0.000    0.000    0.000    0.000    0.000 
#
# Total GULP energy -357027.618955 kJ/mol
# GULP energy per Si atom -5578.556546 kJ/mol
# Density = 1.745333 g / cm^3
# Si number density = 17.493150 Si / 1000 Ang^3
#
#
#
# Elastic Constant Matrix: (Units=GPa)
#
#
# Indices 1 2 3 4 5 6 
#
# 1 45.8768 31.3822 38.3429 0.0000 0.0000 0.0000
# 2 31.3822 85.9280 58.9940 0.0000 0.0000 0.0000
# 3 38.3429 58.9940 133.8428 0.0000 0.0000 0.0000
# 4 0.0000 0.0000 0.0000 22.8985 0.0000 0.0000
# 5 0.0000 0.0000 0.0000 0.0000 31.3512 0.0000
# 6 0.0000 0.0000 0.0000 0.0000 0.0000 19.3572
#
#
#
# Elastic Compliance Matrix: (Units=1/GPa)
#
#
# Indices 1 2 3 4 5 6 
#
# 1 0.031855 -0.007698 -0.005733 0.000000 0.000000 0.000000
# 2 -0.007698 0.018548 -0.005970 0.000000 0.000000 0.000000
# 3 -0.005733 -0.005970 0.011745 0.000000 0.000000 0.000000
# 4 0.000000 0.000000 0.000000 0.043671 0.000000 0.000000
# 5 0.000000 0.000000 0.000000 0.000000 0.031897 0.000000
# 6 0.000000 0.000000 0.000000 0.000000 0.000000 0.051660
#
#
# Mechanical properties :
#
#
# Convention : Reuss Voigt Hill
#
# Bulk Modulus (GPa) = 42.83345 58.12066 50.47706
# Shear Modulus (GPa) = 21.19013 23.84994 22.52004
#
# Velocity S-wave (km/s) = 3.48421 3.69641 3.59188
# Velocity P-wave (km/s) = 6.38163 7.17739 6.79118
#
# Compressibility (1/GPa) = 0.02334624
#
# Stress axis : x y z
#
# Youngs Moduli (GPa) = 31.39267 53.91461 85.14190
#
# Poissons Ratio (x) = 0.41504 0.48808
# Poissons Ratio (y) = 0.24166 0.50830
# Poissons Ratio (z) = 0.17996 0.32187
#
# Static dielectric constant tensor:
#      x y z
#    x 1.588370 0.000000 0.000000 
#    y 0.000000 1.608200 0.000000 
#    z 0.000000 0.000000 1.575580 
# 
# From -- ./inp_files/14843.got.cif
#   From: 2010.05.17/outbox.cif.g08.bks.cpg/sg51_8_cif.got.tgz:14843.got - 2010.06.03 11:52:47.
