data_PCOD9406535
_publ_section_title
;
Structure prediction by ZEFSAII (Michael W. Deem and Ramdas Pophale) SiO2 
 PCOD9406535
Probable space group: P M M A
;
_chemical_formula_sum "Si O2"
_cell_formula_units_Z 48
_cell_length_a 8.596476
_cell_length_b 32.275497
_cell_length_c 9.279028
_cell_angle_alpha 90.000000
_cell_angle_beta 90.000000
_cell_angle_gamma 90.000000
_cell_volume 2574.517681
_symmetry_space_group_name_H-M "P M M A"
_symmetry_group_IT_number 51
_symmetry_cell_setting 'orthorhombic'
loop_
_space_group_symop_operation_xyz
x,y,z
1/2-x,-y,z
1/2+x,-y,-z
-x,y,-z
-x,-y,-z
1/2+x,y,-z
1/2-x,y,z
x,-y,z
loop_
_atom_site_type_symbol
_atom_site_label
_atom_site_fract_x
_atom_site_fract_y
_atom_site_fract_z
Si Si1 0.435405 0.623486 0.160911
Si Si2 0.935714 0.779294 0.836457
Si Si3 0.936238 0.451947 0.339393
Si Si4 0.564149 0.701207 0.338444
Si Si5 0.562179 0.955447 0.164252
Si Si6 0.437313 0.134233 0.835467
O O1 0.250000 0.626685 0.160054
O O2 0.487429 0.580061 0.230155
O O3 0.505299 0.660407 0.256399
O O4 0.500000 0.627035 0.000000
O O5 0.750000 0.778132 0.841179
O O6 0.001101 0.741421 0.744781
O O7 0.991498 0.823652 0.773762
O O8 0.000000 0.776022 0.000000
O O9 0.750000 0.446795 0.338824
O O10 0.971818 0.500000 0.304796
O O11 0.000000 0.443730 0.500000
O O12 0.500000 0.700916 0.500000
O O13 0.750000 0.701775 0.339675
O O14 0.750000 0.955257 0.158960
O O15 0.516696 0.910733 0.229170
O O16 0.512781 0.000000 0.229318
O O17 0.500000 0.955578 0.000000
O O18 0.250000 0.137626 0.836952
O O19 0.500000 0.133144 0.000000
#
# Coordination Sequence:
#
# PCOD9406535 Si02
#       6
#     8   8   8   8   8   8
#     4  12  25  42  63  89 120 154 192 234 281 330
#     4  11  21  35  54  78 107 141 180 223 272 324
#     4  10  21  39  63  91 123 160 200 240 283 331
#     4  12  25  43  63  85 112 143 181 224 274 330
#     4   8  13  20  31  50  80 119 162 206 253 307
#     4   9  15  24  39  61  90 127 169 213 262 315
#
# _framework density 18.644269999999999
#
# number of rings (size 3 to 8) (size 9 to 14) (size 15 to 20)
#    0.000    1.667    0.000    7.500    0.000    2.000 
#    0.000    0.000    0.000    0.000    0.000    0.000 
#    0.000    0.667    0.000    1.833    0.000    8.500 
#
# Total GULP energy -267921.353371 kJ/mol
# GULP energy per Si atom -5581.694862 kJ/mol
# Density = 1.860183 g / cm^3
# Si number density = 18.644270 Si / 1000 Ang^3
#
#
#
# Elastic Constant Matrix: (Units=GPa)
#
#
# Indices 1 2 3 4 5 6 
#
# 1 147.3166 74.0840 46.8438 0.0000 0.0000 0.0000
# 2 74.0840 160.3570 79.4141 0.0000 0.0000 0.0000
# 3 46.8438 79.4141 85.7797 0.0000 0.0000 0.0000
# 4 0.0000 0.0000 0.0000 44.5774 0.0000 0.0000
# 5 0.0000 0.0000 0.0000 0.0000 25.7342 0.0000
# 6 0.0000 0.0000 0.0000 0.0000 0.0000 32.6367
#
#
#
# Elastic Compliance Matrix: (Units=1/GPa)
#
#
# Indices 1 2 3 4 5 6 
#
# 1 0.009020 -0.003190 -0.001972 0.000000 0.000000 0.000000
# 2 -0.003190 0.012645 -0.009964 0.000000 0.000000 0.000000
# 3 -0.001972 -0.009964 0.021959 0.000000 0.000000 0.000000
# 4 0.000000 0.000000 0.000000 0.022433 0.000000 0.000000
# 5 0.000000 0.000000 0.000000 0.000000 0.038859 0.000000
# 6 0.000000 0.000000 0.000000 0.000000 0.000000 0.030640
#
#
# Mechanical properties :
#
#
# Convention : Reuss Voigt Hill
#
# Bulk Modulus (GPa) = 74.78996 88.23743 81.51370
# Shear Modulus (GPa) = 29.36609 33.46376 31.41492
#
# Velocity S-wave (km/s) = 3.97303 4.24117 4.10928
# Velocity P-wave (km/s) = 7.82610 8.45062 8.14435
#
# Compressibility (1/GPa) = 0.01337078
#
# Stress axis : x y z
#
# Youngs Moduli (GPa) = 110.87019 79.08571 45.53933
#
# Poissons Ratio (x) = 0.25232 0.08979
# Poissons Ratio (y) = 0.35373 0.45375
# Poissons Ratio (z) = 0.21861 0.78800
#
# Static dielectric constant tensor:
#      x y z
#    x 1.620630 0.000000 0.000000 
#    y 0.000000 1.696850 0.000000 
#    z 0.000000 0.000000 1.600350 
# 
# From -- ./inp_files/6070.got.cif
#   From: 2010.05.17/outbox.cif.g08.bks.cpg/sg51_4_cif.got.tgz:6070.got - 2010.06.03 11:52:47.
