data_PCOD9406950
_publ_section_title
;
Structure prediction by ZEFSAII (Michael W. Deem and Ramdas Pophale) SiO2 
 PCOD9406950
Probable space group: P M M A
;
_chemical_formula_sum "Si O2"
_cell_formula_units_Z 40
_cell_length_a 10.420030
_cell_length_b 13.632927
_cell_length_c 16.777297
_cell_angle_alpha 90.000000
_cell_angle_beta 90.000000
_cell_angle_gamma 90.000000
_cell_volume 2383.307454
_symmetry_space_group_name_H-M "P M M A"
_symmetry_group_IT_number 51
_symmetry_cell_setting 'orthorhombic'
loop_
_space_group_symop_operation_xyz
x,y,z
1/2-x,-y,z
1/2+x,-y,-z
-x,y,-z
-x,-y,-z
1/2+x,y,-z
1/2-x,y,z
x,-y,z
loop_
_atom_site_type_symbol
_atom_site_label
_atom_site_fract_x
_atom_site_fract_y
_atom_site_fract_z
Si Si1 0.902454 0.110113 0.849745
Si Si2 0.993864 0.808219 0.684687
Si Si3 0.750000 0.117189 0.587284
Si Si4 0.100032 0.687398 0.066867
Si Si5 0.902383 0.388209 0.754831
Si Si6 0.750000 0.117601 0.398229
O O1 0.750000 0.115040 0.830071
O O2 0.976628 0.134406 0.768429
O O3 0.924459 0.197895 0.911645
O O4 0.931201 0.000000 0.877820
O O5 0.875625 0.838992 0.628773
O O6 0.979713 0.693949 0.707211
O O7 0.124528 0.837125 0.642219
O O8 0.750000 0.136053 0.492943
O O9 0.750000 0.000000 0.599840
O O10 0.250000 0.676320 0.043467
O O11 0.081350 0.631483 0.150666
O O12 0.000000 0.655368 0.000000
O O13 0.750000 0.372891 0.739254
O O14 0.935455 0.500000 0.735623
O O15 0.750000 0.000000 0.386833
#
# Coordination Sequence:
#
# PCOD9406950 Si02
#       6
#     8   8   4   8   8   4
#     4   9  16  29  51  72  95 138 186 215 246 308
#     4  11  19  35  55  78 107 143 179 220 261 310
#     4  11  20  34  57  81 106 143 183 209 253 321
#     4   9  18  32  49  74 105 133 168 215 264 312
#     4   9  18  36  61  81  98 136 188 227 262 307
#     4  11  24  34  49  83 122 143 161 213 273 315
#
# _framework density 16.783397999999998
#
# number of rings (size 3 to 8) (size 9 to 14) (size 15 to 20)
#    0.000    2.200    2.000    3.600    0.000    2.400 
#    7.200    0.500    0.000    3.600    0.000    0.000 
#    0.000    0.000    0.000    0.000    0.000    0.000 
#
# Total GULP energy -223164.405313 kJ/mol
# GULP energy per Si atom -5579.110133 kJ/mol
# Density = 1.674520 g / cm^3
# Si number density = 16.783398 Si / 1000 Ang^3
#
#
#
# Elastic Constant Matrix: (Units=GPa)
#
#
# Indices 1 2 3 4 5 6 
#
# 1 113.3240 30.2863 60.1405 0.0000 0.0000 0.0000
# 2 30.2863 85.9748 23.9410 0.0000 0.0000 0.0000
# 3 60.1405 23.9410 71.4671 0.0000 0.0000 0.0000
# 4 0.0000 0.0000 0.0000 4.0483 0.0000 0.0000
# 5 0.0000 0.0000 0.0000 0.0000 -566.1843 0.0000
# 6 0.0000 0.0000 0.0000 0.0000 0.0000 19.2387
#
#
#
# Elastic Compliance Matrix: (Units=1/GPa)
#
#
# Indices 1 2 3 4 5 6 
#
# 1 0.016288 -0.002119 -0.012997 0.000000 0.000000 0.000000
# 2 -0.002119 0.013104 -0.002607 0.000000 0.000000 0.000000
# 3 -0.012997 -0.002607 0.025803 0.000000 0.000000 0.000000
# 4 0.000000 0.000000 0.000000 0.247019 0.000000 0.000000
# 5 0.000000 0.000000 0.000000 0.000000 -0.001766 0.000000
# 6 0.000000 0.000000 0.000000 0.000000 0.000000 0.051979
#
#
# Mechanical properties :
#
#
# Convention : Reuss Voigt Hill
#
# Bulk Modulus (GPa) = 50.63337 55.50017 53.06677
# Shear Modulus (GPa) = 12.67581 -98.15292 -42.73855
#
# Velocity S-wave (km/s) = 2.75118 -7.65566 -5.05174
# Velocity P-wave (km/s) = 6.35029 6.70859 1.52954
#
# Compressibility (1/GPa) = 0.01974982
#
# Stress axis : x y z
#
# Youngs Moduli (GPa) = 61.39616 76.31542 38.75592
#
# Poissons Ratio (x) = 0.16168 0.50369
# Poissons Ratio (y) = 0.13007 0.10103
# Poissons Ratio (z) = 0.79794 0.19894
#
# Static dielectric constant tensor:
#      x y z
#    x 1.540980 0.000000 0.000000 
#    y 0.000000 1.580180 0.000000 
#    z 0.000000 0.000000 1.548560 
# 
# From -- ./inp_files/20587.got.cif
#   From: 2010.05.17/outbox.cif.g08.bks.cpg/sg51_11_cif.got.tgz:20587.got - 2010.06.03 11:52:47.
