data_PCOD9406203
_publ_section_title
;
Structure prediction by ZEFSAII (Michael W. Deem and Ramdas Pophale) SiO2 
 PCOD9406203
Probable space group: P M M A
;
_chemical_formula_sum "Si O2"
_cell_formula_units_Z 48
_cell_length_a 9.298746
_cell_length_b 18.895687
_cell_length_c 14.844405
_cell_angle_alpha 90.000000
_cell_angle_beta 90.000000
_cell_angle_gamma 90.000000
_cell_volume 2608.253903
_symmetry_space_group_name_H-M "P M M A"
_symmetry_group_IT_number 51
_symmetry_cell_setting 'orthorhombic'
loop_
_space_group_symop_operation_xyz
x,y,z
1/2-x,-y,z
1/2+x,-y,-z
-x,y,-z
-x,-y,-z
1/2+x,y,-z
1/2-x,y,z
x,-y,z
loop_
_atom_site_type_symbol
_atom_site_label
_atom_site_fract_x
_atom_site_fract_y
_atom_site_fract_z
Si Si1 0.089937 0.289299 0.577252
Si Si2 0.081621 0.419158 0.142042
Si Si3 0.414130 0.821137 0.736173
Si Si4 0.417029 0.422083 0.359455
Si Si5 0.417185 0.915369 0.405041
Si Si6 0.076020 0.273383 0.907765
O O1 0.250000 0.299848 0.544532
O O2 0.091832 0.244137 0.666979
O O3 0.000000 0.251708 0.500000
O O4 0.013928 0.362352 0.599117
O O5 0.250000 0.408777 0.115559
O O6 0.039596 0.500000 0.114077
O O7 0.076391 0.418396 0.250827
O O8 0.985753 0.352768 0.111252
O O9 0.250000 0.848467 0.747326
O O10 0.510938 0.877057 0.681383
O O11 0.461337 0.783641 0.829282
O O12 0.250000 0.413211 0.383698
O O13 0.465197 0.500000 0.386945
O O14 0.500000 0.903068 0.500000
O O15 0.250000 0.893351 0.414366
O O16 0.421525 0.000000 0.390442
O O17 0.250000 0.276473 0.913529
O O18 0.000000 0.250624 0.000000
#
# Coordination Sequence:
#
# PCOD9406203 Si02
#       6
#     8   8   8   8   8   8
#     4  11  22  35  51  76 106 140 183 227 273 330
#     4   9  18  34  56  80 106 140 185 238 296 350
#     4  10  22  39  58  83 115 149 187 230 279 332
#     4   9  18  33  52  73  99 135 180 228 279 333
#     4  10  21  37  61  94 127 158 191 225 267 323
#     4  11  23  39  58  84 113 146 191 239 290 347
#
# _framework density 18.403117000000002
#
# number of rings (size 3 to 8) (size 9 to 14) (size 15 to 20)
#    0.000    2.000    1.667    3.000    0.000    6.333 
#    0.000    1.667    0.000    0.500    0.000    0.000 
#    0.000    0.000    0.000    0.000    0.000    0.000 
#
# Total GULP energy -267737.391881 kJ/mol
# GULP energy per Si atom -5577.862331 kJ/mol
# Density = 1.836123 g / cm^3
# Si number density = 18.403117 Si / 1000 Ang^3
#
#
#
# Elastic Constant Matrix: (Units=GPa)
#
#
# Indices 1 2 3 4 5 6 
#
# 1 101.6987 58.1905 48.5162 0.0000 0.0000 0.0000
# 2 58.1905 93.2180 42.8824 0.0000 0.0000 0.0000
# 3 48.5162 42.8824 118.5217 0.0000 0.0000 0.0000
# 4 0.0000 0.0000 0.0000 24.9577 0.0000 0.0000
# 5 0.0000 0.0000 0.0000 0.0000 28.2662 0.0000
# 6 0.0000 0.0000 0.0000 0.0000 0.0000 41.1549
#
#
#
# Elastic Compliance Matrix: (Units=1/GPa)
#
#
# Indices 1 2 3 4 5 6 
#
# 1 0.016505 -0.008632 -0.003633 0.000000 0.000000 0.000000
# 2 -0.008632 0.017384 -0.002756 0.000000 0.000000 0.000000
# 3 -0.003633 -0.002756 0.010922 0.000000 0.000000 0.000000
# 4 0.000000 0.000000 0.000000 0.040068 0.000000 0.000000
# 5 0.000000 0.000000 0.000000 0.000000 0.035378 0.000000
# 6 0.000000 0.000000 0.000000 0.000000 0.000000 0.024298
#
#
# Mechanical properties :
#
#
# Convention : Reuss Voigt Hill
#
# Bulk Modulus (GPa) = 67.71332 68.06850 67.89091
# Shear Modulus (GPa) = 27.85197 29.79904 28.82550
#
# Velocity S-wave (km/s) = 3.89451 4.02834 3.96199
# Velocity P-wave (km/s) = 7.55628 7.66189 7.60927
#
# Compressibility (1/GPa) = 0.01476814
#
# Stress axis : x y z
#
# Youngs Moduli (GPa) = 60.58671 57.52464 91.56041
#
# Poissons Ratio (x) = 0.49655 0.33266
# Poissons Ratio (y) = 0.52298 0.25236
# Poissons Ratio (z) = 0.22012 0.15855
#
# Static dielectric constant tensor:
#      x y z
#    x 1.644400 0.000000 0.000000 
#    y 0.000000 1.634080 0.000000 
#    z 0.000000 0.000000 1.733150 
# 
# From -- ./inp_files/21064.got.cif
#   From: 2010.05.17/outbox.cif.g08.bks.cpg/sg51_11_cif.got.tgz:21064.got - 2010.06.03 11:52:47.
