data_PCOD9406823
_publ_section_title
;
Structure prediction by ZEFSAII (Michael W. Deem and Ramdas Pophale) SiO2 
 PCOD9406823
Probable space group: P M M A
;
_chemical_formula_sum "Si O2"
_cell_formula_units_Z 48
_cell_length_a 16.890614
_cell_length_b 13.930576
_cell_length_c 9.441363
_cell_angle_alpha 90.000000
_cell_angle_beta 90.000000
_cell_angle_gamma 90.000000
_cell_volume 2221.514779
_symmetry_space_group_name_H-M "P M M A"
_symmetry_group_IT_number 51
_symmetry_cell_setting 'orthorhombic'
loop_
_space_group_symop_operation_xyz
x,y,z
1/2-x,-y,z
1/2+x,-y,-z
-x,y,-z
-x,-y,-z
1/2+x,y,-z
1/2-x,y,z
x,-y,z
loop_
_atom_site_type_symbol
_atom_site_label
_atom_site_fract_x
_atom_site_fract_y
_atom_site_fract_z
Si Si1 0.344030 0.282977 0.125567
Si Si2 0.590525 0.890768 0.683689
Si Si3 0.899589 0.107520 0.355719
Si Si4 0.834137 0.387019 0.460237
Si Si5 0.048725 0.611182 0.312883
Si Si6 0.109201 0.703981 0.801802
O O1 0.250000 0.278350 0.120694
O O2 0.377202 0.189470 0.209805
O O3 0.375875 0.374871 0.211419
O O4 0.377736 0.292759 0.967562
O O5 0.618604 0.875951 0.521475
O O6 0.494832 0.889151 0.669301
O O7 0.612386 0.000000 0.726643
O O8 0.867457 0.192772 0.261313
O O9 0.873012 0.000000 0.318756
O O10 0.750000 0.345337 0.510817
O O11 0.833600 0.500000 0.489773
O O12 0.913911 0.352026 0.538527
O O13 0.841185 0.369847 0.293412
O O14 0.023415 0.500000 0.324371
O O15 0.980023 0.673791 0.241882
#
# Coordination Sequence:
#
# PCOD9406823 Si02
#       6
#     8   8   8   8   8   8
#     4  12  26  41  59  89 130 173 207 251 320 380
#     4   9  19  39  65  94 123 158 204 253 307 372
#     4   9  19  37  66  96 121 153 202 261 312 359
#     4  10  22  41  65  93 125 163 208 261 321 376
#     4  11  24  42  64  90 120 163 218 267 308 367
#     4  12  23  38  64  96 127 164 209 261 310 376
#
# _framework density 21.606878999999999
#
# number of rings (size 3 to 8) (size 9 to 14) (size 15 to 20)
#    0.000    1.500    1.667    4.500    2.333    5.333 
#    0.000    2.500    0.000    3.500    0.000    0.000 
#    0.000    0.000    0.000    0.000    0.000    0.000 
#
# Total GULP energy -268052.390039 kJ/mol
# GULP energy per Si atom -5584.424792 kJ/mol
# Density = 2.155770 g / cm^3
# Si number density = 21.606879 Si / 1000 Ang^3
#
#
#
# Elastic Constant Matrix: (Units=GPa)
#
#
# Indices 1 2 3 4 5 6 
#
# 1 107.2771 18.7640 38.5789 0.0000 0.0000 0.0000
# 2 18.7640 94.9754 27.8121 0.0000 0.0000 0.0000
# 3 38.5789 27.8121 130.9052 0.0000 0.0000 0.0000
# 4 0.0000 0.0000 0.0000 0.0140 0.0000 0.0000
# 5 0.0000 0.0000 0.0000 0.0000 16.3958 0.0000
# 6 0.0000 0.0000 0.0000 0.0000 0.0000 14.9536
#
#
#
# Elastic Compliance Matrix: (Units=1/GPa)
#
#
# Indices 1 2 3 4 5 6 
#
# 1 0.010565 -0.001253 -0.002847 0.000000 0.000000 0.000000
# 2 -0.001253 0.011376 -0.002048 0.000000 0.000000 0.000000
# 3 -0.002847 -0.002048 0.008913 0.000000 0.000000 0.000000
# 4 0.000000 0.000000 0.000000 71.370072 0.000000 0.000000
# 5 0.000000 0.000000 0.000000 0.000000 0.060991 0.000000
# 6 0.000000 0.000000 0.000000 0.000000 0.000000 0.066874
#
#
# Mechanical properties :
#
#
# Convention : Reuss Voigt Hill
#
# Bulk Modulus (GPa) = 53.88586 55.94086 54.91336
# Shear Modulus (GPa) = 0.06988 22.80619 11.43804
#
# Velocity S-wave (km/s) = 0.18004 3.25238 2.30330
# Velocity P-wave (km/s) = 5.00366 6.32854 5.70469
#
# Compressibility (1/GPa) = 0.01855774
#
# Stress axis : x y z
#
# Youngs Moduli (GPa) = 94.65378 87.90211 112.19249
#
# Poissons Ratio (x) = 0.11018 0.31944
# Poissons Ratio (y) = 0.11865 0.22972
# Poissons Ratio (z) = 0.26950 0.17999
#
# Static dielectric constant tensor:
#      x y z
#    x 1.870770 0.000000 0.000000 
#    y 0.000000 1.797870 0.000000 
#    z 0.000000 0.000000 1.782620 
# 
# From -- ./inp_files/9632.got.cif
#   From: 2010.05.17/outbox.cif.g08.bks.cpg/sg51_5_cif.got.tgz:9632.got - 2010.06.03 11:52:47.
