data_PCOD9406865
_publ_section_title
;
Structure prediction by ZEFSAII (Michael W. Deem and Ramdas Pophale) SiO2 
 PCOD9406865
Probable space group: P M M A
;
_chemical_formula_sum "Si O2"
_cell_formula_units_Z 38
_cell_length_a 9.432577
_cell_length_b 9.980642
_cell_length_c 22.809903
_cell_angle_alpha 90.000000
_cell_angle_beta 90.000000
_cell_angle_gamma 90.000000
_cell_volume 2147.396671
_symmetry_space_group_name_H-M "P M M A"
_symmetry_group_IT_number 51
_symmetry_cell_setting 'orthorhombic'
loop_
_space_group_symop_operation_xyz
x,y,z
1/2-x,-y,z
1/2+x,-y,-z
-x,y,-z
-x,-y,-z
1/2+x,y,-z
1/2-x,y,z
x,-y,z
loop_
_atom_site_type_symbol
_atom_site_label
_atom_site_fract_x
_atom_site_fract_y
_atom_site_fract_z
Si Si1 0.917531 0.157023 0.331286
Si Si2 0.000000 0.788783 0.000000
Si Si3 0.580774 0.343036 0.440507
Si Si4 0.916207 0.343236 0.120443
Si Si5 0.250000 0.000000 0.025687
Si Si6 0.418673 0.842882 0.210489
O O1 0.750000 0.179536 0.318614
O O2 0.958727 0.250920 0.385498
O O3 0.009323 0.182853 0.273445
O O4 0.934054 0.000000 0.346785
O O5 0.945946 0.699792 0.053928
O O6 0.126137 0.883414 0.022735
O O7 0.500000 0.305640 0.500000
O O8 0.750000 0.329660 0.449399
O O9 0.550753 0.500000 0.428314
O O10 0.750000 0.319828 0.133344
O O11 0.946849 0.500000 0.129031
O O12 0.009868 0.251521 0.162764
O O13 0.250000 0.823151 0.213073
O O14 0.444186 0.000000 0.195626
#
# Coordination Sequence:
#
# PCOD9406865 Si02
#       6
#     8   4   8   8   2   8
#     4   9  18  35  55  78 108 144 183 226 277 329
#     4  11  23  42  62  92 118 150 188 238 280 340
#     4   9  18  32  51  76 106 142 181 222 269 326
#     4  11  25  42  60  84 118 154 188 229 284 339
#     4  10  24  38  66  94 116 146 194 230 282 338
#     4  10  23  39  60  85 113 146 189 237 282 335
#
# _framework density 17.695846
#
# number of rings (size 3 to 8) (size 9 to 14) (size 15 to 20)
#    0.000    2.105    1.053    0.947    4.421    3.789 
#    0.000    2.105    0.000    0.000    0.000    0.000 
#    0.000    0.000    0.000    0.000    0.000    0.000 
#
# Total GULP energy -211614.669990 kJ/mol
# GULP energy per Si atom -5568.807105 kJ/mol
# Density = 1.765557 g / cm^3
# Si number density = 17.695846 Si / 1000 Ang^3
#
#
#
# Elastic Constant Matrix: (Units=GPa)
#
#
# Indices 1 2 3 4 5 6 
#
# 1 79.1644 66.0387 52.1313 0.0000 0.0000 0.0000
# 2 66.0387 98.2132 91.7080 0.0000 0.0000 0.0000
# 3 52.1313 91.7080 125.9843 0.0000 0.0000 0.0000
# 4 0.0000 0.0000 0.0000 -2.4527 0.0000 0.0000
# 5 0.0000 0.0000 0.0000 0.0000 24.0402 0.0000
# 6 0.0000 0.0000 0.0000 0.0000 0.0000 24.7790
#
#
#
# Elastic Compliance Matrix: (Units=1/GPa)
#
#
# Indices 1 2 3 4 5 6 
#
# 1 0.030762 -0.027471 0.007268 0.000000 0.000000 0.000000
# 2 -0.027471 0.056322 -0.029632 0.000000 0.000000 0.000000
# 3 0.007268 -0.029632 0.026500 0.000000 0.000000 0.000000
# 4 0.000000 0.000000 0.000000 -0.407718 0.000000 0.000000
# 5 0.000000 0.000000 0.000000 0.000000 0.041597 0.000000
# 6 0.000000 0.000000 0.000000 0.000000 0.000000 0.040357
#
#
# Mechanical properties :
#
#
# Convention : Reuss Voigt Hill
#
# Bulk Modulus (GPa) = 71.86485 80.34644 76.10565
# Shear Modulus (GPa) = -46.35098 15.50556 -15.42271
#
# Velocity S-wave (km/s) = -5.12348 2.96332 -2.95540
# Velocity P-wave (km/s) = 2.38732 7.56380 5.60849
#
# Compressibility (1/GPa) = 0.01391501
#
# Stress axis : x y z
#
# Youngs Moduli (GPa) = 32.50758 17.75498 37.73608
#
# Poissons Ratio (x) = 0.48775 -0.27426
# Poissons Ratio (y) = 0.89301 1.11818
# Poissons Ratio (z) = -0.23626 0.52611
#
# Static dielectric constant tensor:
#      x y z
#    x 1.588760 0.000000 0.000000 
#    y 0.000000 1.585970 0.000000 
#    z 0.000000 0.000000 1.578910 
# 
# From -- ./inp_files/34349.got.cif
#   From: 2010.05.17/outbox.cif.g08.bks.cpg/sg51_18_cif.got.tgz:34349.got - 2010.06.03 11:52:47.
