data_PCOD9406498
_publ_section_title
;
Structure prediction by ZEFSAII (Michael W. Deem and Ramdas Pophale) SiO2 
 PCOD9406498
Probable space group: P M M A
;
_chemical_formula_sum "Si O2"
_cell_formula_units_Z 48
_cell_length_a 17.083538
_cell_length_b 7.668439
_cell_length_c 14.137445
_cell_angle_alpha 90.000000
_cell_angle_beta 90.000000
_cell_angle_gamma 90.000000
_cell_volume 1852.062821
_symmetry_space_group_name_H-M "P M M A"
_symmetry_group_IT_number 51
_symmetry_cell_setting 'orthorhombic'
loop_
_space_group_symop_operation_xyz
x,y,z
1/2-x,-y,z
1/2+x,-y,-z
-x,y,-z
-x,-y,-z
1/2+x,y,-z
1/2-x,y,z
x,-y,z
loop_
_atom_site_type_symbol
_atom_site_label
_atom_site_fract_x
_atom_site_fract_y
_atom_site_fract_z
Si Si1 0.250000 0.287630 0.224912
Si Si2 0.250000 0.285583 0.445631
Si Si3 0.090531 0.295220 0.124893
Si Si4 0.836441 0.209469 0.061152
Si Si5 0.083011 0.299775 0.470398
Si Si6 0.335203 0.212653 0.719431
Si Si7 0.495591 0.202092 0.297498
O O1 0.250000 0.500000 0.221500
O O2 0.250000 0.236060 0.334921
O O3 0.171583 0.226730 0.171518
O O4 0.250000 0.500000 0.449637
O O5 0.168167 0.221511 0.489871
O O6 0.085312 0.500000 0.141395
O O7 0.020757 0.214916 0.185901
O O8 0.098770 0.266384 0.013360
O O9 0.750000 0.270707 0.027708
O O10 0.841773 0.264578 0.170059
O O11 0.836312 0.000000 0.061932
O O12 0.083641 0.500000 0.501594
O O13 0.070984 0.299456 0.356307
O O14 0.000000 0.217213 0.500000
O O15 0.250000 0.274179 0.684782
O O16 0.417734 0.269958 0.676365
O O17 0.335069 0.000000 0.716046
O O18 0.490525 0.000000 0.322137
#
# Coordination Sequence:
#
# PCOD9406498 Si02
#       7
#     4   4   8   8   8   8   8
#     4   9  16  28  50  74 103 144 183 213 258 330
#     4   9  16  34  60  82 107 148 183 209 264 336
#     4  11  20  32  51  78 112 148 185 225 280 333
#     4   9  17  31  52  77 104 140 192 240 271 317
#     4  10  21  39  62  86 115 148 181 221 276 341
#     4   8  17  36  57  74 102 149 193 228 277 337
#     4  11  22  36  57  83 110 141 183 234 280 326
#
# _framework density 25.917048000000001
#
# number of rings (size 3 to 8) (size 9 to 14) (size 15 to 20)
#    0.000    2.333    2.500    2.000    0.000    1.000 
#    1.500    6.250    0.000    3.500    0.000    0.000 
#    0.000    0.000    0.000    0.000    0.000    0.000 
#
# Total GULP energy -268404.927592 kJ/mol
# GULP energy per Si atom -5591.769325 kJ/mol
# Density = 2.585806 g / cm^3
# Si number density = 25.917048 Si / 1000 Ang^3
#
#
#
# Elastic Constant Matrix: (Units=GPa)
#
#
# Indices 1 2 3 4 5 6 
#
# 1 205.6356 8.7070 33.6664 0.0000 0.0000 0.0000
# 2 8.7070 75.4962 13.1641 0.0000 0.0000 0.0000
# 3 33.6664 13.1641 75.8399 0.0000 0.0000 0.0000
# 4 0.0000 0.0000 0.0000 187.1914 0.0000 0.0000
# 5 0.0000 0.0000 0.0000 0.0000 49.8092 0.0000
# 6 0.0000 0.0000 0.0000 0.0000 0.0000 9.7126
#
#
#
# Elastic Compliance Matrix: (Units=1/GPa)
#
#
# Indices 1 2 3 4 5 6 
#
# 1 0.005247 -0.000205 -0.002294 0.000000 0.000000 0.000000
# 2 -0.000205 0.013667 -0.002281 0.000000 0.000000 0.000000
# 3 -0.002294 -0.002281 0.014600 0.000000 0.000000 0.000000
# 4 0.000000 0.000000 0.000000 0.005342 0.000000 0.000000
# 5 0.000000 0.000000 0.000000 0.000000 0.020077 0.000000
# 6 0.000000 0.000000 0.000000 0.000000 0.000000 0.102959
#
#
# Mechanical properties :
#
#
# Convention : Reuss Voigt Hill
#
# Bulk Modulus (GPa) = 41.74679 52.00520 46.87600
# Shear Modulus (GPa) = 27.86501 69.43826 48.65164
#
# Velocity S-wave (km/s) = 3.28252 5.18176 4.33737
# Velocity P-wave (km/s) = 5.52353 7.47733 6.57343
#
# Compressibility (1/GPa) = 0.02395394
#
# Stress axis : x y z
#
# Youngs Moduli (GPa) = 190.57862 73.16824 68.49397
#
# Poissons Ratio (x) = 0.01502 0.15710
# Poissons Ratio (y) = 0.03911 0.15625
# Poissons Ratio (z) = 0.43713 0.16691
#
# Static dielectric constant tensor:
#      x y z
#    x 2.061770 0.000000 0.000000 
#    y 0.000000 1.922010 0.000000 
#    z 0.000000 0.000000 2.104570 
# 
# From -- ./inp_files/24846.got.cif
#   From: 2010.05.17/outbox.cif.g08.bks.cpg/sg51_13_cif.got.tgz:24846.got - 2010.06.03 11:52:47.
