data_PCOD9406046
_publ_section_title
;
Structure prediction by ZEFSAII (Michael W. Deem and Ramdas Pophale) SiO2 
 PCOD9406046
Probable space group: P M M A
;
_chemical_formula_sum "Si O2"
_cell_formula_units_Z 48
_cell_length_a 8.823873
_cell_length_b 31.153274
_cell_length_c 9.625593
_cell_angle_alpha 90.000000
_cell_angle_beta 90.000000
_cell_angle_gamma 90.000000
_cell_volume 2646.003644
_symmetry_space_group_name_H-M "P M M A"
_symmetry_group_IT_number 51
_symmetry_cell_setting 'orthorhombic'
loop_
_space_group_symop_operation_xyz
x,y,z
1/2-x,-y,z
1/2+x,-y,-z
-x,y,-z
-x,-y,-z
1/2+x,y,-z
1/2-x,y,z
x,-y,z
loop_
_atom_site_type_symbol
_atom_site_label
_atom_site_fract_x
_atom_site_fract_y
_atom_site_fract_z
Si Si1 0.432433 0.873769 0.653087
Si Si2 0.930772 0.379693 0.651693
Si Si3 0.431572 0.719687 0.346620
Si Si4 0.067207 0.049393 0.849764
Si Si5 0.932147 0.792625 0.153992
Si Si6 0.568821 0.451899 0.153589
O O1 0.500000 0.869616 0.500000
O O2 0.250000 0.874290 0.641498
O O3 0.481210 0.917376 0.731335
O O4 0.473650 0.833963 0.752418
O O5 0.750000 0.384344 0.647087
O O6 0.964643 0.330084 0.689527
O O7 0.000000 0.386842 0.500000
O O8 0.000773 0.414199 0.754680
O O9 0.500000 0.728131 0.500000
O O10 0.250000 0.725254 0.352048
O O11 0.503634 0.751408 0.234845
O O12 0.250000 0.051140 0.859257
O O13 0.023221 0.000000 0.820291
O O14 0.000000 0.061287 0.000000
O O15 0.750000 0.790370 0.145550
O O16 0.000000 0.795949 0.000000
O O17 0.750000 0.448039 0.146809
O O18 0.532539 0.500000 0.208095
O O19 0.500000 0.449079 0.000000
#
# Coordination Sequence:
#
# PCOD9406046 Si02
#       6
#     8   8   8   8   8   8
#     4  10  22  37  54  79 109 142 180 222 269 321
#     4  10  21  37  58  83 111 144 181 223 270 321
#     4  10  21  38  59  83 111 143 180 222 270 323
#     4   9  18  34  55  79 108 141 178 221 268 318
#     4  11  23  38  57  81 109 142 181 225 272 323
#     4  10  21  37  57  81 110 145 184 226 272 322
#
# _framework density 18.140564000000001
#
# number of rings (size 3 to 8) (size 9 to 14) (size 15 to 20)
#    0.000    2.000    0.000    3.000    0.000    7.667 
#    0.000    0.000    0.000    0.000    0.000    0.000 
#    0.000    0.000    0.000    0.000    0.000    0.000 
#
# Total GULP energy -268086.581214 kJ/mol
# GULP energy per Si atom -5585.137109 kJ/mol
# Density = 1.809928 g / cm^3
# Si number density = 18.140564 Si / 1000 Ang^3
#
#
#
# Elastic Constant Matrix: (Units=GPa)
#
#
# Indices 1 2 3 4 5 6 
#
# 1 53.5035 62.3530 59.4310 0.0000 0.0000 0.0000
# 2 62.3530 140.4128 121.1945 0.0000 0.0000 0.0000
# 3 59.4310 121.1945 162.2098 0.0000 0.0000 0.0000
# 4 0.0000 0.0000 0.0000 42.5021 0.0000 0.0000
# 5 0.0000 0.0000 0.0000 0.0000 39.8887 0.0000
# 6 0.0000 0.0000 0.0000 0.0000 0.0000 32.3750
#
#
#
# Elastic Compliance Matrix: (Units=1/GPa)
#
#
# Indices 1 2 3 4 5 6 
#
# 1 0.039576 -0.014246 -0.003856 0.000000 0.000000 0.000000
# 2 -0.014246 0.025183 -0.013596 0.000000 0.000000 0.000000
# 3 -0.003856 -0.013596 0.017736 0.000000 0.000000 0.000000
# 4 0.000000 0.000000 0.000000 0.023528 0.000000 0.000000
# 5 0.000000 0.000000 0.000000 0.000000 0.025070 0.000000
# 6 0.000000 0.000000 0.000000 0.000000 0.000000 0.030888
#
#
# Mechanical properties :
#
#
# Convention : Reuss Voigt Hill
#
# Bulk Modulus (GPa) = 52.35949 93.56479 72.96214
# Shear Modulus (GPa) = 21.57548 30.49635 26.03591
#
# Velocity S-wave (km/s) = 3.45244 4.10459 3.79256
# Velocity P-wave (km/s) = 6.69465 8.61122 7.71270
#
# Compressibility (1/GPa) = 0.01909874
#
# Stress axis : x y z
#
# Youngs Moduli (GPa) = 25.26764 39.70872 56.38310
#
# Poissons Ratio (x) = 0.56571 0.21741
# Poissons Ratio (y) = 0.35997 0.76658
# Poissons Ratio (z) = 0.09743 0.53988
#
# Static dielectric constant tensor:
#      x y z
#    x 1.605840 0.000000 0.000000 
#    y 0.000000 1.630260 0.000000 
#    z 0.000000 0.000000 1.571780 
# 
# From -- ./inp_files/5960.got.cif
#   From: 2010.05.17/outbox.cif.g08.bks.cpg/sg51_3_cif.got.tgz:5960.got - 2010.06.03 11:52:47.
