data_PCOD9406155
_publ_section_title
;
Structure prediction by ZEFSAII (Michael W. Deem and Ramdas Pophale) SiO2 
 PCOD9406155
Probable space group: P M M A
;
_chemical_formula_sum "Si O2"
_cell_formula_units_Z 30
_cell_length_a 15.032672
_cell_length_b 7.929857
_cell_length_c 12.957380
_cell_angle_alpha 90.000000
_cell_angle_beta 90.000000
_cell_angle_gamma 90.000000
_cell_volume 1544.609611
_symmetry_space_group_name_H-M "P M M A"
_symmetry_group_IT_number 51
_symmetry_cell_setting 'orthorhombic'
loop_
_space_group_symop_operation_xyz
x,y,z
1/2-x,-y,z
1/2+x,-y,-z
-x,y,-z
-x,-y,-z
1/2+x,y,-z
1/2-x,y,z
x,-y,z
loop_
_atom_site_type_symbol
_atom_site_label
_atom_site_fract_x
_atom_site_fract_y
_atom_site_fract_z
Si Si1 0.250000 0.307750 0.390769
Si Si2 0.346192 0.500000 0.917638
Si Si3 0.431040 0.807627 0.291710
Si Si4 0.098698 0.186674 0.048103
Si Si5 0.939264 0.500000 0.294131
Si Si6 0.250000 0.500000 0.591770
O O1 0.250000 0.500000 0.346015
O O2 0.160416 0.219431 0.353375
O O3 0.250000 0.340735 0.513198
O O4 0.250000 0.500000 0.865700
O O5 0.420523 0.500000 0.829110
O O6 0.353729 0.663121 0.989404
O O7 0.408280 0.785000 0.170352
O O8 0.502928 0.665553 0.320769
O O9 0.463433 0.000000 0.305185
O O10 0.137855 0.000000 0.031019
O O11 0.000000 0.184638 0.000000
O O12 0.842981 0.500000 0.347757
#
# Coordination Sequence:
#
# PCOD9406155 Si02
#       6
#     4   4   8   8   4   2
#     4  10  23  43  67  92 121 164 202 266 325 374
#     4  12  24  34  58  90 128 174 211 244 296 372
#     4  11  23  40  67  98 130 166 206 255 314 380
#     4  10  21  37  58  90 129 165 204 247 294 363
#     4  12  22  44  65  91 127 167 214 261 318 367
#     4  10  26  46  70  88 122 166 208 280 326 366
#
# _framework density 19.422384000000001
#
# number of rings (size 3 to 8) (size 9 to 14) (size 15 to 20)
#    0.400    0.800    4.667    1.600    1.867    2.667 
#    0.000    4.667    0.000    0.000    0.000    0.000 
#    0.000    0.000    0.000    0.000    0.000    0.000 
#
# Total GULP energy -167476.976917 kJ/mol
# GULP energy per Si atom -5582.565897 kJ/mol
# Density = 1.937818 g / cm^3
# Si number density = 19.422384 Si / 1000 Ang^3
#
#
#
# Elastic Constant Matrix: (Units=GPa)
#
#
# Indices 1 2 3 4 5 6 
#
# 1 131.7775 78.2218 44.3833 0.0000 0.0000 0.0000
# 2 78.2218 143.4413 48.3998 0.0000 0.0000 0.0000
# 3 44.3833 48.3998 83.4271 0.0000 0.0000 0.0000
# 4 0.0000 0.0000 0.0000 59.8411 0.0000 0.0000
# 5 0.0000 0.0000 0.0000 0.0000 28.8250 0.0000
# 6 0.0000 0.0000 0.0000 0.0000 0.0000 96.9594
#
#
#
# Elastic Compliance Matrix: (Units=1/GPa)
#
#
# Indices 1 2 3 4 5 6 
#
# 1 0.011863 -0.005396 -0.003181 0.000000 0.000000 0.000000
# 2 -0.005396 0.011123 -0.003582 0.000000 0.000000 0.000000
# 3 -0.003181 -0.003582 0.015757 0.000000 0.000000 0.000000
# 4 0.000000 0.000000 0.000000 0.016711 0.000000 0.000000
# 5 0.000000 0.000000 0.000000 0.000000 0.034692 0.000000
# 6 0.000000 0.000000 0.000000 0.000000 0.000000 0.010314
#
#
# Mechanical properties :
#
#
# Convention : Reuss Voigt Hill
#
# Bulk Modulus (GPa) = 69.32439 77.85063 73.58751
# Shear Modulus (GPa) = 38.58493 49.63447 44.10970
#
# Velocity S-wave (km/s) = 4.46199 5.06071 4.77075
# Velocity P-wave (km/s) = 7.89407 8.62077 8.26541
#
# Compressibility (1/GPa) = 0.01442494
#
# Stress axis : x y z
#
# Youngs Moduli (GPa) = 84.29795 89.90670 63.46475
#
# Poissons Ratio (x) = 0.48512 0.20186
# Poissons Ratio (y) = 0.45485 0.22734
# Poissons Ratio (z) = 0.26812 0.32206
#
# Static dielectric constant tensor:
#      x y z
#    x 1.660670 0.000000 0.000000 
#    y 0.000000 1.689190 0.000000 
#    z 0.000000 0.000000 1.655610 
# 
# From -- ./inp_files/15865.got.cif
#   From: 2010.05.17/outbox.cif.g08.bks.cpg/sg51_8_cif.got.tgz:15865.got - 2010.06.03 11:52:47.
