data_PCOD9406533
_publ_section_title
;
Structure prediction by ZEFSAII (Michael W. Deem and Ramdas Pophale) SiO2 
 PCOD9406533
Probable space group: P M M A
;
_chemical_formula_sum "Si O2"
_cell_formula_units_Z 48
_cell_length_a 16.165721
_cell_length_b 8.242662
_cell_length_c 17.231641
_cell_angle_alpha 90.000000
_cell_angle_beta 90.000000
_cell_angle_gamma 90.000000
_cell_volume 2296.091594
_symmetry_space_group_name_H-M "P M M A"
_symmetry_group_IT_number 51
_symmetry_cell_setting 'orthorhombic'
loop_
_space_group_symop_operation_xyz
x,y,z
1/2-x,-y,z
1/2+x,-y,-z
-x,y,-z
-x,-y,-z
1/2+x,y,-z
1/2-x,y,z
x,-y,z
loop_
_atom_site_type_symbol
_atom_site_label
_atom_site_fract_x
_atom_site_fract_y
_atom_site_fract_z
Si Si1 0.065624 0.687799 0.657587
Si Si2 0.346318 0.193578 0.507488
Si Si3 0.505470 0.193980 0.087548
Si Si4 0.159859 0.690671 0.169639
Si Si5 0.343286 0.803388 0.805341
Si Si6 0.385824 0.188524 0.333551
O O1 0.043317 0.500000 0.667696
O O2 0.098206 0.719829 0.571243
O O3 0.134288 0.737106 0.720350
O O4 0.984545 0.794193 0.673115
O O5 0.250000 0.216899 0.526285
O O6 0.361936 0.247998 0.419272
O O7 0.364337 0.000000 0.510501
O O8 0.419692 0.228052 0.131171
O O9 0.584535 0.254813 0.136408
O O10 0.515914 0.000000 0.082803
O O11 0.500000 0.259268 0.000000
O O12 0.250000 0.753402 0.143332
O O13 0.155829 0.500000 0.153014
O O14 0.153130 0.717746 0.261904
O O15 0.250000 0.756542 0.828078
O O16 0.346270 0.000000 0.802050
O O17 0.361187 0.000000 0.327782
#
# Coordination Sequence:
#
# PCOD9406533 Si02
#       6
#     8   8   8   8   8   8
#     4  12  24  37  57  87 122 161 205 254 310 367
#     4  10  22  39  58  83 116 157 207 258 306 361
#     4  10  22  41  67  97 126 161 207 257 308 367
#     4  11  24  41  63  94 131 169 206 251 312 375
#     4  10  21  39  63  90 123 164 207 254 308 366
#     4  11  22  39  63  88 117 160 212 260 308 361
#
# _framework density 20.905090999999999
#
# number of rings (size 3 to 8) (size 9 to 14) (size 15 to 20)
#    0.000    1.333    1.667    4.000    0.000    9.000 
#    0.000    1.667    0.000    0.000    0.000    0.000 
#    0.000    0.000    0.000    0.000    0.000    0.000 
#
# Total GULP energy -268391.551003 kJ/mol
# GULP energy per Si atom -5591.490646 kJ/mol
# Density = 2.085751 g / cm^3
# Si number density = 20.905091 Si / 1000 Ang^3
#
#
#
# Elastic Constant Matrix: (Units=GPa)
#
#
# Indices 1 2 3 4 5 6 
#
# 1 111.3410 -4.3737 32.6351 0.0000 0.0000 0.0000
# 2 -4.3737 13.4956 -2.8566 0.0000 0.0000 0.0000
# 3 32.6351 -2.8566 94.6758 0.0000 0.0000 0.0000
# 4 0.0000 0.0000 0.0000 89.8178 0.0000 0.0000
# 5 0.0000 0.0000 0.0000 0.0000 5.5733 0.0000
# 6 0.0000 0.0000 0.0000 0.0000 0.0000 -503.1175
#
#
#
# Elastic Compliance Matrix: (Units=1/GPa)
#
#
# Indices 1 2 3 4 5 6 
#
# 1 0.010077 0.002547 -0.003397 0.000000 0.000000 0.000000
# 2 0.002547 0.075218 0.001392 0.000000 0.000000 0.000000
# 3 -0.003397 0.001392 0.011775 0.000000 0.000000 0.000000
# 4 0.000000 0.000000 0.000000 0.011134 0.000000 0.000000
# 5 0.000000 0.000000 0.000000 0.000000 0.179428 0.000000
# 6 0.000000 0.000000 0.000000 0.000000 0.000000 -0.001988
#
#
# Mechanical properties :
#
#
# Convention : Reuss Voigt Hill
#
# Bulk Modulus (GPa) = 10.18807 30.03580 20.11193
# Shear Modulus (GPa) = 15.75900 -68.60478 -26.42289
#
# Velocity S-wave (km/s) = 2.74859 -5.73485 -3.55906
# Velocity P-wave (km/s) = 3.86743 5.42701 2.69216
#
# Compressibility (1/GPa) = 0.09815403
#
# Stress axis : x y z
#
# Youngs Moduli (GPa) = 99.23507 13.29461 84.92410
#
# Poissons Ratio (x) = -0.03386 0.28847
# Poissons Ratio (y) = -0.25273 -0.11818
# Poissons Ratio (z) = 0.33708 -0.01850
#
# Static dielectric constant tensor:
#      x y z
#    x 1.752430 0.000000 0.000000 
#    y 0.000000 1.728350 0.000000 
#    z 0.000000 0.000000 1.732550 
# 
# From -- ./inp_files/24827.got.cif
#   From: 2010.05.17/outbox.cif.g08.bks.cpg/sg51_13_cif.got.tgz:24827.got - 2010.06.03 11:52:47.
