data_PCOD9406429
_publ_section_title
;
Structure prediction by ZEFSAII (Michael W. Deem and Ramdas Pophale) SiO2 
 PCOD9406429
Probable space group: P M M A
;
_chemical_formula_sum "Si O2"
_cell_formula_units_Z 48
_cell_length_a 17.679659
_cell_length_b 14.373729
_cell_length_c 10.237802
_cell_angle_alpha 90.000000
_cell_angle_beta 90.000000
_cell_angle_gamma 90.000000
_cell_volume 2601.657142
_symmetry_space_group_name_H-M "P M M A"
_symmetry_group_IT_number 51
_symmetry_cell_setting 'orthorhombic'
loop_
_space_group_symop_operation_xyz
x,y,z
1/2-x,-y,z
1/2+x,-y,-z
-x,y,-z
-x,-y,-z
1/2+x,y,-z
1/2-x,y,z
x,-y,z
loop_
_atom_site_type_symbol
_atom_site_label
_atom_site_fract_x
_atom_site_fract_y
_atom_site_fract_z
Si Si1 0.336839 0.277522 0.012450
Si Si2 0.664297 0.109015 0.800971
Si Si3 0.010938 0.891723 0.345847
Si Si4 0.839627 0.389333 0.463556
Si Si5 0.097418 0.610761 0.248525
Si Si6 0.063677 0.711937 0.757379
O O1 0.250000 0.285661 0.969319
O O2 0.348707 0.175539 0.075620
O O3 0.353169 0.346998 0.131979
O O4 0.392602 0.295691 0.893431
O O5 0.750000 0.128524 0.752450
O O6 0.597714 0.126415 0.697427
O O7 0.660924 0.000000 0.835744
O O8 0.000000 0.877689 0.500000
O O9 0.958472 0.818573 0.271591
O O10 0.994175 0.000000 0.315971
O O11 0.750000 0.373621 0.452794
O O12 0.853877 0.500000 0.442047
O O13 0.867260 0.367008 0.610018
O O14 0.885548 0.330018 0.358497
O O15 0.093090 0.500000 0.236912
O O16 0.014587 0.655385 0.239272
#
# Coordination Sequence:
#
# PCOD9406429 Si02
#       6
#     8   8   8   8   8   8
#     4  11  24  40  58  86 121 157 200 246 298 359
#     4   9  19  38  63  87 115 156 203 247 292 351
#     4  10  21  38  61  92 125 157 197 246 301 361
#     4  10  22  41  64  88 116 156 204 250 301 359
#     4  11  23  40  62  87 117 156 203 252 300 357
#     4  12  23  38  60  92 123 158 194 249 307 359
#
# _framework density 18.449780000000001
#
# number of rings (size 3 to 8) (size 9 to 14) (size 15 to 20)
#    0.000    1.500    1.667    3.500    0.000    5.000 
#    0.000    2.500    0.000    2.500    0.000    0.000 
#    0.000    0.000    0.000    0.000    0.000    0.000 
#
# Total GULP energy -268208.750590 kJ/mol
# GULP energy per Si atom -5587.682304 kJ/mol
# Density = 1.840779 g / cm^3
# Si number density = 18.449780 Si / 1000 Ang^3
#
#
#
# Elastic Constant Matrix: (Units=GPa)
#
#
# Indices 1 2 3 4 5 6 
#
# 1 84.3973 34.5200 29.2674 0.0000 0.0000 0.0000
# 2 34.5200 69.8594 35.1139 0.0000 0.0000 0.0000
# 3 29.2674 35.1139 72.8885 0.0000 0.0000 0.0000
# 4 0.0000 0.0000 0.0000 229.8089 0.0000 0.0000
# 5 0.0000 0.0000 0.0000 0.0000 88.5693 0.0000
# 6 0.0000 0.0000 0.0000 0.0000 0.0000 31.6395
#
#
#
# Elastic Compliance Matrix: (Units=1/GPa)
#
#
# Indices 1 2 3 4 5 6 
#
# 1 0.015439 -0.005955 -0.003331 0.000000 0.000000 0.000000
# 2 -0.005955 0.021185 -0.007815 0.000000 0.000000 0.000000
# 3 -0.003331 -0.007815 0.018822 0.000000 0.000000 0.000000
# 4 0.000000 0.000000 0.000000 0.004351 0.000000 0.000000
# 5 0.000000 0.000000 0.000000 0.000000 0.011291 0.000000
# 6 0.000000 0.000000 0.000000 0.000000 0.000000 0.031606
#
#
# Mechanical properties :
#
#
# Convention : Reuss Voigt Hill
#
# Bulk Modulus (GPa) = 47.06913 47.21643 47.14278
# Shear Modulus (GPa) = 34.72781 78.55314 56.64047
#
# Velocity S-wave (km/s) = 4.34324 6.53216 5.54675
# Velocity P-wave (km/s) = 7.12173 9.08513 8.16268
#
# Compressibility (1/GPa) = 0.02124535
#
# Stress axis : x y z
#
# Youngs Moduli (GPa) = 64.76911 47.20315 53.13021
#
# Poissons Ratio (x) = 0.28110 0.17696
# Poissons Ratio (y) = 0.38571 0.41520
# Poissons Ratio (z) = 0.21572 0.36888
#
# Static dielectric constant tensor:
#      x y z
#    x 1.621420 0.000000 0.000000 
#    y 0.000000 1.644000 0.000000 
#    z 0.000000 0.000000 1.591470 
# 
# From -- ./inp_files/9555.got.cif
#   From: 2010.05.17/outbox.cif.g08.bks.cpg/sg51_5_cif.got.tgz:9555.got - 2010.06.03 11:52:47.
