data_PCOD9406371
_publ_section_title
;
Structure prediction by ZEFSAII (Michael W. Deem and Ramdas Pophale) SiO2 
 PCOD9406371
Probable space group: P M M A
;
_chemical_formula_sum "Si O2"
_cell_formula_units_Z 40
_cell_length_a 9.534023
_cell_length_b 7.638616
_cell_length_c 26.293096
_cell_angle_alpha 90.000000
_cell_angle_beta 90.000000
_cell_angle_gamma 90.000000
_cell_volume 1914.840483
_symmetry_space_group_name_H-M "P M M A"
_symmetry_group_IT_number 51
_symmetry_cell_setting 'orthorhombic'
loop_
_space_group_symop_operation_xyz
x,y,z
1/2-x,-y,z
1/2+x,-y,-z
-x,y,-z
-x,-y,-z
1/2+x,y,-z
1/2-x,y,z
x,-y,z
loop_
_atom_site_type_symbol
_atom_site_label
_atom_site_fract_x
_atom_site_fract_y
_atom_site_fract_z
Si Si1 0.088876 0.713498 0.645311
Si Si2 0.089076 0.285709 0.450975
Si Si3 0.589696 0.711404 0.239800
Si Si4 0.091519 0.206122 0.142567
Si Si5 0.407707 0.706702 0.953907
O O1 0.250000 0.764679 0.634711
O O2 0.086457 0.500000 0.645279
O O3 0.053455 0.769381 0.702806
O O4 0.985760 0.772298 0.600973
O O5 0.250000 0.229487 0.454098
O O6 0.088696 0.500000 0.450810
O O7 0.000000 0.230705 0.500000
O O8 0.750000 0.769317 0.228487
O O9 0.591802 0.500000 0.240061
O O10 0.481293 0.766790 0.196968
O O11 0.250000 0.278894 0.140909
O O12 0.991519 0.278049 0.098594
O O13 0.100314 0.000000 0.133380
O O14 0.250000 0.780158 0.950758
O O15 0.393120 0.500000 0.964173
O O16 0.500000 0.782643 0.000000
#
# Coordination Sequence:
#
# PCOD9406371 Si02
#       5
#     8   8   8   8   8
#     4   8  14  25  40  59  85 116 152 196 244 294
#     4   9  15  21  31  50  79 116 155 193 237 290
#     4   9  18  33  53  75  98 128 168 212 257 304
#     4  11  24  38  52  75 107 140 173 209 250 296
#     4  10  21  38  61  86 109 135 169 207 248 296
#
# _framework density 20.889468000000001
#
# number of rings (size 3 to 8) (size 9 to 14) (size 15 to 20)
#    0.000    2.600    0.000    3.600    0.000    9.200 
#    0.000    2.000    0.000    0.000    0.000    0.000 
#    0.000    0.800    0.000    2.600    0.000    5.800 
#
# Total GULP energy -223337.966316 kJ/mol
# GULP energy per Si atom -5583.449158 kJ/mol
# Density = 2.084192 g / cm^3
# Si number density = 20.889468 Si / 1000 Ang^3
#
#
#
# Elastic Constant Matrix: (Units=GPa)
#
#
# Indices 1 2 3 4 5 6 
#
# 1 209.0807 4.6792 132.0931 0.0000 0.0000 0.0000
# 2 4.6792 38.8991 -5.8134 0.0000 0.0000 0.0000
# 3 132.0931 -5.8134 157.8562 0.0000 0.0000 0.0000
# 4 0.0000 0.0000 0.0000 3084.8938 0.0000 0.0000
# 5 0.0000 0.0000 0.0000 0.0000 42.2758 0.0000
# 6 0.0000 0.0000 0.0000 0.0000 0.0000 -30.9139
#
#
#
# Elastic Compliance Matrix: (Units=1/GPa)
#
#
# Indices 1 2 3 4 5 6 
#
# 1 0.010396 -0.002565 -0.008794 0.000000 0.000000 0.000000
# 2 -0.002565 0.026483 0.003121 0.000000 0.000000 0.000000
# 3 -0.008794 0.003121 0.013808 0.000000 0.000000 0.000000
# 4 0.000000 0.000000 0.000000 0.000324 0.000000 0.000000
# 5 0.000000 0.000000 0.000000 0.000000 0.023654 0.000000
# 6 0.000000 0.000000 0.000000 0.000000 0.000000 -0.032348
#
#
# Mechanical properties :
#
#
# Convention : Reuss Voigt Hill
#
# Bulk Modulus (GPa) = 29.22883 74.19486 51.71185
# Shear Modulus (GPa) = 71.22969 637.57631 354.40300
#
# Velocity S-wave (km/s) = 5.84572 17.48933 13.03935
# Velocity P-wave (km/s) = 7.71918 21.05779 15.85901
#
# Compressibility (1/GPa) = 0.03421280
#
# Stress axis : x y z
#
# Youngs Moduli (GPa) = 96.19155 37.76076 72.41997
#
# Poissons Ratio (x) = 0.09685 0.63684
# Poissons Ratio (y) = 0.24671 -0.22606
# Poissons Ratio (z) = 0.84588 -0.11787
#
# Static dielectric constant tensor:
#      x y z
#    x 1.732700 0.000000 0.000000 
#    y 0.000000 1.777460 0.000000 
#    z 0.000000 0.000000 1.712360 
# 
# From -- ./inp_files/34290.got.cif
#   From: 2010.05.17/outbox.cif.g08.bks.cpg/sg51_18_cif.got.tgz:34290.got - 2010.06.03 11:52:47.
