data_PCOD9406918
_publ_section_title
;
Structure prediction by ZEFSAII (Michael W. Deem and Ramdas Pophale) SiO2 
 PCOD9406918
Probable space group: P M M A
;
_chemical_formula_sum "Si O2"
_cell_formula_units_Z 48
_cell_length_a 10.112457
_cell_length_b 9.299489
_cell_length_c 30.299226
_cell_angle_alpha 90.000000
_cell_angle_beta 90.000000
_cell_angle_gamma 90.000000
_cell_volume 2849.359896
_symmetry_space_group_name_H-M "P M M A"
_symmetry_group_IT_number 51
_symmetry_cell_setting 'orthorhombic'
loop_
_space_group_symop_operation_xyz
x,y,z
1/2-x,-y,z
1/2+x,-y,-z
-x,y,-z
-x,-y,-z
1/2+x,y,-z
1/2-x,y,z
x,-y,z
loop_
_atom_site_type_symbol
_atom_site_label
_atom_site_fract_x
_atom_site_fract_y
_atom_site_fract_z
Si Si1 0.408862 0.171408 0.184749
Si Si2 0.980122 0.331318 0.901425
Si Si3 0.910953 0.335565 0.629579
Si Si4 0.750000 0.171891 0.954244
Si Si5 0.910887 0.165798 0.715603
Si Si6 0.750000 0.664184 0.044739
Si Si7 0.904770 0.172591 0.540270
O O1 0.250000 0.193567 0.180512
O O2 0.478594 0.264027 0.147326
O O3 0.449263 0.210200 0.234812
O O4 0.431439 0.000000 0.178881
O O5 0.942591 0.500000 0.900107
O O6 0.876002 0.240371 0.929888
O O7 0.120953 0.319955 0.925207
O O8 0.750000 0.334473 0.631005
O O9 0.954529 0.500000 0.626532
O O10 0.956914 0.262211 0.674978
O O11 0.946618 0.247256 0.585864
O O12 0.750000 0.000000 0.950621
O O13 0.750000 0.224959 0.004615
O O14 0.750000 0.167643 0.715520
O O15 0.950424 0.000000 0.708753
O O16 0.750000 0.500000 0.026332
O O17 0.750000 0.208555 0.531580
O O18 0.000000 0.214233 0.500000
O O19 0.912168 0.000000 0.545578
#
# Coordination Sequence:
#
# PCOD9406918 Si02
#       7
#     8   8   8   4   8   4   8
#     4   9  17  30  49  75 105 132 162 204 249 296
#     4  11  22  37  57  79 105 138 170 206 252 301
#     4   9  16  25  39  63  94 124 156 197 240 284
#     4  12  24  38  58  82 106 132 170 214 253 296
#     4   8  14  25  42  65  95 129 158 193 242 288
#     4  10  24  42  56  76 106 138 174 208 247 302
#     4   9  17  29  45  65  90 122 158 194 236 286
#
# _framework density 16.845889
#
# number of rings (size 3 to 8) (size 9 to 14) (size 15 to 20)
#    0.000    2.500    0.833    3.250    0.000    6.333 
#    0.000    1.667    0.000    0.000    2.167    0.000 
#    0.000    0.000    0.000    0.000    0.000    0.000 
#
# Total GULP energy -267623.030888 kJ/mol
# GULP energy per Si atom -5575.479810 kJ/mol
# Density = 1.680755 g / cm^3
# Si number density = 16.845889 Si / 1000 Ang^3
#
#
#
# Elastic Constant Matrix: (Units=GPa)
#
#
# Indices 1 2 3 4 5 6 
#
# 1 48.0865 40.8931 38.6079 0.0000 0.0000 0.0000
# 2 40.8931 98.6545 89.2362 0.0000 0.0000 0.0000
# 3 38.6079 89.2362 163.0723 0.0000 0.0000 0.0000
# 4 0.0000 0.0000 0.0000 -25.6828 0.0000 0.0000
# 5 0.0000 0.0000 0.0000 0.0000 9.5328 0.0000
# 6 0.0000 0.0000 0.0000 0.0000 0.0000 -5.1859
#
#
#
# Elastic Compliance Matrix: (Units=1/GPa)
#
#
# Indices 1 2 3 4 5 6 
#
# 1 0.032150 -0.012755 -0.000632 0.000000 0.000000 0.000000
# 2 -0.012755 0.025131 -0.010733 0.000000 0.000000 0.000000
# 3 -0.000632 -0.010733 0.012155 0.000000 0.000000 0.000000
# 4 0.000000 0.000000 0.000000 -0.038937 0.000000 0.000000
# 5 0.000000 0.000000 0.000000 0.000000 0.104901 0.000000
# 6 0.000000 0.000000 0.000000 0.000000 0.000000 -0.192829
#
#
# Mechanical properties :
#
#
# Convention : Reuss Voigt Hill
#
# Bulk Modulus (GPa) = 47.17524 71.92086 59.54805
# Shear Modulus (GPa) = -2353.85807 5.13789 -1174.36009
#
# Velocity S-wave (km/s) = -37.42089 1.74830 -26.43167
# Velocity P-wave (km/s) = 42.88394 6.84555 29.93468
#
# Compressibility (1/GPa) = 0.02119756
#
# Stress axis : x y z
#
# Youngs Moduli (GPa) = 31.10417 39.79094 82.27115
#
# Poissons Ratio (x) = 0.50753 0.05199
# Poissons Ratio (y) = 0.39673 0.88298
# Poissons Ratio (z) = 0.01966 0.42706
#
# Static dielectric constant tensor:
#      x y z
#    x 1.553220 0.000000 0.000000 
#    y 0.000000 1.563140 0.000000 
#    z 0.000000 0.000000 1.569530 
# 
# From -- ./inp_files/37189.got.cif
#   From: 2010.05.17/outbox.cif.g08.bks.cpg/sg51_19_cif.got.tgz:37189.got - 2010.06.03 11:52:47.
