data_PCOD9406054
_publ_section_title
;
Structure prediction by ZEFSAII (Michael W. Deem and Ramdas Pophale) SiO2 
 PCOD9406054
Probable space group: P M M A
;
_chemical_formula_sum "Si O2"
_cell_formula_units_Z 64
_cell_length_a 32.058804
_cell_length_b 8.081682
_cell_length_c 12.552663
_cell_angle_alpha 90.000000
_cell_angle_beta 90.000000
_cell_angle_gamma 90.000000
_cell_volume 3252.257647
_symmetry_space_group_name_H-M "P M M A"
_symmetry_group_IT_number 51
_symmetry_cell_setting 'orthorhombic'
loop_
_space_group_symop_operation_xyz
x,y,z
1/2-x,-y,z
1/2+x,-y,-z
-x,y,-z
-x,-y,-z
1/2+x,y,-z
1/2-x,y,z
x,-y,z
loop_
_atom_site_type_symbol
_atom_site_label
_atom_site_fract_x
_atom_site_fract_y
_atom_site_fract_z
Si Si1 0.951857 0.202437 0.483819
Si Si2 0.202382 0.298117 0.757178
Si Si3 0.625256 0.198847 0.627871
Si Si4 0.063218 0.808140 0.753576
Si Si5 0.297499 0.300736 0.516280
Si Si6 0.896871 0.194773 0.858962
Si Si7 0.510593 0.692508 0.881073
Si Si8 0.632114 0.305380 0.084294
O O1 0.917889 0.256629 0.571468
O O2 0.935447 0.255430 0.367187
O O3 0.000000 0.256400 0.500000
O O4 0.952748 0.000000 0.483815
O O5 0.250000 0.251343 0.779316
O O6 0.200377 0.500000 0.757043
O O7 0.191988 0.243681 0.636819
O O8 0.170417 0.238817 0.845780
O O9 0.666149 0.251305 0.563597
O O10 0.626359 0.249377 0.751529
O O11 0.624032 0.000000 0.624222
O O12 0.091857 0.718207 0.840129
O O13 0.015957 0.790872 0.794691
O O14 0.075670 0.000000 0.753583
O O15 0.250000 0.243887 0.490825
O O16 0.296044 0.500000 0.518996
O O17 0.940585 0.288827 0.864669
O O18 0.906320 0.000000 0.848876
O O19 0.873675 0.222593 0.970160
O O20 0.498309 0.500000 0.874720
O O21 0.500000 0.753638 0.000000
O O22 0.637813 0.500000 0.065105
#
# Coordination Sequence:
#
# PCOD9406054 Si02
#       8
#     8   8   8   8   8   8   8   8
#     4   9  18  34  54  78 108 142 181 223 269 325
#     4   8  16  33  57  83 110 140 174 216 269 326
#     4  10  21  37  57  81 111 148 188 229 276 329
#     4  11  21  33  55  81 107 140 177 220 270 324
#     4   9  18  35  60  87 112 141 180 225 275 333
#     4  11  23  38  56  77 106 147 188 223 267 323
#     4  11  22  36  54  77 106 141 183 228 268 311
#     4  11  21  34  54  80 109 139 176 223 269 315
#
# _framework density 19.678639
#
# number of rings (size 3 to 8) (size 9 to 14) (size 15 to 20)
#    0.000    2.000    1.250    3.750    0.000    3.750 
#    0.000    1.875    0.000    7.875    0.000    0.000 
#    0.000    0.000    0.000    0.000    0.000    0.000 
#
# Total GULP energy -357349.988171 kJ/mol
# GULP energy per Si atom -5583.593565 kJ/mol
# Density = 1.963385 g / cm^3
# Si number density = 19.678639 Si / 1000 Ang^3
#
#
#
# Elastic Constant Matrix: (Units=GPa)
#
#
# Indices 1 2 3 4 5 6 
#
# 1 119.3487 -1.5454 82.0289 0.0000 0.0000 0.0000
# 2 -1.5454 17.8240 8.7462 0.0000 0.0000 0.0000
# 3 82.0289 8.7462 157.2234 0.0000 0.0000 0.0000
# 4 0.0000 0.0000 0.0000 -0.6795 0.0000 0.0000
# 5 0.0000 0.0000 0.0000 0.0000 36.3393 0.0000
# 6 0.0000 0.0000 0.0000 0.0000 0.0000 5.0014
#
#
#
# Elastic Compliance Matrix: (Units=1/GPa)
#
#
# Indices 1 2 3 4 5 6 
#
# 1 0.013441 0.004736 -0.007276 0.000000 0.000000 0.000000
# 2 0.004736 0.059347 -0.005772 0.000000 0.000000 0.000000
# 3 -0.007276 -0.005772 0.010478 0.000000 0.000000 0.000000
# 4 0.000000 0.000000 0.000000 -1.471746 0.000000 0.000000
# 5 0.000000 0.000000 0.000000 0.000000 0.027518 0.000000
# 6 0.000000 0.000000 0.000000 0.000000 0.000000 0.199945
#
#
# Mechanical properties :
#
#
# Convention : Reuss Voigt Hill
#
# Bulk Modulus (GPa) = 15.00584 52.53950 33.77267
# Shear Modulus (GPa) = -4.45562 21.81000 8.67719
#
# Velocity S-wave (km/s) = -1.50636 3.33274 2.10215
# Velocity P-wave (km/s) = 2.14861 6.44719 4.80535
#
# Compressibility (1/GPa) = 0.06664074
#
# Stress axis : x y z
#
# Youngs Moduli (GPa) = 74.39906 16.84999 95.44099
#
# Poissons Ratio (x) = -0.07980 0.69444
# Poissons Ratio (y) = -0.35234 0.55091
# Poissons Ratio (z) = 0.54133 0.09726
#
# Static dielectric constant tensor:
#      x y z
#    x 1.696780 0.000000 0.000000 
#    y 0.000000 1.695020 0.000000 
#    z 0.000000 0.000000 1.703750 
# 
# From -- ./inp_files/19604.got.cif
#   From: 2010.05.17/outbox.cif.g08.bks.cpg/sg51_10_cif.got.tgz:19604.got - 2010.06.03 11:52:47.
