data_PCOD9406276
_publ_section_title
;
Structure prediction by ZEFSAII (Michael W. Deem and Ramdas Pophale) SiO2 
 PCOD9406276
Probable space group: P M M A
;
_chemical_formula_sum "Si O2"
_cell_formula_units_Z 64
_cell_length_a 13.870002
_cell_length_b 9.270975
_cell_length_c 23.802897
_cell_angle_alpha 90.000000
_cell_angle_beta 90.000000
_cell_angle_gamma 90.000000
_cell_volume 3060.777435
_symmetry_space_group_name_H-M "P M M A"
_symmetry_group_IT_number 51
_symmetry_cell_setting 'orthorhombic'
loop_
_space_group_symop_operation_xyz
x,y,z
1/2-x,-y,z
1/2+x,-y,-z
-x,y,-z
-x,-y,-z
1/2+x,y,-z
1/2-x,y,z
x,-y,z
loop_
_atom_site_type_symbol
_atom_site_label
_atom_site_fract_x
_atom_site_fract_y
_atom_site_fract_z
Si Si1 0.053661 0.169625 0.748258
Si Si2 0.365630 0.162524 0.537263
Si Si3 0.039704 0.670116 0.636976
Si Si4 0.632559 0.664687 0.922118
Si Si5 0.363605 0.831565 0.405418
Si Si6 0.366202 0.335005 0.855456
Si Si7 0.639033 0.831177 0.808735
Si Si8 0.367971 0.834397 0.966816
O O1 0.102859 0.240949 0.802292
O O2 0.081832 0.250255 0.691459
O O3 0.938952 0.187106 0.759976
O O4 0.075178 0.000000 0.744909
O O5 0.250000 0.163443 0.541057
O O6 0.407580 0.275441 0.580765
O O7 0.388050 0.187298 0.471685
O O8 0.399359 0.000000 0.552012
O O9 0.045144 0.500000 0.643210
O O10 0.930700 0.726524 0.629391
O O11 0.750000 0.661771 0.924046
O O12 0.599056 0.500000 0.927711
O O13 0.609998 0.734285 0.861928
O O14 0.602179 0.762994 0.974430
O O15 0.250000 0.805317 0.398463
O O16 0.381585 0.000000 0.391038
O O17 0.250000 0.338550 0.857044
O O18 0.400587 0.500000 0.850703
O O19 0.398419 0.260780 0.913503
O O20 0.750000 0.799362 0.792880
O O21 0.635346 0.000000 0.826017
O O22 0.250000 0.835425 0.966655
O O23 0.399400 0.000000 0.961398
#
# Coordination Sequence:
#
# PCOD9406276 Si02
#       8
#     8   8   8   8   8   8   8   8
#     4  11  24  41  60  81 108 148 197 240 277 329
#     4   9  19  38  64  91 118 152 194 236 279 332
#     4  12  25  38  56  85 121 157 191 234 287 338
#     4   9  16  27  48  79 111 142 176 218 275 338
#     4   9  19  38  64  91 119 153 193 235 279 331
#     4  10  21  38  59  82 111 145 181 230 291 345
#     4   9  19  37  59  81 106 139 181 230 282 333
#     4   9  16  28  50  79 109 142 181 224 272 332
#
# _framework density 20.909721000000001
#
# number of rings (size 3 to 8) (size 9 to 14) (size 15 to 20)
#    0.000    2.250    0.000    3.750    0.000    8.250 
#    0.000    3.125    0.000    3.750    0.000    0.000 
#    0.000    0.000    0.000    0.000    0.000    0.000 
#
# Total GULP energy -357900.281285 kJ/mol
# GULP energy per Si atom -5592.191895 kJ/mol
# Density = 2.086213 g / cm^3
# Si number density = 20.909721 Si / 1000 Ang^3
#
#
#
# Elastic Constant Matrix: (Units=GPa)
#
#
# Indices 1 2 3 4 5 6 
#
# 1 41.3290 13.2274 7.0923 0.0000 0.0000 0.0000
# 2 13.2274 145.5568 63.7359 0.0000 0.0000 0.0000
# 3 7.0923 63.7359 61.9517 0.0000 0.0000 0.0000
# 4 0.0000 0.0000 0.0000 -557.6180 0.0000 0.0000
# 5 0.0000 0.0000 0.0000 0.0000 18.2388 0.0000
# 6 0.0000 0.0000 0.0000 0.0000 0.0000 17.1979
#
#
#
# Elastic Compliance Matrix: (Units=1/GPa)
#
#
# Indices 1 2 3 4 5 6 
#
# 1 0.024952 -0.001850 -0.000953 0.000000 0.000000 0.000000
# 2 -0.001850 0.012639 -0.012792 0.000000 0.000000 0.000000
# 3 -0.000953 -0.012792 0.029411 0.000000 0.000000 0.000000
# 4 0.000000 0.000000 0.000000 -0.001793 0.000000 0.000000
# 5 0.000000 0.000000 0.000000 0.000000 0.054828 0.000000
# 6 0.000000 0.000000 0.000000 0.000000 0.000000 0.058147
#
#
# Mechanical properties :
#
#
# Convention : Reuss Voigt Hill
#
# Bulk Modulus (GPa) = 27.92343 46.32764 37.12553
# Shear Modulus (GPa) = 22.59264 -93.45082 -35.42909
#
# Velocity S-wave (km/s) = 3.29064 -6.69250 -4.12075
# Velocity P-wave (km/s) = 5.27456 6.12497 2.20162
#
# Compressibility (1/GPa) = 0.03581222
#
# Stress axis : x y z
#
# Youngs Moduli (GPa) = 40.07729 79.11716 34.00113
#
# Poissons Ratio (x) = 0.14638 0.03241
# Poissons Ratio (y) = 0.07415 0.43493
# Poissons Ratio (z) = 0.03820 1.01204
#
# Static dielectric constant tensor:
#      x y z
#    x 1.810780 0.000000 0.000000 
#    y 0.000000 1.696650 0.000000 
#    z 0.000000 0.000000 1.707890 
# 
# From -- ./inp_files/35670.got.cif
#   From: 2010.05.17/outbox.cif.g08.bks.cpg/sg51_18_cif.got.tgz:35670.got - 2010.06.03 11:52:47.
