data_PCOD9406348
_publ_section_title
;
Structure prediction by ZEFSAII (Michael W. Deem and Ramdas Pophale) SiO2 
 PCOD9406348
Probable space group: P M M A
;
_chemical_formula_sum "Si O2"
_cell_formula_units_Z 40
_cell_length_a 16.912676
_cell_length_b 8.955790
_cell_length_c 14.426573
_cell_angle_alpha 90.000000
_cell_angle_beta 90.000000
_cell_angle_gamma 90.000000
_cell_volume 2185.140710
_symmetry_space_group_name_H-M "P M M A"
_symmetry_group_IT_number 51
_symmetry_cell_setting 'orthorhombic'
loop_
_space_group_symop_operation_xyz
x,y,z
1/2-x,-y,z
1/2+x,-y,-z
-x,y,-z
-x,-y,-z
1/2+x,y,-z
1/2-x,y,z
x,-y,z
loop_
_atom_site_type_symbol
_atom_site_label
_atom_site_fract_x
_atom_site_fract_y
_atom_site_fract_z
Si Si1 0.339443 0.325494 0.620906
Si Si2 0.401129 0.321951 0.148981
Si Si3 0.938117 0.177350 0.220348
Si Si4 0.750000 0.823120 0.532440
Si Si5 0.250000 0.178201 0.248305
Si Si6 0.342879 0.177352 0.966470
O O1 0.250000 0.313581 0.662886
O O2 0.358443 0.500000 0.612095
O O3 0.400384 0.241930 0.686165
O O4 0.324775 0.250642 0.520544
O O5 0.399509 0.500000 0.154105
O O6 0.480977 0.257688 0.192849
O O7 0.326831 0.251315 0.202705
O O8 0.391270 0.267866 0.043006
O O9 0.877064 0.203237 0.135715
O O10 0.950858 0.000000 0.228456
O O11 0.750000 0.796380 0.641361
O O12 0.750000 0.000000 0.515129
O O13 0.250000 0.000000 0.231018
O O14 0.250000 0.215472 0.971989
O O15 0.350848 0.000000 0.986443
#
# Coordination Sequence:
#
# PCOD9406348 Si02
#       6
#     8   8   8   4   4   8
#     4   9  19  35  58  89 123 152 184 235 293 346
#     4  12  25  39  58  86 120 156 196 243 295 347
#     4  11  22  37  60  88 120 160 199 240 286 339
#     4   9  19  37  64  89 112 149 193 238 290 353
#     4  11  23  43  66  85 110 151 199 244 290 349
#     4  10  21  38  60  86 118 158 200 238 282 339
#
# _framework density 18.305457000000001
#
# number of rings (size 3 to 8) (size 9 to 14) (size 15 to 20)
#    0.600    1.000    1.000    4.500    0.000    6.400 
#    0.000    1.000    0.000    6.000    0.000    0.000 
#    0.000    0.000    0.000    0.000    0.000    0.000 
#
# Total GULP energy -223333.568319 kJ/mol
# GULP energy per Si atom -5583.339208 kJ/mol
# Density = 1.826379 g / cm^3
# Si number density = 18.305457 Si / 1000 Ang^3
#
#
#
# Elastic Constant Matrix: (Units=GPa)
#
#
# Indices 1 2 3 4 5 6 
#
# 1 41.2236 19.1419 -6.8785 0.0000 0.0000 0.0000
# 2 19.1419 89.9695 38.2809 0.0000 0.0000 0.0000
# 3 -6.8785 38.2809 61.8640 0.0000 0.0000 0.0000
# 4 0.0000 0.0000 0.0000 -50.7959 0.0000 0.0000
# 5 0.0000 0.0000 0.0000 0.0000 -7.0816 0.0000
# 6 0.0000 0.0000 0.0000 0.0000 0.0000 30.1351
#
#
#
# Elastic Compliance Matrix: (Units=1/GPa)
#
#
# Indices 1 2 3 4 5 6 
#
# 1 0.031057 -0.010963 0.010237 0.000000 0.000000 0.000000
# 2 -0.010963 0.018957 -0.012950 0.000000 0.000000 0.000000
# 3 0.010237 -0.012950 0.025316 0.000000 0.000000 0.000000
# 4 0.000000 0.000000 0.000000 -0.019687 0.000000 0.000000
# 5 0.000000 0.000000 0.000000 0.000000 -0.141211 0.000000
# 6 0.000000 0.000000 0.000000 0.000000 0.000000 0.033184
#
#
# Mechanical properties :
#
#
# Convention : Reuss Voigt Hill
#
# Bulk Modulus (GPa) = 20.84273 32.68287 26.76280
# Shear Modulus (GPa) = -553.14121 3.95237 -274.59442
#
# Velocity S-wave (km/s) = -17.40198 1.47099 -12.26102
# Velocity P-wave (km/s) = 19.80810 4.55829 13.63054
#
# Compressibility (1/GPa) = 0.04797835
#
# Stress axis : x y z
#
# Youngs Moduli (GPa) = 32.19895 52.74990 39.50091
#
# Poissons Ratio (x) = 0.57832 -0.40438
# Poissons Ratio (y) = 0.35301 0.51152
# Poissons Ratio (z) = -0.32963 0.68309
#
# Static dielectric constant tensor:
#      x y z
#    x 1.612700 0.000000 0.000000 
#    y 0.000000 1.608280 0.000000 
#    z 0.000000 0.000000 1.609260 
# 
# From -- ./inp_files/23823.got.cif
#   From: 2010.05.17/outbox.cif.g08.bks.cpg/sg51_12_cif.got.tgz:23823.got - 2010.06.03 11:52:47.
