data_PCOD9406783
_publ_section_title
;
Structure prediction by ZEFSAII (Michael W. Deem and Ramdas Pophale) SiO2 
 PCOD9406783
Probable space group: P M M A
;
_chemical_formula_sum "Si O2"
_cell_formula_units_Z 32
_cell_length_a 10.508883
_cell_length_b 8.667665
_cell_length_c 19.634047
_cell_angle_alpha 90.000000
_cell_angle_beta 90.000000
_cell_angle_gamma 90.000000
_cell_volume 1788.415812
_symmetry_space_group_name_H-M "P M M A"
_symmetry_group_IT_number 51
_symmetry_cell_setting 'orthorhombic'
loop_
_space_group_symop_operation_xyz
x,y,z
1/2-x,-y,z
1/2+x,-y,-z
-x,y,-z
-x,-y,-z
1/2+x,y,-z
1/2-x,y,z
x,-y,z
loop_
_atom_site_type_symbol
_atom_site_label
_atom_site_fract_x
_atom_site_fract_y
_atom_site_fract_z
Si Si1 0.899317 0.314623 0.290100
Si Si2 0.750000 0.316631 0.918987
Si Si3 0.502210 0.815503 0.845712
Si Si4 0.750000 0.813682 0.071340
Si Si5 0.604169 0.311800 0.445567
O O1 0.750000 0.277819 0.278348
O O2 0.912743 0.500000 0.285394
O O3 0.928704 0.267877 0.367848
O O4 0.981953 0.236162 0.231969
O O5 0.750000 0.500000 0.921107
O O6 0.874473 0.257410 0.879824
O O7 0.750000 0.251926 0.995610
O O8 0.376215 0.766311 0.887615
O O9 0.511453 0.000000 0.849433
O O10 0.750000 0.000000 0.067450
O O11 0.500000 0.258603 0.500000
O O12 0.750000 0.263238 0.460142
O O13 0.604803 0.500000 0.446829
#
# Coordination Sequence:
#
# PCOD9406783 Si02
#       5
#     8   4   8   4   8
#     4   9  17  31  53  80 110 143 184 233 275 317
#     4  12  26  40  56  84 115 144 179 230 287 326
#     4  11  22  39  60  82 111 149 187 225 274 335
#     4  10  22  40  62  84 107 144 189 224 269 334
#     4   8  14  26  45  71 104 141 178 221 270 317
#
# _framework density 17.89293
#
# number of rings (size 3 to 8) (size 9 to 14) (size 15 to 20)
#    0.000    2.250    1.250    4.125    0.000    5.000 
#    2.250    0.000    0.000    0.750    0.000    0.000 
#    0.000    0.000    0.000    0.000    0.000    0.000 
#
# Total GULP energy -178607.194630 kJ/mol
# GULP energy per Si atom -5581.474832 kJ/mol
# Density = 1.785220 g / cm^3
# Si number density = 17.892930 Si / 1000 Ang^3
#
#
#
# Elastic Constant Matrix: (Units=GPa)
#
#
# Indices 1 2 3 4 5 6 
#
# 1 147.0403 33.9167 101.4845 0.0000 0.0000 0.0000
# 2 33.9167 15.6127 25.4239 0.0000 0.0000 0.0000
# 3 101.4845 25.4239 163.1377 0.0000 0.0000 0.0000
# 4 0.0000 0.0000 0.0000 105.3081 0.0000 0.0000
# 5 0.0000 0.0000 0.0000 0.0000 69.7413 0.0000
# 6 0.0000 0.0000 0.0000 0.0000 0.0000 13.4569
#
#
#
# Elastic Compliance Matrix: (Units=1/GPa)
#
#
# Indices 1 2 3 4 5 6 
#
# 1 0.017926 -0.027850 -0.006811 0.000000 0.000000 0.000000
# 2 -0.027850 0.129102 -0.002795 0.000000 0.000000 0.000000
# 3 -0.006811 -0.002795 0.010802 0.000000 0.000000 0.000000
# 4 0.000000 0.000000 0.000000 0.009496 0.000000 0.000000
# 5 0.000000 0.000000 0.000000 0.000000 0.014339 0.000000
# 6 0.000000 0.000000 0.000000 0.000000 0.000000 0.074311
#
#
# Mechanical properties :
#
#
# Convention : Reuss Voigt Hill
#
# Bulk Modulus (GPa) = 12.06005 71.93787 41.99896
# Shear Modulus (GPa) = 13.94597 48.69896 31.32246
#
# Velocity S-wave (km/s) = 2.79482 5.22264 4.18850
# Velocity P-wave (km/s) = 4.14361 8.75556 6.84943
#
# Compressibility (1/GPa) = 0.08291841
#
# Stress axis : x y z
#
# Youngs Moduli (GPa) = 55.78618 7.74582 92.57351
#
# Poissons Ratio (x) = 0.21572 0.63051
# Poissons Ratio (y) = 1.55365 0.25871
# Poissons Ratio (z) = 0.37995 0.02165
#
# Static dielectric constant tensor:
#      x y z
#    x 1.594380 0.000000 0.000000 
#    y 0.000000 1.602910 0.000000 
#    z 0.000000 0.000000 1.595770 
# 
# From -- ./inp_files/22852.got.cif
#   From: 2010.05.17/outbox.cif.g08.bks.cpg/sg51_12_cif.got.tgz:22852.got - 2010.06.03 11:52:47.
