data_PCOD9406120
_publ_section_title
;
Structure prediction by ZEFSAII (Michael W. Deem and Ramdas Pophale) SiO2 
 PCOD9406120
Probable space group: P M M A
;
_chemical_formula_sum "Si O2"
_cell_formula_units_Z 64
_cell_length_a 9.187649
_cell_length_b 13.729358
_cell_length_c 24.088936
_cell_angle_alpha 90.000000
_cell_angle_beta 90.000000
_cell_angle_gamma 90.000000
_cell_volume 3038.590969
_symmetry_space_group_name_H-M "P M M A"
_symmetry_group_IT_number 51
_symmetry_cell_setting 'orthorhombic'
loop_
_space_group_symop_operation_xyz
x,y,z
1/2-x,-y,z
1/2+x,-y,-z
-x,y,-z
-x,-y,-z
1/2+x,y,-z
1/2-x,y,z
x,-y,z
loop_
_atom_site_type_symbol
_atom_site_label
_atom_site_fract_x
_atom_site_fract_y
_atom_site_fract_z
Si Si1 0.423169 0.294841 0.555646
Si Si2 0.085174 0.118686 0.269986
Si Si3 0.422905 0.885392 0.398694
Si Si4 0.413995 0.117258 0.837726
Si Si5 0.083177 0.618801 0.770817
Si Si6 0.916384 0.382699 0.660645
Si Si7 0.921773 0.388037 0.884177
Si Si8 0.421263 0.195690 0.056049
O O1 0.500000 0.333060 0.500000
O O2 0.250000 0.301035 0.551869
O O3 0.478167 0.184116 0.564655
O O4 0.485291 0.350106 0.609334
O O5 0.250000 0.151585 0.257819
O O6 0.049100 0.140995 0.333886
O O7 0.977698 0.150956 0.221454
O O8 0.087517 0.000000 0.268446
O O9 0.250000 0.869842 0.409135
O O10 0.452143 0.000000 0.406238
O O11 0.250000 0.153364 0.846546
O O12 0.514459 0.145893 0.889142
O O13 0.409607 0.000000 0.835454
O O14 0.250000 0.650934 0.765161
O O15 0.083782 0.500000 0.769021
O O16 0.984811 0.650690 0.719001
O O17 0.014164 0.642243 0.830377
O O18 0.750000 0.347992 0.653998
O O19 0.913032 0.500000 0.661808
O O20 0.750000 0.383769 0.869348
O O21 0.956359 0.500000 0.898526
O O22 0.945801 0.310885 0.932774
O O23 0.250000 0.177409 0.051932
O O24 0.500000 0.164047 0.000000
#
# Coordination Sequence:
#
# PCOD9406120 Si02
#       8
#     8   8   8   8   8   8   8   8
#     4  12  26  42  60  83 114 152 196 243 286 337
#     4   8  15  31  57  87 116 146 181 223 275 334
#     4   9  19  38  63  89 119 154 191 234 284 338
#     4  10  21  37  58  84 114 147 183 227 277 329
#     4   9  17  31  55  88 120 148 183 228 278 333
#     4  10  21  39  63  88 116 151 189 233 286 342
#     4   9  19  37  59  83 113 149 186 225 275 334
#     4  11  24  40  58  80 108 145 189 235 279 329
#
# _framework density 21.062394000000001
#
# number of rings (size 3 to 8) (size 9 to 14) (size 15 to 20)
#    0.000    2.250    0.000    3.375    0.000    6.750 
#    0.000    2.500    0.000    0.000    0.000    0.000 
#    0.000    0.000    0.000    0.000    0.000    0.000 
#
# Total GULP energy -357852.511012 kJ/mol
# GULP energy per Si atom -5591.445485 kJ/mol
# Density = 2.101445 g / cm^3
# Si number density = 21.062394 Si / 1000 Ang^3
#
#
#
# Elastic Constant Matrix: (Units=GPa)
#
#
# Indices 1 2 3 4 5 6 
#
# 1 116.2896 14.7185 63.7046 0.0000 0.0000 0.0000
# 2 14.7185 48.1586 -0.8502 0.0000 0.0000 0.0000
# 3 63.7046 -0.8502 99.0290 0.0000 0.0000 0.0000
# 4 0.0000 0.0000 0.0000 20.1796 0.0000 0.0000
# 5 0.0000 0.0000 0.0000 0.0000 36.4112 0.0000
# 6 0.0000 0.0000 0.0000 0.0000 0.0000 27.4865
#
#
#
# Elastic Compliance Matrix: (Units=1/GPa)
#
#
# Indices 1 2 3 4 5 6 
#
# 1 0.014191 -0.004499 -0.009167 0.000000 0.000000 0.000000
# 2 -0.004499 0.022194 0.003085 0.000000 0.000000 0.000000
# 3 -0.009167 0.003085 0.016022 0.000000 0.000000 0.000000
# 4 0.000000 0.000000 0.000000 0.049555 0.000000 0.000000
# 5 0.000000 0.000000 0.000000 0.000000 0.027464 0.000000
# 6 0.000000 0.000000 0.000000 0.000000 0.000000 0.036381
#
#
# Mechanical properties :
#
#
# Convention : Reuss Voigt Hill
#
# Bulk Modulus (GPa) = 32.00669 46.51366 39.26018
# Shear Modulus (GPa) = 25.33125 29.20909 27.27017
#
# Velocity S-wave (km/s) = 3.47173 3.72800 3.60214
# Velocity P-wave (km/s) = 5.59461 6.37670 5.99842
#
# Compressibility (1/GPa) = 0.03124346
#
# Stress axis : x y z
#
# Youngs Moduli (GPa) = 70.46925 45.05686 62.41496
#
# Poissons Ratio (x) = 0.20271 0.57218
# Poissons Ratio (y) = 0.31703 -0.19253
# Poissons Ratio (z) = 0.64601 -0.13898
#
# Static dielectric constant tensor:
#      x y z
#    x 1.708360 0.000000 0.000000 
#    y 0.000000 1.830030 0.000000 
#    z 0.000000 0.000000 1.710260 
# 
# From -- ./inp_files/34871.got.cif
#   From: 2010.05.17/outbox.cif.g08.bks.cpg/sg51_18_cif.got.tgz:34871.got - 2010.06.03 11:52:47.
