data_PCOD9406195
_publ_section_title
;
Structure prediction by ZEFSAII (Michael W. Deem and Ramdas Pophale) SiO2 
 PCOD9406195
Probable space group: P M M A
;
_chemical_formula_sum "Si O2"
_cell_formula_units_Z 64
_cell_length_a 8.693334
_cell_length_b 24.406384
_cell_length_c 15.843612
_cell_angle_alpha 90.000000
_cell_angle_beta 90.000000
_cell_angle_gamma 90.000000
_cell_volume 3361.584278
_symmetry_space_group_name_H-M "P M M A"
_symmetry_group_IT_number 51
_symmetry_cell_setting 'orthorhombic'
loop_
_space_group_symop_operation_xyz
x,y,z
1/2-x,-y,z
1/2+x,-y,-z
-x,y,-z
-x,-y,-z
1/2+x,y,-z
1/2-x,y,z
x,-y,z
loop_
_atom_site_type_symbol
_atom_site_label
_atom_site_fract_x
_atom_site_fract_y
_atom_site_fract_z
Si Si1 0.437540 0.062850 0.249413
Si Si2 0.434651 0.134402 0.410454
Si Si3 0.064276 0.436425 0.247788
Si Si4 0.565594 0.634484 0.589401
Si Si5 0.065663 0.751030 0.848308
Si Si6 0.433948 0.749954 0.647991
Si Si7 0.933859 0.865071 0.909994
Si Si8 0.434412 0.630645 0.909299
O O1 0.250000 0.062667 0.248764
O O2 0.484497 0.095369 0.333434
O O3 0.487717 0.096214 0.166667
O O4 0.489246 0.000000 0.248986
O O5 0.500000 0.115554 0.500000
O O6 0.250000 0.135489 0.413208
O O7 0.495927 0.195324 0.391634
O O8 0.250000 0.433631 0.242167
O O9 0.019378 0.500000 0.252255
O O10 0.017815 0.403760 0.332208
O O11 0.994576 0.407242 0.166036
O O12 0.500000 0.615091 0.500000
O O13 0.750000 0.635652 0.585734
O O14 0.503521 0.695421 0.607495
O O15 0.250000 0.756488 0.858136
O O16 0.031756 0.749712 0.748281
O O17 0.017333 0.693338 0.888783
O O18 0.986297 0.803270 0.889747
O O19 0.250000 0.749931 0.637007
O O20 0.750000 0.866810 0.912999
O O21 0.000000 0.882290 0.000000
O O22 0.250000 0.629076 0.910818
O O23 0.500000 0.614214 0.000000
#
# Coordination Sequence:
#
# PCOD9406195 Si02
#       8
#     8   8   8   8   8   8   8   8
#     4   9  20  39  60  82 113 154 198 242 289 345
#     4  11  22  38  60  88 118 154 195 238 292 349
#     4  10  23  43  64  87 117 156 201 247 293 344
#     4  11  23  39  62  90 122 157 196 241 292 351
#     4  10  21  37  60  89 121 153 190 238 293 350
#     4  11  21  37  61  89 122 154 191 240 292 350
#     4  11  22  37  60  88 118 154 195 237 290 348
#     4  11  23  40  62  91 121 156 196 240 295 351
#
# _framework density 19.038640999999998
#
# number of rings (size 3 to 8) (size 9 to 14) (size 15 to 20)
#    0.000    1.500    2.500    2.625    0.000    4.250 
#    0.000    0.000    0.000    5.250    0.000    0.000 
#    0.000    0.000    0.000    0.000    0.000    0.000 
#
# Total GULP energy -357816.836981 kJ/mol
# GULP energy per Si atom -5590.888078 kJ/mol
# Density = 1.899531 g / cm^3
# Si number density = 19.038641 Si / 1000 Ang^3
#
#
#
# Elastic Constant Matrix: (Units=GPa)
#
#
# Indices 1 2 3 4 5 6 
#
# 1 35.4077 30.3808 49.6222 0.0000 0.0000 0.0000
# 2 30.3808 153.6751 92.3110 0.0000 0.0000 0.0000
# 3 49.6222 92.3110 199.9125 0.0000 0.0000 0.0000
# 4 0.0000 0.0000 0.0000 -4.3759 0.0000 0.0000
# 5 0.0000 0.0000 0.0000 0.0000 32.5554 0.0000
# 6 0.0000 0.0000 0.0000 0.0000 0.0000 -3.4816
#
#
#
# Elastic Compliance Matrix: (Units=1/GPa)
#
#
# Indices 1 2 3 4 5 6 
#
# 1 0.044271 -0.002977 -0.009614 0.000000 0.000000 0.000000
# 2 -0.002977 0.009205 -0.003512 0.000000 0.000000 0.000000
# 3 -0.009614 -0.003512 0.009010 0.000000 0.000000 0.000000
# 4 0.000000 0.000000 0.000000 -0.228522 0.000000 0.000000
# 5 0.000000 0.000000 0.000000 0.000000 0.030717 0.000000
# 6 0.000000 0.000000 0.000000 0.000000 0.000000 -0.287220
#
#
# Mechanical properties :
#
#
# Convention : Reuss Voigt Hill
#
# Bulk Modulus (GPa) = 33.02464 81.51370 57.26917
# Shear Modulus (GPa) = -13.14957 19.38498 3.11770
#
# Velocity S-wave (km/s) = -2.63093 3.19437 1.28106
# Velocity P-wave (km/s) = 2.85565 7.51752 5.68630
#
# Compressibility (1/GPa) = 0.03028042
#
# Stress axis : x y z
#
# Youngs Moduli (GPa) = 22.58832 108.63493 110.98609
#
# Poissons Ratio (x) = 0.32340 1.06705
# Poissons Ratio (y) = 0.06724 0.38974
# Poissons Ratio (z) = 0.21717 0.38148
#
# Static dielectric constant tensor:
#      x y z
#    x 1.639490 0.000000 0.000000 
#    y 0.000000 1.630750 0.000000 
#    z 0.000000 0.000000 1.654890 
# 
# From -- ./inp_files/22406.got.cif
#   From: 2010.05.17/outbox.cif.g08.bks.cpg/sg51_12_cif.got.tgz:22406.got - 2010.06.03 11:52:47.
