data_PCOD9406042
_publ_section_title
;
Structure prediction by ZEFSAII (Michael W. Deem and Ramdas Pophale) SiO2 
 PCOD9406042
Probable space group: P M M A
;
_chemical_formula_sum "Si O2"
_cell_formula_units_Z 48
_cell_length_a 9.226405
_cell_length_b 8.992701
_cell_length_c 31.644364
_cell_angle_alpha 90.000000
_cell_angle_beta 90.000000
_cell_angle_gamma 90.000000
_cell_volume 2625.542421
_symmetry_space_group_name_H-M "P M M A"
_symmetry_group_IT_number 51
_symmetry_cell_setting 'orthorhombic'
loop_
_space_group_symop_operation_xyz
x,y,z
1/2-x,-y,z
1/2+x,-y,-z
-x,y,-z
-x,-y,-z
1/2+x,y,-z
1/2-x,y,z
x,-y,z
loop_
_atom_site_type_symbol
_atom_site_label
_atom_site_fract_x
_atom_site_fract_y
_atom_site_fract_z
Si Si1 0.080819 0.679342 0.456804
Si Si2 0.921422 0.823062 0.122532
Si Si3 0.080863 0.820687 0.622699
Si Si4 0.579516 0.321672 0.956696
Si Si5 0.078853 0.322718 0.788371
Si Si6 0.919998 0.178697 0.709183
O O1 0.250000 0.721758 0.458221
O O2 0.072895 0.500000 0.453720
O O3 0.000000 0.723751 0.500000
O O4 0.002038 0.749805 0.416663
O O5 0.750000 0.791466 0.116232
O O6 0.964876 0.748707 0.166895
O O7 0.009491 0.757329 0.083498
O O8 0.940091 0.000000 0.125243
O O9 0.250000 0.778185 0.622654
O O10 0.005018 0.776967 0.666697
O O11 0.072325 0.000000 0.619581
O O12 0.750000 0.289552 0.959687
O O13 0.561423 0.500000 0.952038
O O14 0.500000 0.276722 0.000000
O O15 0.250000 0.288777 0.781972
O O16 0.062280 0.500000 0.790345
O O17 0.988679 0.255981 0.749869
O O18 0.750000 0.213671 0.705042
O O19 0.934321 0.000000 0.713771
#
# Coordination Sequence:
#
# PCOD9406042 Si02
#       6
#     8   8   8   8   8   8
#     4  10  21  37  57  81 110 145 184 226 273 324
#     4  10  21  37  58  83 111 145 184 226 273 324
#     4  10  21  37  58  83 110 143 183 226 273 325
#     4  10  21  37  58  83 111 145 184 226 273 324
#     4  10  21  37  58  83 110 143 183 225 270 322
#     4  10  21  37  57  81 110 144 181 223 272 324
#
# _framework density 18.281936999999999
#
# number of rings (size 3 to 8) (size 9 to 14) (size 15 to 20)
#    0.000    2.000    0.000    3.000    0.000    8.000 
#    0.000    0.000    0.000    0.000    0.000    0.000 
#    0.000    0.000    0.000    0.000    0.000    0.000 
#
# Total GULP energy -268202.605523 kJ/mol
# GULP energy per Si atom -5587.554282 kJ/mol
# Density = 1.824033 g / cm^3
# Si number density = 18.281937 Si / 1000 Ang^3
#
#
#
# Elastic Constant Matrix: (Units=GPa)
#
#
# Indices 1 2 3 4 5 6 
#
# 1 150.1808 61.7159 127.6769 0.0000 0.0000 0.0000
# 2 61.7159 29.8153 64.8146 0.0000 0.0000 0.0000
# 3 127.6769 64.8146 215.2267 0.0000 0.0000 0.0000
# 4 0.0000 0.0000 0.0000 41.0671 0.0000 0.0000
# 5 0.0000 0.0000 0.0000 0.0000 42.6008 0.0000
# 6 0.0000 0.0000 0.0000 0.0000 0.0000 29.9349
#
#
#
# Elastic Compliance Matrix: (Units=1/GPa)
#
#
# Indices 1 2 3 4 5 6 
#
# 1 0.045731 -0.103335 0.003990 0.000000 0.000000 0.000000
# 2 -0.103335 0.330614 -0.038263 0.000000 0.000000 0.000000
# 3 0.003990 -0.038263 0.013802 0.000000 0.000000 0.000000
# 4 0.000000 0.000000 0.000000 0.024350 0.000000 0.000000
# 5 0.000000 0.000000 0.000000 0.000000 0.023474 0.000000
# 6 0.000000 0.000000 0.000000 0.000000 0.000000 0.033406
#
#
# Mechanical properties :
#
#
# Convention : Reuss Voigt Hill
#
# Bulk Modulus (GPa) = 8.70074 100.40417 54.55246
# Shear Modulus (GPa) = 6.37021 32.12161 19.24591
#
# Velocity S-wave (km/s) = 1.86869 4.19622 3.24810
# Velocity P-wave (km/s) = 3.07010 8.86097 6.63108
#
# Compressibility (1/GPa) = 0.11493273
#
# Stress axis : x y z
#
# Youngs Moduli (GPa) = 21.86691 3.02467 72.45365
#
# Poissons Ratio (x) = 0.31255 -0.28910
# Poissons Ratio (y) = 2.25961 2.77228
# Poissons Ratio (z) = -0.08725 0.11573
#
# Static dielectric constant tensor:
#      x y z
#    x 1.614070 0.000000 0.000000 
#    y 0.000000 1.614080 0.000000 
#    z 0.000000 0.000000 1.582280 
# 
# From -- ./inp_files/36887.got.cif
#   From: 2010.05.17/outbox.cif.g08.bks.cpg/sg51_19_cif.got.tgz:36887.got - 2010.06.03 11:52:47.
