data_PCOD9406517
_publ_section_title
;
Structure prediction by ZEFSAII (Michael W. Deem and Ramdas Pophale) SiO2 
 PCOD9406517
Probable space group: P M M A
;
_chemical_formula_sum "Si O2"
_cell_formula_units_Z 64
_cell_length_a 8.678038
_cell_length_b 19.531041
_cell_length_c 20.248049
_cell_angle_alpha 90.000000
_cell_angle_beta 90.000000
_cell_angle_gamma 90.000000
_cell_volume 3431.864421
_symmetry_space_group_name_H-M "P M M A"
_symmetry_group_IT_number 51
_symmetry_cell_setting 'orthorhombic'
loop_
_space_group_symop_operation_xyz
x,y,z
1/2-x,-y,z
1/2+x,-y,-z
-x,y,-z
-x,-y,-z
1/2+x,y,-z
1/2-x,y,z
x,-y,z
loop_
_atom_site_type_symbol
_atom_site_label
_atom_site_fract_x
_atom_site_fract_y
_atom_site_fract_z
Si Si1 0.422985 0.577839 0.911047
Si Si2 0.434174 0.719766 0.290792
Si Si3 0.428538 0.423986 0.752210
Si Si4 0.934828 0.919549 0.926268
Si Si5 0.072608 0.287250 0.067300
Si Si6 0.064279 0.777379 0.426509
Si Si7 0.935812 0.071991 0.574359
Si Si8 0.931618 0.806273 0.173631
O O1 0.250000 0.601421 0.930447
O O2 0.444004 0.500000 0.932850
O O3 0.427396 0.576197 0.831675
O O4 0.550687 0.631238 0.933033
O O5 0.250000 0.726397 0.286785
O O6 0.482191 0.643748 0.268966
O O7 0.483445 0.728511 0.367084
O O8 0.502128 0.779766 0.243726
O O9 0.250000 0.418150 0.730718
O O10 0.486291 0.500000 0.731399
O O11 0.750000 0.912698 0.928694
O O12 0.997077 0.870384 0.867594
O O13 0.972675 0.000000 0.913707
O O14 0.000000 0.903153 0.000000
O O15 0.250000 0.267861 0.074911
O O16 0.972199 0.257782 0.126487
O O17 0.000000 0.259942 0.000000
O O18 0.250000 0.775893 0.431952
O O19 0.016614 0.853584 0.401401
O O20 0.000000 0.765427 0.500000
O O21 0.750000 0.071886 0.572690
O O22 0.000000 0.070289 0.500000
O O23 0.985243 0.000000 0.606974
O O24 0.750000 0.816629 0.179332
#
# Coordination Sequence:
#
# PCOD9406517 Si02
#       8
#     8   8   8   8   8   8   8   8
#     4   9  18  34  54  76 105 139 178 223 269 322
#     4  11  22  36  56  85 116 146 184 232 282 336
#     4   9  18  34  57  82 108 141 182 226 276 338
#     4  10  21  39  63  89 117 151 193 241 292 343
#     4  12  24  37  54  77 107 143 183 226 273 326
#     4   9  19  34  53  80 113 145 183 228 276 336
#     4   8  13  24  44  69  98 134 172 208 246 292
#     4  12  24  39  58  81 112 147 187 234 281 333
#
# _framework density 18.648757
#
# number of rings (size 3 to 8) (size 9 to 14) (size 15 to 20)
#    0.000    2.000    1.250    4.125    0.000    2.500 
#    0.000    1.875    0.000    2.625    0.000    1.750 
#    0.000    0.000    0.000    0.000    0.000    0.000 
#
# Total GULP energy -356670.854903 kJ/mol
# GULP energy per Si atom -5572.982108 kJ/mol
# Density = 1.860631 g / cm^3
# Si number density = 18.648757 Si / 1000 Ang^3
#
#
#
# Elastic Constant Matrix: (Units=GPa)
#
#
# Indices 1 2 3 4 5 6 
#
# 1 62.4691 40.5597 35.2300 0.0000 0.0000 0.0000
# 2 40.5597 106.3155 45.0149 0.0000 0.0000 0.0000
# 3 35.2300 45.0149 103.1356 0.0000 0.0000 0.0000
# 4 0.0000 0.0000 0.0000 27.9982 0.0000 0.0000
# 5 0.0000 0.0000 0.0000 0.0000 20.9788 0.0000
# 6 0.0000 0.0000 0.0000 0.0000 0.0000 27.0767
#
#
#
# Elastic Compliance Matrix: (Units=1/GPa)
#
#
# Indices 1 2 3 4 5 6 
#
# 1 0.023192 -0.006739 -0.004981 0.000000 0.000000 0.000000
# 2 -0.006739 0.013496 -0.003589 0.000000 0.000000 0.000000
# 3 -0.004981 -0.003589 0.012964 0.000000 0.000000 0.000000
# 4 0.000000 0.000000 0.000000 0.035717 0.000000 0.000000
# 5 0.000000 0.000000 0.000000 0.000000 0.047667 0.000000
# 6 0.000000 0.000000 0.000000 0.000000 0.000000 0.036932
#
#
# Mechanical properties :
#
#
# Convention : Reuss Voigt Hill
#
# Bulk Modulus (GPa) = 52.53410 57.05881 54.79646
# Shear Modulus (GPa) = 24.16264 25.28511 24.72388
#
# Velocity S-wave (km/s) = 3.60345 3.68620 3.64506
# Velocity P-wave (km/s) = 6.74867 6.98430 6.86749
#
# Compressibility (1/GPa) = 0.01903525
#
# Stress axis : x y z
#
# Youngs Moduli (GPa) = 43.11743 74.09379 77.13817
#
# Poissons Ratio (x) = 0.49932 0.38422
# Poissons Ratio (y) = 0.29057 0.27683
# Poissons Ratio (z) = 0.21477 0.26590
#
# Static dielectric constant tensor:
#      x y z
#    x 1.648910 0.000000 0.000000 
#    y 0.000000 1.702970 0.000000 
#    z 0.000000 0.000000 1.217880 
# 
# From -- ./inp_files/32404.got.cif
#   From: 2010.05.17/outbox.cif.g08.bks.cpg/sg51_17_cif.got.tgz:32404.got - 2010.06.03 11:52:47.
