data_PCOD9406402
_publ_section_title
;
Structure prediction by ZEFSAII (Michael W. Deem and Ramdas Pophale) SiO2 
 PCOD9406402
Probable space group: P M M A
;
_chemical_formula_sum "Si O2"
_cell_formula_units_Z 40
_cell_length_a 8.802859
_cell_length_b 25.487441
_cell_length_c 9.391222
_cell_angle_alpha 90.000000
_cell_angle_beta 90.000000
_cell_angle_gamma 90.000000
_cell_volume 2107.036632
_symmetry_space_group_name_H-M "P M M A"
_symmetry_group_IT_number 51
_symmetry_cell_setting 'orthorhombic'
loop_
_space_group_symop_operation_xyz
x,y,z
1/2-x,-y,z
1/2+x,-y,-z
-x,y,-z
-x,-y,-z
1/2+x,y,-z
1/2-x,y,z
x,-y,z
loop_
_atom_site_type_symbol
_atom_site_label
_atom_site_fract_x
_atom_site_fract_y
_atom_site_fract_z
Si Si1 0.931608 0.938860 0.345038
Si Si2 0.430500 0.437855 0.345215
Si Si3 0.068851 0.848648 0.155677
Si Si4 0.431996 0.745547 0.342387
Si Si5 0.931576 0.651244 0.157106
O O1 0.750000 0.933361 0.350256
O O2 0.000000 0.925740 0.500000
O O3 0.999921 0.900259 0.228417
O O4 0.968026 0.000000 0.315879
O O5 0.500000 0.424845 0.500000
O O6 0.250000 0.427480 0.345939
O O7 0.453683 0.500000 0.321440
O O8 0.511413 0.402868 0.227106
O O9 0.250000 0.853836 0.144909
O O10 0.035079 0.798975 0.256511
O O11 0.000000 0.840222 0.000000
O O12 0.500000 0.748312 0.500000
O O13 0.250000 0.738672 0.349285
O O14 0.505385 0.697505 0.256956
O O15 0.750000 0.652892 0.151552
O O16 0.000000 0.657269 0.000000
#
# Coordination Sequence:
#
# PCOD9406402 Si02
#       5
#     8   8   8   8   8
#     4  10  21  38  61  88 119 156 198 244 293 348
#     4  10  21  39  63  90 121 158 200 245 293 347
#     4  11  24  40  61  88 120 157 196 243 296 351
#     4  11  24  42  64  90 119 154 197 242 292 350
#     4  12  25  41  62  88 121 158 197 244 297 352
#
# _framework density 18.984007999999999
#
# number of rings (size 3 to 8) (size 9 to 14) (size 15 to 20)
#    0.000    1.200    0.000    6.000    0.000    9.600 
#    0.000    0.000    0.000    0.000    0.000    0.000 
#    0.000    0.000    0.000    0.000    0.000    0.000 
#
# Total GULP energy -223832.905704 kJ/mol
# GULP energy per Si atom -5595.822643 kJ/mol
# Density = 1.894080 g / cm^3
# Si number density = 18.984008 Si / 1000 Ang^3
#
#
#
# Elastic Constant Matrix: (Units=GPa)
#
#
# Indices 1 2 3 4 5 6 
#
# 1 118.8133 73.0659 92.5759 0.0000 0.0000 0.0000
# 2 73.0659 85.1277 88.4398 0.0000 0.0000 0.0000
# 3 92.5759 88.4398 193.4454 0.0000 0.0000 0.0000
# 4 0.0000 0.0000 0.0000-1131.2835 0.0000 0.0000
# 5 0.0000 0.0000 0.0000 0.0000 41.6090 0.0000
# 6 0.0000 0.0000 0.0000 0.0000 0.0000 -15.5073
#
#
#
# Elastic Compliance Matrix: (Units=1/GPa)
#
#
# Indices 1 2 3 4 5 6 
#
# 1 0.018739 -0.012889 -0.003075 0.000000 0.000000 0.000000
# 2 -0.012889 0.031239 -0.008114 0.000000 0.000000 0.000000
# 3 -0.003075 -0.008114 0.010351 0.000000 0.000000 0.000000
# 4 0.000000 0.000000 0.000000 -0.000884 0.000000 0.000000
# 5 0.000000 0.000000 0.000000 0.000000 0.024033 0.000000
# 6 0.000000 0.000000 0.000000 0.000000 0.000000 -0.064486
#
#
# Mechanical properties :
#
#
# Convention : Reuss Voigt Hill
#
# Bulk Modulus (GPa) = 82.15014 100.61662 91.38338
# Shear Modulus (GPa) = 70.21893 -211.48269 -70.63188
#
# Velocity S-wave (km/s) = 6.08841 -10.56609 -6.10629
# Velocity P-wave (km/s) = 9.63288 9.78471 1.21414
#
# Compressibility (1/GPa) = 0.01217283
#
# Stress axis : x y z
#
# Youngs Moduli (GPa) = 53.36502 32.01093 96.61293
#
# Poissons Ratio (x) = 0.41259 0.29710
# Poissons Ratio (y) = 0.68782 0.78391
# Poissons Ratio (z) = 0.16410 0.25973
#
# Static dielectric constant tensor:
#      x y z
#    x 1.630470 0.000000 0.000000 
#    y 0.000000 1.648320 0.000000 
#    z 0.000000 0.000000 1.614890 
# 
# From -- ./inp_files/5201.got.cif
#   From: 2010.05.17/outbox.cif.g08.bks.cpg/sg51_3_cif.got.tgz:5201.got - 2010.06.03 11:52:47.
