data_PCOD9406632
_publ_section_title
;
Structure prediction by ZEFSAII (Michael W. Deem and Ramdas Pophale) SiO2 
 PCOD9406632
Probable space group: P M M A
;
_chemical_formula_sum "Si O2"
_cell_formula_units_Z 44
_cell_length_a 8.269103
_cell_length_b 29.550026
_cell_length_c 9.342849
_cell_angle_alpha 90.000000
_cell_angle_beta 90.000000
_cell_angle_gamma 90.000000
_cell_volume 2282.945788
_symmetry_space_group_name_H-M "P M M A"
_symmetry_group_IT_number 51
_symmetry_cell_setting 'orthorhombic'
loop_
_space_group_symop_operation_xyz
x,y,z
1/2-x,-y,z
1/2+x,-y,-z
-x,y,-z
-x,-y,-z
1/2+x,y,-z
1/2-x,y,z
x,-y,z
loop_
_atom_site_type_symbol
_atom_site_label
_atom_site_fract_x
_atom_site_fract_y
_atom_site_fract_z
Si Si1 0.943564 0.686446 0.663128
Si Si2 0.554603 0.050832 0.162574
Si Si3 0.945565 0.862322 0.337130
Si Si4 0.054156 0.401316 0.165069
Si Si5 0.444960 0.500000 0.165221
Si Si6 0.943528 0.774168 0.163361
O O1 0.750000 0.685423 0.664861
O O2 0.004085 0.640603 0.740245
O O3 0.000000 0.689139 0.500000
O O4 0.999335 0.729970 0.751974
O O5 0.750000 0.050843 0.164749
O O6 0.497204 0.090759 0.265872
O O7 0.499425 0.000000 0.202231
O O8 0.500000 0.059627 0.000000
O O9 0.750000 0.862434 0.333942
O O10 0.002270 0.819465 0.243966
O O11 0.000000 0.858160 0.500000
O O12 0.250000 0.400932 0.165619
O O13 0.999785 0.450966 0.221513
O O14 0.000000 0.396300 0.000000
O O15 0.250000 0.500000 0.171352
O O16 0.500000 0.500000 0.000000
O O17 0.750000 0.774768 0.164929
O O18 0.000000 0.773218 0.000000
#
# Coordination Sequence:
#
# PCOD9406632 Si02
#       6
#     8   8   8   8   4   8
#     4  11  23  38  55  78 108 142 178 219 267 317
#     4   9  18  34  55  79 107 139 177 220 263 309
#     4  10  22  37  54  79 110 142 176 216 263 314
#     4   9  18  32  53  78 104 135 173 216 261 311
#     4   8  14  28  49  74 102 132 168 212 259 306
#     4  11  23  39  59  82 107 138 177 220 265 316
#
# _framework density 19.273344999999999
#
# number of rings (size 3 to 8) (size 9 to 14) (size 15 to 20)
#    0.000    2.182    0.000    2.727    0.000    6.909 
#    0.000    0.455    0.000    0.000    0.000    0.000 
#    0.000    0.000    0.000    0.000    0.000    0.000 
#
# Total GULP energy -245593.014891 kJ/mol
# GULP energy per Si atom -5581.659429 kJ/mol
# Density = 1.922948 g / cm^3
# Si number density = 19.273345 Si / 1000 Ang^3
#
#
#
# Elastic Constant Matrix: (Units=GPa)
#
#
# Indices 1 2 3 4 5 6 
#
# 1 17.8423 25.8585 15.0643 0.0000 0.0000 0.0000
# 2 25.8585 216.2768 126.4316 0.0000 0.0000 0.0000
# 3 15.0643 126.4316 155.3491 0.0000 0.0000 0.0000
# 4 0.0000 0.0000 0.0000 -0.9251 0.0000 0.0000
# 5 0.0000 0.0000 0.0000 0.0000 32.4017 0.0000
# 6 0.0000 0.0000 0.0000 0.0000 0.0000 16.7437
#
#
#
# Elastic Compliance Matrix: (Units=1/GPa)
#
#
# Indices 1 2 3 4 5 6 
#
# 1 0.067794 -0.008131 0.000043 0.000000 0.000000 0.000000
# 2 -0.008131 0.009795 -0.007183 0.000000 0.000000 0.000000
# 3 0.000043 -0.007183 0.012279 0.000000 0.000000 0.000000
# 4 0.000000 0.000000 0.000000 -1.080976 0.000000 0.000000
# 5 0.000000 0.000000 0.000000 0.000000 0.030863 0.000000
# 6 0.000000 0.000000 0.000000 0.000000 0.000000 0.059724
#
#
# Mechanical properties :
#
#
# Convention : Reuss Voigt Hill
#
# Bulk Modulus (GPa) = 16.85591 80.46410 48.66001
# Shear Modulus (GPa) = -5.88094 24.45166 9.28536
#
# Velocity S-wave (km/s) = -1.74870 3.56571 2.19731
# Velocity P-wave (km/s) = 2.16504 7.66759 5.63380
#
# Compressibility (1/GPa) = 0.05932639
#
# Stress axis : x y z
#
# Youngs Moduli (GPa) = 14.75058 102.09194 81.43928
#
# Poissons Ratio (x) = 0.83010 -0.00353
# Poissons Ratio (y) = 0.11994 0.58500
# Poissons Ratio (z) = -0.00064 0.73336
#
# Static dielectric constant tensor:
#      x y z
#    x 1.679400 0.000000 0.000000 
#    y 0.000000 1.710790 0.000000 
#    z 0.000000 0.000000 1.608190 
# 
# From -- ./inp_files/5763.got.cif
#   From: 2010.05.17/outbox.cif.g08.bks.cpg/sg51_3_cif.got.tgz:5763.got - 2010.06.03 11:52:47.
