data_PCOD9406033
_publ_section_title
;
Structure prediction by ZEFSAII (Michael W. Deem and Ramdas Pophale) SiO2 
 PCOD9406033
Probable space group: P M M A
;
_chemical_formula_sum "Si O2"
_cell_formula_units_Z 48
_cell_length_a 8.665875
_cell_length_b 9.603547
_cell_length_c 31.610114
_cell_angle_alpha 90.000000
_cell_angle_beta 90.000000
_cell_angle_gamma 90.000000
_cell_volume 2630.692875
_symmetry_space_group_name_H-M "P M M A"
_symmetry_group_IT_number 51
_symmetry_cell_setting 'orthorhombic'
loop_
_space_group_symop_operation_xyz
x,y,z
1/2-x,-y,z
1/2+x,-y,-z
-x,y,-z
-x,-y,-z
1/2+x,y,-z
1/2-x,y,z
x,-y,z
loop_
_atom_site_type_symbol
_atom_site_label
_atom_site_fract_x
_atom_site_fract_y
_atom_site_fract_z
Si Si1 0.565167 0.161903 0.953827
Si Si2 0.565405 0.162077 0.799314
Si Si3 0.065080 0.338705 0.876484
Si Si4 0.061492 0.660144 0.626292
Si Si5 0.435881 0.162262 0.707395
Si Si6 0.436206 0.838507 0.545610
O O1 0.750000 0.170310 0.954478
O O2 0.499939 0.259548 0.917365
O O3 0.522111 0.000000 0.945432
O O4 0.500000 0.198901 0.000000
O O5 0.750000 0.169671 0.801656
O O6 0.493253 0.259296 0.834877
O O7 0.509639 0.200500 0.752279
O O8 0.519700 0.000000 0.806420
O O9 0.250000 0.334056 0.877597
O O10 0.015789 0.500000 0.876090
O O11 0.250000 0.661576 0.626162
O O12 0.011645 0.500000 0.626219
O O13 0.013381 0.741596 0.668563
O O14 0.011541 0.742451 0.584318
O O15 0.250000 0.172471 0.711197
O O16 0.472853 0.000000 0.698542
O O17 0.500000 0.794646 0.500000
O O18 0.250000 0.834425 0.544189
O O19 0.481869 0.000000 0.552724
#
# Coordination Sequence:
#
# PCOD9406033 Si02
#       6
#     8   8   8   8   8   8
#     4  10  21  38  61  87 113 144 183 225 269 317
#     4  10  21  37  57  81 108 139 176 218 265 316
#     4  11  24  39  56  81 112 146 183 222 266 316
#     4   9  17  29  47  71  97 126 162 204 248 296
#     4   9  17  31  52  75  98 128 167 209 252 300
#     4   9  17  30  48  69  93 123 160 201 245 294
#
# _framework density 18.246143
#
# number of rings (size 3 to 8) (size 9 to 14) (size 15 to 20)
#    0.000    2.333    0.000    2.500    0.000    8.667 
#    0.000    2.500    0.000    5.000    0.000    0.000 
#    0.000    0.000    0.000    0.000    0.000    0.000 
#
# Total GULP energy -267991.071764 kJ/mol
# GULP energy per Si atom -5583.147328 kJ/mol
# Density = 1.820461 g / cm^3
# Si number density = 18.246143 Si / 1000 Ang^3
#
#
#
# Elastic Constant Matrix: (Units=GPa)
#
#
# Indices 1 2 3 4 5 6 
#
# 1 23.1651 37.3857 43.6812 0.0000 0.0000 0.0000
# 2 37.3857 133.3359 137.8190 0.0000 0.0000 0.0000
# 3 43.6812 137.8190 201.4469 0.0000 0.0000 0.0000
# 4 0.0000 0.0000 0.0000 -10.0824 0.0000 0.0000
# 5 0.0000 0.0000 0.0000 0.0000 32.6984 0.0000
# 6 0.0000 0.0000 0.0000 0.0000 0.0000 19.4988
#
#
#
# Elastic Compliance Matrix: (Units=1/GPa)
#
#
# Indices 1 2 3 4 5 6 
#
# 1 0.081618 -0.015679 -0.006971 0.000000 0.000000 0.000000
# 2 -0.015679 0.028622 -0.016182 0.000000 0.000000 0.000000
# 3 -0.006971 -0.016182 0.017546 0.000000 0.000000 0.000000
# 4 0.000000 0.000000 0.000000 -0.099183 0.000000 0.000000
# 5 0.000000 0.000000 0.000000 0.000000 0.030583 0.000000
# 6 0.000000 0.000000 0.000000 0.000000 0.000000 0.051285
#
#
# Mechanical properties :
#
#
# Convention : Reuss Voigt Hill
#
# Bulk Modulus (GPa) = 19.95129 88.41330 54.18230
# Shear Modulus (GPa) = 24.40910 17.69376 21.05143
#
# Velocity S-wave (km/s) = 3.66152 3.11742 3.40037
# Velocity P-wave (km/s) = 5.36972 7.84339 6.72134
#
# Compressibility (1/GPa) = 0.05012208
#
# Stress axis : x y z
#
# Youngs Moduli (GPa) = 12.25227 34.93831 56.99234
#
# Poissons Ratio (x) = 0.54781 0.39728
# Poissons Ratio (y) = 0.19211 0.92223
# Poissons Ratio (z) = 0.08541 0.56536
#
# Static dielectric constant tensor:
#      x y z
#    x 1.617720 0.000000 0.000000 
#    y 0.000000 1.616470 0.000000 
#    z 0.000000 0.000000 1.592650 
# 
# From -- ./inp_files/36924.got.cif
#   From: 2010.05.17/outbox.cif.g08.bks.cpg/sg51_19_cif.got.tgz:36924.got - 2010.06.03 11:52:47.
