data_PCOD9406303
_publ_section_title
;
Structure prediction by ZEFSAII (Michael W. Deem and Ramdas Pophale) SiO2 
 PCOD9406303
Probable space group: P M M A
;
_chemical_formula_sum "Si O2"
_cell_formula_units_Z 56
_cell_length_a 17.979426
_cell_length_b 23.625968
_cell_length_c 7.004574
_cell_angle_alpha 90.000000
_cell_angle_beta 90.000000
_cell_angle_gamma 90.000000
_cell_volume 2975.412353
_symmetry_space_group_name_H-M "P M M A"
_symmetry_group_IT_number 51
_symmetry_cell_setting 'orthorhombic'
loop_
_space_group_symop_operation_xyz
x,y,z
1/2-x,-y,z
1/2+x,-y,-z
-x,y,-z
-x,-y,-z
1/2+x,y,-z
1/2-x,y,z
x,-y,z
loop_
_atom_site_type_symbol
_atom_site_label
_atom_site_fract_x
_atom_site_fract_y
_atom_site_fract_z
Si Si1 0.161392 0.661675 0.192259
Si Si2 0.414637 0.934904 0.051797
Si Si3 0.839180 0.434481 0.108799
Si Si4 0.663573 0.936256 0.555100
Si Si5 0.163257 0.848860 0.782276
Si Si6 0.923448 0.738644 0.105646
Si Si7 0.421638 0.639888 0.583783
O O1 0.250000 0.666797 0.205255
O O2 0.126506 0.659834 0.402267
O O3 0.142942 0.603787 0.076368
O O4 0.128862 0.710899 0.057262
O O5 0.394889 0.931987 0.274348
O O6 0.400644 0.000000 0.991870
O O7 0.500000 0.921760 0.000000
O O8 0.360780 0.891221 0.949390
O O9 0.750000 0.430589 0.137105
O O10 0.859016 0.500000 0.082489
O O11 0.879471 0.407082 0.290975
O O12 0.750000 0.932282 0.623626
O O13 0.651137 0.886192 0.406772
O O14 0.656462 0.000000 0.470938
O O15 0.250000 0.834081 0.794150
O O16 0.114558 0.792877 0.800578
O O17 0.935917 0.691544 0.269223
O O18 0.000000 0.753287 0.000000
O O19 0.500000 0.619533 0.500000
#
# Coordination Sequence:
#
# PCOD9406303 Si02
#       7
#     8   8   8   8   8   8   8
#     4  10  21  39  64  89 119 163 207 248 298 359
#     4  10  21  38  59  85 117 154 192 237 299 366
#     4   9  20  38  61  93 130 162 199 250 303 359
#     4   9  19  37  60  86 118 154 192 239 295 357
#     4  11  23  38  59  87 116 151 200 248 297 357
#     4  11  23  42  61  85 122 158 201 256 307 356
#     4  11  22  39  63  88 119 165 209 250 305 361
#
# _framework density 18.820921999999999
#
# number of rings (size 3 to 8) (size 9 to 14) (size 15 to 20)
#    0.000    1.857    1.429    2.143    0.000    5.714 
#    2.571    5.714    0.000    0.000    0.000    0.000 
#    0.000    0.000    0.000    0.000    0.000    0.000 
#
# Total GULP energy -312671.644156 kJ/mol
# GULP energy per Si atom -5583.422217 kJ/mol
# Density = 1.877808 g / cm^3
# Si number density = 18.820922 Si / 1000 Ang^3
#
#
#
# Elastic Constant Matrix: (Units=GPa)
#
#
# Indices 1 2 3 4 5 6 
#
# 1 81.5810 46.5667 47.8377 0.0000 0.0000 0.0000
# 2 46.5667 91.8621 22.3307 0.0000 0.0000 0.0000
# 3 47.8377 22.3307 78.1524 0.0000 0.0000 0.0000
# 4 0.0000 0.0000 0.0000 23.8435 0.0000 0.0000
# 5 0.0000 0.0000 0.0000 0.0000 30.7723 0.0000
# 6 0.0000 0.0000 0.0000 0.0000 0.0000 33.7923
#
#
#
# Elastic Compliance Matrix: (Units=1/GPa)
#
#
# Indices 1 2 3 4 5 6 
#
# 1 0.025228 -0.009709 -0.012668 0.000000 0.000000 0.000000
# 2 -0.009709 0.015435 0.001533 0.000000 0.000000 0.000000
# 3 -0.012668 0.001533 0.020112 0.000000 0.000000 0.000000
# 4 0.000000 0.000000 0.000000 0.041940 0.000000 0.000000
# 5 0.000000 0.000000 0.000000 0.000000 0.032497 0.000000
# 6 0.000000 0.000000 0.000000 0.000000 0.000000 0.029593
#
#
# Mechanical properties :
#
#
# Convention : Reuss Voigt Hill
#
# Bulk Modulus (GPa) = 52.39454 53.89618 53.14536
# Shear Modulus (GPa) = 23.49009 26.67230 25.08119
#
# Velocity S-wave (km/s) = 3.53666 3.76861 3.65447
# Velocity P-wave (km/s) = 6.67654 6.90181 6.79011
#
# Compressibility (1/GPa) = 0.01908596
#
# Stress axis : x y z
#
# Youngs Moduli (GPa) = 39.63821 64.78753 49.72197
#
# Poissons Ratio (x) = 0.62903 0.62989
# Poissons Ratio (y) = 0.38485 -0.07621
# Poissons Ratio (z) = 0.50214 -0.09930
#
# Static dielectric constant tensor:
#      x y z
#    x 1.646980 0.000000 0.000000 
#    y 0.000000 1.638210 0.000000 
#    z 0.000000 0.000000 1.629710 
# 
# From -- ./inp_files/2614.got.cif
#   From: 2010.05.17/outbox.cif.g08.bks.cpg/sg51_2_cif.got.tgz:2614.got - 2010.06.03 11:52:47.
