data_PCOD9406089
_publ_section_title
;
Structure prediction by ZEFSAII (Michael W. Deem and Ramdas Pophale) SiO2 
 PCOD9406089
Probable space group: P M M A
;
_chemical_formula_sum "Si O2"
_cell_formula_units_Z 56
_cell_length_a 8.805167
_cell_length_b 19.355199
_cell_length_c 16.178251
_cell_angle_alpha 90.000000
_cell_angle_beta 90.000000
_cell_angle_gamma 90.000000
_cell_volume 2757.190714
_symmetry_space_group_name_H-M "P M M A"
_symmetry_group_IT_number 51
_symmetry_cell_setting 'orthorhombic'
loop_
_space_group_symop_operation_xyz
x,y,z
1/2-x,-y,z
1/2+x,-y,-z
-x,y,-z
-x,-y,-z
1/2+x,y,-z
1/2-x,y,z
x,-y,z
loop_
_atom_site_type_symbol
_atom_site_label
_atom_site_fract_x
_atom_site_fract_y
_atom_site_fract_z
Si Si1 0.929431 0.215814 0.656508
Si Si2 0.930522 0.651158 0.414573
Si Si3 0.071002 0.353673 0.912556
Si Si4 0.571066 0.212533 0.171188
Si Si5 0.568192 0.922063 0.907780
Si Si6 0.431693 0.922468 0.592222
Si Si7 0.073449 0.582760 0.252459
O O1 0.750000 0.218403 0.644213
O O2 0.011218 0.270310 0.597160
O O3 0.976406 0.235691 0.749213
O O4 0.991641 0.138893 0.642302
O O5 0.750000 0.649624 0.418392
O O6 0.000000 0.623228 0.500000
O O7 0.988226 0.611459 0.333207
O O8 0.250000 0.368262 0.912598
O O9 0.051077 0.271198 0.898133
O O10 0.996677 0.389772 0.833085
O O11 0.000000 0.374272 0.000000
O O12 0.750000 0.209653 0.192199
O O13 0.511200 0.138394 0.142931
O O14 0.250000 0.911399 0.089709
O O15 0.539786 0.000000 0.875717
O O16 0.500000 0.919248 0.000000
O O17 0.500000 0.919132 0.500000
O O18 0.250000 0.913060 0.589243
O O19 0.462798 0.000000 0.624552
O O20 0.250000 0.604059 0.257686
O O21 0.065369 0.500000 0.252664
#
# Coordination Sequence:
#
# PCOD9406089 Si02
#       7
#     8   8   8   8   8   8   8
#     4  12  24  39  62  90 125 166 212 269 325 384
#     4  12  25  44  70 100 135 176 222 269 323 387
#     4  11  24  42  68  99 134 176 221 271 325 388
#     4  11  23  39  61  90 123 163 213 268 324 384
#     4  10  21  37  57  83 117 160 210 265 324 385
#     4  10  21  38  59  84 118 160 209 265 323 385
#     4  11  25  46  72 103 138 174 216 267 323 386
#
# _framework density 20.310528999999999
#
# number of rings (size 3 to 8) (size 9 to 14) (size 15 to 20)
#    0.000    1.000    1.429    5.571    0.000    6.857 
#    0.000    0.000    0.000    0.000    0.000    0.000 
#    0.000    0.000    0.000    0.000    0.000    0.000 
#
# Total GULP energy -313285.416174 kJ/mol
# GULP energy per Si atom -5594.382432 kJ/mol
# Density = 2.026430 g / cm^3
# Si number density = 20.310529 Si / 1000 Ang^3
#
#
#
# Elastic Constant Matrix: (Units=GPa)
#
#
# Indices 1 2 3 4 5 6 
#
# 1 169.3000 57.9827 69.6312 0.0000 0.0000 0.0000
# 2 57.9827 75.2333 37.0207 0.0000 0.0000 0.0000
# 3 69.6312 37.0207 132.4643 0.0000 0.0000 0.0000
# 4 0.0000 0.0000 0.0000 46.4354 0.0000 0.0000
# 5 0.0000 0.0000 0.0000 0.0000 38.5750 0.0000
# 6 0.0000 0.0000 0.0000 0.0000 0.0000 20.3724
#
#
#
# Elastic Compliance Matrix: (Units=1/GPa)
#
#
# Indices 1 2 3 4 5 6 
#
# 1 0.009105 -0.005406 -0.003275 0.000000 0.000000 0.000000
# 2 -0.005406 0.018621 -0.002363 0.000000 0.000000 0.000000
# 3 -0.003275 -0.002363 0.009931 0.000000 0.000000 0.000000
# 4 0.000000 0.000000 0.000000 0.021535 0.000000 0.000000
# 5 0.000000 0.000000 0.000000 0.000000 0.025923 0.000000
# 6 0.000000 0.000000 0.000000 0.000000 0.000000 0.049086
#
#
# Mechanical properties :
#
#
# Convention : Reuss Voigt Hill
#
# Bulk Modulus (GPa) = 64.22664 78.47407 71.35036
# Shear Modulus (GPa) = 30.96377 35.23412 33.09895
#
# Velocity S-wave (km/s) = 3.90874 4.16958 4.04127
# Velocity P-wave (km/s) = 7.21540 7.86775 7.54863
#
# Compressibility (1/GPa) = 0.01556986
#
# Stress axis : x y z
#
# Youngs Moduli (GPa) = 109.82751 53.70381 100.69204
#
# Poissons Ratio (x) = 0.29030 0.32982
# Poissons Ratio (y) = 0.59368 0.23789
# Poissons Ratio (z) = 0.35974 0.12688
#
# Static dielectric constant tensor:
#      x y z
#    x 1.677930 0.000000 0.000000 
#    y 0.000000 1.727460 0.000000 
#    z 0.000000 0.000000 1.721870 
# 
# From -- ./inp_files/21693.got.cif
#   From: 2010.05.17/outbox.cif.g08.bks.cpg/sg51_11_cif.got.tgz:21693.got - 2010.06.03 11:52:47.
