data_PCOD9406239
_publ_section_title
;
Structure prediction by ZEFSAII (Michael W. Deem and Ramdas Pophale) SiO2 
 PCOD9406239
Probable space group: P M M A
;
_chemical_formula_sum "Si O2"
_cell_formula_units_Z 48
_cell_length_a 8.725111
_cell_length_b 31.311356
_cell_length_c 9.806700
_cell_angle_alpha 90.000000
_cell_angle_beta 90.000000
_cell_angle_gamma 90.000000
_cell_volume 2679.141962
_symmetry_space_group_name_H-M "P M M A"
_symmetry_group_IT_number 51
_symmetry_cell_setting 'orthorhombic'
loop_
_space_group_symop_operation_xyz
x,y,z
1/2-x,-y,z
1/2+x,-y,-z
-x,y,-z
-x,-y,-z
1/2+x,y,-z
1/2-x,y,z
x,-y,z
loop_
_atom_site_type_symbol
_atom_site_label
_atom_site_fract_x
_atom_site_fract_y
_atom_site_fract_z
Si Si1 0.932767 0.634544 0.652903
Si Si2 0.433120 0.805140 0.850271
Si Si3 0.065977 0.124197 0.348447
Si Si4 0.934662 0.950965 0.852555
Si Si5 0.433305 0.705315 0.850395
Si Si6 0.566180 0.546735 0.346043
O O1 0.750000 0.633542 0.645918
O O2 0.000000 0.638181 0.500000
O O3 0.991367 0.673852 0.742042
O O4 0.993820 0.589589 0.714540
O O5 0.250000 0.810650 0.853064
O O6 0.506055 0.835631 0.737837
O O7 0.466764 0.755238 0.821307
O O8 0.500000 0.815180 0.000000
O O9 0.250000 0.125234 0.353915
O O10 0.017689 0.081907 0.264265
O O11 0.000000 0.124127 0.500000
O O12 0.750000 0.950167 0.860538
O O13 0.982739 0.000000 0.825771
O O14 0.000000 0.938207 0.000000
O O15 0.250000 0.699868 0.850460
O O16 0.500000 0.696040 0.000000
O O17 0.500000 0.545479 0.500000
O O18 0.750000 0.551063 0.351729
O O19 0.530091 0.500000 0.284150
#
# Coordination Sequence:
#
# PCOD9406239 Si02
#       6
#     8   8   8   8   8   8
#     4  11  21  33  52  78 108 141 177 220 267 315
#     4  10  21  38  60  82 106 138 177 220 264 316
#     4  11  23  37  55  80 112 146 180 222 271 321
#     4   9  19  36  57  81 108 141 182 224 266 315
#     4  10  21  38  58  80 106 138 176 217 264 319
#     4   9  16  27  45  70 101 136 174 217 263 312
#
# _framework density 17.916184000000001
#
# number of rings (size 3 to 8) (size 9 to 14) (size 15 to 20)
#    0.000    2.000    0.000    5.000    0.000    6.667 
#    0.000    0.000    0.000    0.500    0.000    0.000 
#    0.000    0.000    0.000    0.000    0.000    0.000 
#
# Total GULP energy -267935.380359 kJ/mol
# GULP energy per Si atom -5581.987091 kJ/mol
# Density = 1.787541 g / cm^3
# Si number density = 17.916184 Si / 1000 Ang^3
#
#
#
# Elastic Constant Matrix: (Units=GPa)
#
#
# Indices 1 2 3 4 5 6 
#
# 1 88.3770 67.9479 55.9956 0.0000 0.0000 0.0000
# 2 67.9479 135.3548 104.6404 0.0000 0.0000 0.0000
# 3 55.9956 104.6404 125.2957 0.0000 0.0000 0.0000
# 4 0.0000 0.0000 0.0000 36.6931 0.0000 0.0000
# 5 0.0000 0.0000 0.0000 0.0000 31.4994 0.0000
# 6 0.0000 0.0000 0.0000 0.0000 0.0000 29.1864
#
#
#
# Elastic Compliance Matrix: (Units=1/GPa)
#
#
# Indices 1 2 3 4 5 6 
#
# 1 0.018520 -0.008179 -0.001446 0.000000 0.000000 0.000000
# 2 -0.008179 0.024461 -0.016773 0.000000 0.000000 0.000000
# 3 -0.001446 -0.016773 0.022635 0.000000 0.000000 0.000000
# 4 0.000000 0.000000 0.000000 0.027253 0.000000 0.000000
# 5 0.000000 0.000000 0.000000 0.000000 0.031747 0.000000
# 6 0.000000 0.000000 0.000000 0.000000 0.000000 0.034263
#
#
# Mechanical properties :
#
#
# Convention : Reuss Voigt Hill
#
# Bulk Modulus (GPa) = 78.00473 89.57727 83.79100
# Shear Modulus (GPa) = 23.15374 27.50535 25.32955
#
# Velocity S-wave (km/s) = 3.59881 3.92244 3.76411
# Velocity P-wave (km/s) = 7.80396 8.40361 8.10933
#
# Compressibility (1/GPa) = 0.01281973
#
# Stress axis : x y z
#
# Youngs Moduli (GPa) = 53.99661 40.88144 44.17861
#
# Poissons Ratio (x) = 0.33437 0.06387
# Poissons Ratio (y) = 0.44164 0.74102
# Poissons Ratio (z) = 0.07807 0.68571
#
# Static dielectric constant tensor:
#      x y z
#    x 1.598980 0.000000 0.000000 
#    y 0.000000 1.643100 0.000000 
#    z 0.000000 0.000000 1.572750 
# 
# From -- ./inp_files/5957.got.cif
#   From: 2010.05.17/outbox.cif.g08.bks.cpg/sg51_3_cif.got.tgz:5957.got - 2010.06.03 11:52:47.
