data_PCOD9406294
_publ_section_title
;
Structure prediction by ZEFSAII (Michael W. Deem and Ramdas Pophale) SiO2 
 PCOD9406294
Probable space group: P M M A
;
_chemical_formula_sum "Si O2"
_cell_formula_units_Z 40
_cell_length_a 8.618233
_cell_length_b 25.777227
_cell_length_c 9.830630
_cell_angle_alpha 90.000000
_cell_angle_beta 90.000000
_cell_angle_gamma 90.000000
_cell_volume 2183.915236
_symmetry_space_group_name_H-M "P M M A"
_symmetry_group_IT_number 51
_symmetry_cell_setting 'orthorhombic'
loop_
_space_group_symop_operation_xyz
x,y,z
1/2-x,-y,z
1/2+x,-y,-z
-x,y,-z
-x,-y,-z
1/2+x,y,-z
1/2-x,y,z
x,-y,z
loop_
_atom_site_type_symbol
_atom_site_label
_atom_site_fract_x
_atom_site_fract_y
_atom_site_fract_z
Si Si1 0.935623 0.260122 0.848446
Si Si2 0.064183 0.059258 0.347563
Si Si3 0.436719 0.349024 0.652744
Si Si4 0.436996 0.440487 0.852272
Si Si5 0.564876 0.853605 0.149626
O O1 0.750000 0.261387 0.852346
O O2 0.999588 0.301035 0.740329
O O3 0.993341 0.202276 0.812551
O O4 0.000000 0.271797 0.000000
O O5 0.250000 0.065596 0.347599
O O6 0.000000 0.065077 0.500000
O O7 0.987190 0.101774 0.251917
O O8 0.029085 0.000000 0.303391
O O9 0.500000 0.348623 0.500000
O O10 0.250000 0.346849 0.649948
O O11 0.484993 0.401003 0.734530
O O12 0.250000 0.440048 0.858602
O O13 0.487850 0.500000 0.828020
O O14 0.500000 0.424136 0.000000
O O15 0.750000 0.849054 0.144652
O O16 0.500000 0.866033 0.000000
#
# Coordination Sequence:
#
# PCOD9406294 Si02
#       5
#     8   8   8   8   8
#     4  11  22  39  61  84 112 146 186 230 280 335
#     4  10  21  38  59  84 115 151 190 231 278 333
#     4  11  23  38  56  82 115 149 188 232 281 333
#     4   9  19  36  58  83 111 145 186 230 276 330
#     4  11  22  38  60  86 115 147 187 233 282 332
#
# _framework density 18.315729000000001
#
# number of rings (size 3 to 8) (size 9 to 14) (size 15 to 20)
#    0.000    1.600    0.000    6.600    0.000    6.000 
#    0.000    4.000    0.000    0.000    0.000    0.000 
#    0.000    0.000    0.000    0.000    0.000    0.000 
#
# Total GULP energy -223559.768294 kJ/mol
# GULP energy per Si atom -5588.994207 kJ/mol
# Density = 1.827404 g / cm^3
# Si number density = 18.315729 Si / 1000 Ang^3
#
#
#
# Elastic Constant Matrix: (Units=GPa)
#
#
# Indices 1 2 3 4 5 6 
#
# 1 115.6662 61.8171 60.9444 0.0000 0.0000 0.0000
# 2 61.8171 137.1394 121.7477 0.0000 0.0000 0.0000
# 3 60.9444 121.7477 144.9181 0.0000 0.0000 0.0000
# 4 0.0000 0.0000 0.0000 98.6316 0.0000 0.0000
# 5 0.0000 0.0000 0.0000 0.0000 36.7376 0.0000
# 6 0.0000 0.0000 0.0000 0.0000 0.0000 28.2123
#
#
#
# Elastic Compliance Matrix: (Units=1/GPa)
#
#
# Indices 1 2 3 4 5 6 
#
# 1 0.011520 -0.003509 -0.001897 0.000000 0.000000 0.000000
# 2 -0.003509 0.029757 -0.023524 0.000000 0.000000 0.000000
# 3 -0.001897 -0.023524 0.027461 0.000000 0.000000 0.000000
# 4 0.000000 0.000000 0.000000 0.010139 0.000000 0.000000
# 5 0.000000 0.000000 0.000000 0.000000 0.027220 0.000000
# 6 0.000000 0.000000 0.000000 0.000000 0.000000 0.035446
#
#
# Mechanical properties :
#
#
# Convention : Reuss Voigt Hill
#
# Bulk Modulus (GPa) = 91.91882 98.52689 95.22285
# Shear Modulus (GPa) = 24.62714 42.93059 33.77887
#
# Velocity S-wave (km/s) = 3.67084 4.84666 4.29914
# Velocity P-wave (km/s) = 8.26205 9.23204 8.76048
#
# Compressibility (1/GPa) = 0.01087917
#
# Stress axis : x y z
#
# Youngs Moduli (GPa) = 86.80270 33.60548 36.41557
#
# Poissons Ratio (x) = 0.11792 0.06908
# Poissons Ratio (y) = 0.30458 0.85663
# Poissons Ratio (z) = 0.16466 0.79052
#
# Static dielectric constant tensor:
#      x y z
#    x 1.614810 0.000000 0.000000 
#    y 0.000000 1.627450 0.000000 
#    z 0.000000 0.000000 1.596740 
# 
# From -- ./inp_files/5206.got.cif
#   From: 2010.05.17/outbox.cif.g08.bks.cpg/sg51_3_cif.got.tgz:5206.got - 2010.06.03 11:52:47.
