data_PCOD9406473
_publ_section_title
;
Structure prediction by ZEFSAII (Michael W. Deem and Ramdas Pophale) SiO2 
 PCOD9406473
Probable space group: P M M A
;
_chemical_formula_sum "Si O2"
_cell_formula_units_Z 48
_cell_length_a 8.241765
_cell_length_b 20.524355
_cell_length_c 12.084702
_cell_angle_alpha 90.000000
_cell_angle_beta 90.000000
_cell_angle_gamma 90.000000
_cell_volume 2044.210857
_symmetry_space_group_name_H-M "P M M A"
_symmetry_group_IT_number 51
_symmetry_cell_setting 'orthorhombic'
loop_
_space_group_symop_operation_xyz
x,y,z
1/2-x,-y,z
1/2+x,-y,-z
-x,y,-z
-x,-y,-z
1/2+x,y,-z
1/2-x,y,z
x,-y,z
loop_
_atom_site_type_symbol
_atom_site_label
_atom_site_fract_x
_atom_site_fract_y
_atom_site_fract_z
Si Si1 0.554593 0.254642 0.653270
Si Si2 0.942253 0.892291 0.384242
Si Si3 0.567610 0.421421 0.875521
Si Si4 0.936328 0.394997 0.378742
Si Si5 0.941217 0.930612 0.847331
Si Si6 0.557542 0.788157 0.890070
O O1 0.750000 0.258724 0.635899
O O2 0.490885 0.184258 0.615801
O O3 0.463169 0.317278 0.610338
O O4 0.516116 0.252254 0.783459
O O5 0.750000 0.899063 0.368563
O O6 0.000000 0.920042 0.500000
O O7 0.037855 0.924641 0.284012
O O8 0.750000 0.394452 0.872491
O O9 0.568165 0.500000 0.881376
O O10 0.502390 0.409226 0.747672
O O11 0.500000 0.401941 0.000000
O O12 0.750000 0.413401 0.374838
O O13 0.000000 0.420977 0.500000
O O14 0.750000 0.931535 0.875078
O O15 0.015484 0.861676 0.885398
O O16 0.015034 0.000000 0.881957
O O17 0.750000 0.795968 0.889054
O O18 0.500000 0.755061 0.000000
#
# Coordination Sequence:
#
# PCOD9406473 Si02
#       6
#     8   8   8   8   8   8
#     4  10  21  39  58  80 114 152 192 239 295 356
#     4  11  21  34  53  76 102 135 176 221 277 343
#     4  10  22  43  70  99 133 175 222 270 320 374
#     4  12  25  41  64  96 133 172 216 266 321 379
#     4   9  19  36  53  71  99 134 174 223 280 341
#     4   9  19  34  54  78 105 140 181 230 286 347
#
# _framework density 23.480943
#
# number of rings (size 3 to 8) (size 9 to 14) (size 15 to 20)
#    0.000    1.833    0.000    5.500    0.000    6.333 
#    0.000    1.667    0.000    0.000    0.000    0.000 
#    0.000    0.000    0.000    0.000    0.000    0.000 
#
# Total GULP energy -267504.965672 kJ/mol
# GULP energy per Si atom -5573.020118 kJ/mol
# Density = 2.342750 g / cm^3
# Si number density = 23.480943 Si / 1000 Ang^3
#
#
#
# Elastic Constant Matrix: (Units=GPa)
#
#
# Indices 1 2 3 4 5 6 
#
# 1 68.4217 -6.0180 44.7603 0.0000 0.0000 0.0000
# 2 -6.0180 82.2319 9.4966 0.0000 0.0000 0.0000
# 3 44.7603 9.4966 229.8328 0.0000 0.0000 0.0000
# 4 0.0000 0.0000 0.0000 -641.2299 0.0000 0.0000
# 5 0.0000 0.0000 0.0000 0.0000 40.1146 0.0000
# 6 0.0000 0.0000 0.0000 0.0000 0.0000 59.0921
#
#
#
# Elastic Compliance Matrix: (Units=1/GPa)
#
#
# Indices 1 2 3 4 5 6 
#
# 1 0.016964 0.001631 -0.003371 0.000000 0.000000 0.000000
# 2 0.001631 0.012376 -0.000829 0.000000 0.000000 0.000000
# 3 -0.003371 -0.000829 0.005042 0.000000 0.000000 0.000000
# 4 0.000000 0.000000 0.000000 -0.001560 0.000000 0.000000
# 5 0.000000 0.000000 0.000000 0.000000 0.024929 0.000000
# 6 0.000000 0.000000 0.000000 0.000000 0.000000 0.016923
#
#
# Mechanical properties :
#
#
# Convention : Reuss Voigt Hill
#
# Bulk Modulus (GPa) = 34.19624 52.99603 43.59613
# Shear Modulus (GPa) = 55.82865 -86.25481 -15.21308
#
# Velocity S-wave (km/s) = 4.88137 -6.06743 -2.54813
# Velocity P-wave (km/s) = 6.80921 5.14453 3.15430
#
# Compressibility (1/GPa) = 0.02924298
#
# Stress axis : x y z
#
# Youngs Moduli (GPa) = 58.94821 80.80282 198.34260
#
# Poissons Ratio (x) = -0.13177 0.66864
# Poissons Ratio (y) = -0.09613 0.16442
# Poissons Ratio (z) = 0.19872 0.06698
#
# Static dielectric constant tensor:
#      x y z
#    x 1.853640 0.000000 0.000000 
#    y 0.000000 1.952960 0.000000 
#    z 0.000000 0.000000 1.966850 
# 
# From -- ./inp_files/14413.got.cif
#   From: 2010.05.17/outbox.cif.g08.bks.cpg/sg51_8_cif.got.tgz:14413.got - 2010.06.03 11:52:47.
