data_PCOD9406688
_publ_section_title
;
Structure prediction by ZEFSAII (Michael W. Deem and Ramdas Pophale) SiO2 
 PCOD9406688
Probable space group: P M M A
;
_chemical_formula_sum "Si O2"
_cell_formula_units_Z 32
_cell_length_a 10.061210
_cell_length_b 13.783198
_cell_length_c 10.585883
_cell_angle_alpha 90.000000
_cell_angle_beta 90.000000
_cell_angle_gamma 90.000000
_cell_volume 1468.004201
_symmetry_space_group_name_H-M "P M M A"
_symmetry_group_IT_number 51
_symmetry_cell_setting 'orthorhombic'
loop_
_space_group_symop_operation_xyz
x,y,z
1/2-x,-y,z
1/2+x,-y,-z
-x,y,-z
-x,-y,-z
1/2+x,y,-z
1/2-x,y,z
x,-y,z
loop_
_atom_site_type_symbol
_atom_site_label
_atom_site_fract_x
_atom_site_fract_y
_atom_site_fract_z
Si Si1 0.600708 0.885103 0.895321
Si Si2 0.895812 0.891760 0.327631
Si Si3 0.597363 0.616566 0.115803
Si Si4 0.400213 0.320421 0.603737
O O1 0.750000 0.844158 0.891265
O O2 0.519799 0.880835 0.765169
O O3 0.614629 0.000000 0.923512
O O4 0.500000 0.844866 0.000000
O O5 0.750000 0.888902 0.258893
O O6 0.893488 0.796459 0.412383
O O7 0.901928 0.000000 0.385387
O O8 0.750000 0.647283 0.090537
O O9 0.597217 0.500000 0.130914
O O10 0.557403 0.660303 0.251537
O O11 0.500000 0.638019 0.000000
O O12 0.500000 0.360862 0.500000
O O13 0.250000 0.358797 0.590573
#
# Coordination Sequence:
#
# PCOD9406688 Si02
#       4
#     8   8   8   8
#     4   9  16  26  42  65  93 128 173 224 276 328
#     4   9  18  33  50  69 100 143 188 233 277 321
#     4   9  19  38  63  89 116 146 183 229 281 338
#     4  10  22  38  56  83 117 151 189 233 281 334
#
# _framework density 21.798300999999999
#
# number of rings (size 3 to 8) (size 9 to 14) (size 15 to 20)
#    0.000    2.750    0.000    0.750    0.000    7.000 
#    0.000    2.500    0.000    0.000    0.000    0.000 
#    0.000    0.000    0.000    0.000    0.000    0.000 
#
# Total GULP energy -178426.194478 kJ/mol
# GULP energy per Si atom -5575.818577 kJ/mol
# Density = 2.174869 g / cm^3
# Si number density = 21.798301 Si / 1000 Ang^3
#
#
#
# Elastic Constant Matrix: (Units=GPa)
#
#
# Indices 1 2 3 4 5 6 
#
# 1 174.9629 8.8968 87.1637 0.0000 0.0000 0.0000
# 2 8.8968 68.5062 12.6802 0.0000 0.0000 0.0000
# 3 87.1637 12.6802 110.7421 0.0000 0.0000 0.0000
# 4 0.0000 0.0000 0.0000 20.4150 0.0000 0.0000
# 5 0.0000 0.0000 0.0000 0.0000 33.6675 0.0000
# 6 0.0000 0.0000 0.0000 0.0000 0.0000 7.5834
#
#
#
# Elastic Compliance Matrix: (Units=1/GPa)
#
#
# Indices 1 2 3 4 5 6 
#
# 1 0.009404 0.000152 -0.007419 0.000000 0.000000 0.000000
# 2 0.000152 0.014916 -0.001827 0.000000 0.000000 0.000000
# 3 -0.007419 -0.001827 0.015079 0.000000 0.000000 0.000000
# 4 0.000000 0.000000 0.000000 0.048984 0.000000 0.000000
# 5 0.000000 0.000000 0.000000 0.000000 0.029702 0.000000
# 6 0.000000 0.000000 0.000000 0.000000 0.000000 0.131867
#
#
# Mechanical properties :
#
#
# Convention : Reuss Voigt Hill
#
# Bulk Modulus (GPa) = 47.14956 63.52141 55.33548
# Shear Modulus (GPa) = 18.16798 28.69789 23.43293
#
# Velocity S-wave (km/s) = 2.89010 3.63232 3.28226
# Velocity P-wave (km/s) = 5.72833 6.84072 6.30909
#
# Compressibility (1/GPa) = 0.02120911
#
# Stress axis : x y z
#
# Youngs Moduli (GPa) = 106.34000 67.04329 66.31896
#
# Poissons Ratio (x) = -0.01019 0.49202
# Poissons Ratio (y) = -0.01616 0.12120
# Poissons Ratio (z) = 0.78894 0.12252
#
# Static dielectric constant tensor:
#      x y z
#    x 1.815370 0.000000 0.000000 
#    y 0.000000 1.834270 0.000000 
#    z 0.000000 0.000000 1.776130 
# 
# From -- ./inp_files/13693.got.cif
#   From: 2010.05.17/outbox.cif.g08.bks.cpg/sg51_7_cif.got.tgz:13693.got - 2010.06.03 11:52:47.
