data_PCOD9406843
_publ_section_title
;
Structure prediction by ZEFSAII (Michael W. Deem and Ramdas Pophale) SiO2 
 PCOD9406843
Probable space group: P M M A
;
_chemical_formula_sum "Si O2"
_cell_formula_units_Z 34
_cell_length_a 21.484478
_cell_length_b 10.551720
_cell_length_c 7.415836
_cell_angle_alpha 90.000000
_cell_angle_beta 90.000000
_cell_angle_gamma 90.000000
_cell_volume 1681.156645
_symmetry_space_group_name_H-M "P M M A"
_symmetry_group_IT_number 51
_symmetry_cell_setting 'orthorhombic'
loop_
_space_group_symop_operation_xyz
x,y,z
1/2-x,-y,z
1/2+x,-y,-z
-x,y,-z
-x,-y,-z
1/2+x,y,-z
1/2-x,y,z
x,-y,z
loop_
_atom_site_type_symbol
_atom_site_label
_atom_site_fract_x
_atom_site_fract_y
_atom_site_fract_z
Si Si1 0.643699 0.794631 0.336217
Si Si2 0.680997 0.646947 0.981816
Si Si3 0.085091 0.647611 0.343252
Si Si4 0.493284 0.860574 0.783462
Si Si5 0.250000 0.000000 0.575636
O O1 0.623952 0.689536 0.482380
O O2 0.578437 0.857022 0.275170
O O3 0.694705 0.890009 0.414393
O O4 0.670450 0.732602 0.154908
O O5 0.750000 0.671215 0.906153
O O6 0.677783 0.500000 0.037823
O O7 0.629589 0.665664 0.829757
O O8 0.066125 0.500000 0.353052
O O9 0.029021 0.745281 0.310641
O O10 0.519800 0.000000 0.735711
O O11 0.500000 0.846021 0.000000
#
# Coordination Sequence:
#
# PCOD9406843 Si02
#       5
#     8   8   8   8   2
#     4  12  24  45  68  98 136 180 226 282 335 414
#     4  10  22  42  66  96 133 176 225 284 337 398
#     4  11  26  44  71 104 136 180 233 283 342 410
#     4  11  24  44  71 100 137 181 227 285 349 403
#     4  12  28  44  68 104 138 180 232 270 348 408
#
# _framework density 20.224170000000001
#
# number of rings (size 3 to 8) (size 9 to 14) (size 15 to 20)
#    0.000    0.941    4.706    1.412    3.294    4.235 
#    0.000    1.176    0.000    0.000    0.000    0.000 
#    0.000    0.000    0.000    0.000    0.000    0.000 
#
# Total GULP energy -189483.804024 kJ/mol
# GULP energy per Si atom -5573.053060 kJ/mol
# Density = 2.017814 g / cm^3
# Si number density = 20.224170 Si / 1000 Ang^3
#
#
#
# Elastic Constant Matrix: (Units=GPa)
#
#
# Indices 1 2 3 4 5 6 
#
# 1 132.6015 68.6176 4.0630 0.0000 0.0000 0.0000
# 2 68.6176 130.5929 34.9153 0.0000 0.0000 0.0000
# 3 4.0630 34.9153 52.6721 0.0000 0.0000 0.0000
# 4 0.0000 0.0000 0.0000 -53.4659 0.0000 0.0000
# 5 0.0000 0.0000 0.0000 0.0000 17.2948 0.0000
# 6 0.0000 0.0000 0.0000 0.0000 0.0000 591.0419
#
#
#
# Elastic Compliance Matrix: (Units=1/GPa)
#
#
# Indices 1 2 3 4 5 6 
#
# 1 0.010888 -0.006681 0.003588 0.000000 0.000000 0.000000
# 2 -0.006681 0.013406 -0.008371 0.000000 0.000000 0.000000
# 3 0.003588 -0.008371 0.024258 0.000000 0.000000 0.000000
# 4 0.000000 0.000000 0.000000 -0.018704 0.000000 0.000000
# 5 0.000000 0.000000 0.000000 0.000000 0.057821 0.000000
# 6 0.000000 0.000000 0.000000 0.000000 0.000000 0.001692
#
#
# Mechanical properties :
#
#
# Convention : Reuss Voigt Hill
#
# Bulk Modulus (GPa) = 39.02361 59.00647 49.01504
# Shear Modulus (GPa) = 41.38082 124.85886 83.11984
#
# Velocity S-wave (km/s) = 4.52830 7.86584 6.41783
# Velocity P-wave (km/s) = 6.83214 10.57047 8.89980
#
# Compressibility (1/GPa) = 0.02562551
#
# Stress axis : x y z
#
# Youngs Moduli (GPa) = 91.84056 74.59561 41.22427
#
# Poissons Ratio (x) = 0.49834 -0.14793
# Poissons Ratio (y) = 0.61354 0.34509
# Poissons Ratio (z) = -0.32957 0.62444
#
# Static dielectric constant tensor:
#      x y z
#    x 1.719240 0.000000 0.000000 
#    y 0.000000 1.712580 0.000000 
#    z 0.000000 0.000000 1.709920 
# 
# From -- ./inp_files/10384.got.cif
#   From: 2010.05.17/outbox.cif.g08.bks.cpg/sg51_6_cif.got.tgz:10384.got - 2010.06.03 11:52:47.
