data_PCOD9406638
_publ_section_title
;
Structure prediction by ZEFSAII (Michael W. Deem and Ramdas Pophale) SiO2 
 PCOD9406638
Probable space group: P M M A
;
_chemical_formula_sum "Si O2"
_cell_formula_units_Z 48
_cell_length_a 16.459170
_cell_length_b 15.513311
_cell_length_c 9.539383
_cell_angle_alpha 90.000000
_cell_angle_beta 90.000000
_cell_angle_gamma 90.000000
_cell_volume 2435.750025
_symmetry_space_group_name_H-M "P M M A"
_symmetry_group_IT_number 51
_symmetry_cell_setting 'orthorhombic'
loop_
_space_group_symop_operation_xyz
x,y,z
1/2-x,-y,z
1/2+x,-y,-z
-x,y,-z
-x,-y,-z
1/2+x,y,-z
1/2-x,y,z
x,-y,z
loop_
_atom_site_type_symbol
_atom_site_label
_atom_site_fract_x
_atom_site_fract_y
_atom_site_fract_z
Si Si1 0.915320 0.399642 0.419119
Si Si2 0.842986 0.266146 0.209666
Si Si3 0.612305 0.900594 0.372994
Si Si4 0.080182 0.901082 0.307967
Si Si5 0.151235 0.243703 0.113426
Si Si6 0.155442 0.405264 0.289350
O O1 0.912443 0.500000 0.374295
O O2 0.897641 0.333141 0.296156
O O3 0.851500 0.386878 0.545525
O O4 0.000000 0.384252 0.500000
O O5 0.750000 0.298954 0.209009
O O6 0.845088 0.173641 0.285688
O O7 0.869455 0.253077 0.049529
O O8 0.618802 0.882233 0.539248
O O9 0.516732 0.895408 0.332386
O O10 0.638243 0.000000 0.348501
O O11 0.111587 0.837342 0.190087
O O12 0.099329 0.000000 0.272425
O O13 0.250000 0.236912 0.124310
O O14 0.121529 0.328121 0.197508
O O15 0.250000 0.410682 0.252136
O O16 0.117523 0.500000 0.266136
#
# Coordination Sequence:
#
# PCOD9406638 Si02
#       6
#     8   8   8   8   8   8
#     4  10  22  39  60  87 116 149 193 243 290 342
#     4  11  24  38  57  87 120 156 193 237 295 352
#     4   9  20  38  60  86 114 149 197 247 291 341
#     4   9  19  37  60  84 112 151 196 240 290 346
#     4  10  22  37  54  84 122 157 194 235 289 354
#     4   9  18  35  58  80 107 148 192 232 277 334
#
# _framework density 19.706457
#
# number of rings (size 3 to 8) (size 9 to 14) (size 15 to 20)
#    0.000    2.333    0.000    2.500    4.667    5.667 
#    0.000    6.667    0.000    3.000    0.000    0.000 
#    0.000    0.000    0.000    0.000    0.000    0.000 
#
# Total GULP energy -267948.134078 kJ/mol
# GULP energy per Si atom -5582.252793 kJ/mol
# Density = 1.966160 g / cm^3
# Si number density = 19.706457 Si / 1000 Ang^3
#
#
#
# Elastic Constant Matrix: (Units=GPa)
#
#
# Indices 1 2 3 4 5 6 
#
# 1 28.2031 33.9216 34.4918 0.0000 0.0000 0.0000
# 2 33.9216 134.0240 116.3206 0.0000 0.0000 0.0000
# 3 34.4918 116.3206 148.4789 0.0000 0.0000 0.0000
# 4 0.0000 0.0000 0.0000 -22.8040 0.0000 0.0000
# 5 0.0000 0.0000 0.0000 0.0000 23.9916 0.0000
# 6 0.0000 0.0000 0.0000 0.0000 0.0000 11.7599
#
#
#
# Elastic Compliance Matrix: (Units=1/GPa)
#
#
# Indices 1 2 3 4 5 6 
#
# 1 0.052409 -0.008430 -0.005570 0.000000 0.000000 0.000000
# 2 -0.008430 0.024668 -0.017367 0.000000 0.000000 0.000000
# 3 -0.005570 -0.017367 0.021634 0.000000 0.000000 0.000000
# 4 0.000000 0.000000 0.000000 -0.043852 0.000000 0.000000
# 5 0.000000 0.000000 0.000000 0.000000 0.041681 0.000000
# 6 0.000000 0.000000 0.000000 0.000000 0.000000 0.085035
#
#
# Mechanical properties :
#
#
# Convention : Reuss Voigt Hill
#
# Bulk Modulus (GPa) = 27.79584 75.57489 51.68536
# Shear Modulus (GPa) = 19.50821 10.98763 15.24792
#
# Velocity S-wave (km/s) = 3.14974 2.36384 2.78466
# Velocity P-wave (km/s) = 5.23100 6.77377 6.05175
#
# Compressibility (1/GPa) = 0.03597661
#
# Stress axis : x y z
#
# Youngs Moduli (GPa) = 19.08062 40.53855 46.22276
#
# Poissons Ratio (x) = 0.34175 0.25747
# Poissons Ratio (y) = 0.16086 0.80274
# Poissons Ratio (z) = 0.10628 0.70403
#
# Static dielectric constant tensor:
#      x y z
#    x 1.752130 0.000000 0.000000 
#    y 0.000000 1.694830 0.000000 
#    z 0.000000 0.000000 1.652810 
# 
# From -- ./inp_files/9569.got.cif
#   From: 2010.05.17/outbox.cif.g08.bks.cpg/sg51_5_cif.got.tgz:9569.got - 2010.06.03 11:52:47.
