data_PCOD9406753
_publ_section_title
;
Structure prediction by ZEFSAII (Michael W. Deem and Ramdas Pophale) SiO2 
 PCOD9406753
Probable space group: P M M A
;
_chemical_formula_sum "Si O2"
_cell_formula_units_Z 24
_cell_length_a 20.862805
_cell_length_b 10.726034
_cell_length_c 5.242265
_cell_angle_alpha 90.000000
_cell_angle_beta 90.000000
_cell_angle_gamma 90.000000
_cell_volume 1173.088667
_symmetry_space_group_name_H-M "P M M A"
_symmetry_group_IT_number 51
_symmetry_cell_setting 'orthorhombic'
loop_
_space_group_symop_operation_xyz
x,y,z
1/2-x,-y,z
1/2+x,-y,-z
-x,y,-z
-x,-y,-z
1/2+x,y,-z
1/2-x,y,z
x,-y,z
loop_
_atom_site_type_symbol
_atom_site_label
_atom_site_fract_x
_atom_site_fract_y
_atom_site_fract_z
Si Si1 0.559639 0.639184 0.812284
Si Si2 0.823188 0.761840 0.031887
Si Si3 0.382452 0.138610 0.454575
O O1 0.555848 0.500000 0.703714
O O2 0.625262 0.653143 0.976397
O O3 0.500000 0.659918 0.000000
O O4 0.567998 0.749911 0.608327
O O5 0.750000 0.721311 0.053166
O O6 0.846160 0.832146 0.284536
O O7 0.833684 0.848760 0.783884
O O8 0.410450 0.000000 0.459758
#
# Coordination Sequence:
#
# PCOD9406753 Si02
#       3
#     8   8   8
#     4   9  22  44  65  88 124 168 209 252 308 369
#     4  10  22  39  62  92 125 160 203 253 309 365
#     4  10  22  39  64  93 122 159 204 253 307 362
#
# _framework density 20.458812000000002
#
# number of rings (size 3 to 8) (size 9 to 14) (size 15 to 20)
#    2.000    0.333    0.000    2.000    0.000    8.000 
#    0.000    5.000    0.000    0.000    0.000    0.000 
#    0.000    0.000    0.000    0.000    0.000    0.000 
#
# Total GULP energy -133643.167245 kJ/mol
# GULP energy per Si atom -5568.465302 kJ/mol
# Density = 2.041225 g / cm^3
# Si number density = 20.458812 Si / 1000 Ang^3
#
#
#
# Elastic Constant Matrix: (Units=GPa)
#
#
# Indices 1 2 3 4 5 6 
#
# 1 127.0793 61.3560 27.4312 0.0000 0.0000 0.0000
# 2 61.3560 118.3036 40.4515 0.0000 0.0000 0.0000
# 3 27.4312 40.4515 130.1996 0.0000 0.0000 0.0000
# 4 0.0000 0.0000 0.0000 -4.9860 0.0000 0.0000
# 5 0.0000 0.0000 0.0000 0.0000 9.3406 0.0000
# 6 0.0000 0.0000 0.0000 0.0000 0.0000 -1.3039
#
#
#
# Elastic Compliance Matrix: (Units=1/GPa)
#
#
# Indices 1 2 3 4 5 6 
#
# 1 0.010537 -0.005265 -0.000584 0.000000 0.000000 0.000000
# 2 -0.005265 0.012088 -0.002646 0.000000 0.000000 0.000000
# 3 -0.000584 -0.002646 0.008626 0.000000 0.000000 0.000000
# 4 0.000000 0.000000 0.000000 -0.200560 0.000000 0.000000
# 5 0.000000 0.000000 0.000000 0.000000 0.107060 0.000000
# 6 0.000000 0.000000 0.000000 0.000000 0.000000 -0.766940
#
#
# Mechanical properties :
#
#
# Convention : Reuss Voigt Hill
#
# Bulk Modulus (GPa) = 70.12706 70.45111 70.28908
# Shear Modulus (GPa) = -6.19239 17.03306 5.42033
#
# Velocity S-wave (km/s) = -1.74165 2.88853 1.62946
# Velocity P-wave (km/s) = 5.50519 6.75538 6.16207
#
# Compressibility (1/GPa) = 0.01425983
#
# Stress axis : x y z
#
# Youngs Moduli (GPa) = 94.90046 82.72369 115.93114
#
# Poissons Ratio (x) = 0.43556 0.06773
# Poissons Ratio (y) = 0.49967 0.30680
# Poissons Ratio (z) = 0.05544 0.21892
#
# Static dielectric constant tensor:
#      x y z
#    x 1.712260 0.000000 0.000000 
#    y 0.000000 1.727970 0.000000 
#    z 0.000000 0.000000 1.726090 
# 
# From -- ./inp_files/1667.got.cif
#   From: 2010.05.17/outbox.cif.g08.bks.cpg/sg51_1_cif.got.tgz:1667.got - 2010.06.03 11:52:47.
