data_PCOD9406052
_publ_section_title
;
Structure prediction by ZEFSAII (Michael W. Deem and Ramdas Pophale) SiO2 
 PCOD9406052
Probable space group: P M M A
;
_chemical_formula_sum "Si O2"
_cell_formula_units_Z 64
_cell_length_a 8.771768
_cell_length_b 15.742239
_cell_length_c 25.401079
_cell_angle_alpha 90.000000
_cell_angle_beta 90.000000
_cell_angle_gamma 90.000000
_cell_volume 3507.565611
_symmetry_space_group_name_H-M "P M M A"
_symmetry_group_IT_number 51
_symmetry_cell_setting 'orthorhombic'
loop_
_space_group_symop_operation_xyz
x,y,z
1/2-x,-y,z
1/2+x,-y,-z
-x,y,-z
-x,-y,-z
1/2+x,y,-z
1/2-x,y,z
x,-y,z
loop_
_atom_site_type_symbol
_atom_site_label
_atom_site_fract_x
_atom_site_fract_y
_atom_site_fract_z
Si Si1 0.930411 0.307912 0.735379
Si Si2 0.568835 0.267055 0.443830
Si Si3 0.070289 0.868690 0.710116
Si Si4 0.431979 0.594730 0.365824
Si Si5 0.067754 0.720730 0.144497
Si Si6 0.066374 0.092637 0.176901
Si Si7 0.931995 0.906379 0.598320
Si Si8 0.932236 0.402690 0.057628
O O1 0.750000 0.283341 0.731637
O O2 0.954044 0.385948 0.696203
O O3 0.963426 0.317218 0.797147
O O4 0.031933 0.231169 0.713736
O O5 0.500000 0.292172 0.500000
O O6 0.750000 0.267203 0.445814
O O7 0.511055 0.332842 0.399948
O O8 0.510989 0.172591 0.429881
O O9 0.250000 0.883998 0.705224
O O10 0.006867 0.903828 0.765172
O O11 0.983630 0.903028 0.659227
O O12 0.250000 0.599886 0.375377
O O13 0.484771 0.500000 0.379115
O O14 0.250000 0.718381 0.136356
O O15 0.020217 0.820473 0.147282
O O16 0.989570 0.664796 0.100121
O O17 0.250000 0.097404 0.182796
O O18 0.029419 0.000000 0.153001
O O19 0.750000 0.895867 0.595290
O O20 0.972468 0.000000 0.577163
O O21 0.750000 0.400063 0.054689
O O22 0.978175 0.500000 0.071691
O O23 0.000000 0.384550 0.000000
#
# Coordination Sequence:
#
# PCOD9406052 Si02
#       8
#     8   8   8   8   8   8   8   8
#     4   9  18  34  56  81 116 155 189 224 273 334
#     4  12  26  44  65  86 111 145 184 234 287 340
#     4  11  20  30  50  81 115 149 186 230 277 326
#     4  10  21  39  64  90 116 149 189 232 278 334
#     4   9  18  32  54  85 116 150 190 232 277 330
#     4   9  18  33  52  76 111 155 196 231 272 327
#     4  11  23  39  60  84 112 147 185 228 279 338
#     4  10  21  37  57  81 110 147 190 238 289 338
#
# _framework density 18.246272999999999
#
# number of rings (size 3 to 8) (size 9 to 14) (size 15 to 20)
#    0.000    1.875    1.250    4.125    0.000    6.750 
#    0.000    1.250    0.000    0.375    0.000    0.000 
#    0.000    0.000    0.000    0.000    0.000    0.000 
#
# Total GULP energy -357237.807929 kJ/mol
# GULP energy per Si atom -5581.840749 kJ/mol
# Density = 1.820474 g / cm^3
# Si number density = 18.246273 Si / 1000 Ang^3
#
#
#
# Elastic Constant Matrix: (Units=GPa)
#
#
# Indices 1 2 3 4 5 6 
#
# 1 54.0720 45.7743 31.4758 0.0000 0.0000 0.0000
# 2 45.7743 124.2832 64.9953 0.0000 0.0000 0.0000
# 3 31.4758 64.9953 90.5770 0.0000 0.0000 0.0000
# 4 0.0000 0.0000 0.0000 -5.0082 0.0000 0.0000
# 5 0.0000 0.0000 0.0000 0.0000 28.6917 0.0000
# 6 0.0000 0.0000 0.0000 0.0000 0.0000 13.6656
#
#
#
# Elastic Compliance Matrix: (Units=1/GPa)
#
#
# Indices 1 2 3 4 5 6 
#
# 1 0.027617 -0.008248 -0.003679 0.000000 0.000000 0.000000
# 2 -0.008248 0.015342 -0.008143 0.000000 0.000000 0.000000
# 3 -0.003679 -0.008143 0.018162 0.000000 0.000000 0.000000
# 4 0.000000 0.000000 0.000000 -0.199673 0.000000 0.000000
# 5 0.000000 0.000000 0.000000 0.000000 0.034853 0.000000
# 6 0.000000 0.000000 0.000000 0.000000 0.000000 0.073176
#
#
# Mechanical properties :
#
#
# Convention : Reuss Voigt Hill
#
# Bulk Modulus (GPa) = 47.65894 61.49144 54.57519
# Shear Modulus (GPa) = 300.98838 15.91562 158.45200
#
# Velocity S-wave (km/s) = 12.85756 2.95662 9.32895
# Velocity P-wave (km/s) = 15.70347 6.74014 12.08364
#
# Compressibility (1/GPa) = 0.02098242
#
# Stress axis : x y z
#
# Youngs Moduli (GPa) = 36.20901 65.17891 55.06023
#
# Poissons Ratio (x) = 0.53758 0.20255
# Poissons Ratio (y) = 0.29865 0.44836
# Poissons Ratio (z) = 0.13320 0.53076
#
# Static dielectric constant tensor:
#      x y z
#    x 1.609070 0.000000 0.000000 
#    y 0.000000 1.660670 0.000000 
#    z 0.000000 0.000000 1.602990 
# 
# From -- ./inp_files/34949.got.cif
#   From: 2010.05.17/outbox.cif.g08.bks.cpg/sg51_18_cif.got.tgz:34949.got - 2010.06.03 11:52:47.
