data_PCOD9406667
_publ_section_title
;
Structure prediction by ZEFSAII (Michael W. Deem and Ramdas Pophale) SiO2 
 PCOD9406667
Probable space group: P M M A
;
_chemical_formula_sum "Si O2"
_cell_formula_units_Z 48
_cell_length_a 14.558932
_cell_length_b 7.426806
_cell_length_c 18.791329
_cell_angle_alpha 90.000000
_cell_angle_beta 90.000000
_cell_angle_gamma 90.000000
_cell_volume 2031.838071
_symmetry_space_group_name_H-M "P M M A"
_symmetry_group_IT_number 51
_symmetry_cell_setting 'orthorhombic'
loop_
_space_group_symop_operation_xyz
x,y,z
1/2-x,-y,z
1/2+x,-y,-z
-x,y,-z
-x,-y,-z
1/2+x,y,-z
1/2-x,y,z
x,-y,z
loop_
_atom_site_type_symbol
_atom_site_label
_atom_site_fract_x
_atom_site_fract_y
_atom_site_fract_z
Si Si1 0.854840 0.715523 0.299259
Si Si2 0.644385 0.784475 0.143343
Si Si3 0.644093 0.781266 0.683048
Si Si4 0.362026 0.790047 0.161989
Si Si5 0.361310 0.214582 0.008817
Si Si6 0.514518 0.292180 0.422073
O O1 0.750000 0.784483 0.300220
O O2 0.851545 0.500000 0.305658
O O3 0.896842 0.749991 0.220853
O O4 0.912861 0.787181 0.365699
O O5 0.750000 0.716769 0.147989
O O6 0.648012 0.000000 0.136275
O O7 0.604637 0.717682 0.067923
O O8 0.750000 0.730512 0.673024
O O9 0.612390 0.714760 0.761132
O O10 0.580403 0.713068 0.620684
O O11 0.640062 0.000000 0.684165
O O12 0.250000 0.789400 0.162116
O O13 0.390380 0.711184 0.085714
O O14 0.391039 0.000000 0.161778
O O15 0.250000 0.232484 0.005689
O O16 0.380865 0.000000 0.011807
O O17 0.500000 0.210394 0.500000
O O18 0.543166 0.500000 0.433777
#
# Coordination Sequence:
#
# PCOD9406667 Si02
#       6
#     8   8   8   8   8   8
#     4   9  18  33  51  70  95 127 162 202 249 298
#     4   8  13  22  40  68  97 124 158 198 238 281
#     4   9  18  33  54  80 107 133 162 199 246 297
#     4   7  10  19  38  65  96 128 159 191 231 279
#     4   7   9  15  32  61  94 124 156 194 230 269
#     4  10  22  38  55  75  97 126 166 208 251 301
#
# _framework density 23.623930000000001
#
# number of rings (size 3 to 8) (size 9 to 14) (size 15 to 20)
#    0.000    3.667    0.000    3.000    0.000    2.000 
#    0.000    1.667    0.000    4.000    0.000   11.667 
#    0.000    0.000    0.000    0.000    0.000    0.000 
#
# Total GULP energy -267604.610912 kJ/mol
# GULP energy per Si atom -5575.096061 kJ/mol
# Density = 2.357016 g / cm^3
# Si number density = 23.623930 Si / 1000 Ang^3
#
#
#
# Elastic Constant Matrix: (Units=GPa)
#
#
# Indices 1 2 3 4 5 6 
#
# 1 73.7540 -7.0380 49.8596 0.0000 0.0000 0.0000
# 2 -7.0380 76.0292 5.9364 0.0000 0.0000 0.0000
# 3 49.8596 5.9364 290.3106 0.0000 0.0000 0.0000
# 4 0.0000 0.0000 0.0000 6.8088 0.0000 0.0000
# 5 0.0000 0.0000 0.0000 0.0000 44.3801 0.0000
# 6 0.0000 0.0000 0.0000 0.0000 0.0000 5.1850
#
#
#
# Elastic Compliance Matrix: (Units=1/GPa)
#
#
# Indices 1 2 3 4 5 6 
#
# 1 0.015543 0.001650 -0.002703 0.000000 0.000000 0.000000
# 2 0.001650 0.013349 -0.000556 0.000000 0.000000 0.000000
# 3 -0.002703 -0.000556 0.003920 0.000000 0.000000 0.000000
# 4 0.000000 0.000000 0.000000 0.146869 0.000000 0.000000
# 5 0.000000 0.000000 0.000000 0.000000 0.022533 0.000000
# 6 0.000000 0.000000 0.000000 0.000000 0.000000 0.192866
#
#
# Mechanical properties :
#
#
# Convention : Reuss Voigt Hill
#
# Bulk Modulus (GPa) = 33.79132 59.73443 46.76287
# Shear Modulus (GPa) = 12.24999 37.36383 24.80691
#
# Velocity S-wave (km/s) = 2.27962 3.98126 3.24400
# Velocity P-wave (km/s) = 4.61127 6.81721 5.81971
#
# Compressibility (1/GPa) = 0.02959340
#
# Stress axis : x y z
#
# Youngs Moduli (GPa) = 64.33559 74.91189 255.08663
#
# Poissons Ratio (x) = -0.12360 0.68957
# Poissons Ratio (y) = -0.10615 0.14191
# Poissons Ratio (z) = 0.17392 0.04168
#
# Static dielectric constant tensor:
#      x y z
#    x 1.933120 0.000000 0.000000 
#    y 0.000000 0.645940 0.000000 
#    z 0.000000 0.000000 1.926280 
# 
# From -- ./inp_files/24059.got.cif
#   From: 2010.05.17/outbox.cif.g08.bks.cpg/sg51_13_cif.got.tgz:24059.got - 2010.06.03 11:52:47.
