data_PCOD9406176
_publ_section_title
;
Structure prediction by ZEFSAII (Michael W. Deem and Ramdas Pophale) SiO2 
 PCOD9406176
Probable space group: P M M A
;
_chemical_formula_sum "Si O2"
_cell_formula_units_Z 40
_cell_length_a 16.172025
_cell_length_b 9.399770
_cell_length_c 12.866359
_cell_angle_alpha 90.000000
_cell_angle_beta 90.000000
_cell_angle_gamma 90.000000
_cell_volume 1955.857889
_symmetry_space_group_name_H-M "P M M A"
_symmetry_group_IT_number 51
_symmetry_cell_setting 'orthorhombic'
loop_
_space_group_symop_operation_xyz
x,y,z
1/2-x,-y,z
1/2+x,-y,-z
-x,y,-z
-x,-y,-z
1/2+x,y,-z
1/2-x,y,z
x,-y,z
loop_
_atom_site_type_symbol
_atom_site_label
_atom_site_fract_x
_atom_site_fract_y
_atom_site_fract_z
Si Si1 0.153097 0.341690 0.324977
Si Si2 0.152597 0.842946 0.140840
Si Si3 0.150273 0.830151 0.749923
Si Si4 0.592080 0.667814 0.454392
Si Si5 0.092325 0.665788 0.952741
O O1 0.250000 0.354536 0.300394
O O2 0.115013 0.500000 0.315052
O O3 0.115194 0.233749 0.242178
O O4 0.146564 0.297515 0.444313
O O5 0.250000 0.860223 0.160432
O O6 0.116712 0.000000 0.122204
O O7 0.144622 0.742272 0.042110
O O8 0.250000 0.806467 0.754937
O O9 0.115089 0.762841 0.643659
O O10 0.107094 0.751049 0.846670
O O11 0.136346 0.000000 0.754269
O O12 0.500000 0.686621 0.500000
O O13 0.603313 0.500000 0.428442
O O14 0.113880 0.500000 0.938687
O O15 0.000000 0.673032 0.000000
#
# Coordination Sequence:
#
# PCOD9406176 Si02
#       5
#     8   8   8   8   8
#     4   9  18  34  57  84 117 159 203 246 295 355
#     4  10  21  37  59  88 121 156 196 245 302 364
#     4  11  25  44  66  94 129 169 213 260 314 379
#     4  10  22  39  62  92 127 164 208 259 308 363
#     4  11  25  42  63  90 122 160 206 257 309 368
#
# _framework density 20.451383
#
# number of rings (size 3 to 8) (size 9 to 14) (size 15 to 20)
#    0.000    1.800    0.000    3.000    2.800    8.800 
#    0.000    2.000    0.000    0.000    0.000    0.000 
#    0.000    0.000    0.000    0.000    0.000    0.000 
#
# Total GULP energy -223308.627147 kJ/mol
# GULP energy per Si atom -5582.715679 kJ/mol
# Density = 2.040483 g / cm^3
# Si number density = 20.451383 Si / 1000 Ang^3
#
#
#
# Elastic Constant Matrix: (Units=GPa)
#
#
# Indices 1 2 3 4 5 6 
#
# 1 31.0840 39.5233 28.2080 0.0000 0.0000 0.0000
# 2 39.5233 162.2405 120.8032 0.0000 0.0000 0.0000
# 3 28.2080 120.8032 173.3132 0.0000 0.0000 0.0000
# 4 0.0000 0.0000 0.0000 -6.1954 0.0000 0.0000
# 5 0.0000 0.0000 0.0000 0.0000 15.4081 0.0000
# 6 0.0000 0.0000 0.0000 0.0000 0.0000 35.0729
#
#
#
# Elastic Compliance Matrix: (Units=1/GPa)
#
#
# Indices 1 2 3 4 5 6 
#
# 1 0.046646 -0.011872 0.000683 0.000000 0.000000 0.000000
# 2 -0.011872 0.015836 -0.009106 0.000000 0.000000 0.000000
# 3 0.000683 -0.009106 0.012006 0.000000 0.000000 0.000000
# 4 0.000000 0.000000 0.000000 -0.161411 0.000000 0.000000
# 5 0.000000 0.000000 0.000000 0.000000 0.064901 0.000000
# 6 0.000000 0.000000 0.000000 0.000000 0.000000 0.028512
#
#
# Mechanical properties :
#
#
# Convention : Reuss Voigt Hill
#
# Bulk Modulus (GPa) = 29.49987 82.63407 56.06697
# Shear Modulus (GPa) = 85.64687 20.73066 53.18877
#
# Velocity S-wave (km/s) = 6.47836 3.18725 5.10528
# Velocity P-wave (km/s) = 8.39134 7.35103 7.88835
#
# Compressibility (1/GPa) = 0.03389845
#
# Stress axis : x y z
#
# Youngs Moduli (GPa) = 21.43787 63.14766 83.29446
#
# Poissons Ratio (x) = 0.74970 -0.05690
# Poissons Ratio (y) = 0.25451 0.75845
# Poissons Ratio (z) = -0.01464 0.57500
#
# Static dielectric constant tensor:
#      x y z
#    x 1.854810 0.000000 0.000000 
#    y 0.000000 1.754460 0.000000 
#    z 0.000000 0.000000 1.696760 
# 
# From -- ./inp_files/17088.got.cif
#   From: 2010.05.17/outbox.cif.g08.bks.cpg/sg51_9_cif.got.tgz:17088.got - 2010.06.03 11:52:47.
