data_PCOD9406867
_publ_section_title
;
Structure prediction by ZEFSAII (Michael W. Deem and Ramdas Pophale) SiO2 
 PCOD9406867
Probable space group: P M M A
;
_chemical_formula_sum "Si O2"
_cell_formula_units_Z 40
_cell_length_a 8.139894
_cell_length_b 27.429226
_cell_length_c 9.197247
_cell_angle_alpha 90.000000
_cell_angle_beta 90.000000
_cell_angle_gamma 90.000000
_cell_volume 2053.478463
_symmetry_space_group_name_H-M "P M M A"
_symmetry_group_IT_number 51
_symmetry_cell_setting 'orthorhombic'
loop_
_space_group_symop_operation_xyz
x,y,z
1/2-x,-y,z
1/2+x,-y,-z
-x,y,-z
-x,-y,-z
1/2+x,y,-z
1/2-x,y,z
x,-y,z
loop_
_atom_site_type_symbol
_atom_site_label
_atom_site_fract_x
_atom_site_fract_y
_atom_site_fract_z
Si Si1 0.053877 0.903470 0.833324
Si Si2 0.551225 0.000000 0.332832
Si Si3 0.051658 0.395249 0.169549
Si Si4 0.948741 0.500000 0.829856
Si Si5 0.448917 0.710942 0.168554
Si Si6 0.446002 0.193328 0.333916
O O1 0.250000 0.904882 0.828821
O O2 0.991101 0.951253 0.748188
O O3 0.998831 0.853996 0.755814
O O4 0.000000 0.904453 0.000000
O O5 0.500000 0.000000 0.500000
O O6 0.750000 0.000000 0.326839
O O7 0.250000 0.395432 0.177038
O O8 0.993355 0.447579 0.231568
O O9 0.994521 0.342410 0.225660
O O10 0.000000 0.395249 0.000000
O O11 0.750000 0.500000 0.823637
O O12 0.000000 0.500000 0.000000
O O13 0.250000 0.711068 0.172502
O O14 0.510681 0.756924 0.260030
O O15 0.500000 0.715876 0.000000
O O16 0.500000 0.189293 0.500000
O O17 0.250000 0.195552 0.330019
#
# Coordination Sequence:
#
# PCOD9406867 Si02
#       6
#     8   4   8   4   8   8
#     4  11  23  40  61  86 113 143 178 217 259 306
#     4  10  23  40  60  86 116 148 181 216 257 302
#     4   8  13  22  36  58  87 119 153 193 240 293
#     4   8  12  18  32  54  83 116 150 188 236 290
#     4   9  18  31  48  70  98 129 164 205 252 304
#     4  11  23  38  55  77 104 137 175 218 264 313
#
# _framework density 19.479140999999998
#
# number of rings (size 3 to 8) (size 9 to 14) (size 15 to 20)
#    0.000    2.400    0.000    2.700    0.000    6.400 
#    0.000    0.000    0.000    0.000    0.000    0.700 
#    0.000    0.000    0.000    0.000    0.000    0.000 
#
# Total GULP energy -222994.847546 kJ/mol
# GULP energy per Si atom -5574.871189 kJ/mol
# Density = 1.943481 g / cm^3
# Si number density = 19.479141 Si / 1000 Ang^3
#
#
#
# Elastic Constant Matrix: (Units=GPa)
#
#
# Indices 1 2 3 4 5 6 
#
# 1 21.9350 21.3706 7.4854 0.0000 0.0000 0.0000
# 2 21.3706 258.1089 98.1657 0.0000 0.0000 0.0000
# 3 7.4854 98.1657 109.2887 0.0000 0.0000 0.0000
# 4 0.0000 0.0000 0.0000 -6.2342 0.0000 0.0000
# 5 0.0000 0.0000 0.0000 0.0000 24.5349 0.0000
# 6 0.0000 0.0000 0.0000 0.0000 0.0000 -30.5554
#
#
#
# Elastic Compliance Matrix: (Units=1/GPa)
#
#
# Indices 1 2 3 4 5 6 
#
# 1 0.049604 -0.004275 0.000443 0.000000 0.000000 0.000000
# 2 -0.004275 0.006253 -0.005324 0.000000 0.000000 0.000000
# 3 0.000443 -0.005324 0.013902 0.000000 0.000000 0.000000
# 4 0.000000 0.000000 0.000000 -0.160404 0.000000 0.000000
# 5 0.000000 0.000000 0.000000 0.000000 0.040758 0.000000
# 6 0.000000 0.000000 0.000000 0.000000 0.000000 -0.032727
#
#
# Mechanical properties :
#
#
# Convention : Reuss Voigt Hill
#
# Bulk Modulus (GPa) = 19.43805 71.48623 45.46214
# Shear Modulus (GPa) = -106.03606 15.03646 -45.49980
#
# Velocity S-wave (km/s) = -7.38606 2.78137 -4.83828
# Velocity P-wave (km/s) = 7.92073 6.86245 2.79685
#
# Compressibility (1/GPa) = 0.05144549
#
# Stress axis : x y z
#
# Youngs Moduli (GPa) = 20.15986 159.91963 71.93325
#
# Poissons Ratio (x) = 0.68373 -0.03186
# Poissons Ratio (y) = 0.08619 0.38296
# Poissons Ratio (z) = -0.00893 0.85139
#
# Static dielectric constant tensor:
#      x y z
#    x 1.685650 0.000000 0.000000 
#    y 0.000000 1.762710 0.000000 
#    z 0.000000 0.000000 1.615800 
# 
# From -- ./inp_files/5632.got.cif
#   From: 2010.05.17/outbox.cif.g08.bks.cpg/sg51_3_cif.got.tgz:5632.got - 2010.06.03 11:52:47.
