data_PCOD9406238
_publ_section_title
;
Structure prediction by ZEFSAII (Michael W. Deem and Ramdas Pophale) SiO2 
 PCOD9406238
Probable space group: P M M A
;
_chemical_formula_sum "Si O2"
_cell_formula_units_Z 48
_cell_length_a 8.712968
_cell_length_b 31.662308
_cell_length_c 9.664466
_cell_angle_alpha 90.000000
_cell_angle_beta 90.000000
_cell_angle_gamma 90.000000
_cell_volume 2666.162101
_symmetry_space_group_name_H-M "P M M A"
_symmetry_group_IT_number 51
_symmetry_cell_setting 'orthorhombic'
loop_
_space_group_symop_operation_xyz
x,y,z
1/2-x,-y,z
1/2+x,-y,-z
-x,y,-z
-x,-y,-z
1/2+x,y,-z
1/2-x,y,z
x,-y,z
loop_
_atom_site_type_symbol
_atom_site_label
_atom_site_fract_x
_atom_site_fract_y
_atom_site_fract_z
Si Si1 0.434424 0.379687 0.153829
Si Si2 0.067022 0.121467 0.655375
Si Si3 0.934132 0.208211 0.655969
Si Si4 0.933552 0.549518 0.349491
Si Si5 0.566303 0.048551 0.846091
Si Si6 0.565299 0.698357 0.654910
O O1 0.250000 0.380221 0.149084
O O2 0.494123 0.420970 0.233412
O O3 0.484683 0.339093 0.244421
O O4 0.500000 0.377626 0.000000
O O5 0.250000 0.122386 0.648371
O O6 0.000000 0.118081 0.500000
O O7 0.006422 0.165901 0.718415
O O8 0.008329 0.082297 0.744397
O O9 0.750000 0.203886 0.653046
O O10 0.974455 0.254772 0.711827
O O11 0.000000 0.209297 0.500000
O O12 0.750000 0.554312 0.351117
O O13 0.969665 0.500000 0.326666
O O14 0.000000 0.561422 0.500000
O O15 0.750000 0.053797 0.848121
O O16 0.532543 0.000000 0.804388
O O17 0.500000 0.054391 0.000000
O O18 0.500000 0.693273 0.500000
O O19 0.750000 0.696930 0.643643
#
# Coordination Sequence:
#
# PCOD9406238 Si02
#       6
#     8   8   8   8   8   8
#     4  11  23  38  55  79 111 146 183 223 271 321
#     4  11  21  34  54  81 111 142 178 221 269 317
#     4   9  16  30  51  76 106 137 173 218 267 317
#     4  10  21  38  60  85 111 141 179 222 267 317
#     4  10  21  38  58  79 105 139 178 219 265 319
#     4   9  19  34  55  80 105 137 177 221 266 317
#
# _framework density 18.003408
#
# number of rings (size 3 to 8) (size 9 to 14) (size 15 to 20)
#    0.000    2.000    0.000    5.000    0.000    6.000 
#    0.000    0.833    0.000    2.000    0.000    0.000 
#    0.000    0.000    0.000    0.000    0.000    0.000 
#
# Total GULP energy -267906.307085 kJ/mol
# GULP energy per Si atom -5581.381398 kJ/mol
# Density = 1.796243 g / cm^3
# Si number density = 18.003408 Si / 1000 Ang^3
#
#
#
# Elastic Constant Matrix: (Units=GPa)
#
#
# Indices 1 2 3 4 5 6 
#
# 1 85.7578 64.9950 43.8654 0.0000 0.0000 0.0000
# 2 64.9950 146.8991 91.4190 0.0000 0.0000 0.0000
# 3 43.8654 91.4190 100.6724 0.0000 0.0000 0.0000
# 4 0.0000 0.0000 0.0000 52.8944 0.0000 0.0000
# 5 0.0000 0.0000 0.0000 0.0000 30.8663 0.0000
# 6 0.0000 0.0000 0.0000 0.0000 0.0000 -25.0722
#
#
#
# Elastic Compliance Matrix: (Units=1/GPa)
#
#
# Indices 1 2 3 4 5 6 
#
# 1 0.017626 -0.006942 -0.001376 0.000000 0.000000 0.000000
# 2 -0.006942 0.018388 -0.013673 0.000000 0.000000 0.000000
# 3 -0.001376 -0.013673 0.022949 0.000000 0.000000 0.000000
# 4 0.000000 0.000000 0.000000 0.018906 0.000000 0.000000
# 5 0.000000 0.000000 0.000000 0.000000 0.032398 0.000000
# 6 0.000000 0.000000 0.000000 0.000000 0.000000 -0.039885
#
#
# Mechanical properties :
#
#
# Convention : Reuss Voigt Hill
#
# Bulk Modulus (GPa) = 66.75267 81.54312 74.14790
# Shear Modulus (GPa) = 41.89107 20.60770 31.24938
#
# Velocity S-wave (km/s) = 4.82897 3.38695 4.17075
# Velocity P-wave (km/s) = 8.26137 7.79017 8.02922
#
# Compressibility (1/GPa) = 0.01498067
#
# Stress axis : x y z
#
# Youngs Moduli (GPa) = 56.73423 54.38332 43.57520
#
# Poissons Ratio (x) = 0.37755 0.05995
# Poissons Ratio (y) = 0.39387 0.59580
# Poissons Ratio (z) = 0.07806 0.74358
#
# Static dielectric constant tensor:
#      x y z
#    x 1.601300 0.000000 0.000000 
#    y 0.000000 1.651610 0.000000 
#    z 0.000000 0.000000 1.586650 
# 
# From -- ./inp_files/6085.got.cif
#   From: 2010.05.17/outbox.cif.g08.bks.cpg/sg51_4_cif.got.tgz:6085.got - 2010.06.03 11:52:47.
