data_PCOD9406039
_publ_section_title
;
Structure prediction by ZEFSAII (Michael W. Deem and Ramdas Pophale) SiO2 
 PCOD9406039
Probable space group: P M M A
;
_chemical_formula_sum "Si O2"
_cell_formula_units_Z 48
_cell_length_a 8.963130
_cell_length_b 9.226578
_cell_length_c 31.666141
_cell_angle_alpha 90.000000
_cell_angle_beta 90.000000
_cell_angle_gamma 90.000000
_cell_volume 2618.758767
_symmetry_space_group_name_H-M "P M M A"
_symmetry_group_IT_number 51
_symmetry_cell_setting 'orthorhombic'
loop_
_space_group_symop_operation_xyz
x,y,z
1/2-x,-y,z
1/2+x,-y,-z
-x,y,-z
-x,-y,-z
1/2+x,y,-z
1/2-x,y,z
x,-y,z
loop_
_atom_site_type_symbol
_atom_site_label
_atom_site_fract_x
_atom_site_fract_y
_atom_site_fract_z
Si Si1 0.427881 0.829111 0.544642
Si Si2 0.070080 0.830085 0.129757
Si Si3 0.071346 0.330147 0.790469
Si Si4 0.929187 0.330653 0.955806
Si Si5 0.429648 0.829837 0.289421
Si Si6 0.070797 0.330202 0.376117
O O1 0.500000 0.785476 0.500000
O O2 0.250000 0.813365 0.542347
O O3 0.493225 0.738514 0.583243
O O4 0.462681 0.000000 0.551181
O O5 0.250000 0.815853 0.133329
O O6 0.025119 0.762440 0.084711
O O7 0.995044 0.744175 0.167867
O O8 0.033324 0.000000 0.131916
O O9 0.250000 0.318384 0.790731
O O10 0.030724 0.500000 0.789461
O O11 0.006014 0.250058 0.749588
O O12 0.750000 0.322857 0.959342
O O13 0.969890 0.500000 0.949178
O O14 0.000000 0.282475 0.000000
O O15 0.250000 0.817149 0.285006
O O16 0.472273 0.755014 0.333598
O O17 0.467169 0.000000 0.289842
O O18 0.250000 0.316390 0.380879
O O19 0.035062 0.500000 0.371901
#
# Coordination Sequence:
#
# PCOD9406039 Si02
#       6
#     8   8   8   8   8   8
#     4  10  21  37  58  83 111 146 187 230 277 327
#     4  10  21  37  57  81 109 143 184 226 270 324
#     4  11  24  39  56  81 112 145 182 225 273 324
#     4   9  18  33  53  77 106 141 180 222 268 319
#     4  10  21  38  61  86 111 143 183 225 271 325
#     4  10  21  37  58  84 113 146 184 225 271 324
#
# _framework density 18.329294000000001
#
# number of rings (size 3 to 8) (size 9 to 14) (size 15 to 20)
#    0.000    2.000    0.000    3.000    0.000    9.333 
#    0.000    1.667    0.000    0.000    0.000    0.000 
#    0.000    0.000    0.000    0.000    0.000    0.000 
#
# Total GULP energy -268192.259652 kJ/mol
# GULP energy per Si atom -5587.338743 kJ/mol
# Density = 1.828758 g / cm^3
# Si number density = 18.329294 Si / 1000 Ang^3
#
#
#
# Elastic Constant Matrix: (Units=GPa)
#
#
# Indices 1 2 3 4 5 6 
#
# 1 28.7598 62.9581 64.4817 0.0000 0.0000 0.0000
# 2 62.9581 158.6913 131.1612 0.0000 0.0000 0.0000
# 3 64.4817 131.1612 214.3517 0.0000 0.0000 0.0000
# 4 0.0000 0.0000 0.0000 42.1493 0.0000 0.0000
# 5 0.0000 0.0000 0.0000 0.0000 37.5018 0.0000
# 6 0.0000 0.0000 0.0000 0.0000 0.0000 26.8266
#
#
#
# Elastic Compliance Matrix: (Units=1/GPa)
#
#
# Indices 1 2 3 4 5 6 
#
# 1 0.431001 -0.129145 -0.050631 0.000000 0.000000 0.000000
# 2 -0.129145 0.051447 0.007370 0.000000 0.000000 0.000000
# 3 -0.050631 0.007370 0.015387 0.000000 0.000000 0.000000
# 4 0.000000 0.000000 0.000000 0.023725 0.000000 0.000000
# 5 0.000000 0.000000 0.000000 0.000000 0.026665 0.000000
# 6 0.000000 0.000000 0.000000 0.000000 0.000000 0.037276
#
#
# Mechanical properties :
#
#
# Convention : Reuss Voigt Hill
#
# Bulk Modulus (GPa) = 6.53504 102.11164 54.32334
# Shear Modulus (GPa) = 5.09517 30.84234 17.96876
#
# Velocity S-wave (km/s) = 1.66908 4.10650 3.13442
# Velocity P-wave (km/s) = 2.69954 8.84957 6.54226
#
# Compressibility (1/GPa) = 0.15302126
#
# Stress axis : x y z
#
# Youngs Moduli (GPa) = 2.32018 19.43763 64.99143
#
# Poissons Ratio (x) = 2.51027 3.29057
# Poissons Ratio (y) = 0.29964 -0.47896
# Poissons Ratio (z) = 0.11747 -0.14325
#
# Static dielectric constant tensor:
#      x y z
#    x 1.615350 0.000000 0.000000 
#    y 0.000000 1.615990 0.000000 
#    z 0.000000 0.000000 1.588860 
# 
# From -- ./inp_files/37004.got.cif
#   From: 2010.05.17/outbox.cif.g08.bks.cpg/sg51_19_cif.got.tgz:37004.got - 2010.06.03 11:52:47.
