data_PCOD9406538
_publ_section_title
;
Structure prediction by ZEFSAII (Michael W. Deem and Ramdas Pophale) SiO2 
 PCOD9406538
Probable space group: P M M A
;
_chemical_formula_sum "Si O2"
_cell_formula_units_Z 48
_cell_length_a 8.628421
_cell_length_b 31.231892
_cell_length_c 9.323508
_cell_angle_alpha 90.000000
_cell_angle_beta 90.000000
_cell_angle_gamma 90.000000
_cell_volume 2512.516770
_symmetry_space_group_name_H-M "P M M A"
_symmetry_group_IT_number 51
_symmetry_cell_setting 'orthorhombic'
loop_
_space_group_symop_operation_xyz
x,y,z
1/2-x,-y,z
1/2+x,-y,-z
-x,y,-z
-x,-y,-z
1/2+x,y,-z
1/2-x,y,z
x,-y,z
loop_
_atom_site_type_symbol
_atom_site_label
_atom_site_fract_x
_atom_site_fract_y
_atom_site_fract_z
Si Si1 0.065148 0.873626 0.659989
Si Si2 0.064721 0.050130 0.158564
Si Si3 0.062761 0.548423 0.659569
Si Si4 0.936824 0.370328 0.159492
Si Si5 0.435374 0.205954 0.160997
Si Si6 0.563447 0.286266 0.338891
O O1 0.250000 0.870318 0.658112
O O2 0.000000 0.868862 0.500000
O O3 0.013079 0.918768 0.727105
O O4 0.995687 0.836535 0.760098
O O5 0.250000 0.056184 0.159550
O O6 0.031820 0.000000 0.186744
O O7 0.000000 0.060210 0.000000
O O8 0.250000 0.549489 0.654150
O O9 0.015455 0.500000 0.700701
O O10 0.010081 0.585296 0.767753
O O11 0.000000 0.556825 0.500000
O O12 0.750000 0.371008 0.153244
O O13 0.981637 0.330285 0.259131
O O14 0.000000 0.365298 0.000000
O O15 0.250000 0.205926 0.157871
O O16 0.496149 0.246607 0.249958
O O17 0.500000 0.207670 0.000000
O O18 0.500000 0.285715 0.500000
O O19 0.750000 0.283380 0.341443
#
# Coordination Sequence:
#
# PCOD9406538 Si02
#       6
#     8   8   8   8   8   8
#     4  12  25  42  63  89 122 159 200 245 295 349
#     4  10  21  39  63  91 123 160 202 247 296 350
#     4   9  18  34  55  80 110 145 187 234 284 339
#     4  10  22  37  55  81 114 150 189 235 285 340
#     4  12  25  43  65  90 120 154 194 239 290 346
#     4  11  23  40  61  87 117 151 192 237 289 345
#
# _framework density 19.104351000000001
#
# number of rings (size 3 to 8) (size 9 to 14) (size 15 to 20)
#    0.000    1.333    0.000    6.000    0.000    5.000 
#    0.000    0.000    0.000    0.000    0.000    0.000 
#    0.000    0.000    0.000    0.000    0.000    0.000 
#
# Total GULP energy -268485.695903 kJ/mol
# GULP energy per Si atom -5593.451998 kJ/mol
# Density = 1.906087 g / cm^3
# Si number density = 19.104351 Si / 1000 Ang^3
#
#
#
# Elastic Constant Matrix: (Units=GPa)
#
#
# Indices 1 2 3 4 5 6 
#
# 1 101.7305 59.9521 65.1756 0.0000 0.0000 0.0000
# 2 59.9521 121.5444 102.4233 0.0000 0.0000 0.0000
# 3 65.1756 102.4233 189.2265 0.0000 0.0000 0.0000
# 4 0.0000 0.0000 0.0000 38.6410 0.0000 0.0000
# 5 0.0000 0.0000 0.0000 0.0000 40.3588 0.0000
# 6 0.0000 0.0000 0.0000 0.0000 0.0000 185.0006
#
#
#
# Elastic Compliance Matrix: (Units=1/GPa)
#
#
# Indices 1 2 3 4 5 6 
#
# 1 0.014271 -0.005327 -0.002032 0.000000 0.000000 0.000000
# 2 -0.005327 0.017116 -0.007430 0.000000 0.000000 0.000000
# 3 -0.002032 -0.007430 0.010006 0.000000 0.000000 0.000000
# 4 0.000000 0.000000 0.000000 0.025879 0.000000 0.000000
# 5 0.000000 0.000000 0.000000 0.000000 0.024778 0.000000
# 6 0.000000 0.000000 0.000000 0.000000 0.000000 0.005405
#
#
# Mechanical properties :
#
#
# Convention : Reuss Voigt Hill
#
# Bulk Modulus (GPa) = 84.63269 96.40040 90.51655
# Shear Modulus (GPa) = 38.17653 65.13010 51.65332
#
# Velocity S-wave (km/s) = 4.47510 5.84515 5.20540
# Velocity P-wave (km/s) = 8.43199 9.80428 9.14391
#
# Compressibility (1/GPa) = 0.01181576
#
# Stress axis : x y z
#
# Youngs Moduli (GPa) = 70.07211 58.42615 99.93980
#
# Poissons Ratio (x) = 0.31122 0.20309
# Poissons Ratio (y) = 0.37326 0.74251
# Poissons Ratio (z) = 0.14240 0.43408
#
# Static dielectric constant tensor:
#      x y z
#    x 1.643320 0.000000 0.000000 
#    y 0.000000 1.661760 0.000000 
#    z 0.000000 0.000000 1.610800 
# 
# From -- ./inp_files/6044.got.cif
#   From: 2010.05.17/outbox.cif.g08.bks.cpg/sg51_4_cif.got.tgz:6044.got - 2010.06.03 11:52:47.
