data_PCOD9406399
_publ_section_title
;
Structure prediction by ZEFSAII (Michael W. Deem and Ramdas Pophale) SiO2 
 PCOD9406399
Probable space group: P M M A
;
_chemical_formula_sum "Si O2"
_cell_formula_units_Z 48
_cell_length_a 25.662555
_cell_length_b 8.791438
_cell_length_c 12.006086
_cell_angle_alpha 90.000000
_cell_angle_beta 90.000000
_cell_angle_gamma 90.000000
_cell_volume 2708.702202
_symmetry_space_group_name_H-M "P M M A"
_symmetry_group_IT_number 51
_symmetry_cell_setting 'orthorhombic'
loop_
_space_group_symop_operation_xyz
x,y,z
1/2-x,-y,z
1/2+x,-y,-z
-x,y,-z
-x,-y,-z
1/2+x,y,-z
1/2-x,y,z
x,-y,z
loop_
_atom_site_type_symbol
_atom_site_label
_atom_site_fract_x
_atom_site_fract_y
_atom_site_fract_z
Si Si1 0.095249 0.682367 0.730293
Si Si2 0.061788 0.182031 0.497284
Si Si3 0.311325 0.180753 0.128376
Si Si4 0.810192 0.317514 0.112464
Si Si5 0.500401 0.181318 0.867918
Si Si6 0.597192 0.318861 0.734800
O O1 0.092444 0.500000 0.719452
O O2 0.087476 0.757765 0.610351
O O3 0.149448 0.723022 0.790747
O O4 0.048575 0.740145 0.808853
O O5 0.087062 0.257567 0.389063
O O6 0.000000 0.219692 0.500000
O O7 0.066346 0.000000 0.490069
O O8 0.250000 0.212562 0.145891
O O9 0.347826 0.265141 0.215829
O O10 0.319646 0.000000 0.135899
O O11 0.324328 0.236878 0.003523
O O12 0.750000 0.279822 0.138993
O O13 0.813363 0.500000 0.095357
O O14 0.552511 0.246747 0.812759
O O15 0.498010 0.000000 0.848203
O O16 0.500000 0.208626 0.000000
O O17 0.593072 0.500000 0.736900
#
# Coordination Sequence:
#
# PCOD9406399 Si02
#       6
#     8   8   8   8   8   8
#     4  11  22  36  58  86 115 150 194 239 288 344
#     4  11  23  40  61  82 112 155 197 239 292 348
#     4  10  21  38  61  88 119 155 194 236 285 342
#     4   9  19  37  60  87 120 155 191 234 286 342
#     4  11  23  37  55  82 117 152 187 234 289 345
#     4  12  24  38  60  86 115 150 193 241 289 344
#
# _framework density 17.720662999999998
#
# number of rings (size 3 to 8) (size 9 to 14) (size 15 to 20)
#    0.000    1.333    1.667    4.500    0.000    7.000 
#    0.000    0.833    0.000    3.000    0.000    0.000 
#    0.000    0.000    0.000    0.000    0.000    0.000 
#
# Total GULP energy -268358.717373 kJ/mol
# GULP energy per Si atom -5590.806612 kJ/mol
# Density = 1.768033 g / cm^3
# Si number density = 17.720663 Si / 1000 Ang^3
#
#
#
# Elastic Constant Matrix: (Units=GPa)
#
#
# Indices 1 2 3 4 5 6 
#
# 1 74.9344 30.6226 60.6246 0.0000 0.0000 0.0000
# 2 30.6226 41.9905 43.6422 0.0000 0.0000 0.0000
# 3 60.6246 43.6422 120.6483 0.0000 0.0000 0.0000
# 4 0.0000 0.0000 0.0000 31.1763 0.0000 0.0000
# 5 0.0000 0.0000 0.0000 0.0000 5.8955 0.0000
# 6 0.0000 0.0000 0.0000 0.0000 0.0000 23.3605
#
#
#
# Elastic Compliance Matrix: (Units=1/GPa)
#
#
# Indices 1 2 3 4 5 6 
#
# 1 0.024046 -0.007977 -0.009197 0.000000 0.000000 0.000000
# 2 -0.007977 0.040809 -0.010753 0.000000 0.000000 0.000000
# 3 -0.009197 -0.010753 0.016800 0.000000 0.000000 0.000000
# 4 0.000000 0.000000 0.000000 0.032076 0.000000 0.000000
# 5 0.000000 0.000000 0.000000 0.000000 0.169620 0.000000
# 6 0.000000 0.000000 0.000000 0.000000 0.000000 0.042807
#
#
# Mechanical properties :
#
#
# Convention : Reuss Voigt Hill
#
# Bulk Modulus (GPa) = 38.76095 56.37247 47.56671
# Shear Modulus (GPa) = 12.80041 18.93206 15.86624
#
# Velocity S-wave (km/s) = 2.69056 3.27212 2.99549
# Velocity P-wave (km/s) = 5.61898 6.79386 6.23416
#
# Compressibility (1/GPa) = 0.02579916
#
# Stress axis : x y z
#
# Youngs Moduli (GPa) = 41.58740 24.50453 59.52403
#
# Poissons Ratio (x) = 0.19547 0.54746
# Poissons Ratio (y) = 0.33174 0.64009
# Poissons Ratio (z) = 0.38249 0.26351
#
# Static dielectric constant tensor:
#      x y z
#    x 1.594670 0.000000 0.000000 
#    y 0.000000 1.591740 0.000000 
#    z 0.000000 0.000000 1.570020 
# 
# From -- ./inp_files/18616.got.cif
#   From: 2010.05.17/outbox.cif.g08.bks.cpg/sg51_10_cif.got.tgz:18616.got - 2010.06.03 11:52:47.
