data_PCOD9406305
_publ_section_title
;
Structure prediction by ZEFSAII (Michael W. Deem and Ramdas Pophale) SiO2 
 PCOD9406305
Probable space group: P M M A
;
_chemical_formula_sum "Si O2"
_cell_formula_units_Z 48
_cell_length_a 20.893583
_cell_length_b 8.730313
_cell_length_c 14.801268
_cell_angle_alpha 90.000000
_cell_angle_beta 90.000000
_cell_angle_gamma 90.000000
_cell_volume 2699.862578
_symmetry_space_group_name_H-M "P M M A"
_symmetry_group_IT_number 51
_symmetry_cell_setting 'orthorhombic'
loop_
_space_group_symop_operation_xyz
x,y,z
1/2-x,-y,z
1/2+x,-y,-z
-x,y,-z
-x,-y,-z
1/2+x,y,-z
1/2-x,y,z
x,-y,z
loop_
_atom_site_type_symbol
_atom_site_label
_atom_site_fract_x
_atom_site_fract_y
_atom_site_fract_z
Si Si1 0.177329 0.684682 0.442964
Si Si2 0.874443 0.315977 0.754726
Si Si3 0.176870 0.816782 0.060470
Si Si4 0.562337 0.184394 0.442629
Si Si5 0.017678 0.816174 0.756044
Si Si6 0.936808 0.683388 0.058668
O O1 0.250000 0.735795 0.460425
O O2 0.175943 0.500000 0.446699
O O3 0.156162 0.728457 0.341334
O O4 0.125777 0.748664 0.512768
O O5 0.873012 0.500000 0.762792
O O6 0.837534 0.243594 0.838943
O O7 0.947398 0.258485 0.757702
O O8 0.250000 0.779235 0.035734
O O9 0.169171 0.000000 0.058893
O O10 0.125220 0.741899 0.994152
O O11 0.500000 0.234879 0.500000
O O12 0.551374 0.226435 0.338318
O O13 0.565212 0.000000 0.448335
O O14 0.055511 0.758513 0.843406
O O15 0.010902 0.000000 0.758742
O O16 0.935170 0.500000 0.066972
O O17 0.000000 0.723981 0.000000
#
# Coordination Sequence:
#
# PCOD9406305 Si02
#       6
#     8   8   8   8   8   8
#     4  10  22  38  57  85 120 157 196 238 289 347
#     4  11  21  35  58  88 122 155 191 238 292 347
#     4  11  24  40  60  88 120 156 196 238 291 350
#     4  10  21  38  59  86 117 151 195 241 287 342
#     4  11  22  37  60  88 119 152 194 244 290 342
#     4  11  23  39  61  89 118 152 196 241 289 347
#
# _framework density 17.778683000000001
#
# number of rings (size 3 to 8) (size 9 to 14) (size 15 to 20)
#    0.000    1.333    3.333    2.500    0.000    5.333 
#    0.000    0.833    0.000    1.000    0.000    0.000 
#    0.000    0.000    0.000    0.000    0.000    0.000 
#
# Total GULP energy -268291.637133 kJ/mol
# GULP energy per Si atom -5589.409107 kJ/mol
# Density = 1.773822 g / cm^3
# Si number density = 17.778683 Si / 1000 Ang^3
#
#
#
# Elastic Constant Matrix: (Units=GPa)
#
#
# Indices 1 2 3 4 5 6 
#
# 1 135.9478 28.2992 62.8500 0.0000 0.0000 0.0000
# 2 28.2992 27.5647 30.1660 0.0000 0.0000 0.0000
# 3 62.8500 30.1660 131.2561 0.0000 0.0000 0.0000
# 4 0.0000 0.0000 0.0000 32.2577 0.0000 0.0000
# 5 0.0000 0.0000 0.0000 0.0000 13.9658 0.0000
# 6 0.0000 0.0000 0.0000 0.0000 0.0000 20.1262
#
#
#
# Elastic Compliance Matrix: (Units=1/GPa)
#
#
# Indices 1 2 3 4 5 6 
#
# 1 0.010357 -0.006955 -0.003361 0.000000 0.000000 0.000000
# 2 -0.006955 0.053140 -0.008882 0.000000 0.000000 0.000000
# 3 -0.003361 -0.008882 0.011269 0.000000 0.000000 0.000000
# 4 0.000000 0.000000 0.000000 0.031000 0.000000 0.000000
# 5 0.000000 0.000000 0.000000 0.000000 0.071603 0.000000
# 6 0.000000 0.000000 0.000000 0.000000 0.000000 0.049686
#
#
# Mechanical properties :
#
#
# Convention : Reuss Voigt Hill
#
# Bulk Modulus (GPa) = 27.49585 59.71099 43.60342
# Shear Modulus (GPa) = 18.01303 24.83350 21.42327
#
# Velocity S-wave (km/s) = 3.18650 3.74145 3.47507
# Velocity P-wave (km/s) = 5.38866 7.23348 6.37812
#
# Compressibility (1/GPa) = 0.03636912
#
# Stress axis : x y z
#
# Youngs Moduli (GPa) = 96.54933 18.81839 88.73534
#
# Poissons Ratio (x) = 0.13089 0.29824
# Poissons Ratio (y) = 0.67152 0.78818
# Poissons Ratio (z) = 0.32450 0.16715
#
# Static dielectric constant tensor:
#      x y z
#    x 1.577600 0.000000 0.000000 
#    y 0.000000 1.599550 0.000000 
#    z 0.000000 0.000000 1.586350 
# 
# From -- ./inp_files/24775.got.cif
#   From: 2010.05.17/outbox.cif.g08.bks.cpg/sg51_13_cif.got.tgz:24775.got - 2010.06.03 11:52:47.
