data_PCOD9406432
_publ_section_title
;
Structure prediction by ZEFSAII (Michael W. Deem and Ramdas Pophale) SiO2 
 PCOD9406432
Probable space group: P M M A
;
_chemical_formula_sum "Si O2"
_cell_formula_units_Z 56
_cell_length_a 17.462452
_cell_length_b 18.809764
_cell_length_c 9.188938
_cell_angle_alpha 90.000000
_cell_angle_beta 90.000000
_cell_angle_gamma 90.000000
_cell_volume 3018.240854
_symmetry_space_group_name_H-M "P M M A"
_symmetry_group_IT_number 51
_symmetry_cell_setting 'orthorhombic'
loop_
_space_group_symop_operation_xyz
x,y,z
1/2-x,-y,z
1/2+x,-y,-z
-x,y,-z
-x,-y,-z
1/2+x,y,-z
1/2-x,y,z
x,-y,z
loop_
_atom_site_type_symbol
_atom_site_label
_atom_site_fract_x
_atom_site_fract_y
_atom_site_fract_z
Si Si1 0.075331 0.199783 0.419393
Si Si2 0.156982 0.078761 0.884493
Si Si3 0.033465 0.357342 0.341549
Si Si4 0.342223 0.083138 0.222519
Si Si5 0.661239 0.584296 0.846364
Si Si6 0.071200 0.669937 0.907235
Si Si7 0.658634 0.783841 0.285466
O O1 0.049035 0.271899 0.337626
O O2 0.114862 0.140766 0.320223
O O3 0.131204 0.224609 0.549487
O O4 0.000000 0.170640 0.500000
O O5 0.250000 0.076966 0.880897
O O6 0.132537 0.139240 0.773910
O O7 0.128899 0.000000 0.846449
O O8 0.137194 0.094225 0.052426
O O9 0.111634 0.395032 0.295151
O O10 0.000000 0.373605 0.500000
O O11 0.970917 0.375409 0.218410
O O12 0.250000 0.092140 0.236928
O O13 0.358780 0.000000 0.257939
O O14 0.750000 0.604883 0.831309
O O15 0.656842 0.500000 0.869777
O O16 0.622500 0.625239 0.981454
O O17 0.121220 0.727113 0.822198
O O18 0.000000 0.701305 0.000000
O O19 0.750000 0.779473 0.277452
#
# Coordination Sequence:
#
# PCOD9406432 Si02
#       7
#     8   8   8   8   8   8   8
#     4  11  22  37  54  79 118 153 192 246 295 351
#     4   8  17  33  52  77 107 139 185 242 291 341
#     4  10  21  41  61  87 124 163 196 238 291 360
#     4   9  19  36  56  79 109 150 199 247 302 361
#     4  10  23  42  65  95 124 152 195 246 290 343
#     4  10  21  38  62  85 120 157 193 236 292 352
#     4  11  21  34  57  85 111 149 199 246 294 346
#
# _framework density 18.553854000000001
#
# number of rings (size 3 to 8) (size 9 to 14) (size 15 to 20)
#    0.000    2.143    2.857    1.714    4.000    4.857 
#    0.000    1.429    0.000    3.857    0.000    0.000 
#    0.000    0.000    0.000    0.000    0.000    0.000 
#
# Total GULP energy -312372.336482 kJ/mol
# GULP energy per Si atom -5578.077437 kJ/mol
# Density = 1.851162 g / cm^3
# Si number density = 18.553854 Si / 1000 Ang^3
#
#
#
# Elastic Constant Matrix: (Units=GPa)
#
#
# Indices 1 2 3 4 5 6 
#
# 1 99.5517 31.2896 40.2848 0.0000 0.0000 0.0000
# 2 31.2896 43.1316 20.6081 0.0000 0.0000 0.0000
# 3 40.2848 20.6081 78.7068 0.0000 0.0000 0.0000
# 4 0.0000 0.0000 0.0000 12.5331 0.0000 0.0000
# 5 0.0000 0.0000 0.0000 0.0000 26.5991 0.0000
# 6 0.0000 0.0000 0.0000 0.0000 0.0000 15.9749
#
#
#
# Elastic Compliance Matrix: (Units=1/GPa)
#
#
# Indices 1 2 3 4 5 6 
#
# 1 0.014808 -0.008139 -0.005448 0.000000 0.000000 0.000000
# 2 -0.008139 0.030974 -0.003944 0.000000 0.000000 0.000000
# 3 -0.005448 -0.003944 0.016527 0.000000 0.000000 0.000000
# 4 0.000000 0.000000 0.000000 0.079788 0.000000 0.000000
# 5 0.000000 0.000000 0.000000 0.000000 0.037595 0.000000
# 6 0.000000 0.000000 0.000000 0.000000 0.000000 0.062598
#
#
# Mechanical properties :
#
#
# Convention : Reuss Voigt Hill
#
# Bulk Modulus (GPa) = 36.70317 45.08392 40.89354
# Shear Modulus (GPa) = 17.45599 19.63527 18.54563
#
# Velocity S-wave (km/s) = 3.07062 3.25666 3.16501
# Velocity P-wave (km/s) = 5.69179 6.20426 5.95354
#
# Compressibility (1/GPa) = 0.02724560
#
# Stress axis : x y z
#
# Youngs Moduli (GPa) = 67.53182 32.28529 60.50864
#
# Poissons Ratio (x) = 0.26278 0.32965
# Poissons Ratio (y) = 0.54966 0.23865
# Poissons Ratio (z) = 0.36792 0.12734
#
# Static dielectric constant tensor:
#      x y z
#    x 1.651610 0.000000 0.000000 
#    y 0.000000 1.628420 0.000000 
#    z 0.000000 0.000000 1.635810 
# 
# From -- ./inp_files/8591.got.cif
#   From: 2010.05.17/outbox.cif.g08.bks.cpg/sg51_5_cif.got.tgz:8591.got - 2010.06.03 11:52:47.
