data_PCOD9406598
_publ_section_title
;
Structure prediction by ZEFSAII (Michael W. Deem and Ramdas Pophale) SiO2 
 PCOD9406598
Probable space group: P M M A
;
_chemical_formula_sum "Si O2"
_cell_formula_units_Z 56
_cell_length_a 8.541663
_cell_length_b 15.911745
_cell_length_c 20.810088
_cell_angle_alpha 90.000000
_cell_angle_beta 90.000000
_cell_angle_gamma 90.000000
_cell_volume 2828.356569
_symmetry_space_group_name_H-M "P M M A"
_symmetry_group_IT_number 51
_symmetry_cell_setting 'orthorhombic'
loop_
_space_group_symop_operation_xyz
x,y,z
1/2-x,-y,z
1/2+x,-y,-z
-x,y,-z
-x,-y,-z
1/2+x,y,-z
1/2-x,y,z
x,-y,z
loop_
_atom_site_type_symbol
_atom_site_label
_atom_site_fract_x
_atom_site_fract_y
_atom_site_fract_z
Si Si1 0.435531 0.368073 0.257283
Si Si2 0.935641 0.768422 0.930723
Si Si3 0.938722 0.589936 0.395767
Si Si4 0.937262 0.592213 0.117820
Si Si5 0.438482 0.187785 0.708713
Si Si6 0.938182 0.906863 0.167168
Si Si7 0.437918 0.225273 0.566741
O O1 0.250000 0.382475 0.255940
O O2 0.510058 0.406227 0.321510
O O3 0.512245 0.401312 0.192307
O O4 0.474255 0.269287 0.263623
O O5 0.750000 0.768970 0.931116
O O6 0.992111 0.673650 0.916244
O O7 0.995116 0.832959 0.876782
O O8 0.000000 0.794659 0.000000
O O9 0.750000 0.591561 0.398961
O O10 0.994273 0.500000 0.422633
O O11 0.995710 0.677515 0.426176
O O12 0.750000 0.597326 0.113447
O O13 0.987755 0.500000 0.093213
O O14 0.250000 0.204456 0.710690
O O15 0.471530 0.113079 0.757945
O O16 0.481568 0.179849 0.633646
O O17 0.750000 0.905168 0.160105
O O18 0.995018 0.000000 0.149535
O O19 0.500000 0.189636 0.500000
O O20 0.250000 0.226623 0.563795
#
# Coordination Sequence:
#
# PCOD9406598 Si02
#       7
#     8   8   8   8   8   8   8
#     4  11  20  30  50  81 113 147 191 244 298 350
#     4  12  26  44  66  92 126 165 201 246 299 354
#     4   9  18  32  47  65  97 143 192 242 298 356
#     4  11  23  39  60  85 118 162 207 251 298 349
#     4   9  18  35  58  81 114 153 191 237 294 356
#     4  10  21  40  69  99 123 153 197 247 300 362
#     4   9  18  31  48  73 104 147 194 239 292 353
#
# _framework density 19.799482999999999
#
# number of rings (size 3 to 8) (size 9 to 14) (size 15 to 20)
#    0.000    1.857    1.429    4.286    0.000    6.571 
#    0.000    0.000    0.000    0.429    0.000    0.000 
#    0.000    0.000    0.000    0.000    0.000    0.286 
#
# Total GULP energy -312629.472252 kJ/mol
# GULP energy per Si atom -5582.669147 kJ/mol
# Density = 1.975442 g / cm^3
# Si number density = 19.799483 Si / 1000 Ang^3
#
#
#
# Elastic Constant Matrix: (Units=GPa)
#
#
# Indices 1 2 3 4 5 6 
#
# 1 31.4898 28.9698 22.2675 0.0000 0.0000 0.0000
# 2 28.9698 95.0831 42.2919 0.0000 0.0000 0.0000
# 3 22.2675 42.2919 119.5563 0.0000 0.0000 0.0000
# 4 0.0000 0.0000 0.0000 -13.5307 0.0000 0.0000
# 5 0.0000 0.0000 0.0000 0.0000 27.0897 0.0000
# 6 0.0000 0.0000 0.0000 0.0000 0.0000 2.8193
#
#
#
# Elastic Compliance Matrix: (Units=1/GPa)
#
#
# Indices 1 2 3 4 5 6 
#
# 1 0.045893 -0.012082 -0.004274 0.000000 0.000000 0.000000
# 2 -0.012082 0.015661 -0.003290 0.000000 0.000000 0.000000
# 3 -0.004274 -0.003290 0.010324 0.000000 0.000000 0.000000
# 4 0.000000 0.000000 0.000000 -0.073906 0.000000 0.000000
# 5 0.000000 0.000000 0.000000 0.000000 0.036914 0.000000
# 6 0.000000 0.000000 0.000000 0.000000 0.000000 0.354703
#
#
# Mechanical properties :
#
#
# Convention : Reuss Voigt Hill
#
# Bulk Modulus (GPa) = 30.68627 48.13195 39.40911
# Shear Modulus (GPa) = 11.37026 13.44899 12.40963
#
# Velocity S-wave (km/s) = 2.39899 2.60909 2.50624
# Velocity P-wave (km/s) = 4.81723 5.78264 5.32187
#
# Compressibility (1/GPa) = 0.03258787
#
# Stress axis : x y z
#
# Youngs Moduli (GPa) = 21.78966 63.85106 96.86136
#
# Poissons Ratio (x) = 0.77143 0.41398
# Poissons Ratio (y) = 0.26326 0.31866
# Poissons Ratio (z) = 0.09313 0.21006
#
# Static dielectric constant tensor:
#      x y z
#    x 1.666160 0.000000 0.000000 
#    y 0.000000 1.721040 0.000000 
#    z 0.000000 0.000000 1.753680 
# 
# From -- ./inp_files/31940.got.cif
#   From: 2010.05.17/outbox.cif.g08.bks.cpg/sg51_16_cif.got.tgz:31940.got - 2010.06.03 11:52:47.
