data_PCOD9406022
_publ_section_title
;
Structure prediction by ZEFSAII (Michael W. Deem and Ramdas Pophale) SiO2 
 PCOD9406022
Probable space group: P M M A
;
_chemical_formula_sum "Si O2"
_cell_formula_units_Z 40
_cell_length_a 9.423107
_cell_length_b 8.235276
_cell_length_c 26.467798
_cell_angle_alpha 90.000000
_cell_angle_beta 90.000000
_cell_angle_gamma 90.000000
_cell_volume 2053.951067
_symmetry_space_group_name_H-M "P M M A"
_symmetry_group_IT_number 51
_symmetry_cell_setting 'orthorhombic'
loop_
_space_group_symop_operation_xyz
x,y,z
1/2-x,-y,z
1/2+x,-y,-z
-x,y,-z
-x,-y,-z
1/2+x,y,-z
1/2-x,y,z
x,-y,z
loop_
_atom_site_type_symbol
_atom_site_label
_atom_site_fract_x
_atom_site_fract_y
_atom_site_fract_z
Si Si1 0.414069 0.803787 0.352516
Si Si2 0.587966 0.695551 0.951518
Si Si3 0.086925 0.198665 0.549389
Si Si4 0.586208 0.306151 0.759045
Si Si5 0.412033 0.193421 0.854909
O O1 0.250000 0.754099 0.360684
O O2 0.510429 0.748808 0.399058
O O3 0.458847 0.741209 0.297575
O O4 0.417441 0.000000 0.351271
O O5 0.750000 0.756691 0.951169
O O6 0.594286 0.500000 0.955125
O O7 0.505839 0.737703 0.900440
O O8 0.500000 0.756217 0.000000
O O9 0.250000 0.250680 0.547119
O O10 0.000000 0.250695 0.500000
O O11 0.085856 0.000000 0.549385
O O12 0.750000 0.248569 0.765656
O O13 0.586355 0.500000 0.763672
O O14 0.485681 0.235606 0.801950
O O15 0.250000 0.255508 0.857064
O O16 0.408375 0.000000 0.860232
#
# Coordination Sequence:
#
# PCOD9406022 Si02
#       5
#     8   8   8   8   8
#     4   9  17  30  49  73 102 135 170 211 260 312
#     4  10  21  38  61  87 114 146 183 221 264 316
#     4   9  16  26  43  69 100 132 167 209 257 309
#     4  10  21  37  57  80 106 139 179 221 268 323
#     4  11  24  39  56  81 112 145 182 224 269 316
#
# _framework density 19.474661999999999
#
# number of rings (size 3 to 8) (size 9 to 14) (size 15 to 20)
#    0.000    2.200    0.000    3.000    0.000   10.000 
#    0.000    2.000    0.000    0.600    0.000    0.000 
#    0.000    0.000    0.000    0.000    0.000    0.000 
#
# Total GULP energy -223409.152452 kJ/mol
# GULP energy per Si atom -5585.228811 kJ/mol
# Density = 1.943034 g / cm^3
# Si number density = 19.474662 Si / 1000 Ang^3
#
#
#
# Elastic Constant Matrix: (Units=GPa)
#
#
# Indices 1 2 3 4 5 6 
#
# 1 172.0146 13.5716 121.5271 0.0000 0.0000 0.0000
# 2 13.5716 8.0128 4.9156 0.0000 0.0000 0.0000
# 3 121.5271 4.9156 164.7821 0.0000 0.0000 0.0000
# 4 0.0000 0.0000 0.0000 34.1565 0.0000 0.0000
# 5 0.0000 0.0000 0.0000 0.0000 42.7235 0.0000
# 6 0.0000 0.0000 0.0000 0.0000 0.0000 44.3053
#
#
#
# Elastic Compliance Matrix: (Units=1/GPa)
#
#
# Indices 1 2 3 4 5 6 
#
# 1 0.014324 -0.018112 -0.010024 0.000000 0.000000 0.000000
# 2 -0.018112 0.150028 0.008882 0.000000 0.000000 0.000000
# 3 -0.010024 0.008882 0.013196 0.000000 0.000000 0.000000
# 4 0.000000 0.000000 0.000000 0.029277 0.000000 0.000000
# 5 0.000000 0.000000 0.000000 0.000000 0.023406 0.000000
# 6 0.000000 0.000000 0.000000 0.000000 0.000000 0.022571
#
#
# Mechanical properties :
#
#
# Convention : Reuss Voigt Hill
#
# Bulk Modulus (GPa) = 7.19213 69.42648 38.30931
# Shear Modulus (GPa) = 14.80793 37.89007 26.34900
#
# Velocity S-wave (km/s) = 2.76047 4.41569 3.68229
# Velocity P-wave (km/s) = 3.72308 7.85651 6.14761
#
# Compressibility (1/GPa) = 0.13904081
#
# Stress axis : x y z
#
# Youngs Moduli (GPa) = 69.81161 6.66543 75.77898
#
# Poissons Ratio (x) = 0.12073 0.75960
# Poissons Ratio (y) = 1.26444 -0.67309
# Poissons Ratio (z) = 0.69978 -0.05920
#
# Static dielectric constant tensor:
#      x y z
#    x 1.675790 0.000000 0.000000 
#    y 0.000000 1.681750 0.000000 
#    z 0.000000 0.000000 1.640350 
# 
# From -- ./inp_files/34294.got.cif
#   From: 2010.05.17/outbox.cif.g08.bks.cpg/sg51_18_cif.got.tgz:34294.got - 2010.06.03 11:52:47.
