data_PCOD9406766
_publ_section_title
;
Structure prediction by ZEFSAII (Michael W. Deem and Ramdas Pophale) SiO2 
 PCOD9406766
Probable space group: P M M A
;
_chemical_formula_sum "Si O2"
_cell_formula_units_Z 56
_cell_length_a 15.982086
_cell_length_b 18.561726
_cell_length_c 9.441712
_cell_angle_alpha 90.000000
_cell_angle_beta 90.000000
_cell_angle_gamma 90.000000
_cell_volume 2800.932029
_symmetry_space_group_name_H-M "P M M A"
_symmetry_group_IT_number 51
_symmetry_cell_setting 'orthorhombic'
loop_
_space_group_symop_operation_xyz
x,y,z
1/2-x,-y,z
1/2+x,-y,-z
-x,y,-z
-x,-y,-z
1/2+x,y,-z
1/2-x,y,z
x,-y,z
loop_
_atom_site_type_symbol
_atom_site_label
_atom_site_fract_x
_atom_site_fract_y
_atom_site_fract_z
Si Si1 0.502563 0.656919 0.838255
Si Si2 0.071319 0.916963 0.677211
Si Si3 0.933356 0.816762 0.813739
Si Si4 0.848162 0.341628 0.367307
Si Si5 0.152698 0.080798 0.969540
Si Si6 0.845457 0.585526 0.665805
Si Si7 0.152828 0.808878 0.474857
O O1 0.518532 0.742861 0.842208
O O2 0.416053 0.643457 0.753864
O O3 0.581106 0.622699 0.754847
O O4 0.500000 0.630396 0.000000
O O5 0.100962 0.873970 0.540745
O O6 0.994164 0.875993 0.746796
O O7 0.054207 0.000000 0.648265
O O8 0.141065 0.912486 0.801183
O O9 0.893374 0.855011 0.949590
O O10 0.867301 0.799031 0.689835
O O11 0.750000 0.342327 0.321913
O O12 0.857187 0.395665 0.499887
O O13 0.867270 0.263277 0.436419
O O14 0.250000 0.083279 0.006834
O O15 0.120061 0.000000 0.007929
O O16 0.750000 0.610374 0.701989
O O17 0.849201 0.500000 0.686378
O O18 0.250000 0.823823 0.493174
#
# Coordination Sequence:
#
# PCOD9406766 Si02
#       7
#     8   8   8   8   8   8   8
#     4  12  25  40  65 101 139 176 215 263 326 389
#     4  11  23  39  59  84 118 160 207 264 326 387
#     4  12  23  38  59  89 120 161 210 260 315 379
#     4  10  22  43  67  95 130 173 220 268 319 380
#     4  10  22  40  59  81 116 162 210 260 319 390
#     4  10  23  45  74 104 134 172 218 264 314 379
#     4  11  23  39  60  86 118 157 208 268 320 373
#
# _framework density 19.993345000000001
#
# number of rings (size 3 to 8) (size 9 to 14) (size 15 to 20)
#    0.000    1.143    2.857    3.429    0.000    6.286 
#    0.000    0.000    0.000    1.714    0.000    0.000 
#    0.000    0.000    0.000    0.000    0.000    0.000 
#
# Total GULP energy -312996.322429 kJ/mol
# GULP energy per Si atom -5589.220043 kJ/mol
# Density = 1.994784 g / cm^3
# Si number density = 19.993345 Si / 1000 Ang^3
#
#
#
# Elastic Constant Matrix: (Units=GPa)
#
#
# Indices 1 2 3 4 5 6 
#
# 1 92.6016 27.5471 55.4469 0.0000 0.0000 0.0000
# 2 27.5471 50.1519 22.1798 0.0000 0.0000 0.0000
# 3 55.4469 22.1798 112.4757 0.0000 0.0000 0.0000
# 4 0.0000 0.0000 0.0000 -43.6160 0.0000 0.0000
# 5 0.0000 0.0000 0.0000 0.0000 25.4093 0.0000
# 6 0.0000 0.0000 0.0000 0.0000 0.0000 25.1504
#
#
#
# Elastic Compliance Matrix: (Units=1/GPa)
#
#
# Indices 1 2 3 4 5 6 
#
# 1 0.016881 -0.006126 -0.007114 0.000000 0.000000 0.000000
# 2 -0.006126 0.024068 -0.001726 0.000000 0.000000 0.000000
# 3 -0.007114 -0.001726 0.012738 0.000000 0.000000 0.000000
# 4 0.000000 0.000000 0.000000 -0.022927 0.000000 0.000000
# 5 0.000000 0.000000 0.000000 0.000000 0.039356 0.000000
# 6 0.000000 0.000000 0.000000 0.000000 0.000000 0.039761
#
#
# Mechanical properties :
#
#
# Convention : Reuss Voigt Hill
#
# Bulk Modulus (GPa) = 42.09678 51.73074 46.91376
# Shear Modulus (GPa) = 33.84656 11.39243 22.61950
#
# Velocity S-wave (km/s) = 4.11894 2.38966 3.36721
# Velocity P-wave (km/s) = 6.61226 5.79173 6.21555
#
# Compressibility (1/GPa) = 0.02375479
#
# Stress axis : x y z
#
# Youngs Moduli (GPa) = 59.23910 41.54945 78.50542
#
# Poissons Ratio (x) = 0.25454 0.55846
# Poissons Ratio (y) = 0.36291 0.13551
# Poissons Ratio (z) = 0.42140 0.07172
#
# Static dielectric constant tensor:
#      x y z
#    x 1.710340 0.000000 0.000000 
#    y 0.000000 1.695240 0.000000 
#    z 0.000000 0.000000 1.697360 
# 
# From -- ./inp_files/8573.got.cif
#   From: 2010.05.17/outbox.cif.g08.bks.cpg/sg51_5_cif.got.tgz:8573.got - 2010.06.03 11:52:47.
