data_PCOD9406419
_publ_section_title
;
Structure prediction by ZEFSAII (Michael W. Deem and Ramdas Pophale) SiO2 
 PCOD9406419
Probable space group: P M M A
;
_chemical_formula_sum "Si O2"
_cell_formula_units_Z 56
_cell_length_a 16.317052
_cell_length_b 8.116375
_cell_length_c 20.073085
_cell_angle_alpha 90.000000
_cell_angle_beta 90.000000
_cell_angle_gamma 90.000000
_cell_volume 2658.385293
_symmetry_space_group_name_H-M "P M M A"
_symmetry_group_IT_number 51
_symmetry_cell_setting 'orthorhombic'
loop_
_space_group_symop_operation_xyz
x,y,z
1/2-x,-y,z
1/2+x,-y,-z
-x,y,-z
-x,-y,-z
1/2+x,y,-z
1/2-x,y,z
x,-y,z
loop_
_atom_site_type_symbol
_atom_site_label
_atom_site_fract_x
_atom_site_fract_y
_atom_site_fract_z
Si Si1 0.900541 0.807162 0.215382
Si Si2 0.344138 0.697720 0.070961
Si Si3 0.504057 0.196953 0.575235
Si Si4 0.920279 0.303588 0.791201
Si Si5 0.654570 0.198160 0.071797
Si Si6 0.840548 0.199484 0.660299
Si Si7 0.660339 0.306528 0.352443
O O1 0.885766 0.743477 0.140391
O O2 0.850815 0.718620 0.273257
O O3 0.996247 0.784588 0.229935
O O4 0.878230 0.000000 0.217268
O O5 0.250000 0.760267 0.073600
O O6 0.340956 0.500000 0.075111
O O7 0.392656 0.755827 0.135797
O O8 0.379984 0.742823 0.998869
O O9 0.500000 0.262881 0.500000
O O10 0.583091 0.260545 0.615889
O O11 0.418481 0.228920 0.612368
O O12 0.514819 0.000000 0.571361
O O13 0.934569 0.500000 0.793453
O O14 0.853816 0.264806 0.735005
O O15 0.750000 0.249486 0.073935
O O16 0.651158 0.000000 0.071329
O O17 0.750000 0.246806 0.635457
O O18 0.843844 0.000000 0.662518
O O19 0.750000 0.239612 0.372368
O O20 0.658655 0.500000 0.367026
#
# Coordination Sequence:
#
# PCOD9406419 Si02
#       7
#     8   8   8   8   8   8   8
#     4  11  22  37  58  84 116 154 200 253 307 360
#     4   9  19  35  53  75 107 148 194 243 297 359
#     4  10  22  41  66  96 129 164 202 246 296 355
#     4  11  22  36  56  83 116 154 199 250 303 359
#     4   9  19  35  54  77 106 144 193 247 302 359
#     4  10  21  38  61  90 123 160 203 249 298 356
#     4  11  24  41  63  93 127 164 206 251 302 361
#
# _framework density 21.06542
#
# number of rings (size 3 to 8) (size 9 to 14) (size 15 to 20)
#    0.000    1.857    1.429    2.143    0.000    6.286 
#    0.000    7.143    0.000    0.000    0.000    0.000 
#    0.000    0.000    0.000    0.000    0.000    0.000 
#
# Total GULP energy -312767.994694 kJ/mol
# GULP energy per Si atom -5585.142762 kJ/mol
# Density = 2.101747 g / cm^3
# Si number density = 21.065420 Si / 1000 Ang^3
#
#
#
# Elastic Constant Matrix: (Units=GPa)
#
#
# Indices 1 2 3 4 5 6 
#
# 1 106.9073 -5.9644 45.1171 0.0000 0.0000 0.0000
# 2 -5.9644 9.6665 -0.3846 0.0000 0.0000 0.0000
# 3 45.1171 -0.3846 123.8730 0.0000 0.0000 0.0000
# 4 0.0000 0.0000 0.0000 28.5324 0.0000 0.0000
# 5 0.0000 0.0000 0.0000 0.0000 13.8975 0.0000
# 6 0.0000 0.0000 0.0000 0.0000 0.0000 -0.6863
#
#
#
# Elastic Compliance Matrix: (Units=1/GPa)
#
#
# Indices 1 2 3 4 5 6 
#
# 1 0.011499 0.006929 -0.004167 0.000000 0.000000 0.000000
# 2 0.006929 0.107639 -0.002190 0.000000 0.000000 0.000000
# 3 -0.004167 -0.002190 0.009584 0.000000 0.000000 0.000000
# 4 0.000000 0.000000 0.000000 0.035048 0.000000 0.000000
# 5 0.000000 0.000000 0.000000 0.000000 0.071955 0.000000
# 6 0.000000 0.000000 0.000000 0.000000 0.000000 -1.457184
#
#
# Mechanical properties :
#
#
# Convention : Reuss Voigt Hill
#
# Bulk Modulus (GPa) = 7.70018 35.33144 21.51581
# Shear Modulus (GPa) = -4.23974 21.79397 8.77712
#
# Velocity S-wave (km/s) = -1.42022 3.21999 2.04344
# Velocity P-wave (km/s) = 0.98688 5.53472 3.97536
#
# Compressibility (1/GPa) = 0.12986703
#
# Stress axis : x y z
#
# Youngs Moduli (GPa) = 86.96513 9.29035 104.34553
#
# Poissons Ratio (x) = -0.06437 0.43477
# Poissons Ratio (y) = -0.60260 0.22847
# Poissons Ratio (z) = 0.36235 0.02034
#
# Static dielectric constant tensor:
#      x y z
#    x 1.767910 0.000000 0.000000 
#    y 0.000000 1.735630 0.000000 
#    z 0.000000 0.000000 1.760230 
# 
# From -- ./inp_files/33404.got.cif
#   From: 2010.05.17/outbox.cif.g08.bks.cpg/sg51_17_cif.got.tgz:33404.got - 2010.06.03 11:52:47.
