data_PCOD9406991
_publ_section_title
;
Structure prediction by ZEFSAII (Michael W. Deem and Ramdas Pophale) SiO2 
 PCOD9406991
Probable space group: P M M A
;
_chemical_formula_sum "Si O2"
_cell_formula_units_Z 52
_cell_length_a 9.178152
_cell_length_b 12.931267
_cell_length_c 30.970867
_cell_angle_alpha 90.000000
_cell_angle_beta 90.000000
_cell_angle_gamma 90.000000
_cell_volume 3675.781502
_symmetry_space_group_name_H-M "P M M A"
_symmetry_group_IT_number 51
_symmetry_cell_setting 'orthorhombic'
loop_
_space_group_symop_operation_xyz
x,y,z
1/2-x,-y,z
1/2+x,-y,-z
-x,y,-z
-x,-y,-z
1/2+x,y,-z
1/2-x,y,z
x,-y,z
loop_
_atom_site_type_symbol
_atom_site_label
_atom_site_fract_x
_atom_site_fract_y
_atom_site_fract_z
Si Si1 0.417602 0.126054 0.956637
Si Si2 0.576092 0.617631 0.545198
Si Si3 0.082591 0.873897 0.129982
Si Si4 0.426934 0.000000 0.547328
Si Si5 0.924696 0.815811 0.601119
Si Si6 0.418602 0.125677 0.784270
Si Si7 0.076618 0.124413 0.687206
O O1 0.250000 0.158107 0.957539
O O2 0.494647 0.159471 0.912408
O O3 0.420311 0.000000 0.956621
O O4 0.500000 0.159492 0.000000
O O5 0.500000 0.644238 0.500000
O O6 0.750000 0.618694 0.538423
O O7 0.533200 0.500000 0.556967
O O8 0.543789 0.703768 0.580741
O O9 0.250000 0.842752 0.126683
O O10 0.012688 0.838959 0.175127
O O11 0.078316 0.000000 0.130320
O O12 0.500000 0.000000 0.500000
O O13 0.487731 0.099199 0.573259
O O14 0.250000 0.000000 0.545275
O O15 0.750000 0.835078 0.598701
O O16 0.982052 0.824815 0.649835
O O17 0.250000 0.155237 0.790488
O O18 0.464640 0.156937 0.735974
O O19 0.422283 0.000000 0.784103
O O20 0.250000 0.144155 0.681473
O O21 0.057807 0.000000 0.683913
#
# Coordination Sequence:
#
# PCOD9406991 Si02
#       7
#     8   8   8   4   8   8   8
#     4   9  15  21  28  37  51  72  99 135 180 228
#     4   9  19  35  52  69  88 109 135 167 201 236
#     4   9  15  21  29  42  58  77 105 141 181 222
#     4  12  24  36  48  64  90 116 138 164 197 236
#     4  11  21  32  48  69  89 111 138 166 199 240
#     4   8  14  24  36  48  64  89 119 146 179 222
#     4   9  17  29  43  59  81 109 133 159 195 235
#
# _framework density 14.146651
#
# number of rings (size 3 to 8) (size 9 to 14) (size 15 to 20)
#    0.000    2.615    0.769    3.462    0.000    6.769 
#    0.000    1.538    0.000    0.000    0.000    0.000 
#    0.000    0.000    0.000    0.000    0.000    0.000 
#
# Total GULP energy -289636.018806 kJ/mol
# GULP energy per Si atom -5569.923439 kJ/mol
# Density = 1.411445 g / cm^3
# Si number density = 14.146651 Si / 1000 Ang^3
#
#
#
# Elastic Constant Matrix: (Units=GPa)
#
#
# Indices 1 2 3 4 5 6 
#
# 1 97.7902 27.3136 86.3894 0.0000 0.0000 0.0000
# 2 27.3136 30.0393 34.7562 0.0000 0.0000 0.0000
# 3 86.3894 34.7562 153.8209 0.0000 0.0000 0.0000
# 4 0.0000 0.0000 0.0000 5.6820 0.0000 0.0000
# 5 0.0000 0.0000 0.0000 0.0000 31.5487 0.0000
# 6 0.0000 0.0000 0.0000 0.0000 0.0000 5.8264
#
#
#
# Elastic Compliance Matrix: (Units=1/GPa)
#
#
# Indices 1 2 3 4 5 6 
#
# 1 0.021490 -0.007549 -0.010363 0.000000 0.000000 0.000000
# 2 -0.007549 0.047725 -0.006544 0.000000 0.000000 0.000000
# 3 -0.010363 -0.006544 0.013800 0.000000 0.000000 0.000000
# 4 0.000000 0.000000 0.000000 0.175993 0.000000 0.000000
# 5 0.000000 0.000000 0.000000 0.000000 0.031697 0.000000
# 6 0.000000 0.000000 0.000000 0.000000 0.000000 0.171633
#
#
# Mechanical properties :
#
#
# Convention : Reuss Voigt Hill
#
# Bulk Modulus (GPa) = 29.32359 64.28544 46.80452
# Shear Modulus (GPa) = 9.56721 17.49082 13.52902
#
# Velocity S-wave (km/s) = 2.60338 3.52005 3.09583
# Velocity P-wave (km/s) = 5.45986 7.87793 6.77761
#
# Compressibility (1/GPa) = 0.03410223
#
# Stress axis : x y z
#
# Youngs Moduli (GPa) = 46.53401 20.95324 72.46384
#
# Poissons Ratio (x) = 0.15818 0.75097
# Poissons Ratio (y) = 0.35129 0.47420
# Poissons Ratio (z) = 0.48225 0.13712
#
# Static dielectric constant tensor:
#      x y z
#    x 1.473680 0.000000 0.000000 
#    y 0.000000 1.438200 0.000000 
#    z 0.000000 0.000000 1.474570 
# 
# From -- ./inp_files/37322.got.cif
#   From: 2010.05.17/outbox.cif.g08.bks.cpg/sg51_19_cif.got.tgz:37322.got - 2010.06.03 11:52:47.
