data_PCOD9406375
_publ_section_title
;
Structure prediction by ZEFSAII (Michael W. Deem and Ramdas Pophale) SiO2 
 PCOD9406375
Probable space group: P M M A
;
_chemical_formula_sum "Si O2"
_cell_formula_units_Z 40
_cell_length_a 8.542164
_cell_length_b 9.773548
_cell_length_c 26.373992
_cell_angle_alpha 90.000000
_cell_angle_beta 90.000000
_cell_angle_gamma 90.000000
_cell_volume 2201.892060
_symmetry_space_group_name_H-M "P M M A"
_symmetry_group_IT_number 51
_symmetry_cell_setting 'orthorhombic'
loop_
_space_group_symop_operation_xyz
x,y,z
1/2-x,-y,z
1/2+x,-y,-z
-x,y,-z
-x,-y,-z
1/2+x,y,-z
1/2-x,y,z
x,-y,z
loop_
_atom_site_type_symbol
_atom_site_label
_atom_site_fract_x
_atom_site_fract_y
_atom_site_fract_z
Si Si1 0.940758 0.842969 0.147448
Si Si2 0.062408 0.842743 0.556203
Si Si3 0.060823 0.159311 0.737711
Si Si4 0.060910 0.341496 0.945737
Si Si5 0.562632 0.657572 0.646650
O O1 0.750000 0.840296 0.147324
O O2 0.987969 0.804529 0.204692
O O3 0.994738 0.745759 0.102277
O O4 0.987988 0.000000 0.138521
O O5 0.250000 0.838277 0.555862
O O6 0.000000 0.811530 0.500000
O O7 0.999550 0.738551 0.597780
O O8 0.014567 0.000000 0.568441
O O9 0.250000 0.165372 0.735277
O O10 0.992480 0.259938 0.696104
O O11 0.017123 0.000000 0.728380
O O12 0.250000 0.337668 0.946532
O O13 0.012122 0.500000 0.940506
O O14 0.000000 0.290295 0.000000
O O15 0.750000 0.657293 0.645092
O O16 0.507523 0.500000 0.647466
#
# Coordination Sequence:
#
# PCOD9406375 Si02
#       5
#     8   8   8   8   8
#     4   8  15  29  49  72  96 122 157 203 250 296
#     4  10  21  38  61  86 109 137 175 215 256 304
#     4   9  18  34  56  79 101 129 169 215 261 309
#     4   9  17  29  45  66  93 126 162 198 240 292
#     4  11  24  38  52  76 110 144 176 211 254 303
#
# _framework density 18.166194000000001
#
# number of rings (size 3 to 8) (size 9 to 14) (size 15 to 20)
#    0.000    2.600    0.000    3.000    0.000    7.200 
#    0.000    3.000    0.000    3.600    0.000    0.000 
#    0.000    0.000    0.000    0.000    0.000    0.000 
#
# Total GULP energy -223158.951258 kJ/mol
# GULP energy per Si atom -5578.973781 kJ/mol
# Density = 1.812485 g / cm^3
# Si number density = 18.166194 Si / 1000 Ang^3
#
#
#
# Elastic Constant Matrix: (Units=GPa)
#
#
# Indices 1 2 3 4 5 6 
#
# 1 19.3877 31.6486 34.2293 0.0000 0.0000 0.0000
# 2 31.6486 130.7022 134.2220 0.0000 0.0000 0.0000
# 3 34.2293 134.2220 191.2385 0.0000 0.0000 0.0000
# 4 0.0000 0.0000 0.0000 -136.8772 0.0000 0.0000
# 5 0.0000 0.0000 0.0000 0.0000 30.9577 0.0000
# 6 0.0000 0.0000 0.0000 0.0000 0.0000 19.5903
#
#
#
# Elastic Compliance Matrix: (Units=1/GPa)
#
#
# Indices 1 2 3 4 5 6 
#
# 1 0.085702 -0.017904 -0.002774 0.000000 0.000000 0.000000
# 2 -0.017904 0.031139 -0.018651 0.000000 0.000000 0.000000
# 3 -0.002774 -0.018651 0.018816 0.000000 0.000000 0.000000
# 4 0.000000 0.000000 0.000000 -0.007306 0.000000 0.000000
# 5 0.000000 0.000000 0.000000 0.000000 0.032302 0.000000
# 6 0.000000 0.000000 0.000000 0.000000 0.000000 0.051046
#
#
# Mechanical properties :
#
#
# Convention : Reuss Voigt Hill
#
# Bulk Modulus (GPa) = 17.54359 82.39201 49.96780
# Shear Modulus (GPa) = 16.16260 -7.85061 4.15599
#
# Velocity S-wave (km/s) = 2.98603 -2.08109 1.51418
# Velocity P-wave (km/s) = 4.64400 6.29908 5.53377
#
# Compressibility (1/GPa) = 0.05700086
#
# Stress axis : x y z
#
# Youngs Moduli (GPa) = 11.66828 32.11384 53.14706
#
# Poissons Ratio (x) = 0.57495 0.14742
# Poissons Ratio (y) = 0.20890 0.99123
# Poissons Ratio (z) = 0.03237 0.59895
#
# Static dielectric constant tensor:
#      x y z
#    x 1.623920 0.000000 0.000000 
#    y 0.000000 1.614450 0.000000 
#    z 0.000000 0.000000 1.606130 
# 
# From -- ./inp_files/34323.got.cif
#   From: 2010.05.17/outbox.cif.g08.bks.cpg/sg51_18_cif.got.tgz:34323.got - 2010.06.03 11:52:47.
