data_PCOD9406806
_publ_section_title
;
Structure prediction by ZEFSAII (Michael W. Deem and Ramdas Pophale) SiO2 
 PCOD9406806
Probable space group: P M M A
;
_chemical_formula_sum "Si O2"
_cell_formula_units_Z 58
_cell_length_a 26.495620
_cell_length_b 9.143015
_cell_length_c 11.257656
_cell_angle_alpha 90.000000
_cell_angle_beta 90.000000
_cell_angle_gamma 90.000000
_cell_volume 2727.165490
_symmetry_space_group_name_H-M "P M M A"
_symmetry_group_IT_number 51
_symmetry_cell_setting 'orthorhombic'
loop_
_space_group_symop_operation_xyz
x,y,z
1/2-x,-y,z
1/2+x,-y,-z
-x,y,-z
-x,-y,-z
1/2+x,y,-z
1/2-x,y,z
x,-y,z
loop_
_atom_site_type_symbol
_atom_site_label
_atom_site_fract_x
_atom_site_fract_y
_atom_site_fract_z
Si Si1 0.404370 0.665473 0.462954
Si Si2 0.158826 0.839746 0.289909
Si Si3 0.144739 0.827709 0.825096
Si Si4 0.149038 0.325691 0.068343
Si Si5 0.048356 0.677030 0.703269
Si Si6 0.032610 0.677028 0.113134
Si Si7 0.193803 0.340180 0.628645
Si Si8 0.250000 0.000000 0.393137
O O1 0.417336 0.500000 0.421666
O O2 0.388972 0.771324 0.357221
O O3 0.443724 0.714119 0.564508
O O4 0.351570 0.657954 0.535684
O O5 0.176730 0.734651 0.184537
O O6 0.204835 0.875945 0.378534
O O7 0.146090 0.000000 0.237783
O O8 0.093149 0.749954 0.779745
O O9 0.183929 0.788370 0.721200
O O10 0.137534 0.000000 0.837744
O O11 0.162639 0.754383 0.946935
O O12 0.153133 0.500000 0.056893
O O13 0.090487 0.283819 0.094500
O O14 0.054076 0.500000 0.709728
O O15 0.996180 0.719553 0.766071
O O16 0.031458 0.500000 0.111134
O O17 0.000000 0.728647 0.000000
O O18 0.250000 0.330919 0.579341
O O19 0.190019 0.500000 0.691460
#
# Coordination Sequence:
#
# PCOD9406806 Si02
#       8
#     8   8   8   8   8   8   8   2
#     4   9  18  33  58  85 112 141 180 235 282 328
#     4  10  22  41  59  80 108 145 191 228 283 337
#     4  11  21  33  50  79 114 150 181 225 283 338
#     4  11  21  37  61  83 110 147 189 237 281 329
#     4   9  17  34  56  83 117 149 186 230 275 325
#     4   9  16  30  58  88 112 146 192 233 271 325
#     4   9  19  35  55  80 107 139 183 235 288 341
#     4   8  24  44  62  76 102 156 188 236 276 336
#
# _framework density 21.267503000000001
#
# number of rings (size 3 to 8) (size 9 to 14) (size 15 to 20)
#    0.414    1.931    1.379    2.897    0.966    2.483 
#    1.241    3.793    0.000    4.138    0.000    0.000 
#    0.000    0.000    0.000    0.000    0.000    0.000 
#
# Total GULP energy -322909.465882 kJ/mol
# GULP energy per Si atom -5567.404584 kJ/mol
# Density = 2.121910 g / cm^3
# Si number density = 21.267503 Si / 1000 Ang^3
#
#
#
# Elastic Constant Matrix: (Units=GPa)
#
#
# Indices 1 2 3 4 5 6 
#
# 1 45.6946 -4.3938 -7.5072 0.0000 0.0000 0.0000
# 2 -4.3938 87.9054 36.6384 0.0000 0.0000 0.0000
# 3 -7.5072 36.6384 49.5023 0.0000 0.0000 0.0000
# 4 0.0000 0.0000 0.0000 -73.6114 0.0000 0.0000
# 5 0.0000 0.0000 0.0000 0.0000 16.9416 0.0000
# 6 0.0000 0.0000 0.0000 0.0000 0.0000 -0.4059
#
#
#
# Elastic Compliance Matrix: (Units=1/GPa)
#
#
# Indices 1 2 3 4 5 6 
#
# 1 0.022455 -0.000429 0.003723 0.000000 0.000000 0.000000
# 2 -0.000429 0.016459 -0.012247 0.000000 0.000000 0.000000
# 3 0.003723 -0.012247 0.029830 0.000000 0.000000 0.000000
# 4 0.000000 0.000000 0.000000 -0.013585 0.000000 0.000000
# 5 0.000000 0.000000 0.000000 0.000000 0.059026 0.000000
# 6 0.000000 0.000000 0.000000 0.000000 0.000000 -2.463376
#
#
# Mechanical properties :
#
#
# Convention : Reuss Voigt Hill
#
# Bulk Modulus (GPa) = 19.67055 25.84192 22.75623
# Shear Modulus (GPa) = -2.16044 -0.85748 -1.50896
#
# Velocity S-wave (km/s) = -1.00898 -0.63566 -0.84324
# Velocity P-wave (km/s) = 2.81279 3.41153 3.12652
#
# Compressibility (1/GPa) = 0.05083743
#
# Stress axis : x y z
#
# Youngs Moduli (GPa) = 44.53386 60.75771 33.52320
#
# Poissons Ratio (x) = 0.02609 -0.12481
# Poissons Ratio (y) = 0.01912 0.41055
# Poissons Ratio (z) = -0.16581 0.74409
#
# Static dielectric constant tensor:
#      x y z
#    x 1.784460 0.000000 0.000000 
#    y 0.000000 1.770050 0.000000 
#    z 0.000000 0.000000 1.814610 
# 
# From -- ./inp_files/19408.got.cif
#   From: 2010.05.17/outbox.cif.g08.bks.cpg/sg51_10_cif.got.tgz:19408.got - 2010.06.03 11:52:47.
