data_PCOD9406139
_publ_section_title
;
Structure prediction by ZEFSAII (Michael W. Deem and Ramdas Pophale) SiO2 
 PCOD9406139
Probable space group: P M M A
;
_chemical_formula_sum "Si O2"
_cell_formula_units_Z 48
_cell_length_a 9.665090
_cell_length_b 8.430129
_cell_length_c 29.476034
_cell_angle_alpha 90.000000
_cell_angle_beta 90.000000
_cell_angle_gamma 90.000000
_cell_volume 2401.646986
_symmetry_space_group_name_H-M "P M M A"
_symmetry_group_IT_number 51
_symmetry_cell_setting 'orthorhombic'
loop_
_space_group_symop_operation_xyz
x,y,z
1/2-x,-y,z
1/2+x,-y,-z
-x,y,-z
-x,-y,-z
1/2+x,y,-z
1/2-x,y,z
x,-y,z
loop_
_atom_site_type_symbol
_atom_site_label
_atom_site_fract_x
_atom_site_fract_y
_atom_site_fract_z
Si Si1 0.908381 0.808872 0.715715
Si Si2 0.750000 0.188386 0.031819
Si Si3 0.098173 0.308432 0.793839
Si Si4 0.250000 0.808895 0.072230
Si Si5 0.088237 0.691906 0.455797
Si Si6 0.962395 0.311166 0.104129
Si Si7 0.910712 0.192036 0.370225
O O1 0.750000 0.752050 0.710417
O O2 0.976604 0.757495 0.762902
O O3 0.009835 0.754012 0.675324
O O4 0.905160 0.000000 0.714049
O O5 0.879169 0.242377 0.061724
O O6 0.750000 0.000000 0.029114
O O7 0.750000 0.247771 0.980275
O O8 0.250000 0.259760 0.776075
O O9 0.091289 0.500000 0.793198
O O10 0.087705 0.257203 0.846325
O O11 0.382271 0.742202 0.097392
O O12 0.250000 0.000000 0.072629
O O13 0.250000 0.744529 0.456660
O O14 0.089964 0.500000 0.455091
O O15 0.000000 0.742039 0.500000
O O16 0.003612 0.751717 0.412312
O O17 0.946673 0.500000 0.102845
O O18 0.750000 0.245956 0.372539
O O19 0.908522 0.000000 0.370194
#
# Coordination Sequence:
#
# PCOD9406139 Si02
#       7
#     8   4   8   4   8   8   8
#     4  10  22  39  60  88 118 150 191 239 291 349
#     4  11  23  41  63  89 121 157 195 245 298 351
#     4  10  22  41  61  84 115 150 191 239 288 343
#     4  11  25  41  59  89 125 155 195 245 298 355
#     4  10  21  37  58  85 118 157 202 250 300 354
#     4  11  23  41  63  88 119 157 200 244 294 356
#     4  10  21  38  60  86 118 156 199 245 294 351
#
# _framework density 19.986283
#
# number of rings (size 3 to 8) (size 9 to 14) (size 15 to 20)
#    0.000    1.667    0.833    3.000    1.167    9.000 
#    0.000    0.000    0.000    0.000    0.000    0.000 
#    0.000    0.000    0.000    0.000    0.000    0.000 
#
# Total GULP energy -268150.379681 kJ/mol
# GULP energy per Si atom -5586.466243 kJ/mol
# Density = 1.994079 g / cm^3
# Si number density = 19.986283 Si / 1000 Ang^3
#
#
#
# Elastic Constant Matrix: (Units=GPa)
#
#
# Indices 1 2 3 4 5 6 
#
# 1 185.4641 13.0929 56.6167 0.0000 0.0000 0.0000
# 2 13.0929 7.9024 12.9995 0.0000 0.0000 0.0000
# 3 56.6167 12.9995 111.0942 0.0000 0.0000 0.0000
# 4 0.0000 0.0000 0.0000 34.2884 0.0000 0.0000
# 5 0.0000 0.0000 0.0000 0.0000 37.9268 0.0000
# 6 0.0000 0.0000 0.0000 0.0000 0.0000 29.1571
#
#
#
# Elastic Compliance Matrix: (Units=1/GPa)
#
#
# Indices 1 2 3 4 5 6 
#
# 1 0.006664 -0.006755 -0.002606 0.000000 0.000000 0.000000
# 2 -0.006755 0.163553 -0.015696 0.000000 0.000000 0.000000
# 3 -0.002606 -0.015696 0.012166 0.000000 0.000000 0.000000
# 4 0.000000 0.000000 0.000000 0.029164 0.000000 0.000000
# 5 0.000000 0.000000 0.000000 0.000000 0.026367 0.000000
# 6 0.000000 0.000000 0.000000 0.000000 0.000000 0.034297
#
#
# Mechanical properties :
#
#
# Convention : Reuss Voigt Hill
#
# Bulk Modulus (GPa) = 7.56021 52.20876 29.88448
# Shear Modulus (GPa) = 13.64575 35.05790 24.35182
#
# Velocity S-wave (km/s) = 2.61579 4.19274 3.49438
# Velocity P-wave (km/s) = 3.59362 7.04399 5.59159
#
# Compressibility (1/GPa) = 0.13227146
#
# Stress axis : x y z
#
# Youngs Moduli (GPa) = 150.05493 6.11421 82.19636
#
# Poissons Ratio (x) = 0.04130 0.21419
# Poissons Ratio (y) = 1.01357 1.29012
# Poissons Ratio (z) = 0.39103 0.09597
#
# Static dielectric constant tensor:
#      x y z
#    x 2.741800 0.000000 0.000000 
#    y 0.000000 1.690980 0.000000 
#    z 0.000000 0.000000 1.684480 
# 
# From -- ./inp_files/37126.got.cif
#   From: 2010.05.17/outbox.cif.g08.bks.cpg/sg51_19_cif.got.tgz:37126.got - 2010.06.03 11:52:47.
