data_PCOD9406684
_publ_section_title
;
Structure prediction by ZEFSAII (Michael W. Deem and Ramdas Pophale) SiO2 
 PCOD9406684
Probable space group: P M M A
;
_chemical_formula_sum "Si O2"
_cell_formula_units_Z 36
_cell_length_a 9.589818
_cell_length_b 7.502605
_cell_length_c 25.825672
_cell_angle_alpha 90.000000
_cell_angle_beta 90.000000
_cell_angle_gamma 90.000000
_cell_volume 1858.121370
_symmetry_space_group_name_H-M "P M M A"
_symmetry_group_IT_number 51
_symmetry_cell_setting 'orthorhombic'
loop_
_space_group_symop_operation_xyz
x,y,z
1/2-x,-y,z
1/2+x,-y,-z
-x,y,-z
-x,-y,-z
1/2+x,y,-z
1/2-x,y,z
x,-y,z
loop_
_atom_site_type_symbol
_atom_site_label
_atom_site_fract_x
_atom_site_fract_y
_atom_site_fract_z
Si Si1 0.916927 0.500000 0.053211
Si Si2 0.909053 0.287719 0.646567
Si Si3 0.089601 0.718060 0.549925
Si Si4 0.908897 0.213930 0.762694
Si Si5 0.084548 0.789868 0.861570
O O1 0.750000 0.500000 0.043808
O O2 0.951179 0.671365 0.088749
O O3 0.000000 0.500000 0.000000
O O4 0.750000 0.216558 0.642672
O O5 0.899683 0.500000 0.639197
O O6 0.960472 0.257802 0.705065
O O7 0.011091 0.220883 0.601924
O O8 0.250000 0.776216 0.547234
O O9 0.091598 0.500000 0.550194
O O10 0.000000 0.772005 0.500000
O O11 0.750000 0.281679 0.766874
O O12 0.002315 0.273357 0.810646
O O13 0.904491 0.000000 0.765705
O O14 0.250000 0.770519 0.852389
O O15 0.055694 0.000000 0.870162
#
# Coordination Sequence:
#
# PCOD9406684 Si02
#       5
#     4   8   8   8   8
#     4  10  22  38  56  82 110 140 177 216 257 302
#     4   9  17  28  43  66  94 123 156 198 247 296
#     4   9  16  26  41  62  89 121 157 199 247 299
#     4   9  18  32  50  73 100 131 167 205 248 299
#     4   9  19  36  55  76 106 141 174 212 259 307
#
# _framework density 19.374407000000001
#
# number of rings (size 3 to 8) (size 9 to 14) (size 15 to 20)
#    0.000    2.889    0.000    0.667    1.556    4.889 
#    0.000    0.000    0.000    0.667    0.000    0.000 
#    0.000    0.000    0.000    0.000    0.000    0.000 
#
# Total GULP energy -200854.139302 kJ/mol
# GULP energy per Si atom -5579.281647 kJ/mol
# Density = 1.933031 g / cm^3
# Si number density = 19.374407 Si / 1000 Ang^3
#
#
#
# Elastic Constant Matrix: (Units=GPa)
#
#
# Indices 1 2 3 4 5 6 
#
# 1 100.5003 30.1759 118.8590 0.0000 0.0000 0.0000
# 2 30.1759 62.4247 41.0040 0.0000 0.0000 0.0000
# 3 118.8590 41.0040 227.1777 0.0000 0.0000 0.0000
# 4 0.0000 0.0000 0.0000 70.6193 0.0000 0.0000
# 5 0.0000 0.0000 0.0000 0.0000 42.0297 0.0000
# 6 0.0000 0.0000 0.0000 0.0000 0.0000 3.1635
#
#
#
# Elastic Compliance Matrix: (Units=1/GPa)
#
#
# Indices 1 2 3 4 5 6 
#
# 1 0.027078 -0.004293 -0.013392 0.000000 0.000000 0.000000
# 2 -0.004293 0.018854 -0.001157 0.000000 0.000000 0.000000
# 3 -0.013392 -0.001157 0.011618 0.000000 0.000000 0.000000
# 4 0.000000 0.000000 0.000000 0.014160 0.000000 0.000000
# 5 0.000000 0.000000 0.000000 0.000000 0.023793 0.000000
# 6 0.000000 0.000000 0.000000 0.000000 0.000000 0.316106
#
#
# Mechanical properties :
#
#
# Convention : Reuss Voigt Hill
#
# Bulk Modulus (GPa) = 50.33818 85.57562 67.95690
# Shear Modulus (GPa) = 10.96696 36.50009 23.73352
#
# Velocity S-wave (km/s) = 2.38177 4.34514 3.50379
# Velocity P-wave (km/s) = 5.79672 8.33300 7.17777
#
# Compressibility (1/GPa) = 0.01986564
#
# Stress axis : x y z
#
# Youngs Moduli (GPa) = 36.93077 53.03789 86.07692
#
# Poissons Ratio (x) = 0.22767 1.15276
# Poissons Ratio (y) = 0.15853 0.09961
# Poissons Ratio (z) = 0.49459 0.06138
#
# Static dielectric constant tensor:
#      x y z
#    x 1.662940 0.000000 0.000000 
#    y 0.000000 1.724940 0.000000 
#    z 0.000000 0.000000 1.638950 
# 
# From -- ./inp_files/34330.got.cif
#   From: 2010.05.17/outbox.cif.g08.bks.cpg/sg51_18_cif.got.tgz:34330.got - 2010.06.03 11:52:47.
