data_PCOD9406327
_publ_section_title
;
Structure prediction by ZEFSAII (Michael W. Deem and Ramdas Pophale) SiO2 
 PCOD9406327
Probable space group: P M M A
;
_chemical_formula_sum "Si O2"
_cell_formula_units_Z 48
_cell_length_a 8.765795
_cell_length_b 14.923678
_cell_length_c 18.998715
_cell_angle_alpha 90.000000
_cell_angle_beta 90.000000
_cell_angle_gamma 90.000000
_cell_volume 2485.372037
_symmetry_space_group_name_H-M "P M M A"
_symmetry_group_IT_number 51
_symmetry_cell_setting 'orthorhombic'
loop_
_space_group_symop_operation_xyz
x,y,z
1/2-x,-y,z
1/2+x,-y,-z
-x,y,-z
-x,-y,-z
1/2+x,y,-z
1/2-x,y,z
x,-y,z
loop_
_atom_site_type_symbol
_atom_site_label
_atom_site_fract_x
_atom_site_fract_y
_atom_site_fract_z
Si Si1 0.567302 0.769956 0.425802
Si Si2 0.064651 0.897796 0.700367
Si Si3 0.931252 0.277637 0.925558
Si Si4 0.432087 0.395850 0.353691
Si Si5 0.933676 0.104766 0.138395
Si Si6 0.929599 0.393176 0.200640
O O1 0.500000 0.800491 0.500000
O O2 0.750000 0.772432 0.428472
O O3 0.513210 0.831484 0.360617
O O4 0.510633 0.670357 0.408274
O O5 0.250000 0.896911 0.700143
O O6 0.020996 0.874592 0.780404
O O7 0.016273 0.000000 0.686459
O O8 0.750000 0.283372 0.927122
O O9 0.984207 0.175766 0.910770
O O10 0.997161 0.337521 0.862308
O O11 0.000000 0.307370 0.000000
O O12 0.250000 0.385691 0.356256
O O13 0.470146 0.500000 0.366659
O O14 0.492110 0.373168 0.275395
O O15 0.750000 0.115383 0.132663
O O16 0.968230 0.000000 0.124882
O O17 0.750000 0.371781 0.205883
O O18 0.945804 0.500000 0.188185
#
# Coordination Sequence:
#
# PCOD9406327 Si02
#       6
#     8   8   8   8   8   8
#     4  11  22  35  54  80 113 151 188 230 280 334
#     4   8  16  33  57  82 107 140 182 226 274 328
#     4  12  25  39  57  82 116 154 191 234 282 335
#     4  10  21  38  60  85 112 143 183 231 280 332
#     4   9  18  36  62  87 111 143 187 238 288 339
#     4  10  21  39  63  88 114 146 185 229 279 337
#
# _framework density 19.313002999999998
#
# number of rings (size 3 to 8) (size 9 to 14) (size 15 to 20)
#    0.000    2.000    0.000    5.000    0.000    5.000 
#    0.000    0.833    0.000    3.500    0.000    0.000 
#    0.000    0.000    0.000    0.000    0.000    0.000 
#
# Total GULP energy -268220.156933 kJ/mol
# GULP energy per Si atom -5587.919936 kJ/mol
# Density = 1.926905 g / cm^3
# Si number density = 19.313003 Si / 1000 Ang^3
#
#
#
# Elastic Constant Matrix: (Units=GPa)
#
#
# Indices 1 2 3 4 5 6 
#
# 1 51.7295 16.4677 5.4798 0.0000 0.0000 0.0000
# 2 16.4677 32.4853 12.2051 0.0000 0.0000 0.0000
# 3 5.4798 12.2051 36.3909 0.0000 0.0000 0.0000
# 4 0.0000 0.0000 0.0000 6.8758 0.0000 0.0000
# 5 0.0000 0.0000 0.0000 0.0000 34.4725 0.0000
# 6 0.0000 0.0000 0.0000 0.0000 0.0000 25.6047
#
#
#
# Elastic Compliance Matrix: (Units=1/GPa)
#
#
# Indices 1 2 3 4 5 6 
#
# 1 0.023060 -0.011882 0.000513 0.000000 0.000000 0.000000
# 2 -0.011882 0.041344 -0.012077 0.000000 0.000000 0.000000
# 3 0.000513 -0.012077 0.031453 0.000000 0.000000 0.000000
# 4 0.000000 0.000000 0.000000 0.145438 0.000000 0.000000
# 5 0.000000 0.000000 0.000000 0.000000 0.029009 0.000000
# 6 0.000000 0.000000 0.000000 0.000000 0.000000 0.039055
#
#
# Mechanical properties :
#
#
# Convention : Reuss Voigt Hill
#
# Bulk Modulus (GPa) = 20.42342 20.99010 20.70676
# Shear Modulus (GPa) = 13.42019 19.15413 16.28716
#
# Velocity S-wave (km/s) = 2.63891 3.15266 2.90716
# Velocity P-wave (km/s) = 4.45904 4.91369 4.69188
#
# Compressibility (1/GPa) = 0.04896340
#
# Stress axis : x y z
#
# Youngs Moduli (GPa) = 43.36581 24.18722 31.79374
#
# Poissons Ratio (x) = 0.28740 -0.01631
# Poissons Ratio (y) = 0.51528 0.38398
# Poissons Ratio (z) = -0.02224 0.29211
#
# Static dielectric constant tensor:
#      x y z
#    x 1.644450 0.000000 0.000000 
#    y 0.000000 1.680000 0.000000 
#    z 0.000000 0.000000 1.656680 
# 
# From -- ./inp_files/27548.got.cif
#   From: 2010.05.17/outbox.cif.g08.bks.cpg/sg51_14_cif.got.tgz:27548.got - 2010.06.03 11:52:47.
