data_PCOD9406888
_publ_section_title
;
Structure prediction by ZEFSAII (Michael W. Deem and Ramdas Pophale) SiO2 
 PCOD9406888
Probable space group: P M M A
;
_chemical_formula_sum "Si O2"
_cell_formula_units_Z 34
_cell_length_a 9.784657
_cell_length_b 19.650419
_cell_length_c 7.856888
_cell_angle_alpha 90.000000
_cell_angle_beta 90.000000
_cell_angle_gamma 90.000000
_cell_volume 1510.664361
_symmetry_space_group_name_H-M "P M M A"
_symmetry_group_IT_number 51
_symmetry_cell_setting 'orthorhombic'
loop_
_space_group_symop_operation_xyz
x,y,z
1/2-x,-y,z
1/2+x,-y,-z
-x,y,-z
-x,-y,-z
1/2+x,y,-z
1/2-x,y,z
x,-y,z
loop_
_atom_site_type_symbol
_atom_site_label
_atom_site_fract_x
_atom_site_fract_y
_atom_site_fract_z
Si Si1 0.250000 0.000000 0.705445
Si Si2 0.750000 0.784622 0.254858
Si Si3 0.526753 0.888151 0.193617
Si Si4 0.975880 0.573792 0.800382
Si Si5 0.750000 0.832009 0.652958
Si Si6 0.250000 0.366017 0.671799
Si Si7 0.250000 0.679390 0.283182
O O1 0.370937 0.940949 0.717033
O O2 0.613716 0.818635 0.180728
O O3 0.750000 0.808459 0.455251
O O4 0.750000 0.704286 0.222131
O O5 0.385643 0.873650 0.293269
O O6 0.500000 0.912237 0.000000
O O7 0.920338 0.500000 0.741131
O O8 0.880214 0.638522 0.780175
O O9 0.116992 0.589976 0.707469
O O10 0.000000 0.568152 0.000000
O O11 0.750000 0.759450 0.750568
O O12 0.250000 0.336277 0.483586
#
# Coordination Sequence:
#
# PCOD9406888 Si02
#       7
#     2   4   8   8   4   4   4
#     4  10  24  44  64  94 130 160 198 250 298 352
#     4  10  23  42  61  92 130 159 199 259 311 354
#     4  11  23  41  66  94 123 162 206 245 297 362
#     4  11  24  40  59  87 124 163 206 260 313 362
#     4  11  23  41  65  93 127 160 199 256 309 357
#     4  11  23  40  63  88 121 164 208 253 308 368
#     4  11  24  40  62  91 122 162 205 254 311 364
#
# _framework density 22.506654000000001
#
# number of rings (size 3 to 8) (size 9 to 14) (size 15 to 20)
#    0.000    1.176    0.000    6.000    0.000   14.588 
#    0.000    9.412    0.000    1.412    0.000    0.000 
#    0.000    0.000    0.000    0.000    0.000    0.000 
#
# Total GULP energy -189571.982166 kJ/mol
# GULP energy per Si atom -5575.646534 kJ/mol
# Density = 2.245543 g / cm^3
# Si number density = 22.506654 Si / 1000 Ang^3
#
#
#
# Elastic Constant Matrix: (Units=GPa)
#
#
# Indices 1 2 3 4 5 6 
#
# 1 169.8100 50.6983 15.8035 0.0000 0.0000 0.0000
# 2 50.6983 145.6341 7.3209 0.0000 0.0000 0.0000
# 3 15.8035 7.3209 42.7170 0.0000 0.0000 0.0000
# 4 0.0000 0.0000 0.0000 -35.5810 0.0000 0.0000
# 5 0.0000 0.0000 0.0000 0.0000 21.6695 0.0000
# 6 0.0000 0.0000 0.0000 0.0000 0.0000 34.2296
#
#
#
# Elastic Compliance Matrix: (Units=1/GPa)
#
#
# Indices 1 2 3 4 5 6 
#
# 1 0.006756 -0.002246 -0.002115 0.000000 0.000000 0.000000
# 2 -0.002246 0.007673 -0.000484 0.000000 0.000000 0.000000
# 3 -0.002115 -0.000484 0.024275 0.000000 0.000000 0.000000
# 4 0.000000 0.000000 0.000000 -0.028105 0.000000 0.000000
# 5 0.000000 0.000000 0.000000 0.000000 0.046148 0.000000
# 6 0.000000 0.000000 0.000000 0.000000 0.000000 0.029215
#
#
# Mechanical properties :
#
#
# Convention : Reuss Voigt Hill
#
# Bulk Modulus (GPa) = 34.46481 56.20072 45.33276
# Shear Modulus (GPa) = 47.47341 23.01949 35.24645
#
# Velocity S-wave (km/s) = 4.59770 3.20157 3.96162
# Velocity P-wave (km/s) = 6.59784 6.22026 6.41183
#
# Compressibility (1/GPa) = 0.02901511
#
# Stress axis : x y z
#
# Youngs Moduli (GPa) = 148.01208 130.33345 41.19429
#
# Poissons Ratio (x) = 0.29269 0.08711
# Poissons Ratio (y) = 0.33239 0.01994
# Poissons Ratio (z) = 0.31299 0.06310
#
# Static dielectric constant tensor:
#      x y z
#    x 1.811940 0.000000 0.000000 
#    y 0.000000 1.858920 0.000000 
#    z 0.000000 0.000000 1.890860 
# 
# From -- ./inp_files/5117.got.cif
#   From: 2010.05.17/outbox.cif.g08.bks.cpg/sg51_3_cif.got.tgz:5117.got - 2010.06.03 11:52:47.
