data_PCOD9406125
_publ_section_title
;
Structure prediction by ZEFSAII (Michael W. Deem and Ramdas Pophale) SiO2 
 PCOD9406125
Probable space group: P M M A
;
_chemical_formula_sum "Si O2"
_cell_formula_units_Z 48
_cell_length_a 15.424632
_cell_length_b 9.108488
_cell_length_c 17.447935
_cell_angle_alpha 90.000000
_cell_angle_beta 90.000000
_cell_angle_gamma 90.000000
_cell_volume 2451.348945
_symmetry_space_group_name_H-M "P M M A"
_symmetry_group_IT_number 51
_symmetry_cell_setting 'orthorhombic'
loop_
_space_group_symop_operation_xyz
x,y,z
1/2-x,-y,z
1/2+x,-y,-z
-x,y,-z
-x,-y,-z
1/2+x,y,-z
1/2-x,y,z
x,-y,z
loop_
_atom_site_type_symbol
_atom_site_label
_atom_site_fract_x
_atom_site_fract_y
_atom_site_fract_z
Si Si1 0.599808 0.824515 0.198539
Si Si2 0.879649 0.666115 0.656996
Si Si3 0.750000 0.324194 0.100319
Si Si4 0.395045 0.825663 0.188543
Si Si5 0.750000 0.824986 0.936383
Si Si6 0.850196 0.165616 0.500920
Si Si7 0.413034 0.666053 0.645169
O O1 0.665394 0.742784 0.142108
O O2 0.497975 0.792957 0.179692
O O3 0.618671 0.765966 0.284473
O O4 0.611895 0.000000 0.194712
O O5 0.847233 0.500000 0.650447
O O6 0.858758 0.739241 0.738140
O O7 0.853490 0.763297 0.584676
O O8 0.983794 0.659634 0.654547
O O9 0.750000 0.500000 0.105595
O O10 0.750000 0.268877 0.013043
O O11 0.335211 0.794828 0.115260
O O12 0.388707 0.000000 0.204419
O O13 0.750000 0.000000 0.954550
O O14 0.750000 0.158921 0.477487
O O15 0.895804 0.264094 0.437313
O O16 0.885711 0.000000 0.502684
O O17 0.377895 0.500000 0.649958
#
# Coordination Sequence:
#
# PCOD9406125 Si02
#       7
#     8   8   4   8   4   8   8
#     4  10  21  40  65  91 121 160 203 246 296 358
#     4  10  21  37  58  84 116 153 195 243 297 352
#     4  12  26  42  62  91 124 159 198 246 304 359
#     4   9  20  39  65  93 122 159 201 245 296 356
#     4  10  22  42  66  93 124 157 196 242 296 361
#     4  11  24  37  52  79 115 156 202 247 291 344
#     4  10  21  38  59  84 115 152 194 244 299 353
#
# _framework density 19.581056
#
# number of rings (size 3 to 8) (size 9 to 14) (size 15 to 20)
#    0.000    1.833    0.000    3.250    2.333    7.333 
#    0.000    3.333    0.000    0.000    0.000    0.000 
#    0.000    0.000    0.000    0.000    0.000    0.000 
#
# Total GULP energy -268169.175625 kJ/mol
# GULP energy per Si atom -5586.857826 kJ/mol
# Density = 1.953649 g / cm^3
# Si number density = 19.581056 Si / 1000 Ang^3
#
#
#
# Elastic Constant Matrix: (Units=GPa)
#
#
# Indices 1 2 3 4 5 6 
#
# 1 74.1816 55.4079 50.8016 0.0000 0.0000 0.0000
# 2 55.4079 132.0507 75.2619 0.0000 0.0000 0.0000
# 3 50.8016 75.2619 121.8990 0.0000 0.0000 0.0000
# 4 0.0000 0.0000 0.0000 77.9009 0.0000 0.0000
# 5 0.0000 0.0000 0.0000 0.0000 33.1661 0.0000
# 6 0.0000 0.0000 0.0000 0.0000 0.0000 15.0980
#
#
#
# Elastic Compliance Matrix: (Units=1/GPa)
#
#
# Indices 1 2 3 4 5 6 
#
# 1 0.021619 -0.006073 -0.005260 0.000000 0.000000 0.000000
# 2 -0.006073 0.013391 -0.005737 0.000000 0.000000 0.000000
# 3 -0.005260 -0.005737 0.013937 0.000000 0.000000 0.000000
# 4 0.000000 0.000000 0.000000 0.012837 0.000000 0.000000
# 5 0.000000 0.000000 0.000000 0.000000 0.030151 0.000000
# 6 0.000000 0.000000 0.000000 0.000000 0.000000 0.066234
#
#
# Mechanical properties :
#
#
# Convention : Reuss Voigt Hill
#
# Bulk Modulus (GPa) = 67.53373 76.78599 72.15986
# Shear Modulus (GPa) = 25.34927 35.01033 30.17980
#
# Velocity S-wave (km/s) = 3.60193 4.23303 3.93017
# Velocity P-wave (km/s) = 7.20158 7.94927 7.58464
#
# Compressibility (1/GPa) = 0.01480741
#
# Stress axis : x y z
#
# Youngs Moduli (GPa) = 46.25590 74.67880 71.74931
#
# Poissons Ratio (x) = 0.45354 0.37740
# Poissons Ratio (y) = 0.28092 0.41159
# Poissons Ratio (z) = 0.24331 0.42840
#
# Static dielectric constant tensor:
#      x y z
#    x 1.707510 0.000000 0.000000 
#    y 0.000000 1.679590 0.000000 
#    z 0.000000 0.000000 1.637760 
# 
# From -- ./inp_files/24960.got.cif
#   From: 2010.05.17/outbox.cif.g08.bks.cpg/sg51_13_cif.got.tgz:24960.got - 2010.06.03 11:52:47.
