data_PCOD9406398
_publ_section_title
;
Structure prediction by ZEFSAII (Michael W. Deem and Ramdas Pophale) SiO2 
 PCOD9406398
Probable space group: P M M A
;
_chemical_formula_sum "Si O2"
_cell_formula_units_Z 40
_cell_length_a 8.712711
_cell_length_b 26.485208
_cell_length_c 9.335099
_cell_angle_alpha 90.000000
_cell_angle_beta 90.000000
_cell_angle_gamma 90.000000
_cell_volume 2154.148430
_symmetry_space_group_name_H-M "P M M A"
_symmetry_group_IT_number 51
_symmetry_cell_setting 'orthorhombic'
loop_
_space_group_symop_operation_xyz
x,y,z
1/2-x,-y,z
1/2+x,-y,-z
-x,y,-z
-x,-y,-z
1/2+x,y,-z
1/2-x,y,z
x,-y,z
loop_
_atom_site_type_symbol
_atom_site_label
_atom_site_fract_x
_atom_site_fract_y
_atom_site_fract_z
Si Si1 0.433554 0.852016 0.842044
Si Si2 0.434415 0.752658 0.659607
Si Si3 0.434164 0.444734 0.838126
Si Si4 0.433757 0.941684 0.342415
Si Si5 0.933473 0.659503 0.838371
O O1 0.250000 0.855200 0.849116
O O2 0.474665 0.804043 0.743646
O O3 0.499025 0.902495 0.770212
O O4 0.500000 0.845004 0.000000
O O5 0.500000 0.754500 0.500000
O O6 0.250000 0.748178 0.656075
O O7 0.504491 0.705454 0.744619
O O8 0.250000 0.439315 0.843652
O O9 0.469723 0.500000 0.772970
O O10 0.508180 0.394175 0.775518
O O11 0.500000 0.446364 0.000000
O O12 0.500000 0.930225 0.500000
O O13 0.250000 0.937567 0.346539
O O14 0.474114 0.000000 0.308887
O O15 0.750000 0.659750 0.845414
O O16 0.000000 0.664152 0.000000
#
# Coordination Sequence:
#
# PCOD9406398 Si02
#       5
#     8   8   8   8   8
#     4  11  24  40  61  87 116 150 188 234 283 333
#     4  11  24  41  60  83 111 145 186 230 280 338
#     4   9  16  27  46  74 108 144 182 226 275 327
#     4  10  21  38  61  88 119 155 193 233 278 331
#     4  11  21  34  55  82 113 148 186 231 280 330
#
# _framework density 18.568822999999998
#
# number of rings (size 3 to 8) (size 9 to 14) (size 15 to 20)
#    0.000    1.600    0.000    6.600    0.000    9.200 
#    0.000    0.000    0.000    0.600    0.000    0.000 
#    0.000    0.000    0.000    0.000    0.000    0.000 
#
# Total GULP energy -223463.147463 kJ/mol
# GULP energy per Si atom -5586.578687 kJ/mol
# Density = 1.852656 g / cm^3
# Si number density = 18.568823 Si / 1000 Ang^3
#
#
#
# Elastic Constant Matrix: (Units=GPa)
#
#
# Indices 1 2 3 4 5 6 
#
# 1 95.9227 69.6622 54.1283 0.0000 0.0000 0.0000
# 2 69.6622 150.4582 90.7821 0.0000 0.0000 0.0000
# 3 54.1283 90.7821 116.3677 0.0000 0.0000 0.0000
# 4 0.0000 0.0000 0.0000 -31.9689 0.0000 0.0000
# 5 0.0000 0.0000 0.0000 0.0000 31.3416 0.0000
# 6 0.0000 0.0000 0.0000 0.0000 0.0000 80.0511
#
#
#
# Elastic Compliance Matrix: (Units=1/GPa)
#
#
# Indices 1 2 3 4 5 6 
#
# 1 0.016315 -0.005621 -0.003204 0.000000 0.000000 0.000000
# 2 -0.005621 0.014493 -0.008692 0.000000 0.000000 0.000000
# 3 -0.003204 -0.008692 0.016865 0.000000 0.000000 0.000000
# 4 0.000000 0.000000 0.000000 -0.031280 0.000000 0.000000
# 5 0.000000 0.000000 0.000000 0.000000 0.031906 0.000000
# 6 0.000000 0.000000 0.000000 0.000000 0.000000 0.012492
#
#
# Mechanical properties :
#
#
# Convention : Reuss Voigt Hill
#
# Bulk Modulus (GPa) = 79.11819 87.98822 83.55321
# Shear Modulus (GPa) = 49.98072 25.76317 37.87194
#
# Velocity S-wave (km/s) = 5.19374 3.72888 4.52103
# Velocity P-wave (km/s) = 8.86945 8.12571 8.50571
#
# Compressibility (1/GPa) = 0.01263932
#
# Stress axis : x y z
#
# Youngs Moduli (GPa) = 61.29347 68.99683 59.29437
#
# Poissons Ratio (x) = 0.38780 0.18998
# Poissons Ratio (y) = 0.34451 0.51541
# Poissons Ratio (z) = 0.19639 0.59975
#
# Static dielectric constant tensor:
#      x y z
#    x 1.617980 0.000000 0.000000 
#    y 0.000000 1.663230 0.000000 
#    z 0.000000 0.000000 1.605090 
# 
# From -- ./inp_files/5270.got.cif
#   From: 2010.05.17/outbox.cif.g08.bks.cpg/sg51_3_cif.got.tgz:5270.got - 2010.06.03 11:52:47.
