data_PCOD9406168
_publ_section_title
;
Structure prediction by ZEFSAII (Michael W. Deem and Ramdas Pophale) SiO2 
 PCOD9406168
Probable space group: P M M A
;
_chemical_formula_sum "Si O2"
_cell_formula_units_Z 40
_cell_length_a 17.915598
_cell_length_b 7.594186
_cell_length_c 13.219176
_cell_angle_alpha 90.000000
_cell_angle_beta 90.000000
_cell_angle_gamma 90.000000
_cell_volume 1798.526841
_symmetry_space_group_name_H-M "P M M A"
_symmetry_group_IT_number 51
_symmetry_cell_setting 'orthorhombic'
loop_
_space_group_symop_operation_xyz
x,y,z
1/2-x,-y,z
1/2+x,-y,-z
-x,y,-z
-x,-y,-z
1/2+x,y,-z
1/2-x,y,z
x,-y,z
loop_
_atom_site_type_symbol
_atom_site_label
_atom_site_fract_x
_atom_site_fract_y
_atom_site_fract_z
Si Si1 0.583052 0.284455 0.468195
Si Si2 0.067813 0.195645 0.934356
Si Si3 0.839186 0.706826 0.885227
Si Si4 0.336687 0.290566 0.737585
Si Si5 0.164859 0.284985 0.330188
O O1 0.500000 0.229466 0.500000
O O2 0.582104 0.500000 0.463188
O O3 0.620821 0.223355 0.363497
O O4 0.630394 0.229254 0.565202
O O5 0.108468 0.266426 0.833992
O O6 0.040936 0.000000 0.907441
O O7 0.131814 0.192819 0.018669
O O8 0.000000 0.282210 0.000000
O O9 0.750000 0.718059 0.879358
O O10 0.857560 0.500000 0.898783
O O11 0.871008 0.768385 0.776830
O O12 0.250000 0.224254 0.749767
O O13 0.329313 0.500000 0.724578
O O14 0.250000 0.227473 0.329384
O O15 0.163729 0.500000 0.328109
#
# Coordination Sequence:
#
# PCOD9406168 Si02
#       5
#     8   8   8   8   8
#     4   9  17  28  48  81 116 145 176 216 269 329
#     4  11  25  40  54  76 109 148 190 234 282 333
#     4   9  18  33  56  84 109 137 178 225 273 329
#     4  10  21  37  59  87 116 148 189 234 280 337
#     4   8  14  26  46  74 108 139 167 209 264 320
#
# _framework density 22.240424999999998
#
# number of rings (size 3 to 8) (size 9 to 14) (size 15 to 20)
#    0.000    2.600    0.000    3.000    2.800    7.200 
#    0.000    0.000    0.000    1.800    0.000    2.800 
#    0.000    0.000    0.000    0.000    0.000    0.000 
#
# Total GULP energy -222839.944853 kJ/mol
# GULP energy per Si atom -5570.998621 kJ/mol
# Density = 2.218981 g / cm^3
# Si number density = 22.240425 Si / 1000 Ang^3
#
#
#
# Elastic Constant Matrix: (Units=GPa)
#
#
# Indices 1 2 3 4 5 6 
#
# 1 86.0702 15.2762 54.2999 0.0000 0.0000 0.0000
# 2 15.2762 42.1048 14.9977 0.0000 0.0000 0.0000
# 3 54.2999 14.9977 191.7524 0.0000 0.0000 0.0000
# 4 0.0000 0.0000 0.0000 320.3695 0.0000 0.0000
# 5 0.0000 0.0000 0.0000 0.0000 29.0474 0.0000
# 6 0.0000 0.0000 0.0000 0.0000 0.0000 54.3537
#
#
#
# Elastic Compliance Matrix: (Units=1/GPa)
#
#
# Indices 1 2 3 4 5 6 
#
# 1 0.014766 -0.003979 -0.003870 0.000000 0.000000 0.000000
# 2 -0.003979 0.025503 -0.000868 0.000000 0.000000 0.000000
# 3 -0.003870 -0.000868 0.006379 0.000000 0.000000 0.000000
# 4 0.000000 0.000000 0.000000 0.003121 0.000000 0.000000
# 5 0.000000 0.000000 0.000000 0.000000 0.034426 0.000000
# 6 0.000000 0.000000 0.000000 0.000000 0.000000 0.018398
#
#
# Mechanical properties :
#
#
# Convention : Reuss Voigt Hill
#
# Bulk Modulus (GPa) = 34.23010 54.34167 44.28589
# Shear Modulus (GPa) = 38.53081 96.44435 67.48758
#
# Velocity S-wave (km/s) = 4.16681 6.59231 5.51457
# Velocity P-wave (km/s) = 6.21080 9.07918 7.77835
#
# Compressibility (1/GPa) = 0.02921405
#
# Stress axis : x y z
#
# Youngs Moduli (GPa) = 67.72187 39.21105 156.76637
#
# Poissons Ratio (x) = 0.15601 0.60673
# Poissons Ratio (y) = 0.26945 0.13607
# Poissons Ratio (z) = 0.26210 0.03403
#
# Static dielectric constant tensor:
#      x y z
#    x 1.838330 0.000000 0.000000 
#    y 0.000000 1.918340 0.000000 
#    z 0.000000 0.000000 1.824920 
# 
# From -- ./inp_files/17069.got.cif
#   From: 2010.05.17/outbox.cif.g08.bks.cpg/sg51_9_cif.got.tgz:17069.got - 2010.06.03 11:52:47.
