data_PCOD9406689
_publ_section_title
;
Structure prediction by ZEFSAII (Michael W. Deem and Ramdas Pophale) SiO2 
 PCOD9406689
Probable space group: P M M A
;
_chemical_formula_sum "Si O2"
_cell_formula_units_Z 48
_cell_length_a 29.161345
_cell_length_b 9.257211
_cell_length_c 10.027138
_cell_angle_alpha 90.000000
_cell_angle_beta 90.000000
_cell_angle_gamma 90.000000
_cell_volume 2706.853214
_symmetry_space_group_name_H-M "P M M A"
_symmetry_group_IT_number 51
_symmetry_cell_setting 'orthorhombic'
loop_
_space_group_symop_operation_xyz
x,y,z
1/2-x,-y,z
1/2+x,-y,-z
-x,y,-z
-x,-y,-z
1/2+x,y,-z
1/2-x,y,z
x,-y,z
loop_
_atom_site_type_symbol
_atom_site_label
_atom_site_fract_x
_atom_site_fract_y
_atom_site_fract_z
Si Si1 0.695326 0.169412 0.293282
Si Si2 0.624222 0.326835 0.794435
Si Si3 0.981162 0.329060 0.851205
Si Si4 0.803390 0.826208 0.985176
Si Si5 0.035804 0.167357 0.621981
Si Si6 0.374083 0.327314 0.518552
O O1 0.750000 0.182639 0.309989
O O2 0.668174 0.265833 0.397353
O O3 0.683422 0.000000 0.311389
O O4 0.684938 0.209220 0.139367
O O5 0.629176 0.500000 0.808638
O O6 0.572401 0.288602 0.838653
O O7 0.661907 0.248842 0.884476
O O8 0.629538 0.290244 0.638167
O O9 0.984526 0.500000 0.817337
O O10 0.011311 0.238487 0.748487
O O11 0.000000 0.309379 0.000000
O O12 0.750000 0.785679 0.961735
O O13 0.806192 0.000000 0.972754
O O14 0.080537 0.255158 0.579143
O O15 0.000000 0.173483 0.500000
O O16 0.047394 0.000000 0.647441
O O17 0.377001 0.500000 0.529276
#
# Coordination Sequence:
#
# PCOD9406689 Si02
#       6
#     8   8   8   8   8   8
#     4   9  20  40  62  86 117 150 189 238 288 341
#     4  10  22  38  56  84 118 151 190 236 284 337
#     4  10  22  40  60  84 117 155 193 234 285 343
#     4   9  20  39  61  84 113 150 188 232 288 341
#     4  11  23  39  60  86 116 152 194 236 284 339
#     4  11  23  38  59  85 117 155 192 234 287 343
#
# _framework density 17.732766999999999
#
# number of rings (size 3 to 8) (size 9 to 14) (size 15 to 20)
#    0.000    2.000    1.667    2.000    2.333    5.000 
#    0.000    5.000    0.000    0.000    0.000    0.000 
#    0.000    0.000    0.000    0.000    0.000    0.000 
#
# Total GULP energy -268070.534316 kJ/mol
# GULP energy per Si atom -5584.802798 kJ/mol
# Density = 1.769241 g / cm^3
# Si number density = 17.732767 Si / 1000 Ang^3
#
#
#
# Elastic Constant Matrix: (Units=GPa)
#
#
# Indices 1 2 3 4 5 6 
#
# 1 99.9857 58.3531 92.1267 0.0000 0.0000 0.0000
# 2 58.3531 72.3169 79.3494 0.0000 0.0000 0.0000
# 3 92.1267 79.3494 135.7752 0.0000 0.0000 0.0000
# 4 0.0000 0.0000 0.0000 37.7196 0.0000 0.0000
# 5 0.0000 0.0000 0.0000 0.0000 37.5684 0.0000
# 6 0.0000 0.0000 0.0000 0.0000 0.0000 39.2660
#
#
#
# Elastic Compliance Matrix: (Units=1/GPa)
#
#
# Indices 1 2 3 4 5 6 
#
# 1 0.027255 -0.004741 -0.015723 0.000000 0.000000 0.000000
# 2 -0.004741 0.039370 -0.019792 0.000000 0.000000 0.000000
# 3 -0.015723 -0.019792 0.029600 0.000000 0.000000 0.000000
# 4 0.000000 0.000000 0.000000 0.026511 0.000000 0.000000
# 5 0.000000 0.000000 0.000000 0.000000 0.026618 0.000000
# 6 0.000000 0.000000 0.000000 0.000000 0.000000 0.025467
#
#
# Mechanical properties :
#
#
# Convention : Reuss Voigt Hill
#
# Bulk Modulus (GPa) = 63.63514 85.30403 74.46959
# Shear Modulus (GPa) = 19.18876 28.12737 23.65807
#
# Velocity S-wave (km/s) = 3.29311 3.98701 3.65656
# Velocity P-wave (km/s) = 7.10091 8.33095 7.74040
#
# Compressibility (1/GPa) = 0.01571459
#
# Stress axis : x y z
#
# Youngs Moduli (GPa) = 36.69065 25.40028 33.78396
#
# Poissons Ratio (x) = 0.12041 0.53117
# Poissons Ratio (y) = 0.17394 0.66864
# Poissons Ratio (z) = 0.57687 0.50271
#
# Static dielectric constant tensor:
#      x y z
#    x 1.585860 0.000000 0.000000 
#    y 0.000000 1.591050 0.000000 
#    z 0.000000 0.000000 1.578630 
# 
# From -- ./inp_files/12801.got.cif
#   From: 2010.05.17/outbox.cif.g08.bks.cpg/sg51_7_cif.got.tgz:12801.got - 2010.06.03 11:52:47.
