data_PCOD9406564
_publ_section_title
;
Structure prediction by ZEFSAII (Michael W. Deem and Ramdas Pophale) SiO2 
 PCOD9406564
Probable space group: P M M A
;
_chemical_formula_sum "Si O2"
_cell_formula_units_Z 18
_cell_length_a 8.358002
_cell_length_b 7.610850
_cell_length_c 12.452879
_cell_angle_alpha 90.000000
_cell_angle_beta 90.000000
_cell_angle_gamma 90.000000
_cell_volume 792.146307
_symmetry_space_group_name_H-M "P M M A"
_symmetry_group_IT_number 51
_symmetry_cell_setting 'orthorhombic'
loop_
_space_group_symop_operation_xyz
x,y,z
1/2-x,-y,z
1/2+x,-y,-z
-x,y,-z
-x,-y,-z
1/2+x,y,-z
1/2-x,y,z
x,-y,z
loop_
_atom_site_type_symbol
_atom_site_label
_atom_site_fract_x
_atom_site_fract_y
_atom_site_fract_z
Si Si1 0.435203 0.212533 0.115616
Si Si2 0.062390 0.300617 0.656028
Si Si3 0.500000 0.000000 0.500000
O O1 0.250000 0.262537 0.127054
O O2 0.531825 0.281605 0.217351
O O3 0.446013 0.000000 0.117733
O O4 0.500000 0.271032 0.000000
O O5 0.250000 0.262632 0.633885
O O6 0.024884 0.500000 0.625089
O O7 0.968311 0.154563 0.590318
#
# Coordination Sequence:
#
# PCOD9406564 Si02
#       3
#     8   8   2
#     4  10  21  39  67 100 135 174 218 268 329 395
#     4  11  25  44  69 100 133 173 222 274 331 393
#     4  12  24  44  70  92 130 176 220 276 328 390
#
# _framework density 22.723077
#
# number of rings (size 3 to 8) (size 9 to 14) (size 15 to 20)
#    0.000    1.333    2.222    2.667    0.000    7.111 
#    0.000    0.000    0.000    0.000    0.000    0.000 
#    0.000    0.000    0.000    0.000    0.000    0.000 
#
# Total GULP energy -100221.487014 kJ/mol
# GULP energy per Si atom -5567.860390 kJ/mol
# Density = 2.267136 g / cm^3
# Si number density = 22.723077 Si / 1000 Ang^3
#
#
#
# Elastic Constant Matrix: (Units=GPa)
#
#
# Indices 1 2 3 4 5 6 
#
# 1 44.9766 40.1830 5.8204 0.0000 0.0000 0.0000
# 2 40.1830 74.7931 15.8603 0.0000 0.0000 0.0000
# 3 5.8204 15.8603 147.2711 0.0000 0.0000 0.0000
# 4 0.0000 0.0000 0.0000 289.2877 0.0000 0.0000
# 5 0.0000 0.0000 0.0000 0.0000 -9.3563 0.0000
# 6 0.0000 0.0000 0.0000 0.0000 0.0000 11.5167
#
#
#
# Elastic Compliance Matrix: (Units=1/GPa)
#
#
# Indices 1 2 3 4 5 6 
#
# 1 0.042850 -0.023192 0.000804 0.000000 0.000000 0.000000
# 2 -0.023192 0.026235 -0.001909 0.000000 0.000000 0.000000
# 3 0.000804 -0.001909 0.006964 0.000000 0.000000 0.000000
# 4 0.000000 0.000000 0.000000 0.003457 0.000000 0.000000
# 5 0.000000 0.000000 0.000000 0.000000 -0.106880 0.000000
# 6 0.000000 0.000000 0.000000 0.000000 0.000000 0.086830
#
#
# Mechanical properties :
#
#
# Convention : Reuss Voigt Hill
#
# Bulk Modulus (GPa) = 36.42224 43.41870 39.92047
# Shear Modulus (GPa) = 42.66197 71.96809 57.31503
#
# Velocity S-wave (km/s) = 4.33768 5.63388 5.02773
# Velocity P-wave (km/s) = 6.41489 7.84028 7.16313
#
# Compressibility (1/GPa) = 0.02745575
#
# Stress axis : x y z
#
# Youngs Moduli (GPa) = 23.33747 38.11731 143.59600
#
# Poissons Ratio (x) = 0.88400 -0.11547
# Poissons Ratio (y) = 0.54123 0.27409
# Poissons Ratio (z) = -0.01877 0.07276
#
# Static dielectric constant tensor:
#      x y z
#    x 1.862130 0.000000 0.000000 
#    y 0.000000 1.832870 0.000000 
#    z 0.000000 0.000000 1.808780 
# 
# From -- ./inp_files/13460.got.cif
#   From: 2010.05.17/outbox.cif.g08.bks.cpg/sg51_7_cif.got.tgz:13460.got - 2010.06.03 11:52:47.
