data_PCOD9406626
_publ_section_title
;
Structure prediction by ZEFSAII (Michael W. Deem and Ramdas Pophale) SiO2 
 PCOD9406626
Probable space group: P M M A
;
_chemical_formula_sum "Si O2"
_cell_formula_units_Z 64
_cell_length_a 18.639933
_cell_length_b 13.526063
_cell_length_c 13.189987
_cell_angle_alpha 90.000000
_cell_angle_beta 90.000000
_cell_angle_gamma 90.000000
_cell_volume 3325.524260
_symmetry_space_group_name_H-M "P M M A"
_symmetry_group_IT_number 51
_symmetry_cell_setting 'orthorhombic'
loop_
_space_group_symop_operation_xyz
x,y,z
1/2-x,-y,z
1/2+x,-y,-z
-x,y,-z
-x,-y,-z
1/2+x,y,-z
1/2-x,y,z
x,-y,z
loop_
_atom_site_type_symbol
_atom_site_label
_atom_site_fract_x
_atom_site_fract_y
_atom_site_fract_z
Si Si1 0.596506 0.614546 0.906761
Si Si2 0.018786 0.882105 0.177982
Si Si3 0.537972 0.881309 0.601771
Si Si4 0.628307 0.883888 0.092415
Si Si5 0.672160 0.194315 0.885129
Si Si6 0.334555 0.114529 0.525153
Si Si7 0.333117 0.763286 0.724402
Si Si8 0.566430 0.383407 0.147456
O O1 0.611364 0.500000 0.886125
O O2 0.655522 0.690651 0.868226
O O3 0.518925 0.640081 0.857409
O O4 0.590122 0.625868 0.029130
O O5 0.009510 0.841969 0.292056
O O6 0.100640 0.861228 0.150648
O O7 0.955158 0.850006 0.102901
O O8 0.009575 0.000000 0.180126
O O9 0.500000 0.844930 0.500000
O O10 0.621365 0.864088 0.577104
O O11 0.527648 0.000000 0.606202
O O12 0.661661 0.857240 0.200209
O O13 0.631271 0.000000 0.070365
O O14 0.669209 0.826540 0.005219
O O15 0.750000 0.163938 0.845285
O O16 0.250000 0.117707 0.508647
O O17 0.351905 0.192384 0.614114
O O18 0.353265 0.000000 0.555341
O O19 0.250000 0.728795 0.722248
O O20 0.385226 0.682324 0.776946
O O21 0.573133 0.500000 0.173228
#
# Coordination Sequence:
#
# PCOD9406626 Si02
#       8
#     8   8   8   8   8   8   8   8
#     4   9  19  36  55  73  97 134 178 219 259 302
#     4  10  22  37  54  74 102 143 183 220 260 306
#     4   9  17  32  53  75  96 126 175 228 267 299
#     4  11  22  35  50  70 102 145 184 214 249 299
#     4  12  24  35  51  78 108 142 178 214 256 309
#     4   9  18  31  48  73 105 138 171 211 264 319
#     4  11  20  30  48  76 108 141 172 211 261 313
#     4   9  18  33  53  74  99 135 176 218 262 309
#
# _framework density 19.245086000000001
#
# number of rings (size 3 to 8) (size 9 to 14) (size 15 to 20)
#    0.000    2.000    1.250    3.750    1.750    6.250 
#    0.000    2.500    0.000    0.000    0.000    0.875 
#    0.000    6.000    0.000    0.125    0.000    0.000 
#
# Total GULP energy -356922.692347 kJ/mol
# GULP energy per Si atom -5576.917068 kJ/mol
# Density = 1.920128 g / cm^3
# Si number density = 19.245086 Si / 1000 Ang^3
#
#
#
# Elastic Constant Matrix: (Units=GPa)
#
#
# Indices 1 2 3 4 5 6 
#
# 1 110.4430 23.8593 18.5554 0.0000 0.0000 0.0000
# 2 23.8593 73.3499 3.5098 0.0000 0.0000 0.0000
# 3 18.5554 3.5098 28.8398 0.0000 0.0000 0.0000
# 4 0.0000 0.0000 0.0000 15.8560 0.0000 0.0000
# 5 0.0000 0.0000 0.0000 0.0000 23.6971 0.0000
# 6 0.0000 0.0000 0.0000 0.0000 0.0000 19.1077
#
#
#
# Elastic Compliance Matrix: (Units=1/GPa)
#
#
# Indices 1 2 3 4 5 6 
#
# 1 0.010857 -0.003216 -0.006594 0.000000 0.000000 0.000000
# 2 -0.003216 0.014666 0.000284 0.000000 0.000000 0.000000
# 3 -0.006594 0.000284 0.038882 0.000000 0.000000 0.000000
# 4 0.000000 0.000000 0.000000 0.063068 0.000000 0.000000
# 5 0.000000 0.000000 0.000000 0.000000 0.042199 0.000000
# 6 0.000000 0.000000 0.000000 0.000000 0.000000 0.052335
#
#
# Mechanical properties :
#
#
# Convention : Reuss Voigt Hill
#
# Bulk Modulus (GPa) = 22.04887 33.83129 27.94008
# Shear Modulus (GPa) = 19.51783 22.84606 21.18194
#
# Velocity S-wave (km/s) = 3.18806 3.44919 3.32119
# Velocity P-wave (km/s) = 5.00334 5.78618 5.40894
#
# Compressibility (1/GPa) = 0.04535379
#
# Stress axis : x y z
#
# Youngs Moduli (GPa) = 92.10594 68.18587 25.71865
#
# Poissons Ratio (x) = 0.21929 0.16959
# Poissons Ratio (y) = 0.29622 -0.00731
# Poissons Ratio (z) = 0.60735 -0.01939
#
# Static dielectric constant tensor:
#      x y z
#    x 1.737430 0.000000 0.000000 
#    y 0.000000 1.690170 0.000000 
#    z 0.000000 0.000000 1.668410 
# 
# From -- ./inp_files/25312.got.cif
#   From: 2010.05.17/outbox.cif.g08.bks.cpg/sg51_13_cif.got.tgz:25312.got - 2010.06.03 11:52:47.
