data_PCOD9406018
_publ_section_title
;
Structure prediction by ZEFSAII (Michael W. Deem and Ramdas Pophale) SiO2 
 PCOD9406018
Probable space group: P M M A
;
_chemical_formula_sum "Si O2"
_cell_formula_units_Z 56
_cell_length_a 8.968396
_cell_length_b 14.634584
_cell_length_c 24.321823
_cell_angle_alpha 90.000000
_cell_angle_beta 90.000000
_cell_angle_gamma 90.000000
_cell_volume 3192.208735
_symmetry_space_group_name_H-M "P M M A"
_symmetry_group_IT_number 51
_symmetry_cell_setting 'orthorhombic'
loop_
_space_group_symop_operation_xyz
x,y,z
1/2-x,-y,z
1/2+x,-y,-z
-x,y,-z
-x,-y,-z
1/2+x,y,-z
1/2-x,y,z
x,-y,z
loop_
_atom_site_type_symbol
_atom_site_label
_atom_site_fract_x
_atom_site_fract_y
_atom_site_fract_z
Si Si1 0.074222 0.108788 0.941763
Si Si2 0.070111 0.393683 0.652079
Si Si3 0.929889 0.893683 0.347921
Si Si4 0.074222 0.391212 0.941763
Si Si5 0.571487 0.250000 0.861373
Si Si6 0.428570 0.250000 0.559648
Si Si7 0.428661 0.750000 0.267218
O O1 0.250000 0.129492 0.943371
O O2 0.996088 0.163283 0.893027
O O3 0.055927 0.000000 0.934740
O O4 0.000000 0.134148 0.000000
O O5 0.250000 0.387675 0.657782
O O6 0.028293 0.500000 0.650296
O O7 0.029923 0.338246 0.596585
O O8 0.995550 0.338080 0.701713
O O9 0.750000 0.887675 0.342218
O O10 0.970077 0.838246 0.403415
O O11 0.004450 0.838080 0.298287
O O12 0.971707 0.000000 0.349704
O O13 0.250000 0.370508 0.943371
O O14 0.055927 0.500000 0.934740
O O15 0.996088 0.336717 0.893027
O O16 0.000000 0.365852 0.000000
O O17 0.750000 0.250000 0.866405
O O18 0.532460 0.250000 0.797073
O O19 0.500000 0.250000 0.500000
O O20 0.250000 0.250000 0.553884
O O21 0.250000 0.750000 0.272549
#
# Coordination Sequence:
#
# PCOD9406018 Si02
#       7
#     8   8   8   8   8   8   8
#     4  10  21  37  57  80 106 137 174 216 262 314
#     4   9  19  37  58  77 103 142 181 217 261 311
#     4   9  19  37  58  77 103 142 181 217 261 311
#     4  10  21  37  57  80 106 137 174 216 262 314
#     4  11  23  37  54  77 108 142 173 213 265 317
#     4   9  18  32  51  79 112 141 173 214 258 308
#     4  10  22  37  53  78 108 137 174 221 268 311
#
# _framework density 17.542712999999999
#
# number of rings (size 3 to 8) (size 9 to 14) (size 15 to 20)
#    0.000    2.286    0.000    3.000    0.000    8.571 
#    0.000    5.714    0.000    0.000    0.000    0.000 
#    0.000    0.000    0.000    0.000    0.000    0.000 
#
# Total GULP energy -312623.405864 kJ/mol
# GULP energy per Si atom -5582.560819 kJ/mol
# Density = 1.750279 g / cm^3
# Si number density = 17.542713 Si / 1000 Ang^3
#
#
#
# Elastic Constant Matrix: (Units=GPa)
#
#
# Indices 1 2 3 4 5 6 
#
# 1 64.4475 56.4695 78.9785 0.0000 0.0000 0.0000
# 2 56.4695 155.2705 100.5450 0.0000 0.0000 0.0000
# 3 78.9785 100.5450 200.0464 0.0000 0.0000 0.0000
# 4 0.0000 0.0000 0.0000 10.9435 0.0000 0.0000
# 5 0.0000 0.0000 0.0000 0.0000 36.0044 0.0000
# 6 0.0000 0.0000 0.0000 0.0000 0.0000 28.1413
#
#
#
# Elastic Compliance Matrix: (Units=1/GPa)
#
#
# Indices 1 2 3 4 5 6 
#
# 1 0.032701 -0.005237 -0.010278 0.000000 0.000000 0.000000
# 2 -0.005237 0.010387 -0.003153 0.000000 0.000000 0.000000
# 3 -0.010278 -0.003153 0.010641 0.000000 0.000000 0.000000
# 4 0.000000 0.000000 0.000000 0.091379 0.000000 0.000000
# 5 0.000000 0.000000 0.000000 0.000000 0.027774 0.000000
# 6 0.000000 0.000000 0.000000 0.000000 0.000000 0.035535
#
#
# Mechanical properties :
#
#
# Convention : Reuss Voigt Hill
#
# Bulk Modulus (GPa) = 61.00300 99.08339 80.04320
# Shear Modulus (GPa) = 19.90310 27.26926 23.58618
#
# Velocity S-wave (km/s) = 3.37196 3.94693 3.67072
# Velocity P-wave (km/s) = 7.07175 8.79630 7.98074
#
# Compressibility (1/GPa) = 0.01639264
#
# Stress axis : x y z
#
# Youngs Moduli (GPa) = 30.58014 96.27755 93.97431
#
# Poissons Ratio (x) = 0.50424 0.96587
# Poissons Ratio (y) = 0.16016 0.29627
# Poissons Ratio (z) = 0.31430 0.30354
#
# Static dielectric constant tensor:
#      x y z
#    x 1.584670 0.000000 0.000000 
#    y 0.000000 1.598850 0.000000 
#    z 0.000000 0.000000 1.560970 
# 
# From -- ./inp_files/31948.got.cif
#   From: 2010.05.17/outbox.cif.g08.bks.cpg/sg51_16_cif.got.tgz:31948.got - 2010.06.03 11:52:47.
