data_PCOD9406601
_publ_section_title
;
Structure prediction by ZEFSAII (Michael W. Deem and Ramdas Pophale) SiO2 
 PCOD9406601
Probable space group: P M M A
;
_chemical_formula_sum "Si O2"
_cell_formula_units_Z 38
_cell_length_a 8.805308
_cell_length_b 10.066416
_cell_length_c 23.924784
_cell_angle_alpha 90.000000
_cell_angle_beta 90.000000
_cell_angle_gamma 90.000000
_cell_volume 2120.642452
_symmetry_space_group_name_H-M "P M M A"
_symmetry_group_IT_number 51
_symmetry_cell_setting 'orthorhombic'
loop_
_space_group_symop_operation_xyz
x,y,z
1/2-x,-y,z
1/2+x,-y,-z
-x,y,-z
-x,-y,-z
1/2+x,y,-z
1/2-x,y,z
x,-y,z
loop_
_atom_site_type_symbol
_atom_site_label
_atom_site_fract_x
_atom_site_fract_y
_atom_site_fract_z
Si Si1 0.419016 0.772006 0.363804
Si Si2 0.569101 0.000000 0.061568
Si Si3 0.932415 0.760346 0.868325
Si Si4 0.250000 0.500000 0.385304
Si Si5 0.431751 0.500000 0.061968
Si Si6 0.568168 0.158321 0.248037
Si Si7 0.067639 0.000000 0.562044
O O1 0.250000 0.831658 0.355611
O O2 0.381136 0.620932 0.382816
O O3 0.504977 0.778759 0.304868
O O4 0.508018 0.867971 0.406176
O O5 0.508702 0.124601 0.095833
O O6 0.750000 0.000000 0.058642
O O7 0.500000 0.000000 0.000000
O O8 0.750000 0.774363 0.867853
O O9 0.973478 0.626600 0.900894
O O10 0.993581 0.772299 0.805559
O O11 0.250000 0.500000 0.055342
O O12 0.500000 0.500000 0.000000
O O13 0.750000 0.169998 0.245419
O O14 0.531627 0.000000 0.247191
O O15 0.000000 0.000000 0.500000
O O16 0.250000 0.000000 0.561348
#
# Coordination Sequence:
#
# PCOD9406601 Si02
#       7
#     8   4   8   2   4   8   4
#     4  10  21  42  67  98 134 179 224 276 333 394
#     4  12  24  39  58  83 112 148 194 254 310 380
#     4  11  23  40  61  88 118 155 206 257 318 392
#     4   8  24  40  68  96 138 180 226 258 346 390
#     4  10  24  43  62  86 116 157 204 257 320 391
#     4  11  22  37  62  97 129 164 211 271 328 385
#     4  12  24  41  72 107 136 182 240 288 328 388
#
# _framework density 17.919098999999999
#
# number of rings (size 3 to 8) (size 9 to 14) (size 15 to 20)
#    0.632    0.632    2.105    4.421    0.000    5.053 
#    1.895    3.684    0.000    0.000    0.000    0.000 
#    0.000    0.000    0.000    0.000    0.000    0.000 
#
# Total GULP energy -211538.210744 kJ/mol
# GULP energy per Si atom -5566.795020 kJ/mol
# Density = 1.787831 g / cm^3
# Si number density = 17.919099 Si / 1000 Ang^3
#
#
#
# Elastic Constant Matrix: (Units=GPa)
#
#
# Indices 1 2 3 4 5 6 
#
# 1 110.2147 66.0252 57.9916 0.0000 0.0000 0.0000
# 2 66.0252 170.1144 73.9811 0.0000 0.0000 0.0000
# 3 57.9916 73.9811 154.1867 0.0000 0.0000 0.0000
# 4 0.0000 0.0000 0.0000 22.0855 0.0000 0.0000
# 5 0.0000 0.0000 0.0000 0.0000 35.3685 0.0000
# 6 0.0000 0.0000 0.0000 0.0000 0.0000 46.6122
#
#
#
# Elastic Compliance Matrix: (Units=1/GPa)
#
#
# Indices 1 2 3 4 5 6 
#
# 1 0.012893 -0.003659 -0.003094 0.000000 0.000000 0.000000
# 2 -0.003659 0.008467 -0.002686 0.000000 0.000000 0.000000
# 3 -0.003094 -0.002686 0.008938 0.000000 0.000000 0.000000
# 4 0.000000 0.000000 0.000000 0.045279 0.000000 0.000000
# 5 0.000000 0.000000 0.000000 0.000000 0.028274 0.000000
# 6 0.000000 0.000000 0.000000 0.000000 0.000000 0.021454
#
#
# Mechanical properties :
#
#
# Convention : Reuss Voigt Hill
#
# Bulk Modulus (GPa) = 87.56347 92.27906 89.92126
# Shear Modulus (GPa) = 33.78666 36.58111 35.18388
#
# Velocity S-wave (km/s) = 4.34696 4.52315 4.43593
# Velocity P-wave (km/s) = 8.61202 8.88189 8.74799
#
# Compressibility (1/GPa) = 0.01142029
#
# Stress axis : x y z
#
# Youngs Moduli (GPa) = 77.56341 118.11057 111.87942
#
# Poissons Ratio (x) = 0.43211 0.34612
# Poissons Ratio (y) = 0.28377 0.30055
# Poissons Ratio (z) = 0.23996 0.31729
#
# Static dielectric constant tensor:
#      x y z
#    x 1.603460 0.000000 0.000000 
#    y 0.000000 1.580770 0.000000 
#    z 0.000000 0.000000 1.595000 
# 
# From -- ./inp_files/34423.got.cif
#   From: 2010.05.17/outbox.cif.g08.bks.cpg/sg51_18_cif.got.tgz:34423.got - 2010.06.03 11:52:47.
