data_PCOD9406261
_publ_section_title
;
Structure prediction by ZEFSAII (Michael W. Deem and Ramdas Pophale) SiO2 
 PCOD9406261
Probable space group: P M M A
;
_chemical_formula_sum "Si O2"
_cell_formula_units_Z 64
_cell_length_a 8.506468
_cell_length_b 15.467476
_cell_length_c 24.525404
_cell_angle_alpha 90.000000
_cell_angle_beta 90.000000
_cell_angle_gamma 90.000000
_cell_volume 3226.895442
_symmetry_space_group_name_H-M "P M M A"
_symmetry_group_IT_number 51
_symmetry_cell_setting 'orthorhombic'
loop_
_space_group_symop_operation_xyz
x,y,z
1/2-x,-y,z
1/2+x,-y,-z
-x,y,-z
-x,-y,-z
1/2+x,y,-z
1/2-x,y,z
x,-y,z
loop_
_atom_site_type_symbol
_atom_site_label
_atom_site_fract_x
_atom_site_fract_y
_atom_site_fract_z
Si Si1 0.429443 0.104390 0.058676
Si Si2 0.434027 0.656896 0.171792
Si Si3 0.430133 0.403020 0.724081
Si Si4 0.061961 0.401631 0.561171
Si Si5 0.560525 0.096334 0.711567
Si Si6 0.063937 0.158293 0.824123
Si Si7 0.931794 0.267298 0.648497
Si Si8 0.561934 0.400325 0.944705
O O1 0.250000 0.137154 0.063516
O O2 0.519258 0.126545 0.114936
O O3 0.425444 0.000000 0.056282
O O4 0.500000 0.133163 0.000000
O O5 0.250000 0.633443 0.175884
O O6 0.536560 0.599653 0.211959
O O7 0.464498 0.755406 0.186369
O O8 0.487514 0.646413 0.109801
O O9 0.250000 0.377730 0.712266
O O10 0.453754 0.500000 0.703614
O O11 0.546950 0.334665 0.698016
O O12 0.250000 0.403366 0.561292
O O13 0.008216 0.500000 0.577527
O O14 0.000000 0.388118 0.500000
O O15 0.009778 0.322436 0.599704
O O16 0.750000 0.105916 0.718319
O O17 0.483065 0.101373 0.771673
O O18 0.507006 0.175205 0.672006
O O19 0.530321 0.000000 0.689026
O O20 0.250000 0.175208 0.822390
O O21 0.750000 0.254678 0.634431
O O22 0.750000 0.401105 0.946654
O O23 0.506850 0.500000 0.941738
O O24 0.500000 0.360062 0.000000
#
# Coordination Sequence:
#
# PCOD9406261 Si02
#       8
#     8   8   8   8   8   8   8   8
#     4  10  21  38  59  81 106 137 178 232 296 368
#     4  11  22  37  55  76 106 143 186 237 290 350
#     4  11  23  37  55  83 119 156 193 240 297 355
#     4  10  21  38  62  94 134 176 215 256 300 351
#     4  10  22  41  63  87 118 159 206 256 310 366
#     4  12  24  37  56  82 113 147 189 242 303 369
#     4  11  22  37  61  91 124 164 207 252 300 354
#     4   9  19  35  54  74  96 128 174 226 280 342
#
# _framework density 19.833304999999999
#
# number of rings (size 3 to 8) (size 9 to 14) (size 15 to 20)
#    0.000    1.500    1.250    4.125    0.000    8.250 
#    0.000    2.500    0.000    0.375    0.000    0.000 
#    0.000    0.000    0.000    0.000    0.000    0.000 
#
# Total GULP energy -357171.245938 kJ/mol
# GULP energy per Si atom -5580.800718 kJ/mol
# Density = 1.978816 g / cm^3
# Si number density = 19.833305 Si / 1000 Ang^3
#
#
#
# Elastic Constant Matrix: (Units=GPa)
#
#
# Indices 1 2 3 4 5 6 
#
# 1 36.1674 12.1039 24.0083 0.0000 0.0000 0.0000
# 2 12.1039 92.4006 44.8243 0.0000 0.0000 0.0000
# 3 24.0083 44.8243 125.9260 0.0000 0.0000 0.0000
# 4 0.0000 0.0000 0.0000 29.4519 0.0000 0.0000
# 5 0.0000 0.0000 0.0000 0.0000 33.3748 0.0000
# 6 0.0000 0.0000 0.0000 0.0000 0.0000 21.1335
#
#
#
# Elastic Compliance Matrix: (Units=1/GPa)
#
#
# Indices 1 2 3 4 5 6 
#
# 1 0.031822 -0.001481 -0.005540 0.000000 0.000000 0.000000
# 2 -0.001481 0.013150 -0.004399 0.000000 0.000000 0.000000
# 3 -0.005540 -0.004399 0.010563 0.000000 0.000000 0.000000
# 4 0.000000 0.000000 0.000000 0.033954 0.000000 0.000000
# 5 0.000000 0.000000 0.000000 0.000000 0.029963 0.000000
# 6 0.000000 0.000000 0.000000 0.000000 0.000000 0.047318
#
#
# Mechanical properties :
#
#
# Convention : Reuss Voigt Hill
#
# Bulk Modulus (GPa) = 30.58422 46.26301 38.42361
# Shear Modulus (GPa) = 24.93665 28.36253 26.64959
#
# Velocity S-wave (km/s) = 3.54971 3.78570 3.66960
# Velocity P-wave (km/s) = 5.67932 6.51807 6.11310
#
# Compressibility (1/GPa) = 0.03269660
#
# Stress axis : x y z
#
# Youngs Moduli (GPa) = 31.42454 76.04435 94.66946
#
# Poissons Ratio (x) = 0.11263 0.52446
# Poissons Ratio (y) = 0.04654 0.41641
# Poissons Ratio (z) = 0.17409 0.33448
#
# Static dielectric constant tensor:
#      x y z
#    x 1.680470 0.000000 0.000000 
#    y 0.000000 1.753440 0.000000 
#    z 0.000000 0.000000 1.718460 
# 
# From -- ./inp_files/34992.got.cif
#   From: 2010.05.17/outbox.cif.g08.bks.cpg/sg51_18_cif.got.tgz:34992.got - 2010.06.03 11:52:47.
