data_PCOD9406995
_publ_section_title
;
Structure prediction by ZEFSAII (Michael W. Deem and Ramdas Pophale) SiO2 
 PCOD9406995
Probable space group: P M M A
;
_chemical_formula_sum "Si O2"
_cell_formula_units_Z 40
_cell_length_a 8.451953
_cell_length_b 19.497253
_cell_length_c 14.101761
_cell_angle_alpha 90.000000
_cell_angle_beta 90.000000
_cell_angle_gamma 90.000000
_cell_volume 2323.827305
_symmetry_space_group_name_H-M "P M M A"
_symmetry_group_IT_number 51
_symmetry_cell_setting 'orthorhombic'
loop_
_space_group_symop_operation_xyz
x,y,z
1/2-x,-y,z
1/2+x,-y,-z
-x,y,-z
-x,-y,-z
1/2+x,y,-z
1/2-x,y,z
x,-y,z
loop_
_atom_site_type_symbol
_atom_site_label
_atom_site_fract_x
_atom_site_fract_y
_atom_site_fract_z
Si Si1 0.441187 0.576739 0.210292
Si Si2 0.559566 0.711991 0.895960
Si Si3 0.941215 0.923249 0.607084
Si Si4 0.438242 0.349384 0.604629
Si Si5 0.441760 0.214612 0.294206
O O1 0.250000 0.577058 0.209504
O O2 0.496411 0.500000 0.187721
O O3 0.494734 0.636179 0.138008
O O4 0.495361 0.600059 0.314637
O O5 0.750000 0.711700 0.897484
O O6 0.509420 0.763493 0.811884
O O7 0.500000 0.728899 0.000000
O O8 0.750000 0.922768 0.606196
O O9 0.994235 0.860487 0.672785
O O10 0.000000 0.911788 0.500000
O O11 0.992873 0.000000 0.636288
O O12 0.500000 0.365654 0.500000
O O13 0.250000 0.351686 0.605633
O O14 0.495212 0.273439 0.635665
O O15 0.250000 0.217270 0.297818
#
# Coordination Sequence:
#
# PCOD9406995 Si02
#       5
#     8   8   8   8   8
#     4   9  19  36  53  69  93 123 155 194 239 285
#     4   9  18  32  50  71  93 120 155 196 240 283
#     4   9  17  29  47  72 100 129 159 191 230 276
#     4  11  21  32  48  70  96 127 162 196 232 278
#     4   9  18  33  50  69  96 127 160 198 237 279
#
# _framework density 17.212983999999999
#
# number of rings (size 3 to 8) (size 9 to 14) (size 15 to 20)
#    0.000    2.600    0.000    3.600    0.000    6.800 
#    0.000    0.000    0.000    0.600    0.000    0.000 
#    0.000    0.000    0.000    0.000    0.000    0.400 
#
# Total GULP energy -223057.779939 kJ/mol
# GULP energy per Si atom -5576.444498 kJ/mol
# Density = 1.717381 g / cm^3
# Si number density = 17.212984 Si / 1000 Ang^3
#
#
#
# Elastic Constant Matrix: (Units=GPa)
#
#
# Indices 1 2 3 4 5 6 
#
# 1 6.0396 12.2145 2.1902 0.0000 0.0000 0.0000
# 2 12.2145 125.3085 34.7717 0.0000 0.0000 0.0000
# 3 2.1902 34.7717 69.7127 0.0000 0.0000 0.0000
# 4 0.0000 0.0000 0.0000 9.9387 0.0000 0.0000
# 5 0.0000 0.0000 0.0000 0.0000 26.8610 0.0000
# 6 0.0000 0.0000 0.0000 0.0000 0.0000 16.4630
#
#
#
# Elastic Compliance Matrix: (Units=1/GPa)
#
#
# Indices 1 2 3 4 5 6 
#
# 1 0.207251 -0.021350 0.004138 0.000000 0.000000 0.000000
# 2 -0.021350 0.011462 -0.005046 0.000000 0.000000 0.000000
# 3 0.004138 -0.005046 0.016732 0.000000 0.000000 0.000000
# 4 0.000000 0.000000 0.000000 0.100616 0.000000 0.000000
# 5 0.000000 0.000000 0.000000 0.000000 0.037229 0.000000
# 6 0.000000 0.000000 0.000000 0.000000 0.000000 0.060742
#
#
# Mechanical properties :
#
#
# Convention : Reuss Voigt Hill
#
# Bulk Modulus (GPa) = 5.23759 33.26819 19.25289
# Shear Modulus (GPa) = 9.22184 20.77817 15.00000
#
# Velocity S-wave (km/s) = 2.31714 3.47814 2.95521
# Velocity P-wave (km/s) = 3.19503 5.95812 4.78056
#
# Compressibility (1/GPa) = 0.19092754
#
# Stress axis : x y z
#
# Youngs Moduli (GPa) = 4.82506 87.24731 59.76735
#
# Poissons Ratio (x) = 1.86274 -0.24731
# Poissons Ratio (y) = 0.10302 0.30160
# Poissons Ratio (z) = -0.01997 0.44026
#
# Static dielectric constant tensor:
#      x y z
#    x 1.587960 0.000000 0.000000 
#    y 0.000000 1.602680 0.000000 
#    z 0.000000 0.000000 1.554510 
# 
# From -- ./inp_files/14029.got.cif
#   From: 2010.05.17/outbox.cif.g08.bks.cpg/sg51_8_cif.got.tgz:14029.got - 2010.06.03 11:52:47.
