data_PCOD9406916
_publ_section_title
;
Structure prediction by ZEFSAII (Michael W. Deem and Ramdas Pophale) SiO2 
 PCOD9406916
Probable space group: P M M A
;
_chemical_formula_sum "Si O2"
_cell_formula_units_Z 36
_cell_length_a 18.514772
_cell_length_b 9.616649
_cell_length_c 9.151633
_cell_angle_alpha 90.000000
_cell_angle_beta 90.000000
_cell_angle_gamma 90.000000
_cell_volume 1629.448838
_symmetry_space_group_name_H-M "P M M A"
_symmetry_group_IT_number 51
_symmetry_cell_setting 'orthorhombic'
loop_
_space_group_symop_operation_xyz
x,y,z
1/2-x,-y,z
1/2+x,-y,-z
-x,y,-z
-x,-y,-z
1/2+x,y,-z
1/2-x,y,z
x,-y,z
loop_
_atom_site_type_symbol
_atom_site_label
_atom_site_fract_x
_atom_site_fract_y
_atom_site_fract_z
Si Si1 0.750000 0.000000 0.632233
Si Si2 0.035587 0.661708 0.264242
Si Si3 0.250000 0.500000 0.477948
Si Si4 0.103894 0.838923 0.799906
Si Si5 0.355195 0.766118 0.475469
Si Si6 0.830725 0.343766 0.959501
O O1 0.812676 0.121410 0.619674
O O2 0.015523 0.500000 0.286193
O O3 0.066897 0.733738 0.408185
O O4 0.968908 0.747276 0.200038
O O5 0.104709 0.664863 0.155717
O O6 0.312297 0.621994 0.478173
O O7 0.138205 0.823859 0.639477
O O8 0.156896 0.771389 0.918527
O O9 0.089435 0.000000 0.831503
O O10 0.750000 0.332207 0.893756
O O11 0.834645 0.500000 0.025503
#
# Coordination Sequence:
#
# PCOD9406916 Si02
#       6
#     2   8   2   8   8   8
#     4  10  24  42  62 100 144 172 208 272 340 378
#     4  11  25  45  69  99 132 171 223 276 325 387
#     4  10  24  38  70 104 132 164 224 276 332 374
#     4  12  27  44  64  97 138 177 218 266 327 398
#     4  11  24  42  70  99 135 173 219 272 328 392
#     4  10  25  45  71  96 128 169 220 275 331 386
#
# _framework density 22.093359
#
# number of rings (size 3 to 8) (size 9 to 14) (size 15 to 20)
#    0.000    1.111    2.222    2.000   10.889    5.778 
#    0.000    0.000    0.000    0.000    0.000    0.000 
#    0.000    0.000    0.000    0.000    0.000    0.000 
#
# Total GULP energy -200426.071845 kJ/mol
# GULP energy per Si atom -5567.390885 kJ/mol
# Density = 2.204307 g / cm^3
# Si number density = 22.093359 Si / 1000 Ang^3
#
#
#
# Elastic Constant Matrix: (Units=GPa)
#
#
# Indices 1 2 3 4 5 6 
#
# 1 109.8590 49.6465 -11.5552 0.0000 0.0000 0.0000
# 2 49.6465 198.9616 10.9191 0.0000 0.0000 0.0000
# 3 -11.5552 10.9191 32.0666 0.0000 0.0000 0.0000
# 4 0.0000 0.0000 0.0000 3.6880 0.0000 0.0000
# 5 0.0000 0.0000 0.0000 0.0000 -5.6344 0.0000
# 6 0.0000 0.0000 0.0000 0.0000 0.0000 37.2822
#
#
#
# Elastic Compliance Matrix: (Units=1/GPa)
#
#
# Indices 1 2 3 4 5 6 
#
# 1 0.010990 -0.003016 0.004987 0.000000 0.000000 0.000000
# 2 -0.003016 0.005950 -0.003113 0.000000 0.000000 0.000000
# 3 0.004987 -0.003113 0.034042 0.000000 0.000000 0.000000
# 4 0.000000 0.000000 0.000000 0.271149 0.000000 0.000000
# 5 0.000000 0.000000 0.000000 0.000000 -0.177483 0.000000
# 6 0.000000 0.000000 0.000000 0.000000 0.000000 0.026822
#
#
# Mechanical properties :
#
#
# Convention : Reuss Voigt Hill
#
# Bulk Modulus (GPa) = 20.53435 48.76753 34.65094
# Shear Modulus (GPa) = 26.31771 26.52564 26.42168
#
# Velocity S-wave (km/s) = 3.45513 3.46875 3.46195
# Velocity P-wave (km/s) = 5.02312 6.17772 5.63010
#
# Compressibility (1/GPa) = 0.04869889
#
# Stress axis : x y z
#
# Youngs Moduli (GPa) = 90.99063 168.08099 29.37534
#
# Poissons Ratio (x) = 0.50694 -0.14650
# Poissons Ratio (y) = 0.27443 0.09144
# Poissons Ratio (z) = -0.45380 0.52319
#
# Static dielectric constant tensor:
#      x y z
#    x 1.827370 0.000000 0.000000 
#    y 0.000000 1.751090 0.000000 
#    z 0.000000 0.000000 1.868730 
# 
# From -- ./inp_files/10455.got.cif
#   From: 2010.05.17/outbox.cif.g08.bks.cpg/sg51_6_cif.got.tgz:10455.got - 2010.06.03 11:52:47.
