data_PCOD9406504
_publ_section_title
;
Structure prediction by ZEFSAII (Michael W. Deem and Ramdas Pophale) SiO2 
 PCOD9406504
Probable space group: P M M A
;
_chemical_formula_sum "Si O2"
_cell_formula_units_Z 48
_cell_length_a 16.241149
_cell_length_b 8.889990
_cell_length_c 17.290837
_cell_angle_alpha 90.000000
_cell_angle_beta 90.000000
_cell_angle_gamma 90.000000
_cell_volume 2496.514196
_symmetry_space_group_name_H-M "P M M A"
_symmetry_group_IT_number 51
_symmetry_cell_setting 'orthorhombic'
loop_
_space_group_symop_operation_xyz
x,y,z
1/2-x,-y,z
1/2+x,-y,-z
-x,y,-z
-x,-y,-z
1/2+x,y,-z
1/2-x,y,z
x,-y,z
loop_
_atom_site_type_symbol
_atom_site_label
_atom_site_fract_x
_atom_site_fract_y
_atom_site_fract_z
Si Si1 0.155349 0.820862 0.310797
Si Si2 0.413401 0.681521 0.461233
Si Si3 0.750000 0.819000 0.273097
Si Si4 0.847731 0.676450 0.001393
Si Si5 0.077356 0.320027 0.162927
Si Si6 0.250000 0.318568 0.556823
Si Si7 0.099561 0.820458 0.838575
O O1 0.250000 0.785590 0.331323
O O2 0.097793 0.750815 0.376564
O O3 0.135046 0.752037 0.227662
O O4 0.145353 0.000000 0.308335
O O5 0.500000 0.725762 0.500000
O O6 0.412361 0.500000 0.455257
O O7 0.333468 0.727544 0.511837
O O8 0.750000 0.745786 0.356988
O O9 0.830063 0.776912 0.222741
O O10 0.750000 0.000000 0.280921
O O11 0.750000 0.687533 0.987709
O O12 0.867318 0.500000 0.016750
O O13 0.894994 0.723176 0.923750
O O14 0.871696 0.771855 0.075997
O O15 0.081796 0.500000 0.167848
O O16 0.985682 0.262021 0.177943
O O17 0.250000 0.500000 0.560045
O O18 0.088556 0.000000 0.835290
#
# Coordination Sequence:
#
# PCOD9406504 Si02
#       7
#     8   8   4   8   8   4   8
#     4  11  24  42  64  93 126 162 204 250 307 368
#     4  10  22  41  65  94 125 161 205 252 309 372
#     4  10  24  42  60  85 122 161 198 247 308 367
#     4  10  21  39  62  88 119 160 206 250 303 366
#     4  11  24  40  62  91 123 161 207 256 305 359
#     4  10  22  40  64  93 124 159 206 257 304 363
#     4  11  23  41  61  88 123 162 204 252 311 367
#
# _framework density 19.226808999999999
#
# number of rings (size 3 to 8) (size 9 to 14) (size 15 to 20)
#    0.000    1.500    1.667    2.500    2.333    7.333 
#    0.000    0.000    0.000    0.000    0.000    0.000 
#    0.000    0.000    0.000    0.000    0.000    0.000 
#
# Total GULP energy -268354.427511 kJ/mol
# GULP energy per Si atom -5590.717240 kJ/mol
# Density = 1.918305 g / cm^3
# Si number density = 19.226809 Si / 1000 Ang^3
#
#
#
# Elastic Constant Matrix: (Units=GPa)
#
#
# Indices 1 2 3 4 5 6 
#
# 1 78.6783 17.0794 15.7701 0.0000 0.0000 0.0000
# 2 17.0794 8.7800 15.2933 0.0000 0.0000 0.0000
# 3 15.7701 15.2933 94.3407 0.0000 0.0000 0.0000
# 4 0.0000 0.0000 0.0000 59.7623 0.0000 0.0000
# 5 0.0000 0.0000 0.0000 0.0000 -24.4885 0.0000
# 6 0.0000 0.0000 0.0000 0.0000 0.0000 25.6673
#
#
#
# Elastic Compliance Matrix: (Units=1/GPa)
#
#
# Indices 1 2 3 4 5 6 
#
# 1 0.023492 -0.054147 0.004851 0.000000 0.000000 0.000000
# 2 -0.054147 0.283511 -0.036908 0.000000 0.000000 0.000000
# 3 0.004851 -0.036908 0.015772 0.000000 0.000000 0.000000
# 4 0.000000 0.000000 0.000000 0.016733 0.000000 0.000000
# 5 0.000000 0.000000 0.000000 0.000000 -0.040835 0.000000
# 6 0.000000 0.000000 0.000000 0.000000 0.000000 0.038960
#
#
# Mechanical properties :
#
#
# Convention : Reuss Voigt Hill
#
# Bulk Modulus (GPa) = 6.65040 30.89831 18.77436
# Shear Modulus (GPa) = 8.92599 21.09864 15.01231
#
# Velocity S-wave (km/s) = 2.15698 3.31623 2.79731
# Velocity P-wave (km/s) = 3.10963 5.54693 4.49657
#
# Compressibility (1/GPa) = 0.15036688
#
# Stress axis : x y z
#
# Youngs Moduli (GPa) = 42.56798 3.52720 63.40313
#
# Poissons Ratio (x) = 0.19099 -0.30754
# Poissons Ratio (y) = 2.30491 2.34008
# Poissons Ratio (z) = -0.20648 0.13018
#
# Static dielectric constant tensor:
#      x y z
#    x 1.673350 0.000000 0.000000 
#    y 0.000000 1.639770 0.000000 
#    z 0.000000 0.000000 1.633770 
# 
# From -- ./inp_files/24947.got.cif
#   From: 2010.05.17/outbox.cif.g08.bks.cpg/sg51_13_cif.got.tgz:24947.got - 2010.06.03 11:52:47.
