data_PCOD9406249
_publ_section_title
;
Structure prediction by ZEFSAII (Michael W. Deem and Ramdas Pophale) SiO2 
 PCOD9406249
Probable space group: P M M A
;
_chemical_formula_sum "Si O2"
_cell_formula_units_Z 32
_cell_length_a 22.528669
_cell_length_b 11.285029
_cell_length_c 5.028374
_cell_angle_alpha 90.000000
_cell_angle_beta 90.000000
_cell_angle_gamma 90.000000
_cell_volume 1278.397127
_symmetry_space_group_name_H-M "P M M A"
_symmetry_group_IT_number 51
_symmetry_cell_setting 'orthorhombic'
loop_
_space_group_symop_operation_xyz
x,y,z
1/2-x,-y,z
1/2+x,-y,-z
-x,y,-z
-x,-y,-z
1/2+x,y,-z
1/2-x,y,z
x,-y,z
loop_
_atom_site_type_symbol
_atom_site_label
_atom_site_fract_x
_atom_site_fract_y
_atom_site_fract_z
Si Si1 0.653572 0.251360 0.726415
Si Si2 0.345591 0.000000 0.140563
Si Si3 0.576133 0.246421 0.234117
Si Si4 0.445377 0.500000 0.798847
Si Si5 0.186151 0.500000 0.056734
Si Si6 0.072547 0.000000 0.643281
O O1 0.634078 0.238840 0.422354
O O2 0.683576 0.377779 0.776564
O O3 0.683987 0.127037 0.805643
O O4 0.596296 0.254191 0.927153
O O5 0.401933 0.000000 0.345883
O O6 0.371065 0.000000 0.843990
O O7 0.549538 0.370668 0.326771
O O8 0.542008 0.124079 0.284227
O O9 0.500000 0.500000 0.000000
O O10 0.376210 0.500000 0.897381
O O11 0.250000 0.500000 0.909919
#
# Coordination Sequence:
#
# PCOD9406249 Si02
#       6
#     8   4   8   4   4   4
#     4   9  17  32  53  80 110 145 184 230 280 336
#     4   8  14  26  49  76 106 140 180 224 276 332
#     4   9  17  32  53  80 110 145 185 230 281 337
#     4  10  21  38  59  86 118 156 198 246 298 354
#     4  10  21  38  58  84 115 152 194 240 290 348
#     4   8  14  26  49  76 106 140 180 226 276 332
#
# _framework density 25.031347
#
# number of rings (size 3 to 8) (size 9 to 14) (size 15 to 20)
#    0.000    3.000    0.000    0.750    0.000    0.000 
#    0.000   21.250    0.000    0.000    0.000   49.000 
#    0.000    0.000    0.000    0.000    0.000    0.000 
#
# Total GULP energy -178279.576534 kJ/mol
# GULP energy per Si atom -5571.236767 kJ/mol
# Density = 2.497437 g / cm^3
# Si number density = 25.031347 Si / 1000 Ang^3
#
#
#
# Elastic Constant Matrix: (Units=GPa)
#
#
# Indices 1 2 3 4 5 6 
#
# 1 105.8851 26.4918 31.5895 0.0000 0.0000 0.0000
# 2 26.4918 321.8356 9.3324 0.0000 0.0000 0.0000
# 3 31.5895 9.3324 82.3312 0.0000 0.0000 0.0000
# 4 0.0000 0.0000 0.0000 54.7120 0.0000 0.0000
# 5 0.0000 0.0000 0.0000 0.0000 -3.9830 0.0000
# 6 0.0000 0.0000 0.0000 0.0000 0.0000 -38.6910
#
#
#
# Elastic Compliance Matrix: (Units=1/GPa)
#
#
# Indices 1 2 3 4 5 6 
#
# 1 0.010854 -0.000775 -0.004077 0.000000 0.000000 0.000000
# 2 -0.000775 0.003173 -0.000062 0.000000 0.000000 0.000000
# 3 -0.004077 -0.000062 0.013717 0.000000 0.000000 0.000000
# 4 0.000000 0.000000 0.000000 0.018278 0.000000 0.000000
# 5 0.000000 0.000000 0.000000 0.000000 -0.251067 0.000000
# 6 0.000000 0.000000 0.000000 0.000000 0.000000 -0.025846
#
#
# Mechanical properties :
#
#
# Convention : Reuss Voigt Hill
#
# Bulk Modulus (GPa) = 55.81603 71.65326 63.73465
# Shear Modulus (GPa) = -23.24606 31.91680 4.33537
#
# Velocity S-wave (km/s) = -3.05073 3.57469 1.31747
# Velocity P-wave (km/s) = 3.15240 6.76206 5.27556
#
# Compressibility (1/GPa) = 0.01791600
#
# Stress axis : x y z
#
# Youngs Moduli (GPa) = 92.12820 315.17950 72.90039
#
# Poissons Ratio (x) = 0.24435 0.29720
# Poissons Ratio (y) = 0.07142 0.00453
# Poissons Ratio (z) = 0.37559 0.01960
#
# Static dielectric constant tensor:
#      x y z
#    x 1.959690 0.000000 0.000000 
#    y 0.000000 2.188790 0.000000 
#    z 0.000000 0.000000 1.920500 
# 
# From -- ./inp_files/2900.got.cif
#   From: 2010.05.17/outbox.cif.g08.bks.cpg/sg51_2_cif.got.tgz:2900.got - 2010.06.03 11:52:47.
