data_PCOD9406246
_publ_section_title
;
Structure prediction by ZEFSAII (Michael W. Deem and Ramdas Pophale) SiO2 
 PCOD9406246
Probable space group: P M M A
;
_chemical_formula_sum "Si O2"
_cell_formula_units_Z 64
_cell_length_a 14.147286
_cell_length_b 23.969143
_cell_length_c 9.458520
_cell_angle_alpha 90.000000
_cell_angle_beta 90.000000
_cell_angle_gamma 90.000000
_cell_volume 3207.368253
_symmetry_space_group_name_H-M "P M M A"
_symmetry_group_IT_number 51
_symmetry_cell_setting 'orthorhombic'
loop_
_space_group_symop_operation_xyz
x,y,z
1/2-x,-y,z
1/2+x,-y,-z
-x,y,-z
-x,-y,-z
1/2+x,y,-z
1/2-x,y,z
x,-y,z
loop_
_atom_site_type_symbol
_atom_site_label
_atom_site_fract_x
_atom_site_fract_y
_atom_site_fract_z
Si Si1 0.862936 0.870533 0.236292
Si Si2 0.024857 0.060911 0.332897
Si Si3 0.638565 0.837673 0.562919
Si Si4 0.364718 0.270422 0.276969
Si Si5 0.864172 0.230526 0.035685
Si Si6 0.638306 0.561520 0.886847
Si Si7 0.862564 0.352120 0.133851
Si Si8 0.020660 0.383741 0.337793
O O1 0.750000 0.882257 0.221205
O O2 0.932257 0.923589 0.241708
O O3 0.877564 0.846559 0.395823
O O4 0.893487 0.825022 0.119297
O O5 0.000000 0.056384 0.500000
O O6 0.091967 0.114881 0.338852
O O7 0.063626 0.000000 0.291090
O O8 0.750000 0.842033 0.586204
O O9 0.610000 0.775959 0.607476
O O10 0.250000 0.279990 0.274861
O O11 0.418635 0.327253 0.310429
O O12 0.391003 0.242116 0.126492
O O13 0.750000 0.228019 0.036922
O O14 0.890514 0.287674 0.114439
O O15 0.750000 0.566064 0.857336
O O16 0.621013 0.500000 0.949539
O O17 0.579162 0.569610 0.745430
O O18 0.614505 0.611362 0.994840
O O19 0.750000 0.354841 0.153352
O O20 0.920601 0.376707 0.261502
O O21 0.000000 0.393850 0.500000
#
# Coordination Sequence:
#
# PCOD9406246 Si02
#       8
#     8   8   8   8   8   8   8   8
#     4   9  18  32  53  80 107 141 185 239 295 345
#     4   9  18  32  51  76 109 146 186 235 284 350
#     4   9  19  33  51  77 109 146 187 235 288 349
#     4  10  21  38  58  82 118 156 196 242 298 362
#     4   9  18  34  56  80 111 146 190 242 291 348
#     4  10  22  45  72  92 119 161 207 254 298 349
#     4  10  22  40  60  89 121 159 208 250 293 351
#     4  12  26  37  59  94 128 164 198 247 305 365
#
# _framework density 19.954053999999999
#
# number of rings (size 3 to 8) (size 9 to 14) (size 15 to 20)
#    0.000    2.250    1.250    0.750    3.500    3.250 
#    0.000    2.500    0.000    3.000    0.000    3.500 
#    0.000    0.000    0.000    0.000    0.000    0.000 
#
# Total GULP energy -357095.653593 kJ/mol
# GULP energy per Si atom -5579.619587 kJ/mol
# Density = 1.990864 g / cm^3
# Si number density = 19.954054 Si / 1000 Ang^3
#
#
#
# Elastic Constant Matrix: (Units=GPa)
#
#
# Indices 1 2 3 4 5 6 
#
# 1 58.3050 13.7584 14.9914 0.0000 0.0000 0.0000
# 2 13.7584 65.5387 -13.2868 0.0000 0.0000 0.0000
# 3 14.9914 -13.2868 47.3902 0.0000 0.0000 0.0000
# 4 0.0000 0.0000 0.0000 25.8825 0.0000 0.0000
# 5 0.0000 0.0000 0.0000 0.0000 9.8623 0.0000
# 6 0.0000 0.0000 0.0000 0.0000 0.0000 26.6280
#
#
#
# Elastic Compliance Matrix: (Units=1/GPa)
#
#
# Indices 1 2 3 4 5 6 
#
# 1 0.020685 -0.006011 -0.008229 0.000000 0.000000 0.000000
# 2 -0.006011 0.017924 0.006927 0.000000 0.000000 0.000000
# 3 -0.008229 0.006927 0.025647 0.000000 0.000000 0.000000
# 4 0.000000 0.000000 0.000000 0.038636 0.000000 0.000000
# 5 0.000000 0.000000 0.000000 0.000000 0.101396 0.000000
# 6 0.000000 0.000000 0.000000 0.000000 0.000000 0.037554
#
#
# Mechanical properties :
#
#
# Convention : Reuss Voigt Hill
#
# Bulk Modulus (GPa) = 20.14874 22.46221 21.30547
# Shear Modulus (GPa) = 18.31421 22.85928 20.58675
#
# Velocity S-wave (km/s) = 3.03284 3.38834 3.21551
# Velocity P-wave (km/s) = 4.73114 5.15647 4.94837
#
# Compressibility (1/GPa) = 0.04963089
#
# Stress axis : x y z
#
# Youngs Moduli (GPa) = 48.34341 55.79038 38.99155
#
# Poissons Ratio (x) = 0.33534 0.32085
# Poissons Ratio (y) = 0.29058 -0.27009
# Poissons Ratio (z) = 0.39781 -0.38645
#
# Static dielectric constant tensor:
#      x y z
#    x 1.734330 0.000000 0.000000 
#    y 0.000000 1.704570 0.000000 
#    z 0.000000 0.000000 1.690730 
# 
# From -- ./inp_files/8694.got.cif
#   From: 2010.05.17/outbox.cif.g08.bks.cpg/sg51_5_cif.got.tgz:8694.got - 2010.06.03 11:52:47.
