data_PCOD9406682
_publ_section_title
;
Structure prediction by ZEFSAII (Michael W. Deem and Ramdas Pophale) SiO2 
 PCOD9406682
Probable space group: P M M A
;
_chemical_formula_sum "Si O2"
_cell_formula_units_Z 48
_cell_length_a 18.061123
_cell_length_b 9.355958
_cell_length_c 15.923898
_cell_angle_alpha 90.000000
_cell_angle_beta 90.000000
_cell_angle_gamma 90.000000
_cell_volume 2690.806083
_symmetry_space_group_name_H-M "P M M A"
_symmetry_group_IT_number 51
_symmetry_cell_setting 'orthorhombic'
loop_
_space_group_symop_operation_xyz
x,y,z
1/2-x,-y,z
1/2+x,-y,-z
-x,y,-z
-x,-y,-z
1/2+x,y,-z
1/2-x,y,z
x,-y,z
loop_
_atom_site_type_symbol
_atom_site_label
_atom_site_fract_x
_atom_site_fract_y
_atom_site_fract_z
Si Si1 0.618090 0.664637 0.474301
Si Si2 0.108390 0.329822 0.897461
Si Si3 0.750000 0.666678 0.222610
Si Si4 0.836493 0.169567 0.936890
Si Si5 0.972277 0.664939 0.640475
Si Si6 0.250000 0.831818 0.603382
Si Si7 0.529637 0.169843 0.812981
O O1 0.644628 0.500000 0.469157
O O2 0.549464 0.676902 0.409897
O O3 0.588734 0.689599 0.568392
O O4 0.679389 0.773981 0.446139
O O5 0.095802 0.500000 0.905499
O O6 0.176658 0.308651 0.832856
O O7 0.035489 0.251561 0.862810
O O8 0.133976 0.261361 0.985092
O O9 0.750000 0.500000 0.248188
O O10 0.750000 0.762729 0.304495
O O11 0.750000 0.202179 0.919964
O O12 0.891953 0.194489 0.859403
O O13 0.841144 0.000000 0.957848
O O14 0.966184 0.500000 0.669758
O O15 0.968416 0.769087 0.718938
O O16 0.250000 0.000000 0.610059
O O17 0.514956 0.000000 0.813522
#
# Coordination Sequence:
#
# PCOD9406682 Si02
#       7
#     8   8   4   8   8   4   8
#     4   9  19  38  61  81 112 151 187 232 289 340
#     4  11  22  38  60  86 114 147 193 242 286 335
#     4  10  22  38  56  81 116 151 184 233 292 341
#     4  10  22  41  60  79 113 157 192 230 287 346
#     4   9  19  38  62  85 108 146 194 237 282 334
#     4  12  24  34  52  87 118 147 188 229 276 339
#     4  11  23  37  57  87 118 152 191 233 286 346
#
# _framework density 17.838521
#
# number of rings (size 3 to 8) (size 9 to 14) (size 15 to 20)
#    0.000    1.833    0.833    4.250    0.000   10.000 
#    1.500    1.667    0.000    0.000    0.000    0.000 
#    0.000    0.000    0.000    0.000    0.000    0.000 
#
# Total GULP energy -268121.583947 kJ/mol
# GULP energy per Si atom -5585.866332 kJ/mol
# Density = 1.779792 g / cm^3
# Si number density = 17.838521 Si / 1000 Ang^3
#
#
#
# Elastic Constant Matrix: (Units=GPa)
#
#
# Indices 1 2 3 4 5 6 
#
# 1 92.7065 74.8479 70.8201 0.0000 0.0000 0.0000
# 2 74.8479 95.5443 63.9288 0.0000 0.0000 0.0000
# 3 70.8201 63.9288 71.6394 0.0000 0.0000 0.0000
# 4 0.0000 0.0000 0.0000 44.7758 0.0000 0.0000
# 5 0.0000 0.0000 0.0000 0.0000 10.9213 0.0000
# 6 0.0000 0.0000 0.0000 0.0000 0.0000 21.1004
#
#
#
# Elastic Compliance Matrix: (Units=1/GPa)
#
#
# Indices 1 2 3 4 5 6 
#
# 1 0.052163 -0.015786 -0.037479 0.000000 0.000000 0.000000
# 2 -0.015786 0.030754 -0.011838 0.000000 0.000000 0.000000
# 3 -0.037479 -0.011838 0.061574 0.000000 0.000000 0.000000
# 4 0.000000 0.000000 0.000000 0.022333 0.000000 0.000000
# 5 0.000000 0.000000 0.000000 0.000000 0.091564 0.000000
# 6 0.000000 0.000000 0.000000 0.000000 0.000000 0.047392
#
#
# Mechanical properties :
#
#
# Convention : Reuss Voigt Hill
#
# Bulk Modulus (GPa) = 70.01314 75.45373 72.73344
# Shear Modulus (GPa) = 11.34431 18.71241 15.02836
#
# Velocity S-wave (km/s) = 2.52453 3.24232 2.90568
# Velocity P-wave (km/s) = 6.91601 7.51045 7.21935
#
# Compressibility (1/GPa) = 0.01428303
#
# Stress axis : x y z
#
# Youngs Moduli (GPa) = 19.17061 32.51613 16.24070
#
# Poissons Ratio (x) = 0.51331 0.60869
# Poissons Ratio (y) = 0.30263 0.19226
# Poissons Ratio (z) = 0.71850 0.38493
#
# Static dielectric constant tensor:
#      x y z
#    x 1.617700 0.000000 0.000000 
#    y 0.000000 1.591170 0.000000 
#    z 0.000000 0.000000 1.579380 
# 
# From -- ./inp_files/24864.got.cif
#   From: 2010.05.17/outbox.cif.g08.bks.cpg/sg51_13_cif.got.tgz:24864.got - 2010.06.03 11:52:47.
