data_PCOD9406136
_publ_section_title
;
Structure prediction by ZEFSAII (Michael W. Deem and Ramdas Pophale) SiO2 
 PCOD9406136
Probable space group: P M M A
;
_chemical_formula_sum "Si O2"
_cell_formula_units_Z 44
_cell_length_a 9.408651
_cell_length_b 8.026292
_cell_length_c 30.553415
_cell_angle_alpha 90.000000
_cell_angle_beta 90.000000
_cell_angle_gamma 90.000000
_cell_volume 2307.289416
_symmetry_space_group_name_H-M "P M M A"
_symmetry_group_IT_number 51
_symmetry_cell_setting 'orthorhombic'
loop_
_space_group_symop_operation_xyz
x,y,z
1/2-x,-y,z
1/2+x,-y,-z
-x,y,-z
-x,-y,-z
1/2+x,y,-z
1/2-x,y,z
x,-y,z
loop_
_atom_site_type_symbol
_atom_site_label
_atom_site_fract_x
_atom_site_fract_y
_atom_site_fract_z
Si Si1 0.586665 0.701441 0.289883
Si Si2 0.580023 0.813900 0.893431
Si Si3 0.088648 0.198382 0.374162
Si Si4 0.078499 0.500000 0.046144
Si Si5 0.088794 0.300069 0.541503
Si Si6 0.580953 0.300635 0.191409
O O1 0.750000 0.756418 0.297878
O O2 0.588335 0.500000 0.289701
O O3 0.483964 0.759413 0.328061
O O4 0.543661 0.754290 0.240814
O O5 0.750000 0.802407 0.887309
O O6 0.539091 0.664695 0.926049
O O7 0.504285 0.786441 0.847051
O O8 0.546956 0.000000 0.910146
O O9 0.250000 0.264259 0.376509
O O10 0.993416 0.265145 0.413732
O O11 0.093734 0.000000 0.378489
O O12 0.250000 0.500000 0.040346
O O13 0.000000 0.500000 0.000000
O O14 0.250000 0.234541 0.542391
O O15 0.097506 0.500000 0.536834
O O16 0.000000 0.234789 0.500000
O O17 0.750000 0.274117 0.186195
O O18 0.555576 0.500000 0.188335
#
# Coordination Sequence:
#
# PCOD9406136 Si02
#       6
#     8   8   8   4   8   8
#     4   9  19  36  57  81 109 144 186 230 275 326
#     4  10  21  37  58  85 117 153 193 237 288 347
#     4  11  24  38  52  76 111 147 183 224 271 326
#     4  10  22  40  60  84 116 154 194 242 293 342
#     4  10  21  38  61  85 106 133 173 221 273 331
#     4   9  18  34  57  84 114 148 189 235 283 338
#
# _framework density 19.069994999999999
#
# number of rings (size 3 to 8) (size 9 to 14) (size 15 to 20)
#    0.000    2.182    0.909    2.727    0.000    8.364 
#    0.000    5.455    0.000    0.000    0.000    0.000 
#    0.000    0.000    0.000    0.000    0.000    0.000 
#
# Total GULP energy -245675.465626 kJ/mol
# GULP energy per Si atom -5583.533310 kJ/mol
# Density = 1.902659 g / cm^3
# Si number density = 19.069995 Si / 1000 Ang^3
#
#
#
# Elastic Constant Matrix: (Units=GPa)
#
#
# Indices 1 2 3 4 5 6 
#
# 1 99.2355 37.3671 81.1615 0.0000 0.0000 0.0000
# 2 37.3671 67.1962 47.2740 0.0000 0.0000 0.0000
# 3 81.1615 47.2740 152.8890 0.0000 0.0000 0.0000
# 4 0.0000 0.0000 0.0000 -27.1495 0.0000 0.0000
# 5 0.0000 0.0000 0.0000 0.0000 40.3440 0.0000
# 6 0.0000 0.0000 0.0000 0.0000 0.0000 19.4546
#
#
#
# Elastic Compliance Matrix: (Units=1/GPa)
#
#
# Indices 1 2 3 4 5 6 
#
# 1 0.018766 -0.004380 -0.008608 0.000000 0.000000 0.000000
# 2 -0.004380 0.020041 -0.003872 0.000000 0.000000 0.000000
# 3 -0.008608 -0.003872 0.012307 0.000000 0.000000 0.000000
# 4 0.000000 0.000000 0.000000 -0.036833 0.000000 0.000000
# 5 0.000000 0.000000 0.000000 0.000000 0.024787 0.000000
# 6 0.000000 0.000000 0.000000 0.000000 0.000000 0.051402
#
#
# Mechanical properties :
#
#
# Convention : Reuss Voigt Hill
#
# Bulk Modulus (GPa) = 57.48482 72.32510 64.90496
# Shear Modulus (GPa) = 38.46494 16.76436 27.61465
#
# Velocity S-wave (km/s) = 4.49602 2.96817 3.80948
# Velocity P-wave (km/s) = 7.56054 7.05374 7.31153
#
# Compressibility (1/GPa) = 0.01739590
#
# Stress axis : x y z
#
# Youngs Moduli (GPa) = 53.28660 49.89691 81.25195
#
# Poissons Ratio (x) = 0.21855 0.69941
# Poissons Ratio (y) = 0.23339 0.31459
# Poissons Ratio (z) = 0.45869 0.19319
#
# Static dielectric constant tensor:
#      x y z
#    x 1.650740 0.000000 0.000000 
#    y 0.000000 1.689140 0.000000 
#    z 0.000000 0.000000 1.624560 
# 
# From -- ./inp_files/36830.got.cif
#   From: 2010.05.17/outbox.cif.g08.bks.cpg/sg51_19_cif.got.tgz:36830.got - 2010.06.03 11:52:47.
