data_PCOD9406629
_publ_section_title
;
Structure prediction by ZEFSAII (Michael W. Deem and Ramdas Pophale) SiO2 
 PCOD9406629
Probable space group: P M M A
;
_chemical_formula_sum "Si O2"
_cell_formula_units_Z 44
_cell_length_a 8.472803
_cell_length_b 29.678591
_cell_length_c 9.172784
_cell_angle_alpha 90.000000
_cell_angle_beta 90.000000
_cell_angle_gamma 90.000000
_cell_volume 2306.596106
_symmetry_space_group_name_H-M "P M M A"
_symmetry_group_IT_number 51
_symmetry_cell_setting 'orthorhombic'
loop_
_space_group_symop_operation_xyz
x,y,z
1/2-x,-y,z
1/2+x,-y,-z
-x,y,-z
-x,-y,-z
1/2+x,y,-z
1/2-x,y,z
x,-y,z
loop_
_atom_site_type_symbol
_atom_site_label
_atom_site_fract_x
_atom_site_fract_y
_atom_site_fract_z
Si Si1 0.438275 0.500000 0.834988
Si Si2 0.059274 0.048366 0.832799
Si Si3 0.939685 0.325157 0.164870
Si Si4 0.938259 0.587481 0.664960
Si Si5 0.058900 0.146673 0.833733
Si Si6 0.059318 0.764642 0.664156
O O1 0.250000 0.500000 0.835943
O O2 0.498614 0.455770 0.751766
O O3 0.500000 0.500000 0.000000
O O4 0.250000 0.048261 0.832675
O O5 0.008328 0.097274 0.774011
O O6 0.006761 0.000000 0.767660
O O7 0.000000 0.048303 0.000000
O O8 0.750000 0.326790 0.164969
O O9 0.990872 0.278516 0.241092
O O10 0.003527 0.367397 0.255443
O O11 0.000000 0.327114 0.000000
O O12 0.750000 0.586451 0.664330
O O13 0.000000 0.586530 0.500000
O O14 0.250000 0.147437 0.836792
O O15 0.004003 0.188853 0.738430
O O16 0.000000 0.151089 0.000000
O O17 0.250000 0.765129 0.662870
O O18 0.000000 0.760672 0.500000
#
# Coordination Sequence:
#
# PCOD9406629 Si02
#       6
#     4   8   8   8   8   8
#     4  12  25  44  67  94 126 162 202 244 287 332
#     4   8  13  22  39  64  94 126 161 205 258 313
#     4  11  23  40  61  87 115 147 186 230 280 334
#     4  12  25  43  65  92 124 159 196 237 284 335
#     4   9  17  30  48  73 101 131 170 216 265 319
#     4  10  22  37  54  76 105 140 180 223 270 325
#
# _framework density 19.075728000000002
#
# number of rings (size 3 to 8) (size 9 to 14) (size 15 to 20)
#    0.000    1.818    0.000    4.909    0.000    3.636 
#    0.000    0.000    0.000    0.545    0.000    0.000 
#    0.000    0.000    0.000    0.000    0.000    0.000 
#
# Total GULP energy -245661.198580 kJ/mol
# GULP energy per Si atom -5583.209059 kJ/mol
# Density = 1.903231 g / cm^3
# Si number density = 19.075728 Si / 1000 Ang^3
#
#
#
# Elastic Constant Matrix: (Units=GPa)
#
#
# Indices 1 2 3 4 5 6 
#
# 1 69.4894 52.8298 37.1466 0.0000 0.0000 0.0000
# 2 52.8298 233.4181 106.3169 0.0000 0.0000 0.0000
# 3 37.1466 106.3169 147.1224 0.0000 0.0000 0.0000
# 4 0.0000 0.0000 0.0000 -23.3221 0.0000 0.0000
# 5 0.0000 0.0000 0.0000 0.0000 32.1601 0.0000
# 6 0.0000 0.0000 0.0000 0.0000 0.0000 -15.4006
#
#
#
# Elastic Compliance Matrix: (Units=1/GPa)
#
#
# Indices 1 2 3 4 5 6 
#
# 1 0.017922 -0.002974 -0.002376 0.000000 0.000000 0.000000
# 2 -0.002974 0.006880 -0.004221 0.000000 0.000000 0.000000
# 3 -0.002376 -0.004221 0.010447 0.000000 0.000000 0.000000
# 4 0.000000 0.000000 0.000000 -0.042878 0.000000 0.000000
# 5 0.000000 0.000000 0.000000 0.000000 0.031094 0.000000
# 6 0.000000 0.000000 0.000000 0.000000 0.000000 -0.064932
#
#
# Mechanical properties :
#
#
# Convention : Reuss Voigt Hill
#
# Bulk Modulus (GPa) = 62.08367 93.62406 77.85387
# Shear Modulus (GPa) = -294.86095 15.60326 -139.62885
#
# Velocity S-wave (km/s) = -12.44626 2.86311 -8.56481
# Velocity P-wave (km/s) = 13.18823 7.75349 7.54363
#
# Compressibility (1/GPa) = 0.01610729
#
# Stress axis : x y z
#
# Youngs Moduli (GPa) = 55.79795 145.35511 95.72190
#
# Poissons Ratio (x) = 0.43231 0.22742
# Poissons Ratio (y) = 0.16595 0.40401
# Poissons Ratio (z) = 0.13256 0.61349
#
# Static dielectric constant tensor:
#      x y z
#    x 1.644600 0.000000 0.000000 
#    y 0.000000 1.700520 0.000000 
#    z 0.000000 0.000000 1.605160 
# 
# From -- ./inp_files/5808.got.cif
#   From: 2010.05.17/outbox.cif.g08.bks.cpg/sg51_3_cif.got.tgz:5808.got - 2010.06.03 11:52:47.
