data_PCOD9406532
_publ_section_title
;
Structure prediction by ZEFSAII (Michael W. Deem and Ramdas Pophale) SiO2 
 PCOD9406532
Probable space group: P M M A
;
_chemical_formula_sum "Si O2"
_cell_formula_units_Z 64
_cell_length_a 14.079542
_cell_length_b 19.421598
_cell_length_c 12.109906
_cell_angle_alpha 90.000000
_cell_angle_beta 90.000000
_cell_angle_gamma 90.000000
_cell_volume 3311.419945
_symmetry_space_group_name_H-M "P M M A"
_symmetry_group_IT_number 51
_symmetry_cell_setting 'orthorhombic'
loop_
_space_group_symop_operation_xyz
x,y,z
1/2-x,-y,z
1/2+x,-y,-z
-x,y,-z
-x,-y,-z
1/2+x,y,-z
1/2-x,y,z
x,-y,z
loop_
_atom_site_type_symbol
_atom_site_label
_atom_site_fract_x
_atom_site_fract_y
_atom_site_fract_z
Si Si1 0.864608 0.319871 0.030342
Si Si2 0.141219 0.820889 0.217661
Si Si3 0.010410 0.420704 0.631317
Si Si4 0.638990 0.681762 0.276468
Si Si5 0.529065 0.814092 0.374020
Si Si6 0.861181 0.346589 0.793566
Si Si7 0.864285 0.921416 0.244585
Si Si8 0.864754 0.161756 0.027042
O O1 0.750000 0.317745 0.017305
O O2 0.884679 0.344384 0.153024
O O3 0.896697 0.358941 0.920108
O O4 0.897379 0.240511 0.038917
O O5 0.250000 0.839974 0.242116
O O6 0.138977 0.737120 0.209266
O O7 0.113187 0.854694 0.100196
O O8 0.066145 0.836463 0.310871
O O9 0.008927 0.500000 0.666923
O O10 0.929390 0.379517 0.701225
O O11 0.000000 0.417871 0.500000
O O12 0.110040 0.382696 0.650864
O O13 0.750000 0.700911 0.279798
O O14 0.576794 0.746684 0.317432
O O15 0.500000 0.800677 0.500000
O O16 0.600949 0.875973 0.347315
O O17 0.750000 0.368222 0.779747
O O18 0.750000 0.921565 0.243418
O O19 0.897722 0.000000 0.248963
O O20 0.895531 0.884805 0.129419
O O21 0.750000 0.162950 0.032123
#
# Coordination Sequence:
#
# PCOD9406532 Si02
#       8
#     8   8   8   8   8   8   8   8
#     4   8  15  31  58  88 116 144 184 243 305 358
#     4   9  19  35  58  87 120 152 192 249 307 354
#     4  11  25  43  58  83 122 162 207 248 289 354
#     4  11  22  39  62  87 117 154 199 254 308 361
#     4  12  24  38  58  88 124 161 209 255 295 348
#     4   9  18  36  61  89 118 152 195 244 301 358
#     4  10  21  39  63  90 123 162 203 250 305 364
#     4   8  14  31  56  85 117 150 191 241 298 359
#
# _framework density 19.327057
#
# number of rings (size 3 to 8) (size 9 to 14) (size 15 to 20)
#    0.000    2.250    2.500    2.250    0.000    3.250 
#    0.000    3.750    0.000    3.375    0.000    0.000 
#    0.000    0.000    0.000    0.000    0.000    0.000 
#
# Total GULP energy -356648.552592 kJ/mol
# GULP energy per Si atom -5572.633634 kJ/mol
# Density = 1.928307 g / cm^3
# Si number density = 19.327057 Si / 1000 Ang^3
#
#
#
# Elastic Constant Matrix: (Units=GPa)
#
#
# Indices 1 2 3 4 5 6 
#
# 1 75.4530 15.3399 24.1260 0.0000 0.0000 0.0000
# 2 15.3399 59.9070 22.8647 0.0000 0.0000 0.0000
# 3 24.1260 22.8647 87.5620 0.0000 0.0000 0.0000
# 4 0.0000 0.0000 0.0000 33.7748 0.0000 0.0000
# 5 0.0000 0.0000 0.0000 0.0000 34.8257 0.0000
# 6 0.0000 0.0000 0.0000 0.0000 0.0000 17.3543
#
#
#
# Elastic Compliance Matrix: (Units=1/GPa)
#
#
# Indices 1 2 3 4 5 6 
#
# 1 0.014861 -0.002491 -0.003444 0.000000 0.000000 0.000000
# 2 -0.002491 0.018958 -0.004264 0.000000 0.000000 0.000000
# 3 -0.003444 -0.004264 0.013483 0.000000 0.000000 0.000000
# 4 0.000000 0.000000 0.000000 0.029608 0.000000 0.000000
# 5 0.000000 0.000000 0.000000 0.000000 0.028714 0.000000
# 6 0.000000 0.000000 0.000000 0.000000 0.000000 0.057623
#
#
# Mechanical properties :
#
#
# Convention : Reuss Voigt Hill
#
# Bulk Modulus (GPa) = 37.16989 38.62038 37.89513
# Shear Modulus (GPa) = 25.95883 27.89705 26.92794
#
# Velocity S-wave (km/s) = 3.66886 3.80336 3.73671
# Velocity P-wave (km/s) = 6.10091 6.27003 6.18605
#
# Compressibility (1/GPa) = 0.02690350
#
# Stress axis : x y z
#
# Youngs Moduli (GPa) = 67.29042 52.74867 74.16776
#
# Poissons Ratio (x) = 0.13138 0.25545
# Poissons Ratio (y) = 0.16760 0.31626
# Poissons Ratio (z) = 0.23177 0.22493
#
# Static dielectric constant tensor:
#      x y z
#    x 1.738020 0.000000 0.000000 
#    y 0.000000 1.653640 0.000000 
#    z 0.000000 0.000000 1.721130 
# 
# From -- ./inp_files/16856.got.cif
#   From: 2010.05.17/outbox.cif.g08.bks.cpg/sg51_9_cif.got.tgz:16856.got - 2010.06.03 11:52:47.
