data_PCOD9406768
_publ_section_title
;
Structure prediction by ZEFSAII (Michael W. Deem and Ramdas Pophale) SiO2 
 PCOD9406768
Probable space group: P M M A
;
_chemical_formula_sum "Si O2"
_cell_formula_units_Z 48
_cell_length_a 14.919104
_cell_length_b 8.751528
_cell_length_c 20.267029
_cell_angle_alpha 90.000000
_cell_angle_beta 90.000000
_cell_angle_gamma 90.000000
_cell_volume 2646.163758
_symmetry_space_group_name_H-M "P M M A"
_symmetry_group_IT_number 51
_symmetry_cell_setting 'orthorhombic'
loop_
_space_group_symop_operation_xyz
x,y,z
1/2-x,-y,z
1/2+x,-y,-z
-x,y,-z
-x,-y,-z
1/2+x,y,-z
1/2-x,y,z
x,-y,z
loop_
_atom_site_type_symbol
_atom_site_label
_atom_site_fract_x
_atom_site_fract_y
_atom_site_fract_z
Si Si1 0.442827 0.685490 0.682448
Si Si2 0.559958 0.816617 0.564157
Si Si3 0.750000 0.316061 0.524574
Si Si4 0.250000 0.685277 0.629346
Si Si5 0.353236 0.815657 0.086325
Si Si6 0.488762 0.317882 0.830982
Si Si7 0.643007 0.819074 0.062907
O O1 0.445980 0.500000 0.678794
O O2 0.510014 0.752840 0.628403
O O3 0.341657 0.735146 0.664147
O O4 0.468041 0.732928 0.756484
O O5 0.500000 0.773764 0.500000
O O6 0.659095 0.747956 0.556240
O O7 0.565054 0.000000 0.566767
O O8 0.750000 0.500000 0.527914
O O9 0.750000 0.268969 0.447311
O O10 0.250000 0.500000 0.630672
O O11 0.250000 0.769615 0.096816
O O12 0.419985 0.750232 0.139950
O O13 0.356327 0.000000 0.087326
O O14 0.380422 0.768851 0.011757
O O15 0.494557 0.500000 0.830692
O O16 0.410944 0.266749 0.880999
O O17 0.750000 0.800754 0.070101
O O18 0.622609 0.000000 0.067745
#
# Coordination Sequence:
#
# PCOD9406768 Si02
#       7
#     8   8   4   4   8   8   8
#     4  10  22  40  59  83 116 156 196 228 274 347
#     4  11  23  39  60  89 122 149 186 243 293 333
#     4  11  21  37  67  91 109 150 199 236 279 345
#     4   9  18  35  61  85 109 148 193 228 267 335
#     4   9  19  38  61  80 105 149 199 240 281 337
#     4  11  23  35  55  86 119 150 184 234 288 337
#     4   9  19  36  58  83 111 148 194 236 278 340
#
# _framework density 18.139467
#
# number of rings (size 3 to 8) (size 9 to 14) (size 15 to 20)
#    0.000    2.000    1.667    2.750    1.167    5.333 
#    1.500    2.083    0.000    0.000    0.000    0.000 
#    0.000    0.000    0.000    0.000    0.000    0.000 
#
# Total GULP energy -268075.644681 kJ/mol
# GULP energy per Si atom -5584.909264 kJ/mol
# Density = 1.809818 g / cm^3
# Si number density = 18.139467 Si / 1000 Ang^3
#
#
#
# Elastic Constant Matrix: (Units=GPa)
#
#
# Indices 1 2 3 4 5 6 
#
# 1 138.7952 36.6849 105.8463 0.0000 0.0000 0.0000
# 2 36.6849 28.1540 41.5615 0.0000 0.0000 0.0000
# 3 105.8463 41.5615 178.0014 0.0000 0.0000 0.0000
# 4 0.0000 0.0000 0.0000 24.8986 0.0000 0.0000
# 5 0.0000 0.0000 0.0000 0.0000 -114.2294 0.0000
# 6 0.0000 0.0000 0.0000 0.0000 0.0000 40.5898
#
#
#
# Elastic Compliance Matrix: (Units=1/GPa)
#
#
# Indices 1 2 3 4 5 6 
#
# 1 0.014687 -0.009529 -0.006508 0.000000 0.000000 0.000000
# 2 -0.009529 0.060384 -0.008433 0.000000 0.000000 0.000000
# 3 -0.006508 -0.008433 0.011457 0.000000 0.000000 0.000000
# 4 0.000000 0.000000 0.000000 0.040163 0.000000 0.000000
# 5 0.000000 0.000000 0.000000 0.000000 -0.008754 0.000000
# 6 0.000000 0.000000 0.000000 0.000000 0.000000 0.024637
#
#
# Mechanical properties :
#
#
# Convention : Reuss Voigt Hill
#
# Bulk Modulus (GPa) = 26.60469 79.23733 52.92101
# Shear Modulus (GPa) = 24.50467 0.97568 12.74018
#
# Velocity S-wave (km/s) = 3.67945 0.73420 2.65306
# Velocity P-wave (km/s) = 5.72274 6.67052 6.21472
#
# Compressibility (1/GPa) = 0.03758736
#
# Stress axis : x y z
#
# Youngs Moduli (GPa) = 68.08798 16.56067 87.28318
#
# Poissons Ratio (x) = 0.15781 0.56807
# Poissons Ratio (y) = 0.64883 0.73602
# Poissons Ratio (z) = 0.44314 0.13965
#
# Static dielectric constant tensor:
#      x y z
#    x 1.608630 0.000000 0.000000 
#    y 0.000000 1.611280 0.000000 
#    z 0.000000 0.000000 1.600110 
# 
# From -- ./inp_files/29540.got.cif
#   From: 2010.05.17/outbox.cif.g08.bks.cpg/sg51_15_cif.got.tgz:29540.got - 2010.06.03 11:52:47.
