data_PCOD9406469
_publ_section_title
;
Structure prediction by ZEFSAII (Michael W. Deem and Ramdas Pophale) SiO2 
 PCOD9406469
Probable space group: P M M A
;
_chemical_formula_sum "Si O2"
_cell_formula_units_Z 44
_cell_length_a 17.541552
_cell_length_b 7.458567
_cell_length_c 14.657660
_cell_angle_alpha 90.000000
_cell_angle_beta 90.000000
_cell_angle_gamma 90.000000
_cell_volume 1917.732614
_symmetry_space_group_name_H-M "P M M A"
_symmetry_group_IT_number 51
_symmetry_cell_setting 'orthorhombic'
loop_
_space_group_symop_operation_xyz
x,y,z
1/2-x,-y,z
1/2+x,-y,-z
-x,y,-z
-x,-y,-z
1/2+x,y,-z
1/2-x,y,z
x,-y,z
loop_
_atom_site_type_symbol
_atom_site_label
_atom_site_fract_x
_atom_site_fract_y
_atom_site_fract_z
Si Si1 0.335366 0.717988 0.848820
Si Si2 0.835069 0.785165 0.469415
Si Si3 0.121321 0.292589 0.324608
Si Si4 0.586069 0.288142 0.963068
Si Si5 0.947903 0.289984 0.305758
Si Si6 0.635219 0.000000 0.810456
O O1 0.250000 0.780183 0.827168
O O2 0.335147 0.500000 0.841914
O O3 0.398383 0.786128 0.777576
O O4 0.358930 0.758619 0.952011
O O5 0.750000 0.724939 0.441609
O O6 0.853778 0.718552 0.570406
O O7 0.898400 0.727957 0.396914
O O8 0.835572 0.000000 0.471594
O O9 0.126327 0.500000 0.296746
O O10 0.164178 0.157407 0.259954
O O11 0.033346 0.220684 0.317497
O O12 0.595709 0.500000 0.940282
O O13 0.603413 0.157698 0.880429
O O14 0.500000 0.267509 0.000000
O O15 0.958042 0.500000 0.286730
#
# Coordination Sequence:
#
# PCOD9406469 Si02
#       6
#     8   8   8   8   8   4
#     4   9  18  36  62  92 127 165 206 261 328 389
#     4  11  24  42  63  93 131 172 218 268 324 386
#     4  11  24  42  66  97 130 170 220 270 321 383
#     4  10  21  39  63  92 126 165 212 263 317 385
#     4  10  21  38  65  97 128 167 214 262 323 397
#     4  12  23  40  64  90 123 168 213 268 318 364
#
# _framework density 22.943763000000001
#
# number of rings (size 3 to 8) (size 9 to 14) (size 15 to 20)
#    0.000    1.636    0.909    3.545    1.273    7.273 
#    1.636    2.273    0.000    2.182    0.000    0.000 
#    0.000    0.000    0.000    0.000    0.000    0.000 
#
# Total GULP energy -245168.031160 kJ/mol
# GULP energy per Si atom -5572.000708 kJ/mol
# Density = 2.289154 g / cm^3
# Si number density = 22.943763 Si / 1000 Ang^3
#
#
#
# Elastic Constant Matrix: (Units=GPa)
#
#
# Indices 1 2 3 4 5 6 
#
# 1 110.7805 8.6750 10.3285 0.0000 0.0000 0.0000
# 2 8.6750 110.8289 15.7962 0.0000 0.0000 0.0000
# 3 10.3285 15.7962 78.2644 0.0000 0.0000 0.0000
# 4 0.0000 0.0000 0.0000 9.9832 0.0000 0.0000
# 5 0.0000 0.0000 0.0000 0.0000 16.8963 0.0000
# 6 0.0000 0.0000 0.0000 0.0000 0.0000 -1.1785
#
#
#
# Elastic Compliance Matrix: (Units=1/GPa)
#
#
# Indices 1 2 3 4 5 6 
#
# 1 0.009173 -0.000562 -0.001097 0.000000 0.000000 0.000000
# 2 -0.000562 0.009325 -0.001808 0.000000 0.000000 0.000000
# 3 -0.001097 -0.001808 0.013287 0.000000 0.000000 0.000000
# 4 0.000000 0.000000 0.000000 0.100168 0.000000 0.000000
# 5 0.000000 0.000000 0.000000 0.000000 0.059184 0.000000
# 6 0.000000 0.000000 0.000000 0.000000 0.000000 -0.848527
#
#
# Mechanical properties :
#
#
# Convention : Reuss Voigt Hill
#
# Bulk Modulus (GPa) = 40.23959 41.05257 40.64608
# Shear Modulus (GPa) = -7.78607 22.81182 7.51287
#
# Velocity S-wave (km/s) = -1.84416 3.15659 1.81151
# Velocity P-wave (km/s) = 3.61135 5.58722 4.70419
#
# Compressibility (1/GPa) = 0.02485114
#
# Stress axis : x y z
#
# Youngs Moduli (GPa) = 109.01399 107.24379 75.26216
#
# Poissons Ratio (x) = 0.06023 0.08258
# Poissons Ratio (y) = 0.06123 0.13606
# Poissons Ratio (z) = 0.11961 0.19388
#
# Static dielectric constant tensor:
#      x y z
#    x 1.898640 0.000000 0.000000 
#    y 0.000000 1.827910 0.000000 
#    z 0.000000 0.000000 1.808630 
# 
# From -- ./inp_files/24614.got.cif
#   From: 2010.05.17/outbox.cif.g08.bks.cpg/sg51_13_cif.got.tgz:24614.got - 2010.06.03 11:52:47.
