data_PCOD9406369
_publ_section_title
;
Structure prediction by ZEFSAII (Michael W. Deem and Ramdas Pophale) SiO2 
 PCOD9406369
Probable space group: P M M A
;
_chemical_formula_sum "Si O2"
_cell_formula_units_Z 40
_cell_length_a 9.442093
_cell_length_b 7.679521
_cell_length_c 27.101221
_cell_angle_alpha 90.000000
_cell_angle_beta 90.000000
_cell_angle_gamma 90.000000
_cell_volume 1965.129901
_symmetry_space_group_name_H-M "P M M A"
_symmetry_group_IT_number 51
_symmetry_cell_setting 'orthorhombic'
loop_
_space_group_symop_operation_xyz
x,y,z
1/2-x,-y,z
1/2+x,-y,-z
-x,y,-z
-x,-y,-z
1/2+x,y,-z
1/2-x,y,z
x,-y,z
loop_
_atom_site_type_symbol
_atom_site_label
_atom_site_fract_x
_atom_site_fract_y
_atom_site_fract_z
Si Si1 0.909534 0.206792 0.954331
Si Si2 0.087439 0.789504 0.237830
Si Si3 0.077498 0.202793 0.345271
Si Si4 0.085730 0.786588 0.452253
Si Si5 0.410200 0.706600 0.858743
O O1 0.750000 0.278694 0.951636
O O2 0.993613 0.227902 0.903512
O O3 0.896473 0.000000 0.962802
O O4 0.000000 0.280116 0.000000
O O5 0.250000 0.730688 0.228745
O O6 0.038336 0.722719 0.291794
O O7 0.985688 0.743678 0.193148
O O8 0.092645 0.000000 0.241085
O O9 0.250000 0.205176 0.345883
O O10 0.032542 0.275781 0.398413
O O11 0.033318 0.000000 0.345078
O O12 0.250000 0.737822 0.457287
O O13 0.000000 0.728782 0.500000
O O14 0.080913 0.000000 0.450997
O O15 0.250000 0.777976 0.860558
O O16 0.402021 0.500000 0.864414
#
# Coordination Sequence:
#
# PCOD9406369 Si02
#       5
#     8   8   8   8   8
#     4  10  21  38  61  86 108 132 164 200 238 282
#     4   9  17  31  52  74  94 122 164 209 249 291
#     4   7  11  21  37  57  82 113 149 189 234 283
#     4   8  12  18  29  47  75 111 146 180 222 274
#     4  11  24  38  51  72 104 138 168 200 242 290
#
# _framework density 20.354887000000002
#
# number of rings (size 3 to 8) (size 9 to 14) (size 15 to 20)
#    0.000    3.000    0.000    4.200    0.000    6.000 
#    0.000    1.000    0.000    3.600    0.000    0.000 
#    0.000    0.800    0.000    1.800    0.000    5.200 
#
# Total GULP energy -222958.275528 kJ/mol
# GULP energy per Si atom -5573.956888 kJ/mol
# Density = 2.030856 g / cm^3
# Si number density = 20.354887 Si / 1000 Ang^3
#
#
#
# Elastic Constant Matrix: (Units=GPa)
#
#
# Indices 1 2 3 4 5 6 
#
# 1 128.4118 5.8296 105.1990 0.0000 0.0000 0.0000
# 2 5.8296 35.7955 -3.7754 0.0000 0.0000 0.0000
# 3 105.1990 -3.7754 215.4982 0.0000 0.0000 0.0000
# 4 0.0000 0.0000 0.0000 -109.3456 0.0000 0.0000
# 5 0.0000 0.0000 0.0000 0.0000 36.8443 0.0000
# 6 0.0000 0.0000 0.0000 0.0000 0.0000 120.4217
#
#
#
# Elastic Compliance Matrix: (Units=1/GPa)
#
#
# Indices 1 2 3 4 5 6 
#
# 1 0.013261 -0.002848 -0.006523 0.000000 0.000000 0.000000
# 2 -0.002848 0.028600 0.001891 0.000000 0.000000 0.000000
# 3 -0.006523 0.001891 0.007858 0.000000 0.000000 0.000000
# 4 0.000000 0.000000 0.000000 -0.009145 0.000000 0.000000
# 5 0.000000 0.000000 0.000000 0.000000 0.027141 0.000000
# 6 0.000000 0.000000 0.000000 0.000000 0.000000 0.008304
#
#
# Mechanical properties :
#
#
# Convention : Reuss Voigt Hill
#
# Bulk Modulus (GPa) = 28.76962 66.02353 47.39657
# Shear Modulus (GPa) = 48.74961 27.74757 38.24859
#
# Velocity S-wave (km/s) = 4.89917 3.69615 4.33955
# Velocity P-wave (km/s) = 6.79464 7.12193 6.96021
#
# Compressibility (1/GPa) = 0.03475889
#
# Stress axis : x y z
#
# Youngs Moduli (GPa) = 75.40953 34.96534 127.25786
#
# Poissons Ratio (x) = 0.09957 0.83016
# Poissons Ratio (y) = 0.21474 -0.24067
# Poissons Ratio (z) = 0.49193 -0.06613
#
# Static dielectric constant tensor:
#      x y z
#    x 1.704650 0.000000 0.000000 
#    y 0.000000 1.756310 0.000000 
#    z 0.000000 0.000000 1.744770 
# 
# From -- ./inp_files/35988.got.cif
#   From: 2010.05.17/outbox.cif.g08.bks.cpg/sg51_18_cif.got.tgz:35988.got - 2010.06.03 11:52:47.
