data_PCOD9406165
_publ_section_title
;
Structure prediction by ZEFSAII (Michael W. Deem and Ramdas Pophale) SiO2 
 PCOD9406165
Probable space group: P M M A
;
_chemical_formula_sum "Si O2"
_cell_formula_units_Z 44
_cell_length_a 9.231959
_cell_length_b 16.748410
_cell_length_c 16.033194
_cell_angle_alpha 90.000000
_cell_angle_beta 90.000000
_cell_angle_gamma 90.000000
_cell_volume 2479.062628
_symmetry_space_group_name_H-M "P M M A"
_symmetry_group_IT_number 51
_symmetry_cell_setting 'orthorhombic'
loop_
_space_group_symop_operation_xyz
x,y,z
1/2-x,-y,z
1/2+x,-y,-z
-x,y,-z
-x,-y,-z
1/2+x,y,-z
1/2-x,y,z
x,-y,z
loop_
_atom_site_type_symbol
_atom_site_label
_atom_site_fract_x
_atom_site_fract_y
_atom_site_fract_z
Si Si1 0.579142 0.810190 0.769931
Si Si2 0.919244 0.500000 0.086656
Si Si3 0.086964 0.624729 0.190056
Si Si4 0.418605 0.413966 0.384244
Si Si5 0.573856 0.234717 0.582994
Si Si6 0.919624 0.096021 0.085546
O O1 0.750000 0.830901 0.773704
O O2 0.564599 0.719227 0.802613
O O3 0.537285 0.806877 0.671616
O O4 0.489966 0.865607 0.832184
O O5 0.750000 0.500000 0.075502
O O6 0.971471 0.577700 0.136843
O O7 0.000000 0.500000 0.000000
O O8 0.250000 0.609773 0.157419
O O9 0.082312 0.591746 0.284134
O O10 0.250000 0.415235 0.411306
O O11 0.485675 0.500000 0.407446
O O12 0.477596 0.327773 0.411115
O O13 0.500000 0.200218 0.500000
O O14 0.750000 0.234412 0.577129
O O15 0.750000 0.116506 0.080112
O O16 0.932660 0.000000 0.090748
O O17 0.000000 0.121622 0.000000
#
# Coordination Sequence:
#
# PCOD9406165 Si02
#       6
#     8   4   8   8   8   8
#     4   9  19  35  57  82 107 142 182 219 266 320
#     4  12  24  34  46  66  93 128 171 218 267 314
#     4   9  17  33  53  69  91 129 174 216 260 310
#     4   8  13  25  48  68  88 126 170 212 261 312
#     4   9  18  31  48  74 105 140 181 221 266 317
#     4  10  21  37  59  87 116 143 170 208 262 321
#
# _framework density 17.748643000000001
#
# number of rings (size 3 to 8) (size 9 to 14) (size 15 to 20)
#    0.000    2.727    0.909    3.545    0.000    3.636 
#    0.000    2.727    0.000    0.545    0.000    0.000 
#    0.000    0.000    0.000    0.000    0.000    0.000 
#
# Total GULP energy -245109.317308 kJ/mol
# GULP energy per Si atom -5570.666302 kJ/mol
# Density = 1.770825 g / cm^3
# Si number density = 17.748643 Si / 1000 Ang^3
#
#
#
# Elastic Constant Matrix: (Units=GPa)
#
#
# Indices 1 2 3 4 5 6 
#
# 1 90.2964 34.6103 74.0910 0.0000 0.0000 0.0000
# 2 34.6103 34.0783 39.0021 0.0000 0.0000 0.0000
# 3 74.0910 39.0021 141.7141 0.0000 0.0000 0.0000
# 4 0.0000 0.0000 0.0000 19.1293 0.0000 0.0000
# 5 0.0000 0.0000 0.0000 0.0000 31.0657 0.0000
# 6 0.0000 0.0000 0.0000 0.0000 0.0000 16.9422
#
#
#
# Elastic Compliance Matrix: (Units=1/GPa)
#
#
# Indices 1 2 3 4 5 6 
#
# 1 0.023311 -0.014199 -0.008280 0.000000 0.000000 0.000000
# 2 -0.014199 0.051486 -0.006746 0.000000 0.000000 0.000000
# 3 -0.008280 -0.006746 0.013242 0.000000 0.000000 0.000000
# 4 0.000000 0.000000 0.000000 0.052276 0.000000 0.000000
# 5 0.000000 0.000000 0.000000 0.000000 0.032190 0.000000
# 6 0.000000 0.000000 0.000000 0.000000 0.000000 0.059024
#
#
# Mechanical properties :
#
#
# Convention : Reuss Voigt Hill
#
# Bulk Modulus (GPa) = 33.79637 62.38839 48.09238
# Shear Modulus (GPa) = 16.67555 21.31979 18.99767
#
# Velocity S-wave (km/s) = 3.06852 3.46960 3.27521
# Velocity P-wave (km/s) = 5.62471 7.16088 6.43877
#
# Compressibility (1/GPa) = 0.02958898
#
# Stress axis : x y z
#
# Youngs Moduli (GPa) = 42.89909 19.42290 75.51806
#
# Poissons Ratio (x) = 0.27578 0.62525
# Poissons Ratio (y) = 0.60911 0.50947
# Poissons Ratio (z) = 0.35518 0.13103
#
# Static dielectric constant tensor:
#      x y z
#    x 1.599340 0.000000 0.000000 
#    y 0.000000 1.600550 0.000000 
#    z 0.000000 0.000000 1.619720 
# 
# From -- ./inp_files/20908.got.cif
#   From: 2010.05.17/outbox.cif.g08.bks.cpg/sg51_11_cif.got.tgz:20908.got - 2010.06.03 11:52:47.
