data_PCOD9406978
_publ_section_title
;
Structure prediction by ZEFSAII (Michael W. Deem and Ramdas Pophale) SiO2 
 PCOD9406978
Probable space group: P M M A
;
_chemical_formula_sum "Si O2"
_cell_formula_units_Z 56
_cell_length_a 25.544787
_cell_length_b 9.315843
_cell_length_c 15.500278
_cell_angle_alpha 90.000000
_cell_angle_beta 90.000000
_cell_angle_gamma 90.000000
_cell_volume 3688.620146
_symmetry_space_group_name_H-M "P M M A"
_symmetry_group_IT_number 51
_symmetry_cell_setting 'orthorhombic'
loop_
_space_group_symop_operation_xyz
x,y,z
1/2-x,-y,z
1/2+x,-y,-z
-x,y,-z
-x,-y,-z
1/2+x,y,-z
1/2-x,y,z
x,-y,z
loop_
_atom_site_type_symbol
_atom_site_label
_atom_site_fract_x
_atom_site_fract_y
_atom_site_fract_z
Si Si1 0.608653 0.327661 0.600332
Si Si2 0.610524 0.171488 0.416571
Si Si3 0.492169 0.662854 0.603924
Si Si4 0.812467 0.671170 0.288449
Si Si5 0.313744 0.164346 0.074916
Si Si6 0.311021 0.671639 0.248378
Si Si7 0.686357 0.334970 0.092823
O O1 0.610829 0.500000 0.581685
O O2 0.615749 0.240280 0.512082
O O3 0.550135 0.299583 0.636799
O O4 0.652489 0.292347 0.670667
O O5 0.554897 0.228787 0.379678
O O6 0.655655 0.236557 0.356569
O O7 0.611773 0.000000 0.420401
O O8 0.500000 0.660211 0.500000
O O9 0.478145 0.500000 0.630573
O O10 0.750000 0.693408 0.296833
O O11 0.821899 0.500000 0.300415
O O12 0.828420 0.708583 0.189956
O O13 0.250000 0.166703 0.072720
O O14 0.328425 0.250799 0.160747
O O15 0.330610 0.000000 0.080003
O O16 0.331852 0.237899 0.986244
O O17 0.250000 0.708536 0.265035
O O18 0.313676 0.500000 0.235459
O O19 0.750000 0.333673 0.092201
O O20 0.670362 0.500000 0.078966
#
# Coordination Sequence:
#
# PCOD9406978 Si02
#       7
#     8   8   8   8   8   8   8
#     4   9  18  32  48  65  86 117 156 191 221 255
#     4  11  21  30  44  67  93 118 145 182 227 271
#     4   8  15  30  49  64  81 109 149 193 226 256
#     4   9  18  32  48  65  88 120 154 183 214 259
#     4   9  16  25  39  61  89 118 144 174 215 259
#     4   9  17  29  45  65  89 117 149 182 215 257
#     4   8  14  26  44  63  82 109 147 185 215 247
#
# _framework density 15.18183
#
# number of rings (size 3 to 8) (size 9 to 14) (size 15 to 20)
#    0.000    3.000    0.000    3.429    0.000    6.286 
#    0.000    2.857    0.000    0.000    0.000    1.000 
#    0.000    8.000    0.000    0.000    0.000    0.000 
#
# Total GULP energy -311786.417663 kJ/mol
# GULP energy per Si atom -5567.614601 kJ/mol
# Density = 1.514728 g / cm^3
# Si number density = 15.181830 Si / 1000 Ang^3
#
#
#
# Elastic Constant Matrix: (Units=GPa)
#
#
# Indices 1 2 3 4 5 6 
#
# 1 61.4260 50.0620 51.6304 0.0000 0.0000 0.0000
# 2 50.0620 83.6350 72.1771 0.0000 0.0000 0.0000
# 3 51.6304 72.1771 101.6261 0.0000 0.0000 0.0000
# 4 0.0000 0.0000 0.0000 5.5920 0.0000 0.0000
# 5 0.0000 0.0000 0.0000 0.0000 -2.0263 0.0000
# 6 0.0000 0.0000 0.0000 0.0000 0.0000 10.6052
#
#
#
# Elastic Compliance Matrix: (Units=1/GPa)
#
#
# Indices 1 2 3 4 5 6 
#
# 1 0.033721 -0.013951 -0.007224 0.000000 0.000000 0.000000
# 2 -0.013951 0.036661 -0.018950 0.000000 0.000000 0.000000
# 3 -0.007224 -0.018950 0.026969 0.000000 0.000000 0.000000
# 4 0.000000 0.000000 0.000000 0.178828 0.000000 0.000000
# 5 0.000000 0.000000 0.000000 0.000000 -0.493510 0.000000
# 6 0.000000 0.000000 0.000000 0.000000 0.000000 0.094293
#
#
# Mechanical properties :
#
#
# Convention : Reuss Voigt Hill
#
# Bulk Modulus (GPa) = 58.47198 66.04734 62.25966
# Shear Modulus (GPa) = -134.81666 7.68867 -63.56399
#
# Velocity S-wave (km/s) = -9.43367 2.25286 -6.47760
# Velocity P-wave (km/s) = 8.94767 7.09689 3.85324
#
# Compressibility (1/GPa) = 0.01710221
#
# Stress axis : x y z
#
# Youngs Moduli (GPa) = 29.65479 27.27680 37.07994
#
# Poissons Ratio (x) = 0.38053 0.26786
# Poissons Ratio (y) = 0.41370 0.70267
# Poissons Ratio (z) = 0.21422 0.51690
#
# Static dielectric constant tensor:
#      x y z
#    x 1.508250 0.000000 0.000000 
#    y 0.000000 1.504000 0.000000 
#    z 0.000000 0.000000 1.493660 
# 
# From -- ./inp_files/26502.got.cif
#   From: 2010.05.17/outbox.cif.g08.bks.cpg/sg51_14_cif.got.tgz:26502.got - 2010.06.03 11:52:47.
