data_PCOD9406545
_publ_section_title
;
Structure prediction by ZEFSAII (Michael W. Deem and Ramdas Pophale) SiO2 
 PCOD9406545
Probable space group: P M M A
;
_chemical_formula_sum "Si O2"
_cell_formula_units_Z 38
_cell_length_a 15.174251
_cell_length_b 10.977466
_cell_length_c 11.867028
_cell_angle_alpha 90.000000
_cell_angle_beta 90.000000
_cell_angle_gamma 90.000000
_cell_volume 1976.748106
_symmetry_space_group_name_H-M "P M M A"
_symmetry_group_IT_number 51
_symmetry_cell_setting 'orthorhombic'
loop_
_space_group_symop_operation_xyz
x,y,z
1/2-x,-y,z
1/2+x,-y,-z
-x,y,-z
-x,-y,-z
1/2+x,y,-z
1/2-x,y,z
x,-y,z
loop_
_atom_site_type_symbol
_atom_site_label
_atom_site_fract_x
_atom_site_fract_y
_atom_site_fract_z
Si Si1 0.558516 0.000000 0.117505
Si Si2 0.750000 0.745265 0.888074
Si Si3 0.081170 0.751481 0.752636
Si Si4 0.895405 0.361130 0.475429
Si Si5 0.250000 0.360094 0.873073
Si Si6 0.750000 0.000000 0.010238
Si Si7 0.890907 0.642641 0.727820
O O1 0.548664 0.120002 0.195963
O O2 0.500000 0.000000 0.000000
O O3 0.660893 0.000000 0.081721
O O4 0.835180 0.720725 0.813702
O O5 0.750000 0.879734 0.936153
O O6 0.750000 0.653804 0.993041
O O7 0.117529 0.735791 0.624202
O O8 0.161383 0.703651 0.828308
O O9 0.994249 0.667063 0.748846
O O10 0.866672 0.500000 0.444144
O O11 0.861580 0.328228 0.599546
O O12 0.000000 0.368543 0.500000
O O13 0.250000 0.500000 0.837300
O O14 0.873081 0.500000 0.744342
#
# Coordination Sequence:
#
# PCOD9406545 Si02
#       7
#     4   4   8   8   4   2   8
#     4  12  24  42  62  84 118 172 210 238 297 356
#     4  12  24  41  60  88 119 162 207 238 302 363
#     4  11  22  39  62  89 119 163 205 244 295 359
#     4   8  16  35  61  88 121 155 190 243 311 361
#     4  12  24  37  60  92 121 149 199 257 302 357
#     4  12  24  48  58  74 126 166 200 252 282 346
#     4  10  21  39  63  92 125 154 190 251 311 362
#
# _framework density 19.223490999999999
#
# number of rings (size 3 to 8) (size 9 to 14) (size 15 to 20)
#    0.000    1.474    2.105    5.368    0.000    0.842 
#    0.000    8.947    0.000    0.000    0.000    0.000 
#    0.000    0.000    0.000    0.000    0.000    0.000 
#
# Total GULP energy -211941.361181 kJ/mol
# GULP energy per Si atom -5577.404242 kJ/mol
# Density = 1.917974 g / cm^3
# Si number density = 19.223491 Si / 1000 Ang^3
#
#
#
# Elastic Constant Matrix: (Units=GPa)
#
#
# Indices 1 2 3 4 5 6 
#
# 1 66.6764 -7.6975 13.3545 0.0000 0.0000 0.0000
# 2 -7.6975 92.3118 35.8589 0.0000 0.0000 0.0000
# 3 13.3545 35.8589 111.3901 0.0000 0.0000 0.0000
# 4 0.0000 0.0000 0.0000 36.0589 0.0000 0.0000
# 5 0.0000 0.0000 0.0000 0.0000 54.2772 0.0000
# 6 0.0000 0.0000 0.0000 0.0000 0.0000 31.6876
#
#
#
# Elastic Compliance Matrix: (Units=1/GPa)
#
#
# Indices 1 2 3 4 5 6 
#
# 1 0.015799 0.002347 -0.002650 0.000000 0.000000 0.000000
# 2 0.002347 0.012730 -0.004379 0.000000 0.000000 0.000000
# 3 -0.002650 -0.004379 0.010705 0.000000 0.000000 0.000000
# 4 0.000000 0.000000 0.000000 0.027732 0.000000 0.000000
# 5 0.000000 0.000000 0.000000 0.000000 0.018424 0.000000
# 6 0.000000 0.000000 0.000000 0.000000 0.000000 0.031558
#
#
# Mechanical properties :
#
#
# Convention : Reuss Voigt Hill
#
# Bulk Modulus (GPa) = 33.47890 39.26778 36.37334
# Shear Modulus (GPa) = 36.69199 39.66222 38.17710
#
# Velocity S-wave (km/s) = 4.37361 4.54719 4.46125
# Velocity P-wave (km/s) = 6.55424 6.93113 6.74532
#
# Compressibility (1/GPa) = 0.02986956
#
# Stress axis : x y z
#
# Youngs Moduli (GPa) = 63.29344 78.55645 93.41497
#
# Poissons Ratio (x) = -0.18435 0.24752
# Poissons Ratio (y) = -0.14853 0.40909
# Poissons Ratio (z) = 0.16770 0.34402
#
# Static dielectric constant tensor:
#      x y z
#    x 1.711250 0.000000 0.000000 
#    y 0.000000 1.649930 0.000000 
#    z 0.000000 0.000000 1.703010 
# 
# From -- ./inp_files/16261.got.cif
#   From: 2010.05.17/outbox.cif.g08.bks.cpg/sg51_9_cif.got.tgz:16261.got - 2010.06.03 11:52:47.
