data_PCOD9406225
_publ_section_title
;
Structure prediction by ZEFSAII (Michael W. Deem and Ramdas Pophale) SiO2 
 PCOD9406225
Probable space group: P M M A
;
_chemical_formula_sum "Si O2"
_cell_formula_units_Z 36
_cell_length_a 8.797715
_cell_length_b 12.771718
_cell_length_c 20.397234
_cell_angle_alpha 90.000000
_cell_angle_beta 90.000000
_cell_angle_gamma 90.000000
_cell_volume 2291.872681
_symmetry_space_group_name_H-M "P M M A"
_symmetry_group_IT_number 51
_symmetry_cell_setting 'orthorhombic'
loop_
_space_group_symop_operation_xyz
x,y,z
1/2-x,-y,z
1/2+x,-y,-z
-x,y,-z
-x,-y,-z
1/2+x,y,-z
1/2-x,y,z
x,-y,z
loop_
_atom_site_type_symbol
_atom_site_label
_atom_site_fract_x
_atom_site_fract_y
_atom_site_fract_z
Si Si1 0.931915 0.125883 0.288129
Si Si2 0.430717 0.194257 0.153739
Si Si3 0.567741 0.000000 0.073017
Si Si4 0.430925 0.623371 0.928570
Si Si5 0.932065 0.123806 0.433132
O O1 0.750000 0.141943 0.281077
O O2 0.978719 0.163268 0.361090
O O3 0.019039 0.179138 0.228786
O O4 0.956333 0.000000 0.284346
O O5 0.250000 0.185831 0.147241
O O6 0.490104 0.302993 0.124311
O O7 0.509133 0.101605 0.112006
O O8 0.750000 0.000000 0.070735
O O9 0.500000 0.000000 0.000000
O O10 0.250000 0.641974 0.929453
O O11 0.457162 0.500000 0.916323
O O12 0.500000 0.648274 0.000000
O O13 0.750000 0.130545 0.436418
O O14 0.000000 0.169687 0.500000
O O15 0.972251 0.000000 0.432355
#
# Coordination Sequence:
#
# PCOD9406225 Si02
#       5
#     8   8   4   8   8
#     4   9  17  30  46  64  93 132 166 198 238 285
#     4  12  23  34  50  74 100 127 162 201 244 290
#     4  12  24  38  52  68  95 128 163 200 238 288
#     4  10  21  38  58  76  95 123 159 200 247 294
#     4   8  14  24  39  60  86 121 161 197 234 274
#
# _framework density 15.707679000000001
#
# number of rings (size 3 to 8) (size 9 to 14) (size 15 to 20)
#    0.000    2.000    1.111    5.667    0.000    2.222 
#    0.000    2.222    0.000    0.000    0.000    0.000 
#    0.000    0.889    0.000    2.889    0.000    3.556 
#
# Total GULP energy -200819.145868 kJ/mol
# GULP energy per Si atom -5578.309607 kJ/mol
# Density = 1.567193 g / cm^3
# Si number density = 15.707679 Si / 1000 Ang^3
#
#
#
# Elastic Constant Matrix: (Units=GPa)
#
#
# Indices 1 2 3 4 5 6 
#
# 1 94.9789 37.3955 67.5324 0.0000 0.0000 0.0000
# 2 37.3955 37.7556 45.9543 0.0000 0.0000 0.0000
# 3 67.5324 45.9543 162.2354 0.0000 0.0000 0.0000
# 4 0.0000 0.0000 0.0000 5.5033 0.0000 0.0000
# 5 0.0000 0.0000 0.0000 0.0000 32.0896 0.0000
# 6 0.0000 0.0000 0.0000 0.0000 0.0000 19.0060
#
#
#
# Elastic Compliance Matrix: (Units=1/GPa)
#
#
# Indices 1 2 3 4 5 6 
#
# 1 0.018733 -0.013832 -0.003880 0.000000 0.000000 0.000000
# 2 -0.013832 0.050636 -0.008585 0.000000 0.000000 0.000000
# 3 -0.003880 -0.008585 0.010211 0.000000 0.000000 0.000000
# 4 0.000000 0.000000 0.000000 0.181709 0.000000 0.000000
# 5 0.000000 0.000000 0.000000 0.000000 0.031163 0.000000
# 6 0.000000 0.000000 0.000000 0.000000 0.000000 0.052615
#
#
# Mechanical properties :
#
#
# Convention : Reuss Voigt Hill
#
# Bulk Modulus (GPa) = 37.05706 66.30381 51.68044
# Shear Modulus (GPa) = 12.29537 20.92563 16.61050
#
# Velocity S-wave (km/s) = 2.80082 3.65388 3.25541
# Velocity P-wave (km/s) = 5.83972 7.75267 6.86317
#
# Compressibility (1/GPa) = 0.02698541
#
# Stress axis : x y z
#
# Youngs Moduli (GPa) = 53.38032 19.74881 97.93603
#
# Poissons Ratio (x) = 0.27317 0.37998
# Poissons Ratio (y) = 0.73838 0.84079
# Poissons Ratio (z) = 0.20711 0.16955
#
# Static dielectric constant tensor:
#      x y z
#    x 1.523420 0.000000 0.000000 
#    y 0.000000 1.501090 0.000000 
#    z 0.000000 0.000000 1.546860 
# 
# From -- ./inp_files/31286.got.cif
#   From: 2010.05.17/outbox.cif.g08.bks.cpg/sg51_16_cif.got.tgz:31286.got - 2010.06.03 11:52:47.
