data_PCOD9406041
_publ_section_title
;
Structure prediction by ZEFSAII (Michael W. Deem and Ramdas Pophale) SiO2 
 PCOD9406041
Probable space group: P M M A
;
_chemical_formula_sum "Si O2"
_cell_formula_units_Z 48
_cell_length_a 14.022132
_cell_length_b 9.730726
_cell_length_c 17.710573
_cell_angle_alpha 90.000000
_cell_angle_beta 90.000000
_cell_angle_gamma 90.000000
_cell_volume 2416.528421
_symmetry_space_group_name_H-M "P M M A"
_symmetry_group_IT_number 51
_symmetry_cell_setting 'orthorhombic'
loop_
_space_group_symop_operation_xyz
x,y,z
1/2-x,-y,z
1/2+x,-y,-z
-x,y,-z
-x,-y,-z
1/2+x,y,-z
1/2-x,y,z
x,-y,z
loop_
_atom_site_type_symbol
_atom_site_label
_atom_site_fract_x
_atom_site_fract_y
_atom_site_fract_z
Si Si1 0.366128 0.657602 0.027059
Si Si2 0.635682 0.656530 0.691146
Si Si3 0.981204 0.159907 0.588539
Si Si4 0.133931 0.656615 0.855907
Si Si5 0.866193 0.843439 0.833809
Si Si6 0.861022 0.162192 0.286291
O O1 0.250000 0.656726 0.028092
O O2 0.395358 0.500000 0.044068
O O3 0.396232 0.765198 0.090314
O O4 0.395427 0.692618 0.941504
O O5 0.750000 0.651879 0.690012
O O6 0.600346 0.500000 0.697419
O O7 0.597163 0.734543 0.618087
O O8 0.607766 0.750289 0.762415
O O9 0.073802 0.187725 0.640700
O O10 0.000000 0.175274 0.500000
O O11 0.953088 0.000000 0.602072
O O12 0.250000 0.657610 0.857163
O O13 0.103428 0.500000 0.841062
O O14 0.106373 0.755589 0.787871
O O15 0.750000 0.849100 0.834810
O O16 0.901118 0.000000 0.828182
O O17 0.750000 0.197500 0.301346
O O18 0.865463 0.000000 0.269971
#
# Coordination Sequence:
#
# PCOD9406041 Si02
#       6
#     8   8   8   8   8   8
#     4   8  13  22  38  64 100 138 176 217 257 302
#     4  10  21  37  57  81 110 144 181 222 269 319
#     4  10  22  39  59  83 109 139 176 219 270 327
#     4   8  14  25  43  69 101 139 180 217 257 308
#     4   9  16  26  44  72 104 139 179 219 261 311
#     4   9  18  33  53  78 108 140 175 217 265 317
#
# _framework density 19.863205000000001
#
# number of rings (size 3 to 8) (size 9 to 14) (size 15 to 20)
#    0.000    3.000    0.000    2.000    0.000    5.333 
#    0.000    5.000    0.000    3.000    0.000    7.000 
#    0.000    0.000    0.000    0.000    0.000    0.000 
#
# Total GULP energy -268009.607314 kJ/mol
# GULP energy per Si atom -5583.533486 kJ/mol
# Density = 1.981800 g / cm^3
# Si number density = 19.863205 Si / 1000 Ang^3
#
#
#
# Elastic Constant Matrix: (Units=GPa)
#
#
# Indices 1 2 3 4 5 6 
#
# 1 50.7177 32.9538 12.4275 0.0000 0.0000 0.0000
# 2 32.9538 135.4321 99.7132 0.0000 0.0000 0.0000
# 3 12.4275 99.7132 141.7700 0.0000 0.0000 0.0000
# 4 0.0000 0.0000 0.0000 46.4574 0.0000 0.0000
# 5 0.0000 0.0000 0.0000 0.0000 154.9724 0.0000
# 6 0.0000 0.0000 0.0000 0.0000 0.0000 13.2737
#
#
#
# Elastic Compliance Matrix: (Units=1/GPa)
#
#
# Indices 1 2 3 4 5 6 
#
# 1 0.024600 -0.009122 0.004259 0.000000 0.000000 0.000000
# 2 -0.009122 0.018696 -0.012350 0.000000 0.000000 0.000000
# 3 0.004259 -0.012350 0.015367 0.000000 0.000000 0.000000
# 4 0.000000 0.000000 0.000000 0.021525 0.000000 0.000000
# 5 0.000000 0.000000 0.000000 0.000000 0.006453 0.000000
# 6 0.000000 0.000000 0.000000 0.000000 0.000000 0.075337
#
#
# Mechanical properties :
#
#
# Convention : Reuss Voigt Hill
#
# Bulk Modulus (GPa) = 41.25794 68.67876 54.96835
# Shear Modulus (GPa) = 24.45185 55.12903 39.79044
#
# Velocity S-wave (km/s) = 3.51238 5.27395 4.48059
# Velocity P-wave (km/s) = 6.10453 8.46977 7.38249
#
# Compressibility (1/GPa) = 0.02423776
#
# Stress axis : x y z
#
# Youngs Moduli (GPa) = 40.65012 53.48613 65.07484
#
# Poissons Ratio (x) = 0.48789 -0.27717
# Poissons Ratio (y) = 0.37080 0.80370
# Poissons Ratio (z) = -0.17314 0.66058
#
# Static dielectric constant tensor:
#      x y z
#    x 1.777980 0.000000 0.000000 
#    y 0.000000 1.672640 0.000000 
#    z 0.000000 0.000000 1.662280 
# 
# From -- ./inp_files/29490.got.cif
#   From: 2010.05.17/outbox.cif.g08.bks.cpg/sg51_15_cif.got.tgz:29490.got - 2010.06.03 11:52:47.
