data_PCOD9406959
_publ_section_title
;
Structure prediction by ZEFSAII (Michael W. Deem and Ramdas Pophale) SiO2 
 PCOD9406959
Probable space group: P M M A
;
_chemical_formula_sum "Si O2"
_cell_formula_units_Z 48
_cell_length_a 14.495521
_cell_length_b 14.465578
_cell_length_c 14.229543
_cell_angle_alpha 90.000000
_cell_angle_beta 90.000000
_cell_angle_gamma 90.000000
_cell_volume 2983.737230
_symmetry_space_group_name_H-M "P M M A"
_symmetry_group_IT_number 51
_symmetry_cell_setting 'orthorhombic'
loop_
_space_group_symop_operation_xyz
x,y,z
1/2-x,-y,z
1/2+x,-y,-z
-x,y,-z
-x,-y,-z
1/2+x,y,-z
1/2-x,y,z
x,-y,z
loop_
_atom_site_type_symbol
_atom_site_label
_atom_site_fract_x
_atom_site_fract_y
_atom_site_fract_z
Si Si1 0.140897 0.607537 0.597068
Si Si2 0.998806 0.155510 0.112055
Si Si3 0.646358 0.000000 0.881158
Si Si4 0.859993 0.108037 0.403116
Si Si5 0.977135 0.743345 0.290578
Si Si6 0.647903 0.000000 0.107974
Si Si7 0.857768 0.245725 0.568121
O O1 0.250000 0.616999 0.619118
O O2 0.120478 0.500000 0.581887
O O3 0.079273 0.653170 0.677989
O O4 0.124816 0.669404 0.504086
O O5 0.992141 0.242108 0.180395
O O6 0.910799 0.090036 0.131481
O O7 0.086351 0.091223 0.140182
O O8 0.000000 0.173864 0.000000
O O9 0.750000 0.000000 0.842071
O O10 0.652989 0.000000 0.994607
O O11 0.750000 0.118246 0.384977
O O12 0.917864 0.170383 0.331549
O O13 0.876157 0.153955 0.505682
O O14 0.883566 0.000000 0.399463
O O15 0.073594 0.746233 0.345678
O O16 0.750000 0.000000 0.148975
O O17 0.750000 0.246589 0.594302
#
# Coordination Sequence:
#
# PCOD9406959 Si02
#       7
#     8   8   4   8   8   4   8
#     4   9  18  34  55  78 100 118 146 196 250 295
#     4   9  19  32  44  67  98 125 163 208 243 276
#     4   8  15  31  48  61  85 126 170 206 242 274
#     4   9  18  31  45  65  95 125 156 195 238 288
#     4  11  20  29  49  72  94 128 163 198 235 291
#     4   8  15  29  48  63  83 120 162 208 250 280
#     4   9  19  33  46  67  97 126 157 194 233 282
#
# _framework density 16.087208
#
# number of rings (size 3 to 8) (size 9 to 14) (size 15 to 20)
#    0.000    2.833    0.000    4.500    2.333    4.667 
#    0.000    0.000    0.000    0.500    0.000    0.000 
#    0.000    2.667    0.000    0.000    0.000    0.000 
#
# Total GULP energy -267563.983999 kJ/mol
# GULP energy per Si atom -5574.249667 kJ/mol
# Density = 1.605059 g / cm^3
# Si number density = 16.087208 Si / 1000 Ang^3
#
#
#
# Elastic Constant Matrix: (Units=GPa)
#
#
# Indices 1 2 3 4 5 6 
#
# 1 80.6472 23.7322 29.0984 0.0000 0.0000 0.0000
# 2 23.7322 79.5664 20.3230 0.0000 0.0000 0.0000
# 3 29.0984 20.3230 66.6269 0.0000 0.0000 0.0000
# 4 0.0000 0.0000 0.0000 8.6030 0.0000 0.0000
# 5 0.0000 0.0000 0.0000 0.0000 3.7304 0.0000
# 6 0.0000 0.0000 0.0000 0.0000 0.0000 15.4290
#
#
#
# Elastic Compliance Matrix: (Units=1/GPa)
#
#
# Indices 1 2 3 4 5 6 
#
# 1 0.015401 -0.003119 -0.005775 0.000000 0.000000 0.000000
# 2 -0.003119 0.014262 -0.002988 0.000000 0.000000 0.000000
# 3 -0.005775 -0.002988 0.018443 0.000000 0.000000 0.000000
# 4 0.000000 0.000000 0.000000 0.116238 0.000000 0.000000
# 5 0.000000 0.000000 0.000000 0.000000 0.268067 0.000000
# 6 0.000000 0.000000 0.000000 0.000000 0.000000 0.064813
#
#
# Mechanical properties :
#
#
# Convention : Reuss Voigt Hill
#
# Bulk Modulus (GPa) = 41.08169 41.46087 41.27128
# Shear Modulus (GPa) = 9.45000 15.79828 12.62414
#
# Velocity S-wave (km/s) = 2.42631 3.13715 2.80435
# Velocity P-wave (km/s) = 5.78287 6.24106 6.01633
#
# Compressibility (1/GPa) = 0.02434174
#
# Stress axis : x y z
#
# Youngs Moduli (GPa) = 64.93054 70.11869 54.22240
#
# Poissons Ratio (x) = 0.21867 0.31313
# Poissons Ratio (y) = 0.20249 0.16202
# Poissons Ratio (z) = 0.37497 0.20952
#
# Static dielectric constant tensor:
#      x y z
#    x 1.573240 0.000000 0.000000 
#    y 0.000000 1.524850 0.000000 
#    z 0.000000 0.000000 1.537490 
# 
# From -- ./inp_files/24239.got.cif
#   From: 2010.05.17/outbox.cif.g08.bks.cpg/sg51_13_cif.got.tgz:24239.got - 2010.06.03 11:52:47.
