data_PCOD9406814
_publ_section_title
;
Structure prediction by ZEFSAII (Michael W. Deem and Ramdas Pophale) SiO2 
 PCOD9406814
Probable space group: P M M A
;
_chemical_formula_sum "Si O2"
_cell_formula_units_Z 64
_cell_length_a 13.923696
_cell_length_b 10.179134
_cell_length_c 20.043738
_cell_angle_alpha 90.000000
_cell_angle_beta 90.000000
_cell_angle_gamma 90.000000
_cell_volume 2840.822385
_symmetry_space_group_name_H-M "P M M A"
_symmetry_group_IT_number 51
_symmetry_cell_setting 'orthorhombic'
loop_
_space_group_symop_operation_xyz
x,y,z
1/2-x,-y,z
1/2+x,-y,-z
-x,y,-z
-x,-y,-z
1/2+x,y,-z
1/2-x,y,z
x,-y,z
loop_
_atom_site_type_symbol
_atom_site_label
_atom_site_fract_x
_atom_site_fract_y
_atom_site_fract_z
Si Si1 0.864518 0.151164 0.282071
Si Si2 0.137671 0.856502 0.505867
Si Si3 0.358124 0.742801 0.365990
Si Si4 0.635006 0.860845 0.925726
Si Si5 0.635461 0.648267 0.032393
Si Si6 0.639956 0.738953 0.785855
Si Si7 0.939917 0.349803 0.395332
Si Si8 0.440173 0.356136 0.819899
O O1 0.750000 0.144310 0.284900
O O2 0.912561 0.269348 0.461803
O O3 0.895792 0.229682 0.216120
O O4 0.900925 0.000000 0.286530
O O5 0.250000 0.849421 0.524478
O O6 0.132889 0.847353 0.425687
O O7 0.101653 0.000000 0.528869
O O8 0.250000 0.686405 0.371533
O O9 0.367867 0.791906 0.289759
O O10 0.446376 0.647389 0.380843
O O11 0.750000 0.865394 0.934968
O O12 0.604039 0.745912 0.974511
O O13 0.591898 0.000000 0.944831
O O14 0.623251 0.837951 0.846945
O O15 0.750000 0.666919 0.046698
O O16 0.623860 0.500000 0.007201
O O17 0.579307 0.660089 0.101760
O O18 0.750000 0.688080 0.792985
O O19 0.551626 0.641852 0.798240
O O20 0.903499 0.500000 0.394752
O O21 0.899091 0.249983 0.339781
O O22 0.398105 0.500000 0.800624
#
# Coordination Sequence:
#
# PCOD9406814 Si02
#       8
#     8   8   8   8   8   8   8   8
#     4  11  25  44  67  97 133 172 214 265 329 398
#     4  10  23  44  70 101 136 176 222 273 333 399
#     4  10  23  43  66  97 134 176 224 276 330 387
#     4   9  19  37  62  92 127 170 220 273 329 391
#     4   9  19  37  62  92 127 167 212 268 333 398
#     4  10  22  41  63  94 134 174 219 276 332 384
#     4  12  25  43  69 101 134 174 221 272 329 391
#     4  11  23  41  66  97 130 170 222 274 329 392
#
# _framework density 22.528687999999999
#
# number of rings (size 3 to 8) (size 9 to 14) (size 15 to 20)
#    0.000    1.750    1.250    1.875    0.000    8.750 
#    0.000    9.375    0.000    0.000    0.000    0.000 
#    0.000    0.000    0.000    0.000    0.000    0.000 
#
# Total GULP energy -357158.355622 kJ/mol
# GULP energy per Si atom -5580.599307 kJ/mol
# Density = 2.247741 g / cm^3
# Si number density = 22.528688 Si / 1000 Ang^3
#
#
#
# Elastic Constant Matrix: (Units=GPa)
#
#
# Indices 1 2 3 4 5 6 
#
# 1 104.3334 45.1372 32.7482 0.0000 0.0000 0.0000
# 2 45.1372 196.9194 92.4068 0.0000 0.0000 0.0000
# 3 32.7482 92.4068 141.6379 0.0000 0.0000 0.0000
# 4 0.0000 0.0000 0.0000 10.2386 0.0000 0.0000
# 5 0.0000 0.0000 0.0000 0.0000 38.6263 0.0000
# 6 0.0000 0.0000 0.0000 0.0000 0.0000 -0.6010
#
#
#
# Elastic Compliance Matrix: (Units=1/GPa)
#
#
# Indices 1 2 3 4 5 6 
#
# 1 0.010796 -0.001878 -0.001271 0.000000 0.000000 0.000000
# 2 -0.001878 0.007646 -0.004554 0.000000 0.000000 0.000000
# 3 -0.001271 -0.004554 0.010325 0.000000 0.000000 0.000000
# 4 0.000000 0.000000 0.000000 0.097669 0.000000 0.000000
# 5 0.000000 0.000000 0.000000 0.000000 0.025889 0.000000
# 6 0.000000 0.000000 0.000000 0.000000 0.000000 -1.663920
#
#
# Mechanical properties :
#
#
# Convention : Reuss Voigt Hill
#
# Bulk Modulus (GPa) = 74.84453 87.05277 80.94865
# Shear Modulus (GPa) = -3.35180 27.82601 12.23710
#
# Velocity S-wave (km/s) = -1.22107 3.51826 2.33315
# Velocity P-wave (km/s) = 5.59517 7.43162 6.57780
#
# Compressibility (1/GPa) = 0.01336103
#
# Stress axis : x y z
#
# Youngs Moduli (GPa) = 92.62571 130.79169 96.85134
#
# Poissons Ratio (x) = 0.24567 0.12307
# Poissons Ratio (y) = 0.17398 0.44105
# Poissons Ratio (z) = 0.11770 0.59561
#
# Static dielectric constant tensor:
#      x y z
#    x 1.873750 0.000000 0.000000 
#    y 0.000000 1.824660 0.000000 
#    z 0.000000 0.000000 1.846110 
# 
# From -- ./inp_files/29862.got.cif
#   From: 2010.05.17/outbox.cif.g08.bks.cpg/sg51_15_cif.got.tgz:29862.got - 2010.06.03 11:52:47.
