data_PCOD9406586
_publ_section_title
;
Structure prediction by ZEFSAII (Michael W. Deem and Ramdas Pophale) SiO2 
 PCOD9406586
Probable space group: P M M A
;
_chemical_formula_sum "Si O2"
_cell_formula_units_Z 40
_cell_length_a 13.490603
_cell_length_b 13.529865
_cell_length_c 9.200510
_cell_angle_alpha 90.000000
_cell_angle_beta 90.000000
_cell_angle_gamma 90.000000
_cell_volume 1679.332632
_symmetry_space_group_name_H-M "P M M A"
_symmetry_group_IT_number 51
_symmetry_cell_setting 'orthorhombic'
loop_
_space_group_symop_operation_xyz
x,y,z
1/2-x,-y,z
1/2+x,-y,-z
-x,y,-z
-x,-y,-z
1/2+x,y,-z
1/2-x,y,z
x,-y,z
loop_
_atom_site_type_symbol
_atom_site_label
_atom_site_fract_x
_atom_site_fract_y
_atom_site_fract_z
Si Si1 0.453030 0.394456 0.158498
Si Si2 0.132355 0.814661 0.437610
Si Si3 0.370066 0.000000 0.639393
Si Si4 0.584714 0.191062 0.877388
Si Si5 0.142551 0.000000 0.956576
Si Si6 0.634204 0.385097 0.383634
O O1 0.409261 0.500000 0.203335
O O2 0.377506 0.303520 0.143156
O O3 0.547767 0.372430 0.263140
O O4 0.500000 0.405419 0.000000
O O5 0.250000 0.824436 0.401274
O O6 0.106881 0.898984 0.554105
O O7 0.070910 0.832736 0.291393
O O8 0.119247 0.703813 0.501885
O O9 0.250000 0.000000 0.629899
O O10 0.416746 0.000000 0.803988
O O11 0.635742 0.096733 0.946687
O O12 0.500000 0.203505 0.000000
O O13 0.250000 0.000000 0.894431
O O14 0.750000 0.374466 0.331278
O O15 0.625146 0.500000 0.435051
#
# Coordination Sequence:
#
# PCOD9406586 Si02
#       6
#     8   8   4   8   4   8
#     4   9  20  39  61  91 135 175 208 255 319 387
#     4  10  21  40  65  93 124 164 215 270 323 379
#     4   9  21  39  64  92 115 153 210 268 325 378
#     4  11  24  41  62  94 133 170 215 260 326 393
#     4  11  24  45  69  89 123 173 223 273 323 384
#     4   9  19  38  66  97 127 167 222 275 319 372
#
# _framework density 23.818985000000001
#
# number of rings (size 3 to 8) (size 9 to 14) (size 15 to 20)
#    0.000    2.200    0.000    1.500    5.600    2.400 
#    0.000    7.000    0.000    3.000    0.000    0.000 
#    0.000    0.000    0.000    0.000    0.000    0.000 
#
# Total GULP energy -222692.510835 kJ/mol
# GULP energy per Si atom -5567.312771 kJ/mol
# Density = 2.376477 g / cm^3
# Si number density = 23.818985 Si / 1000 Ang^3
#
#
#
# Elastic Constant Matrix: (Units=GPa)
#
#
# Indices 1 2 3 4 5 6 
#
# 1 79.7626 46.1646 30.1542 0.0000 0.0000 0.0000
# 2 46.1646 205.0516 86.9010 0.0000 0.0000 0.0000
# 3 30.1542 86.9010 173.5819 0.0000 0.0000 0.0000
# 4 0.0000 0.0000 0.0000 51.6001 0.0000 0.0000
# 5 0.0000 0.0000 0.0000 0.0000 21.4280 0.0000
# 6 0.0000 0.0000 0.0000 0.0000 0.0000 -4.0507
#
#
#
# Elastic Compliance Matrix: (Units=1/GPa)
#
#
# Indices 1 2 3 4 5 6 
#
# 1 0.014588 -0.002806 -0.001130 0.000000 0.000000 0.000000
# 2 -0.002806 0.006730 -0.002882 0.000000 0.000000 0.000000
# 3 -0.001130 -0.002882 0.007400 0.000000 0.000000 0.000000
# 4 0.000000 0.000000 0.000000 0.019380 0.000000 0.000000
# 5 0.000000 0.000000 0.000000 0.000000 0.046668 0.000000
# 6 0.000000 0.000000 0.000000 0.000000 0.000000 -0.246870
#
#
# Mechanical properties :
#
#
# Convention : Reuss Voigt Hill
#
# Bulk Modulus (GPa) = 66.29632 87.20394 76.75013
# Shear Modulus (GPa) = -37.46936 33.47390 -1.99773
#
# Velocity S-wave (km/s) = -3.97052 3.75286 -0.91681
# Velocity P-wave (km/s) = 2.62179 7.44777 5.58314
#
# Compressibility (1/GPa) = 0.01508379
#
# Stress axis : x y z
#
# Youngs Moduli (GPa) = 68.54919 148.59388 135.13666
#
# Poissons Ratio (x) = 0.41689 0.15266
# Poissons Ratio (y) = 0.19232 0.38943
# Poissons Ratio (z) = 0.07744 0.42821
#
# Static dielectric constant tensor:
#      x y z
#    x 1.961420 0.000000 0.000000 
#    y 0.000000 1.992580 0.000000 
#    z 0.000000 0.000000 1.875150 
# 
# From -- ./inp_files/8017.got.cif
#   From: 2010.05.17/outbox.cif.g08.bks.cpg/sg51_5_cif.got.tgz:8017.got - 2010.06.03 11:52:47.
