data_PCOD9406631
_publ_section_title
;
Structure prediction by ZEFSAII (Michael W. Deem and Ramdas Pophale) SiO2 
 PCOD9406631
Probable space group: P M M A
;
_chemical_formula_sum "Si O2"
_cell_formula_units_Z 48
_cell_length_a 8.124383
_cell_length_b 32.517091
_cell_length_c 9.324225
_cell_angle_alpha 90.000000
_cell_angle_beta 90.000000
_cell_angle_gamma 90.000000
_cell_volume 2463.285894
_symmetry_space_group_name_H-M "P M M A"
_symmetry_group_IT_number 51
_symmetry_cell_setting 'orthorhombic'
loop_
_space_group_symop_operation_xyz
x,y,z
1/2-x,-y,z
1/2+x,-y,-z
-x,y,-z
-x,-y,-z
1/2+x,y,-z
1/2-x,y,z
x,-y,z
loop_
_atom_site_type_symbol
_atom_site_label
_atom_site_fract_x
_atom_site_fract_y
_atom_site_fract_z
Si Si1 0.448780 0.546049 0.335822
Si Si2 0.948713 0.044125 0.332682
Si Si3 0.949296 0.866164 0.333598
Si Si4 0.553577 0.213624 0.164299
Si Si5 0.949057 0.374566 0.835658
Si Si6 0.446426 0.705557 0.335423
O O1 0.500000 0.553774 0.500000
O O2 0.250000 0.545761 0.330564
O O3 0.506827 0.500000 0.296101
O O4 0.508502 0.582798 0.234926
O O5 0.750000 0.044003 0.324883
O O6 0.006098 0.088748 0.278150
O O7 0.000000 0.044051 0.500000
O O8 0.007339 0.000000 0.271370
O O9 0.750000 0.866070 0.329901
O O10 0.010984 0.827854 0.240795
O O11 0.000000 0.861616 0.500000
O O12 0.750000 0.211799 0.167982
O O13 0.500640 0.253703 0.252098
O O14 0.500000 0.216309 0.000000
O O15 0.750000 0.374706 0.829219
O O16 0.009523 0.335378 0.744759
O O17 0.000000 0.371028 0.000000
O O18 0.500000 0.706583 0.500000
O O19 0.250000 0.704109 0.331742
#
# Coordination Sequence:
#
# PCOD9406631 Si02
#       6
#     8   8   8   8   8   8
#     4   9  18  34  55  79 107 139 177 219 261 306
#     4   8  13  23  41  66  95 125 158 199 247 296
#     4   9  18  31  49  74 101 130 166 208 253 303
#     4  11  23  38  55  76 104 137 174 215 261 311
#     4  10  22  37  54  79 110 142 175 214 259 308
#     4  11  23  39  59  82 107 136 173 215 260 310
#
# _framework density 19.486166999999998
#
# number of rings (size 3 to 8) (size 9 to 14) (size 15 to 20)
#    0.000    2.333    0.000    2.500    0.000    6.333 
#    0.000    0.000    0.000    0.500    0.000    0.000 
#    0.000    0.000    0.000    0.000    0.000    0.167 
#
# Total GULP energy -267769.175352 kJ/mol
# GULP energy per Si atom -5578.524486 kJ/mol
# Density = 1.944182 g / cm^3
# Si number density = 19.486167 Si / 1000 Ang^3
#
#
#
# Elastic Constant Matrix: (Units=GPa)
#
#
# Indices 1 2 3 4 5 6 
#
# 1 18.0861 20.9906 8.5126 0.0000 0.0000 0.0000
# 2 20.9906 231.7583 120.5706 0.0000 0.0000 0.0000
# 3 8.5126 120.5706 133.8490 0.0000 0.0000 0.0000
# 4 0.0000 0.0000 0.0000 -3.7782 0.0000 0.0000
# 5 0.0000 0.0000 0.0000 0.0000 28.6797 0.0000
# 6 0.0000 0.0000 0.0000 0.0000 0.0000 19.1851
#
#
#
# Elastic Compliance Matrix: (Units=1/GPa)
#
#
# Indices 1 2 3 4 5 6 
#
# 1 0.062099 -0.006718 0.002102 0.000000 0.000000 0.000000
# 2 -0.006718 0.008847 -0.007542 0.000000 0.000000 0.000000
# 3 0.002102 -0.007542 0.014131 0.000000 0.000000 0.000000
# 4 0.000000 0.000000 0.000000 -0.264677 0.000000 0.000000
# 5 0.000000 0.000000 0.000000 0.000000 0.034868 0.000000
# 6 0.000000 0.000000 0.000000 0.000000 0.000000 0.052124
#
#
# Mechanical properties :
#
#
# Convention : Reuss Voigt Hill
#
# Bulk Modulus (GPa) = 16.45790 75.98234 46.22012
# Shear Modulus (GPa) = -104.08281 24.39195 -39.84543
#
# Velocity S-wave (km/s) = -7.31640 3.54186 -4.52686
# Velocity P-wave (km/s) = 7.93149 7.47020 1.88476
#
# Compressibility (1/GPa) = 0.06076109
#
# Stress axis : x y z
#
# Youngs Moduli (GPa) = 16.10340 113.03251 70.76491
#
# Poissons Ratio (x) = 0.75935 -0.14876
# Poissons Ratio (y) = 0.10818 0.53372
# Poissons Ratio (z) = -0.03385 0.85250
#
# Static dielectric constant tensor:
#      x y z
#    x 1.701230 0.000000 0.000000 
#    y 0.000000 1.741010 0.000000 
#    z 0.000000 0.000000 1.618900 
# 
# From -- ./inp_files/6027.got.cif
#   From: 2010.05.17/outbox.cif.g08.bks.cpg/sg51_4_cif.got.tgz:6027.got - 2010.06.03 11:52:47.
