data_PCOD9406037
_publ_section_title
;
Structure prediction by ZEFSAII (Michael W. Deem and Ramdas Pophale) SiO2 
 PCOD9406037
Probable space group: P M M A
;
_chemical_formula_sum "Si O2"
_cell_formula_units_Z 48
_cell_length_a 9.315844
_cell_length_b 8.576554
_cell_length_c 31.755839
_cell_angle_alpha 90.000000
_cell_angle_beta 90.000000
_cell_angle_gamma 90.000000
_cell_volume 2537.222916
_symmetry_space_group_name_H-M "P M M A"
_symmetry_group_IT_number 51
_symmetry_cell_setting 'orthorhombic'
loop_
_space_group_symop_operation_xyz
x,y,z
1/2-x,-y,z
1/2+x,-y,-z
-x,y,-z
-x,-y,-z
1/2+x,y,-z
1/2-x,y,z
x,-y,z
loop_
_atom_site_type_symbol
_atom_site_label
_atom_site_fract_x
_atom_site_fract_y
_atom_site_fract_z
Si Si1 0.581851 0.812353 0.374938
Si Si2 0.582229 0.313755 0.283803
Si Si3 0.083578 0.811396 0.042179
Si Si4 0.083942 0.813360 0.203891
Si Si5 0.584026 0.686887 0.123233
Si Si6 0.415002 0.809464 0.458427
O O1 0.750000 0.775921 0.381923
O O2 0.537636 0.738171 0.330613
O O3 0.491225 0.760151 0.415236
O O4 0.569293 0.000000 0.371314
O O5 0.750000 0.266617 0.278407
O O6 0.574888 0.500000 0.280284
O O7 0.486230 0.238203 0.247773
O O8 0.250000 0.761435 0.041328
O O9 0.002536 0.749684 0.083154
O O10 0.081670 0.000000 0.043433
O O11 0.000000 0.761663 0.000000
O O12 0.250000 0.762174 0.201249
O O13 0.992597 0.743700 0.165639
O O14 0.080575 0.000000 0.200776
O O15 0.750000 0.739941 0.121943
O O16 0.582861 0.500000 0.122489
O O17 0.500000 0.758276 0.500000
O O18 0.250000 0.760355 0.459975
O O19 0.417549 0.000000 0.458541
#
# Coordination Sequence:
#
# PCOD9406037 Si02
#       6
#     8   8   8   8   8   8
#     4   9  17  30  49  73 102 136 173 214 262 315
#     4  10  21  37  57  81 109 142 180 221 268 324
#     4  10  21  38  61  88 117 151 192 235 279 327
#     4  11  24  40  59  84 112 143 182 227 274 325
#     4  11  24  40  59  85 116 150 188 229 276 330
#     4   9  16  26  43  69 100 132 168 213 263 313
#
# _framework density 18.918320999999999
#
# number of rings (size 3 to 8) (size 9 to 14) (size 15 to 20)
#    0.000    2.000    0.000    3.500    0.000   11.667 
#    0.000    1.667    0.000    0.500    0.000    0.000 
#    0.000    0.000    0.000    0.000    0.000    0.000 
#
# Total GULP energy -268183.073049 kJ/mol
# GULP energy per Si atom -5587.147355 kJ/mol
# Density = 1.887526 g / cm^3
# Si number density = 18.918321 Si / 1000 Ang^3
#
#
#
# Elastic Constant Matrix: (Units=GPa)
#
#
# Indices 1 2 3 4 5 6 
#
# 1 170.1281 31.9672 116.1501 0.0000 0.0000 0.0000
# 2 31.9672 14.4145 25.2117 0.0000 0.0000 0.0000
# 3 116.1501 25.2117 174.2881 0.0000 0.0000 0.0000
# 4 0.0000 0.0000 0.0000 -248.6700 0.0000 0.0000
# 5 0.0000 0.0000 0.0000 0.0000 42.7210 0.0000
# 6 0.0000 0.0000 0.0000 0.0000 0.0000 12.9928
#
#
#
# Elastic Compliance Matrix: (Units=1/GPa)
#
#
# Indices 1 2 3 4 5 6 
#
# 1 0.014013 -0.019736 -0.006484 0.000000 0.000000 0.000000
# 2 -0.019736 0.120670 -0.004303 0.000000 0.000000 0.000000
# 3 -0.006484 -0.004303 0.010681 0.000000 0.000000 0.000000
# 4 0.000000 0.000000 0.000000 -0.004021 0.000000 0.000000
# 5 0.000000 0.000000 0.000000 0.000000 0.023408 0.000000
# 6 0.000000 0.000000 0.000000 0.000000 0.000000 0.076966
#
#
# Mechanical properties :
#
#
# Convention : Reuss Voigt Hill
#
# Bulk Modulus (GPa) = 11.85980 78.38762 45.12371
# Shear Modulus (GPa) = 15.11179 -26.22444 -5.55633
#
# Velocity S-wave (km/s) = 2.82936 -3.72720 -1.71563
# Velocity P-wave (km/s) = 4.11779 4.79604 4.46980
#
# Compressibility (1/GPa) = 0.08431846
#
# Stress axis : x y z
#
# Youngs Moduli (GPa) = 71.36286 8.28706 93.62547
#
# Poissons Ratio (x) = 0.16356 0.60703
# Poissons Ratio (y) = 1.40845 0.40284
# Poissons Ratio (z) = 0.46269 0.03566
#
# Static dielectric constant tensor:
#      x y z
#    x 1.644550 0.000000 0.000000 
#    y 0.000000 1.640290 0.000000 
#    z 0.000000 0.000000 1.615930 
# 
# From -- ./inp_files/36920.got.cif
#   From: 2010.05.17/outbox.cif.g08.bks.cpg/sg51_19_cif.got.tgz:36920.got - 2010.06.03 11:52:47.
