data_PCOD9406326
_publ_section_title
;
Structure prediction by ZEFSAII (Michael W. Deem and Ramdas Pophale) SiO2 
 PCOD9406326
Probable space group: P M M A
;
_chemical_formula_sum "Si O2"
_cell_formula_units_Z 56
_cell_length_a 14.158924
_cell_length_b 9.046227
_cell_length_c 21.753929
_cell_angle_alpha 90.000000
_cell_angle_beta 90.000000
_cell_angle_gamma 90.000000
_cell_volume 2786.348528
_symmetry_space_group_name_H-M "P M M A"
_symmetry_group_IT_number 51
_symmetry_cell_setting 'orthorhombic'
loop_
_space_group_symop_operation_xyz
x,y,z
1/2-x,-y,z
1/2+x,-y,-z
-x,y,-z
-x,-y,-z
1/2+x,y,-z
1/2-x,y,z
x,-y,z
loop_
_atom_site_type_symbol
_atom_site_label
_atom_site_fract_x
_atom_site_fract_y
_atom_site_fract_z
Si Si1 0.036799 0.323557 0.290352
Si Si2 0.136350 0.169706 0.042880
Si Si3 0.864233 0.171660 0.594846
Si Si4 0.364822 0.668823 0.529863
Si Si5 0.967257 0.675769 0.846508
Si Si6 0.638693 0.824558 0.342527
Si Si7 0.358941 0.178119 0.903662
O O1 0.040691 0.500000 0.298604
O O2 0.095747 0.244182 0.343567
O O3 0.070016 0.286077 0.221438
O O4 0.929852 0.265597 0.298222
O O5 0.250000 0.168757 0.044599
O O6 0.096454 0.265224 0.098048
O O7 0.103215 0.000000 0.050549
O O8 0.111420 0.218992 0.973641
O O9 0.750000 0.177080 0.596228
O O10 0.896597 0.261123 0.534444
O O11 0.892424 0.000000 0.590299
O O12 0.250000 0.664546 0.527115
O O13 0.397650 0.500000 0.538313
O O14 0.386580 0.769517 0.588668
O O15 0.975333 0.500000 0.849817
O O16 0.069248 0.748585 0.857144
O O17 0.750000 0.795195 0.332482
O O18 0.623422 0.000000 0.336912
O O19 0.250000 0.221490 0.894274
O O20 0.363206 0.000000 0.900027
#
# Coordination Sequence:
#
# PCOD9406326 Si02
#       7
#     8   8   8   8   8   8   8
#     4  11  25  41  55  77 112 153 193 228 271 333
#     4   9  19  37  61  87 113 144 184 228 274 326
#     4  10  21  38  60  85 112 142 183 236 284 327
#     4   9  17  32  57  86 114 145 179 220 279 342
#     4  11  24  38  54  81 116 151 186 228 277 328
#     4  10  21  38  60  85 112 142 183 236 284 327
#     4   9  19  37  61  87 113 144 184 228 274 326
#
# _framework density 20.097988000000001
#
# number of rings (size 3 to 8) (size 9 to 14) (size 15 to 20)
#    0.000    2.143    0.000    3.429    0.000   10.286 
#    0.000   10.000    0.000    0.000    0.000    0.000 
#    0.000    0.000    0.000    0.000    0.000    0.000 
#
# Total GULP energy -312992.292102 kJ/mol
# GULP energy per Si atom -5589.148073 kJ/mol
# Density = 2.005224 g / cm^3
# Si number density = 20.097988 Si / 1000 Ang^3
#
#
#
# Elastic Constant Matrix: (Units=GPa)
#
#
# Indices 1 2 3 4 5 6 
#
# 1 28.4958 -0.9650 -2.8054 0.0000 0.0000 0.0000
# 2 -0.9650 59.3913 24.5908 0.0000 0.0000 0.0000
# 3 -2.8054 24.5908 78.6855 0.0000 0.0000 0.0000
# 4 0.0000 0.0000 0.0000 35.9592 0.0000 0.0000
# 5 0.0000 0.0000 0.0000 0.0000 18.9294 0.0000
# 6 0.0000 0.0000 0.0000 0.0000 0.0000 -201.0307
#
#
#
# Elastic Compliance Matrix: (Units=1/GPa)
#
#
# Indices 1 2 3 4 5 6 
#
# 1 0.035217 0.000060 0.001237 0.000000 0.000000 0.000000
# 2 0.000060 0.019340 -0.006042 0.000000 0.000000 0.000000
# 3 0.001237 -0.006042 0.014641 0.000000 0.000000 0.000000
# 4 0.000000 0.000000 0.000000 0.027809 0.000000 0.000000
# 5 0.000000 0.000000 0.000000 0.000000 0.052828 0.000000
# 6 0.000000 0.000000 0.000000 0.000000 0.000000 -0.004974
#
#
# Mechanical properties :
#
#
# Convention : Reuss Voigt Hill
#
# Bulk Modulus (GPa) = 16.74823 23.13481 19.94152
# Shear Modulus (GPa) = 28.69378 -19.51162 4.59108
#
# Velocity S-wave (km/s) = 3.78258 -3.11919 1.51305
# Velocity P-wave (km/s) = 5.23723 1.19851 3.60501
#
# Compressibility (1/GPa) = 0.05970779
#
# Stress axis : x y z
#
# Youngs Moduli (GPa) = 28.39562 51.70591 68.30053
#
# Poissons Ratio (x) = -0.00311 -0.08448
# Poissons Ratio (y) = -0.00171 0.41267
# Poissons Ratio (z) = -0.03512 0.31241
#
# Static dielectric constant tensor:
#      x y z
#    x 1.745930 0.000000 0.000000 
#    y 0.000000 1.667010 0.000000 
#    z 0.000000 0.000000 1.692330 
# 
# From -- ./inp_files/33372.got.cif
#   From: 2010.05.17/outbox.cif.g08.bks.cpg/sg51_17_cif.got.tgz:33372.got - 2010.06.03 11:52:47.
