data_PCOD9406904
_publ_section_title
;
Structure prediction by ZEFSAII (Michael W. Deem and Ramdas Pophale) SiO2 
 PCOD9406904
Probable space group: P M M A
;
_chemical_formula_sum "Si O2"
_cell_formula_units_Z 48
_cell_length_a 10.409274
_cell_length_b 31.595047
_cell_length_c 7.693205
_cell_angle_alpha 90.000000
_cell_angle_beta 90.000000
_cell_angle_gamma 90.000000
_cell_volume 2530.152810
_symmetry_space_group_name_H-M "P M M A"
_symmetry_group_IT_number 51
_symmetry_cell_setting 'orthorhombic'
loop_
_space_group_symop_operation_xyz
x,y,z
1/2-x,-y,z
1/2+x,-y,-z
-x,y,-z
-x,-y,-z
1/2+x,y,-z
1/2-x,y,z
x,-y,z
loop_
_atom_site_type_symbol
_atom_site_label
_atom_site_fract_x
_atom_site_fract_y
_atom_site_fract_z
Si Si1 0.250000 0.107831 0.312643
Si Si2 0.607972 0.368750 0.640831
Si Si3 0.250000 0.163585 0.984610
Si Si4 0.107245 0.545588 0.144151
Si Si5 0.512798 0.048621 0.790709
Si Si6 0.250000 0.908770 0.697947
Si Si7 0.096634 0.727203 0.331504
Si Si8 0.500000 0.219195 0.000000
O O1 0.374951 0.079735 0.269170
O O2 0.250000 0.116736 0.517389
O O3 0.250000 0.147669 0.184266
O O4 0.500000 0.371214 0.500000
O O5 0.750000 0.368931 0.560104
O O6 0.596718 0.410919 0.752966
O O7 0.593575 0.322414 0.725292
O O8 0.250000 0.122672 0.861336
O O9 0.121962 0.190314 0.951123
O O10 0.250000 0.545906 0.065285
O O11 0.096422 0.500000 0.241976
O O12 0.000000 0.545569 0.000000
O O13 0.377511 0.062842 0.710065
O O14 0.542610 0.000000 0.745835
O O15 0.500000 0.051397 0.000000
O O16 0.250000 0.736790 0.368318
O O17 0.044647 0.754063 0.168599
O O18 0.000000 0.732041 0.500000
#
# Coordination Sequence:
#
# PCOD9406904 Si02
#       8
#     4   8   4   8   8   4   8   4
#     4  12  25  43  67  94 130 172 210 257 308 369
#     4   9  19  36  56  83 118 152 192 245 303 366
#     4  12  26  46  65  94 128 162 217 264 316 384
#     4   9  18  32  50  77 114 155 199 244 290 354
#     4  11  22  41  68  98 135 172 210 261 309 356
#     4  12  25  43  69  94 128 172 214 257 306 365
#     4  10  23  43  67  97 127 160 208 264 326 391
#     4  12  26  44  70  90 124 164 210 266 326 394
#
# _framework density 18.971188000000001
#
# number of rings (size 3 to 8) (size 9 to 14) (size 15 to 20)
#    0.000    1.500    2.500    2.000    2.333    5.667 
#    0.000    0.000    0.000    0.000    0.000    0.000 
#    0.000    0.000    0.000    0.000    0.000    0.000 
#
# Total GULP energy -267701.582138 kJ/mol
# GULP energy per Si atom -5577.116295 kJ/mol
# Density = 1.892801 g / cm^3
# Si number density = 18.971188 Si / 1000 Ang^3
#
#
#
# Elastic Constant Matrix: (Units=GPa)
#
#
# Indices 1 2 3 4 5 6 
#
# 1 114.6085 48.1034 10.8203 0.0000 0.0000 0.0000
# 2 48.1034 71.0636 14.4441 0.0000 0.0000 0.0000
# 3 10.8203 14.4441 55.5312 0.0000 0.0000 0.0000
# 4 0.0000 0.0000 0.0000 -63.1092 0.0000 0.0000
# 5 0.0000 0.0000 0.0000 0.0000 -12.1157 0.0000
# 6 0.0000 0.0000 0.0000 0.0000 0.0000 25.6231
#
#
#
# Elastic Compliance Matrix: (Units=1/GPa)
#
#
# Indices 1 2 3 4 5 6 
#
# 1 0.012191 -0.008203 -0.000242 0.000000 0.000000 0.000000
# 2 -0.008203 0.020377 -0.003702 0.000000 0.000000 0.000000
# 3 -0.000242 -0.003702 0.019018 0.000000 0.000000 0.000000
# 4 0.000000 0.000000 0.000000 -0.015846 0.000000 0.000000
# 5 0.000000 0.000000 0.000000 0.000000 -0.082538 0.000000
# 6 0.000000 0.000000 0.000000 0.000000 0.000000 0.039027
#
#
# Mechanical properties :
#
#
# Convention : Reuss Voigt Hill
#
# Bulk Modulus (GPa) = 36.63991 43.10432 39.87211
# Shear Modulus (GPa) = 195.14951 1.26867 98.20909
#
# Velocity S-wave (km/s) = 10.15330 0.81865 7.20277
# Velocity P-wave (km/s) = 12.52231 4.86455 9.49926
#
# Compressibility (1/GPa) = 0.02729264
#
# Stress axis : x y z
#
# Youngs Moduli (GPa) = 82.02624 49.07460 52.58203
#
# Poissons Ratio (x) = 0.40257 0.01271
# Poissons Ratio (y) = 0.67288 0.19465
# Poissons Ratio (z) = 0.01983 0.18167
#
# Static dielectric constant tensor:
#      x y z
#    x 1.641990 0.000000 0.000000 
#    y 0.000000 1.699000 0.000000 
#    z 0.000000 0.000000 1.642330 
# 
# From -- ./inp_files/6329.got.cif
#   From: 2010.05.17/outbox.cif.g08.bks.cpg/sg51_4_cif.got.tgz:6329.got - 2010.06.03 11:52:47.
