data_PCOD9406809
_publ_section_title
;
Structure prediction by ZEFSAII (Michael W. Deem and Ramdas Pophale) SiO2 
 PCOD9406809
Probable space group: P M M A
;
_chemical_formula_sum "Si O2"
_cell_formula_units_Z 56
_cell_length_a 14.660283
_cell_length_b 8.659073
_cell_length_c 24.423516
_cell_angle_alpha 90.000000
_cell_angle_beta 90.000000
_cell_angle_gamma 90.000000
_cell_volume 3100.430067
_symmetry_space_group_name_H-M "P M M A"
_symmetry_group_IT_number 51
_symmetry_cell_setting 'orthorhombic'
loop_
_space_group_symop_operation_xyz
x,y,z
1/2-x,-y,z
1/2+x,-y,-z
-x,y,-z
-x,-y,-z
1/2+x,y,-z
1/2-x,y,z
x,-y,z
loop_
_atom_site_type_symbol
_atom_site_label
_atom_site_fract_x
_atom_site_fract_y
_atom_site_fract_z
Si Si1 0.104622 0.325653 0.020138
Si Si2 0.044168 0.817521 0.130370
Si Si3 0.250000 0.178203 0.419027
Si Si4 0.582217 0.684002 0.643623
Si Si5 0.349251 0.312816 0.901919
Si Si6 0.856491 0.685128 0.763703
Si Si7 0.750000 0.681002 0.464830
Si Si8 0.447339 0.814866 0.557273
O O1 0.137918 0.500000 0.030689
O O2 0.100900 0.234361 0.076529
O O3 0.150974 0.260355 0.965663
O O4 0.000000 0.336087 0.000000
O O5 0.095976 0.759620 0.184046
O O6 0.941522 0.748585 0.125522
O O7 0.036450 0.000000 0.130615
O O8 0.162187 0.216673 0.383599
O O9 0.250000 0.292516 0.470080
O O10 0.250000 0.000000 0.437767
O O11 0.599607 0.500000 0.637272
O O12 0.587371 0.718256 0.708169
O O13 0.494399 0.731835 0.608761
O O14 0.250000 0.271851 0.877536
O O15 0.355910 0.500000 0.903155
O O16 0.750000 0.732775 0.757394
O O17 0.856565 0.500000 0.770903
O O18 0.750000 0.500000 0.451340
O O19 0.657173 0.761938 0.445553
O O20 0.500000 0.773420 0.500000
O O21 0.454114 0.000000 0.562636
#
# Coordination Sequence:
#
# PCOD9406809 Si02
#       8
#     8   8   4   8   8   8   4   8
#     4   8  15  30  51  75 104 140 182 225 270 325
#     4  11  22  34  52  82 117 149 181 227 285 338
#     4  12  22  34  56  88 124 156 186 231 288 345
#     4  11  22  39  62  88 113 147 196 241 280 335
#     4   9  18  34  57  81 106 145 193 233 274 330
#     4  10  22  41  62  83 108 145 191 235 277 328
#     4  12  24  38  60  88 120 158 200 239 272 325
#     4  11  23  38  59  89 124 158 188 229 293 347
#
# _framework density 18.062010999999998
#
# number of rings (size 3 to 8) (size 9 to 14) (size 15 to 20)
#    0.000    1.714    2.143    4.286    0.000    5.429 
#    0.000    1.429    1.571    0.000    0.000    0.000 
#    0.000    0.000    0.000    0.000    0.000    0.000 
#
# Total GULP energy -312427.156243 kJ/mol
# GULP energy per Si atom -5579.056361 kJ/mol
# Density = 1.802090 g / cm^3
# Si number density = 18.062011 Si / 1000 Ang^3
#
#
#
# Elastic Constant Matrix: (Units=GPa)
#
#
# Indices 1 2 3 4 5 6 
#
# 1 104.8214 26.2437 45.7956 0.0000 0.0000 0.0000
# 2 26.2437 54.7049 36.2613 0.0000 0.0000 0.0000
# 3 45.7956 36.2613 109.4181 0.0000 0.0000 0.0000
# 4 0.0000 0.0000 0.0000 -2.0001 0.0000 0.0000
# 5 0.0000 0.0000 0.0000 0.0000 30.2816 0.0000
# 6 0.0000 0.0000 0.0000 0.0000 0.0000 19.7028
#
#
#
# Elastic Compliance Matrix: (Units=1/GPa)
#
#
# Indices 1 2 3 4 5 6 
#
# 1 0.012079 -0.003132 -0.004018 0.000000 0.000000 0.000000
# 2 -0.003132 0.024238 -0.006722 0.000000 0.000000 0.000000
# 3 -0.004018 -0.006722 0.013048 0.000000 0.000000 0.000000
# 4 0.000000 0.000000 0.000000 -0.499983 0.000000 0.000000
# 5 0.000000 0.000000 0.000000 0.000000 0.033023 0.000000
# 6 0.000000 0.000000 0.000000 0.000000 0.000000 0.050754
#
#
# Mechanical properties :
#
#
# Convention : Reuss Voigt Hill
#
# Bulk Modulus (GPa) = 46.24659 53.94952 50.09806
# Shear Modulus (GPa) = -15.06525 20.30645 2.62060
#
# Velocity S-wave (km/s) = -2.89119 3.35664 1.20584
# Velocity P-wave (km/s) = 3.80981 6.70497 5.45304
#
# Compressibility (1/GPa) = 0.02162321
#
# Stress axis : x y z
#
# Youngs Moduli (GPa) = 82.78506 41.25791 76.63727
#
# Poissons Ratio (x) = 0.12921 0.30792
# Poissons Ratio (y) = 0.25925 0.51513
# Poissons Ratio (z) = 0.33262 0.27732
#
# Static dielectric constant tensor:
#      x y z
#    x 1.659970 0.000000 0.000000 
#    y 0.000000 1.606200 0.000000 
#    z 0.000000 0.000000 1.606350 
# 
# From -- ./inp_files/33555.got.cif
#   From: 2010.05.17/outbox.cif.g08.bks.cpg/sg51_17_cif.got.tgz:33555.got - 2010.06.03 11:52:47.
