data_PCOD9406383
_publ_section_title
;
Structure prediction by ZEFSAII (Michael W. Deem and Ramdas Pophale) SiO2 
 PCOD9406383
Probable space group: P M M A
;
_chemical_formula_sum "Si O2"
_cell_formula_units_Z 48
_cell_length_a 9.010571
_cell_length_b 14.719785
_cell_length_c 18.668524
_cell_angle_alpha 90.000000
_cell_angle_beta 90.000000
_cell_angle_gamma 90.000000
_cell_volume 2476.074811
_symmetry_space_group_name_H-M "P M M A"
_symmetry_group_IT_number 51
_symmetry_cell_setting 'orthorhombic'
loop_
_space_group_symop_operation_xyz
x,y,z
1/2-x,-y,z
1/2+x,-y,-z
-x,y,-z
-x,-y,-z
1/2+x,y,-z
1/2-x,y,z
x,-y,z
loop_
_atom_site_type_symbol
_atom_site_label
_atom_site_fract_x
_atom_site_fract_y
_atom_site_fract_z
Si Si1 0.426901 0.722849 0.427056
Si Si2 0.072207 0.894616 0.637395
Si Si3 0.925762 0.223379 0.927280
Si Si4 0.423371 0.392239 0.287304
Si Si5 0.923997 0.108219 0.195543
Si Si6 0.926120 0.393793 0.136839
O O1 0.500000 0.688342 0.500000
O O2 0.250000 0.722458 0.433981
O O3 0.486326 0.823737 0.411154
O O4 0.467350 0.662816 0.357741
O O5 0.250000 0.884271 0.628608
O O6 0.037938 0.874978 0.721170
O O7 0.035431 0.000000 0.623272
O O8 0.750000 0.223293 0.933696
O O9 0.978467 0.163948 0.859793
O O10 0.986511 0.324760 0.913231
O O11 0.000000 0.187717 0.000000
O O12 0.250000 0.371145 0.270464
O O13 0.432725 0.500000 0.301439
O O14 0.523101 0.372536 0.218203
O O15 0.750000 0.131958 0.185529
O O16 0.938797 0.000000 0.183902
O O17 0.750000 0.380942 0.129253
O O18 0.961090 0.500000 0.123624
#
# Coordination Sequence:
#
# PCOD9406383 Si02
#       6
#     8   8   8   8   8   8
#     4  11  23  36  53  79 111 148 185 225 274 325
#     4   9  19  37  60  83 108 141 180 224 274 326
#     4  12  25  39  57  82 115 153 189 229 277 329
#     4   9  19  37  59  83 111 143 182 227 274 326
#     4   9  19  38  63  88 114 145 183 229 279 331
#     4  10  21  38  61  87 113 144 184 229 278 333
#
# _framework density 19.385522000000002
#
# number of rings (size 3 to 8) (size 9 to 14) (size 15 to 20)
#    0.000    2.000    0.000    4.500    0.000    7.667 
#    0.000    1.667    0.000    0.000    0.000    0.000 
#    0.000    0.000    0.000    0.000    0.000    0.000 
#
# Total GULP energy -268281.483940 kJ/mol
# GULP energy per Si atom -5589.197582 kJ/mol
# Density = 1.934140 g / cm^3
# Si number density = 19.385522 Si / 1000 Ang^3
#
#
#
# Elastic Constant Matrix: (Units=GPa)
#
#
# Indices 1 2 3 4 5 6 
#
# 1 62.6612 18.1368 24.2060 0.0000 0.0000 0.0000
# 2 18.1368 28.5815 16.1016 0.0000 0.0000 0.0000
# 3 24.2060 16.1016 40.6623 0.0000 0.0000 0.0000
# 4 0.0000 0.0000 0.0000 6.6708 0.0000 0.0000
# 5 0.0000 0.0000 0.0000 0.0000 33.5983 0.0000
# 6 0.0000 0.0000 0.0000 0.0000 0.0000 29.3868
#
#
#
# Elastic Compliance Matrix: (Units=1/GPa)
#
#
# Indices 1 2 3 4 5 6 
#
# 1 0.022243 -0.008566 -0.009849 0.000000 0.000000 0.000000
# 2 -0.008566 0.048333 -0.014040 0.000000 0.000000 0.000000
# 3 -0.009849 -0.014040 0.036015 0.000000 0.000000 0.000000
# 4 0.000000 0.000000 0.000000 0.149906 0.000000 0.000000
# 5 0.000000 0.000000 0.000000 0.000000 0.029763 0.000000
# 6 0.000000 0.000000 0.000000 0.000000 0.000000 0.034029
#
#
# Mechanical properties :
#
#
# Convention : Reuss Voigt Hill
#
# Bulk Modulus (GPa) = 23.99144 27.64375 25.81759
# Shear Modulus (GPa) = 12.52841 18.82855 15.67848
#
# Velocity S-wave (km/s) = 2.54496 3.11990 2.84698
# Velocity P-wave (km/s) = 4.58678 5.22200 4.91467
#
# Compressibility (1/GPa) = 0.04168154
#
# Stress axis : x y z
#
# Youngs Moduli (GPa) = 44.95822 20.68992 27.76589
#
# Poissons Ratio (x) = 0.17723 0.27347
# Poissons Ratio (y) = 0.38511 0.38982
# Poissons Ratio (z) = 0.44280 0.29048
#
# Static dielectric constant tensor:
#      x y z
#    x 1.644690 0.000000 0.000000 
#    y 0.000000 1.677300 0.000000 
#    z 0.000000 0.000000 1.668080 
# 
# From -- ./inp_files/27518.got.cif
#   From: 2010.05.17/outbox.cif.g08.bks.cpg/sg51_14_cif.got.tgz:27518.got - 2010.06.03 11:52:47.
