data_PCOD9406529
_publ_section_title
;
Structure prediction by ZEFSAII (Michael W. Deem and Ramdas Pophale) SiO2 
 PCOD9406529
Probable space group: P M M A
;
_chemical_formula_sum "Si O2"
_cell_formula_units_Z 48
_cell_length_a 8.756088
_cell_length_b 31.007256
_cell_length_c 9.317889
_cell_angle_alpha 90.000000
_cell_angle_beta 90.000000
_cell_angle_gamma 90.000000
_cell_volume 2529.827942
_symmetry_space_group_name_H-M "P M M A"
_symmetry_group_IT_number 51
_symmetry_cell_setting 'orthorhombic'
loop_
_space_group_symop_operation_xyz
x,y,z
1/2-x,-y,z
1/2+x,-y,-z
-x,y,-z
-x,-y,-z
1/2+x,y,-z
1/2-x,y,z
x,-y,z
loop_
_atom_site_type_symbol
_atom_site_label
_atom_site_fract_x
_atom_site_fract_y
_atom_site_fract_z
Si Si1 0.932291 0.625859 0.658424
Si Si2 0.934046 0.048979 0.657225
Si Si3 0.566465 0.130829 0.841265
Si Si4 0.567523 0.209401 0.341015
Si Si5 0.932621 0.295691 0.158965
Si Si6 0.432106 0.550733 0.842987
O O1 0.750000 0.626780 0.652984
O O2 0.000000 0.631608 0.500000
O O3 0.993621 0.663853 0.760206
O O4 0.990300 0.581122 0.726361
O O5 0.750000 0.049699 0.647953
O O6 0.980585 0.085159 0.770808
O O7 0.000000 0.059035 0.500000
O O8 0.981385 0.000000 0.694946
O O9 0.750000 0.132664 0.846685
O O10 0.505120 0.168902 0.740646
O O11 0.500000 0.135465 0.000000
O O12 0.500000 0.213212 0.500000
O O13 0.750000 0.203928 0.349237
O O14 0.535379 0.252564 0.250080
O O15 0.750000 0.301512 0.151296
O O16 0.000000 0.291638 0.000000
O O17 0.250000 0.557794 0.844269
O O18 0.460650 0.500000 0.815870
O O19 0.500000 0.561049 0.000000
#
# Coordination Sequence:
#
# PCOD9406529 Si02
#       6
#     8   8   8   8   8   8
#     4  12  25  41  62  88 121 158 198 245 295 349
#     4   9  19  36  57  82 112 148 191 238 289 345
#     4  11  23  38  58  84 117 154 194 241 291 346
#     4  11  24  41  63  89 119 154 193 239 290 346
#     4  11  24  42  64  90 120 155 195 239 289 345
#     4  10  21  39  63  90 121 158 200 245 294 349
#
# _framework density 18.973621999999999
#
# number of rings (size 3 to 8) (size 9 to 14) (size 15 to 20)
#    0.000    1.333    0.000    5.500    0.000    9.667 
#    0.000    0.000    0.000    0.000    0.000    0.000 
#    0.000    0.000    0.000    0.000    0.000    0.000 
#
# Total GULP energy -268504.556972 kJ/mol
# GULP energy per Si atom -5593.844937 kJ/mol
# Density = 1.893044 g / cm^3
# Si number density = 18.973622 Si / 1000 Ang^3
#
#
#
# Elastic Constant Matrix: (Units=GPa)
#
#
# Indices 1 2 3 4 5 6 
#
# 1 93.9654 72.1253 77.8264 0.0000 0.0000 0.0000
# 2 72.1253 104.2853 92.4949 0.0000 0.0000 0.0000
# 3 77.8264 92.4949 186.8829 0.0000 0.0000 0.0000
# 4 0.0000 0.0000 0.0000 32.1640 0.0000 0.0000
# 5 0.0000 0.0000 0.0000 0.0000 39.4423 0.0000
# 6 0.0000 0.0000 0.0000 0.0000 0.0000 27.9261
#
#
#
# Elastic Compliance Matrix: (Units=1/GPa)
#
#
# Indices 1 2 3 4 5 6 
#
# 1 0.023668 -0.013595 -0.003128 0.000000 0.000000 0.000000
# 2 -0.013595 0.024901 -0.006663 0.000000 0.000000 0.000000
# 3 -0.003128 -0.006663 0.009951 0.000000 0.000000 0.000000
# 4 0.000000 0.000000 0.000000 0.031091 0.000000 0.000000
# 5 0.000000 0.000000 0.000000 0.000000 0.025354 0.000000
# 6 0.000000 0.000000 0.000000 0.000000 0.000000 0.035809
#
#
# Mechanical properties :
#
#
# Convention : Reuss Voigt Hill
#
# Bulk Modulus (GPa) = 85.11348 96.66964 90.89156
# Shear Modulus (GPa) = 24.81875 29.41895 27.11885
#
# Velocity S-wave (km/s) = 3.62064 3.94193 3.78470
# Velocity P-wave (km/s) = 7.90158 8.47222 8.19187
#
# Compressibility (1/GPa) = 0.01174902
#
# Stress axis : x y z
#
# Youngs Moduli (GPa) = 42.25143 40.15885 100.49045
#
# Poissons Ratio (x) = 0.54595 0.31431
# Poissons Ratio (y) = 0.57440 0.66956
# Poissons Ratio (z) = 0.13215 0.26757
#
# Static dielectric constant tensor:
#      x y z
#    x 1.634880 0.000000 0.000000 
#    y 0.000000 1.651550 0.000000 
#    z 0.000000 0.000000 1.610970 
# 
# From -- ./inp_files/6001.got.cif
#   From: 2010.05.17/outbox.cif.g08.bks.cpg/sg51_4_cif.got.tgz:6001.got - 2010.06.03 11:52:47.
