data_PCOD9406618
_publ_section_title
;
Structure prediction by ZEFSAII (Michael W. Deem and Ramdas Pophale) SiO2 
 PCOD9406618
Probable space group: P M M A
;
_chemical_formula_sum "Si O2"
_cell_formula_units_Z 32
_cell_length_a 11.100314
_cell_length_b 19.157322
_cell_length_c 7.455074
_cell_angle_alpha 90.000000
_cell_angle_beta 90.000000
_cell_angle_gamma 90.000000
_cell_volume 1585.338555
_symmetry_space_group_name_H-M "P M M A"
_symmetry_group_IT_number 51
_symmetry_cell_setting 'orthorhombic'
loop_
_space_group_symop_operation_xyz
x,y,z
1/2-x,-y,z
1/2+x,-y,-z
-x,y,-z
-x,-y,-z
1/2+x,y,-z
1/2-x,y,z
x,-y,z
loop_
_atom_site_type_symbol
_atom_site_label
_atom_site_fract_x
_atom_site_fract_y
_atom_site_fract_z
Si Si1 0.885681 0.080446 0.129143
Si Si2 0.879143 0.416816 0.798445
Si Si3 0.379448 0.357548 0.797021
Si Si4 0.615827 0.786988 0.376394
O O1 0.750000 0.088302 0.046514
O O2 0.892456 0.137657 0.284289
O O3 0.893378 0.000000 0.192486
O O4 0.000000 0.091756 0.000000
O O5 0.750000 0.399660 0.712203
O O6 0.885832 0.500000 0.822238
O O7 0.001981 0.390780 0.711240
O O8 0.877463 0.381346 0.995622
O O9 0.250000 0.380566 0.721003
O O10 0.387560 0.274531 0.771735
O O11 0.500000 0.776651 0.500000
O O12 0.750000 0.781549 0.463143
#
# Coordination Sequence:
#
# PCOD9406618 Si02
#       4
#     8   8   8   8
#     4   9  19  36  57  82 110 138 174 221 267 312
#     4   9  17  29  49  78 104 128 166 215 264 314
#     4   9  17  29  46  70 100 131 165 208 257 305
#     4  10  22  37  52  75 108 145 182 218 260 312
#
# _framework density 20.184961999999999
#
# number of rings (size 3 to 8) (size 9 to 14) (size 15 to 20)
#    0.000    2.750    0.000    1.500    3.500    4.000 
#    0.000    0.000    0.000    3.000    0.000    3.500 
#    0.000    0.000    0.000    0.000    0.000    0.000 
#
# Total GULP energy -178154.880611 kJ/mol
# GULP energy per Si atom -5567.340019 kJ/mol
# Density = 2.013902 g / cm^3
# Si number density = 20.184962 Si / 1000 Ang^3
#
#
#
# Elastic Constant Matrix: (Units=GPa)
#
#
# Indices 1 2 3 4 5 6 
#
# 1 217.7143 58.3273 27.8286 0.0000 0.0000 0.0000
# 2 58.3273 76.4308 21.3123 0.0000 0.0000 0.0000
# 3 27.8286 21.3123 40.2610 0.0000 0.0000 0.0000
# 4 0.0000 0.0000 0.0000 -9.5963 0.0000 0.0000
# 5 0.0000 0.0000 0.0000 0.0000 7.2284 0.0000
# 6 0.0000 0.0000 0.0000 0.0000 0.0000 34.1471
#
#
#
# Elastic Compliance Matrix: (Units=1/GPa)
#
#
# Indices 1 2 3 4 5 6 
#
# 1 0.005906 -0.003952 -0.001990 0.000000 0.000000 0.000000
# 2 -0.003952 0.017994 -0.006793 0.000000 0.000000 0.000000
# 3 -0.001990 -0.006793 0.029810 0.000000 0.000000 0.000000
# 4 0.000000 0.000000 0.000000 -0.104207 0.000000 0.000000
# 5 0.000000 0.000000 0.000000 0.000000 0.138344 0.000000
# 6 0.000000 0.000000 0.000000 0.000000 0.000000 0.029285
#
#
# Mechanical properties :
#
#
# Convention : Reuss Voigt Hill
#
# Bulk Modulus (GPa) = 35.41304 61.03805 48.22554
# Shear Modulus (GPa) = 32.89086 21.48501 27.18794
#
# Velocity S-wave (km/s) = 4.04105 3.26606 3.67405
# Velocity P-wave (km/s) = 6.27342 6.67292 6.47625
#
# Compressibility (1/GPa) = 0.02823819
#
# Stress axis : x y z
#
# Youngs Moduli (GPa) = 169.30560 55.57303 33.54600
#
# Poissons Ratio (x) = 0.21965 0.06677
# Poissons Ratio (y) = 0.66918 0.22789
# Poissons Ratio (z) = 0.33697 0.37753
#
# Static dielectric constant tensor:
#      x y z
#    x 1.817040 0.000000 0.000000 
#    y 0.000000 1.683770 0.000000 
#    z 0.000000 0.000000 1.700230 
# 
# From -- ./inp_files/6657.got.cif
#   From: 2010.05.17/outbox.cif.g08.bks.cpg/sg51_4_cif.got.tgz:6657.got - 2010.06.03 11:52:47.
