data_PCOD9406204
_publ_section_title
;
Structure prediction by ZEFSAII (Michael W. Deem and Ramdas Pophale) SiO2 
 PCOD9406204
Probable space group: P M M A
;
_chemical_formula_sum "Si O2"
_cell_formula_units_Z 48
_cell_length_a 8.557868
_cell_length_b 9.825804
_cell_length_c 29.877371
_cell_angle_alpha 90.000000
_cell_angle_beta 90.000000
_cell_angle_gamma 90.000000
_cell_volume 2512.326390
_symmetry_space_group_name_H-M "P M M A"
_symmetry_group_IT_number 51
_symmetry_cell_setting 'orthorhombic'
loop_
_space_group_symop_operation_xyz
x,y,z
1/2-x,-y,z
1/2+x,-y,-z
-x,y,-z
-x,-y,-z
1/2+x,y,-z
1/2-x,y,z
x,-y,z
loop_
_atom_site_type_symbol
_atom_site_label
_atom_site_fract_x
_atom_site_fract_y
_atom_site_fract_z
Si Si1 0.437485 0.658584 0.871416
Si Si2 0.937305 0.250765 0.606416
Si Si3 0.060691 0.158973 0.210331
Si Si4 0.059582 0.341763 0.294819
Si Si5 0.562909 0.500000 0.449966
Si Si6 0.937560 0.155503 0.949662
Si Si7 0.434781 0.000000 0.550687
O O1 0.250000 0.659194 0.869759
O O2 0.489556 0.500000 0.868151
O O3 0.502312 0.752799 0.831547
O O4 0.493193 0.731651 0.916831
O O5 0.750000 0.239545 0.606882
O O6 0.988748 0.279546 0.657406
O O7 0.993299 0.374525 0.576580
O O8 0.008335 0.124763 0.580537
O O9 0.250000 0.157574 0.209409
O O10 0.010732 0.242285 0.254663
O O11 0.009864 0.000000 0.209706
O O12 0.250000 0.345093 0.294564
O O13 0.008172 0.500000 0.290012
O O14 0.750000 0.500000 0.449735
O O15 0.500000 0.500000 0.500000
O O16 0.750000 0.164494 0.949440
O O17 0.979756 0.000000 0.935209
O O18 0.000000 0.172798 0.000000
O O19 0.500000 0.000000 0.500000
O O20 0.250000 0.000000 0.546542
#
# Coordination Sequence:
#
# PCOD9406204 Si02
#       7
#     8   8   8   8   4   8   4
#     4  11  24  40  58  84 121 164 208 253 304 358
#     4  11  22  40  65  92 121 158 202 249 301 361
#     4  10  21  37  62  93 121 153 199 249 298 357
#     4   9  18  35  61  91 120 153 195 241 291 353
#     4  12  24  40  62  90 124 160 200 248 299 358
#     4  10  21  38  62  91 122 159 204 252 305 363
#     4  12  26  44  62  88 122 160 202 248 305 362
#
# _framework density 19.105796000000002
#
# number of rings (size 3 to 8) (size 9 to 14) (size 15 to 20)
#    0.000    1.500    0.833    4.500    1.167    5.667 
#    0.000    1.667    0.000    0.000    0.000    0.000 
#    0.000    0.000    0.000    0.000    0.000    0.000 
#
# Total GULP energy -268094.497709 kJ/mol
# GULP energy per Si atom -5585.302036 kJ/mol
# Density = 1.906231 g / cm^3
# Si number density = 19.105796 Si / 1000 Ang^3
#
#
#
# Elastic Constant Matrix: (Units=GPa)
#
#
# Indices 1 2 3 4 5 6 
#
# 1 54.8582 41.4107 31.7784 0.0000 0.0000 0.0000
# 2 41.4107 220.6548 112.3699 0.0000 0.0000 0.0000
# 3 31.7784 112.3699 158.9751 0.0000 0.0000 0.0000
# 4 0.0000 0.0000 0.0000 38.5652 0.0000 0.0000
# 5 0.0000 0.0000 0.0000 0.0000 28.9502 0.0000
# 6 0.0000 0.0000 0.0000 0.0000 0.0000 29.8798
#
#
#
# Elastic Compliance Matrix: (Units=1/GPa)
#
#
# Indices 1 2 3 4 5 6 
#
# 1 0.021756 -0.002919 -0.002286 0.000000 0.000000 0.000000
# 2 -0.002919 0.007472 -0.004698 0.000000 0.000000 0.000000
# 3 -0.002286 -0.004698 0.010068 0.000000 0.000000 0.000000
# 4 0.000000 0.000000 0.000000 0.025930 0.000000 0.000000
# 5 0.000000 0.000000 0.000000 0.000000 0.034542 0.000000
# 6 0.000000 0.000000 0.000000 0.000000 0.000000 0.033467
#
#
# Mechanical properties :
#
#
# Convention : Reuss Voigt Hill
#
# Bulk Modulus (GPa) = 51.30613 89.51178 70.40896
# Shear Modulus (GPa) = 31.34018 36.07432 33.70725
#
# Velocity S-wave (km/s) = 4.05452 4.34998 4.20484
# Velocity P-wave (km/s) = 6.98790 8.49600 7.77859
#
# Compressibility (1/GPa) = 0.01949085
#
# Stress axis : x y z
#
# Youngs Moduli (GPa) = 45.96353 133.82515 99.32314
#
# Poissons Ratio (x) = 0.39064 0.22702
# Poissons Ratio (y) = 0.13417 0.46665
# Poissons Ratio (z) = 0.10506 0.62875
#
# Static dielectric constant tensor:
#      x y z
#    x 1.661990 0.000000 0.000000 
#    y 0.000000 1.616310 0.000000 
#    z 0.000000 0.000000 1.645920 
# 
# From -- ./inp_files/37180.got.cif
#   From: 2010.05.17/outbox.cif.g08.bks.cpg/sg51_19_cif.got.tgz:37180.got - 2010.06.03 11:52:47.
