data_PCOD9406124
_publ_section_title
;
Structure prediction by ZEFSAII (Michael W. Deem and Ramdas Pophale) SiO2 
 PCOD9406124
Probable space group: P M M A
;
_chemical_formula_sum "Si O2"
_cell_formula_units_Z 40
_cell_length_a 30.354584
_cell_length_b 7.522783
_cell_length_c 7.803622
_cell_angle_alpha 90.000000
_cell_angle_beta 90.000000
_cell_angle_gamma 90.000000
_cell_volume 1781.964485
_symmetry_space_group_name_H-M "P M M A"
_symmetry_group_IT_number 51
_symmetry_cell_setting 'orthorhombic'
loop_
_space_group_symop_operation_xyz
x,y,z
1/2-x,-y,z
1/2+x,-y,-z
-x,y,-z
-x,-y,-z
1/2+x,y,-z
1/2-x,y,z
x,-y,z
loop_
_atom_site_type_symbol
_atom_site_label
_atom_site_fract_x
_atom_site_fract_y
_atom_site_fract_z
Si Si1 0.392816 0.286676 0.645358
Si Si2 0.607857 0.788680 0.735375
Si Si3 0.797741 0.213405 0.841439
Si Si4 0.546981 0.294665 0.049952
Si Si5 0.797993 0.712372 0.248164
O O1 0.390112 0.500000 0.668214
O O2 0.408822 0.248520 0.454759
O O3 0.342797 0.216530 0.668643
O O4 0.425317 0.216315 0.792179
O O5 0.658135 0.719790 0.751485
O O6 0.578106 0.709142 0.884224
O O7 0.608432 0.000000 0.763873
O O8 0.750000 0.282049 0.781433
O O9 0.797040 0.000000 0.822807
O O10 0.801423 0.254635 0.043891
O O11 0.537935 0.500000 0.098656
O O12 0.500000 0.212812 0.000000
O O13 0.750000 0.783381 0.304850
O O14 0.797063 0.500000 0.274592
#
# Coordination Sequence:
#
# PCOD9406124 Si02
#       5
#     8   8   8   8   8
#     4  10  21  37  58  84 115 149 186 231 282 339
#     4  11  23  37  58  87 118 151 188 233 282 337
#     4   9  18  33  53  79 113 152 189 224 270 330
#     4  10  22  42  65  85 109 146 191 239 292 346
#     4   9  17  31  54  83 112 145 188 235 280 326
#
# _framework density 22.447137000000001
#
# number of rings (size 3 to 8) (size 9 to 14) (size 15 to 20)
#    0.000    2.200    2.000    0.600    0.000    4.400 
#    0.000    4.000    0.000    0.000    0.000    0.000 
#    0.000    0.000    0.000    0.000    0.000    0.000 
#
# Total GULP energy -223416.688869 kJ/mol
# GULP energy per Si atom -5585.417222 kJ/mol
# Density = 2.239605 g / cm^3
# Si number density = 22.447137 Si / 1000 Ang^3
#
#
#
# Elastic Constant Matrix: (Units=GPa)
#
#
# Indices 1 2 3 4 5 6 
#
# 1 111.6920 -4.3297 32.2416 0.0000 0.0000 0.0000
# 2 -4.3297 61.7959 -27.2271 0.0000 0.0000 0.0000
# 3 32.2416 -27.2271 99.1423 0.0000 0.0000 0.0000
# 4 0.0000 0.0000 0.0000 26.0650 0.0000 0.0000
# 5 0.0000 0.0000 0.0000 0.0000 -5.4500 0.0000
# 6 0.0000 0.0000 0.0000 0.0000 0.0000 132.3013
#
#
#
# Elastic Compliance Matrix: (Units=1/GPa)
#
#
# Indices 1 2 3 4 5 6 
#
# 1 0.009918 -0.000826 -0.003452 0.000000 0.000000 0.000000
# 2 -0.000826 0.018479 0.005343 0.000000 0.000000 0.000000
# 3 -0.003452 0.005343 0.012677 0.000000 0.000000 0.000000
# 4 0.000000 0.000000 0.000000 0.038366 0.000000 0.000000
# 5 0.000000 0.000000 0.000000 0.000000 -0.183485 0.000000
# 6 0.000000 0.000000 0.000000 0.000000 0.000000 0.007559
#
#
# Mechanical properties :
#
#
# Convention : Reuss Voigt Hill
#
# Bulk Modulus (GPa) = 23.14641 30.44441 26.79541
# Shear Modulus (GPa) = -59.37074 48.71294 -5.32890
#
# Velocity S-wave (km/s) = -5.14845 4.66351 -1.54244
# Velocity P-wave (km/s) = 5.00082 6.52609 2.96494
#
# Compressibility (1/GPa) = 0.04320325
#
# Stress axis : x y z
#
# Youngs Moduli (GPa) = 100.82997 54.11631 78.88540
#
# Poissons Ratio (x) = 0.04471 0.27232
# Poissons Ratio (y) = 0.08330 -0.42152
# Poissons Ratio (z) = 0.34808 -0.28917
#
# Static dielectric constant tensor:
#      x y z
#    x 1.863410 0.000000 0.000000 
#    y 0.000000 1.757430 0.000000 
#    z 0.000000 0.000000 1.782210 
# 
# From -- ./inp_files/3403.got.cif
#   From: 2010.05.17/outbox.cif.g08.bks.cpg/sg51_2_cif.got.tgz:3403.got - 2010.06.03 11:52:47.
