data_PCOD9406200
_publ_section_title
;
Structure prediction by ZEFSAII (Michael W. Deem and Ramdas Pophale) SiO2 
 PCOD9406200
Probable space group: P M M A
;
_chemical_formula_sum "Si O2"
_cell_formula_units_Z 48
_cell_length_a 14.340703
_cell_length_b 16.353047
_cell_length_c 9.915834
_cell_angle_alpha 90.000000
_cell_angle_beta 90.000000
_cell_angle_gamma 90.000000
_cell_volume 2325.403780
_symmetry_space_group_name_H-M "P M M A"
_symmetry_group_IT_number 51
_symmetry_cell_setting 'orthorhombic'
loop_
_space_group_symop_operation_xyz
x,y,z
1/2-x,-y,z
1/2+x,-y,-z
-x,y,-z
-x,-y,-z
1/2+x,y,-z
1/2-x,y,z
x,-y,z
loop_
_atom_site_type_symbol
_atom_site_label
_atom_site_fract_x
_atom_site_fract_y
_atom_site_fract_z
Si Si1 0.485537 0.152005 0.855088
Si Si2 0.855003 0.598218 0.857623
Si Si3 0.861427 0.096873 0.679602
Si Si4 0.640278 0.311423 0.138657
Si Si5 0.520423 0.401318 0.345468
Si Si6 0.354130 0.903327 0.618638
O O1 0.586788 0.153215 0.786931
O O2 0.428899 0.235154 0.878508
O O3 0.422637 0.109469 0.741667
O O4 0.500000 0.110809 0.000000
O O5 0.750000 0.623619 0.817763
O O6 0.856743 0.500000 0.866054
O O7 0.932383 0.621673 0.748701
O O8 0.873703 0.632837 0.006347
O O9 0.750000 0.100623 0.690875
O O10 0.886652 0.125999 0.528325
O O11 0.887724 0.000000 0.697773
O O12 0.750000 0.289686 0.144188
O O13 0.607999 0.358318 0.273838
O O14 0.500000 0.377878 0.500000
O O15 0.532026 0.500000 0.341567
O O16 0.250000 0.870550 0.646891
O O17 0.345607 0.000000 0.598384
#
# Coordination Sequence:
#
# PCOD9406200 Si02
#       6
#     8   8   8   8   8   8
#     4  12  24  36  54  84 120 153 187 235 292 340
#     4   9  18  36  62  86 111 151 199 239 277 332
#     4   9  20  40  64  87 112 148 194 238 283 344
#     4  11  24  41  58  79 113 158 203 239 278 337
#     4  10  21  37  60  92 123 148 183 238 298 347
#     4   9  19  38  62  85 111 147 190 232 276 336
#
# _framework density 20.641576000000001
#
# number of rings (size 3 to 8) (size 9 to 14) (size 15 to 20)
#    0.000    2.000    0.000    4.500    0.000    8.333 
#    0.000    4.167    0.000    0.000    0.000    0.000 
#    0.000    0.000    0.000    0.000    0.000    0.000 
#
# Total GULP energy -267941.899136 kJ/mol
# GULP energy per Si atom -5582.122899 kJ/mol
# Density = 2.059459 g / cm^3
# Si number density = 20.641576 Si / 1000 Ang^3
#
#
#
# Elastic Constant Matrix: (Units=GPa)
#
#
# Indices 1 2 3 4 5 6 
#
# 1 112.5388 25.3462 63.1092 0.0000 0.0000 0.0000
# 2 25.3462 15.1329 16.5651 0.0000 0.0000 0.0000
# 3 63.1092 16.5651 156.2015 0.0000 0.0000 0.0000
# 4 0.0000 0.0000 0.0000 1.0530 0.0000 0.0000
# 5 0.0000 0.0000 0.0000 0.0000 30.9036 0.0000
# 6 0.0000 0.0000 0.0000 0.0000 0.0000 33.5457
#
#
#
# Elastic Compliance Matrix: (Units=1/GPa)
#
#
# Indices 1 2 3 4 5 6 
#
# 1 0.016386 -0.022851 -0.004197 0.000000 0.000000 0.000000
# 2 -0.022851 0.106626 -0.002075 0.000000 0.000000 0.000000
# 3 -0.004197 -0.002075 0.008318 0.000000 0.000000 0.000000
# 4 0.000000 0.000000 0.000000 0.949638 0.000000 0.000000
# 5 0.000000 0.000000 0.000000 0.000000 0.032359 0.000000
# 6 0.000000 0.000000 0.000000 0.000000 0.000000 0.029810
#
#
# Mechanical properties :
#
#
# Convention : Reuss Voigt Hill
#
# Bulk Modulus (GPa) = 13.68296 54.87937 34.28116
# Shear Modulus (GPa) = 4.07915 25.02397 14.55156
#
# Velocity S-wave (km/s) = 1.40729 3.48560 2.65800
# Velocity P-wave (km/s) = 3.04694 6.54551 5.10527
#
# Compressibility (1/GPa) = 0.07308359
#
# Stress axis : x y z
#
# Youngs Moduli (GPa) = 61.02814 9.37856 120.22456
#
# Poissons Ratio (x) = 0.21431 0.50458
# Poissons Ratio (y) = 1.39454 0.24952
# Poissons Ratio (z) = 0.25613 0.01946
#
# Static dielectric constant tensor:
#      x y z
#    x 1.771250 0.000000 0.000000 
#    y 0.000000 1.744670 0.000000 
#    z 0.000000 0.000000 1.725350 
# 
# From -- ./inp_files/8230.got.cif
#   From: 2010.05.17/outbox.cif.g08.bks.cpg/sg51_5_cif.got.tgz:8230.got - 2010.06.03 11:52:47.
