data_PCOD9406744
_publ_section_title
;
Structure prediction by ZEFSAII (Michael W. Deem and Ramdas Pophale) SiO2 
 PCOD9406744
Probable space group: P M M A
;
_chemical_formula_sum "Si O2"
_cell_formula_units_Z 32
_cell_length_a 17.711680
_cell_length_b 14.479004
_cell_length_c 6.814918
_cell_angle_alpha 90.000000
_cell_angle_beta 90.000000
_cell_angle_gamma 90.000000
_cell_volume 1747.668585
_symmetry_space_group_name_H-M "P M M A"
_symmetry_group_IT_number 51
_symmetry_cell_setting 'orthorhombic'
loop_
_space_group_symop_operation_xyz
x,y,z
1/2-x,-y,z
1/2+x,-y,-z
-x,y,-z
-x,-y,-z
1/2+x,y,-z
1/2-x,y,z
x,-y,z
loop_
_atom_site_type_symbol
_atom_site_label
_atom_site_fract_x
_atom_site_fract_y
_atom_site_fract_z
Si Si1 0.161534 0.000000 0.190272
Si Si2 0.582158 0.000000 0.405877
Si Si3 0.340284 0.500000 0.513231
Si Si4 0.914980 0.153271 0.076275
Si Si5 0.339535 0.349122 0.849007
Si Si6 0.417392 0.500000 0.104386
O O1 0.141971 0.000000 0.419508
O O2 0.250000 0.000000 0.154518
O O3 0.126055 0.091267 0.089769
O O4 0.500000 0.000000 0.500000
O O5 0.587341 0.911482 0.266897
O O6 0.250000 0.500000 0.453455
O O7 0.352296 0.409698 0.651174
O O8 0.400585 0.500000 0.336643
O O9 0.876536 0.249162 0.133752
O O10 0.000000 0.168394 0.000000
O O11 0.250000 0.341423 0.872836
O O12 0.374729 0.410823 0.020678
O O13 0.500000 0.500000 0.000000
#
# Coordination Sequence:
#
# PCOD9406744 Si02
#       6
#     4   4   4   8   8   4
#     4  11  23  39  63  91 123 161 203 257 314 364
#     4  11  21  42  62  86 119 166 209 251 306 368
#     4   9  20  41  64  85 122 165 198 246 304 357
#     4  11  22  40  64  89 125 161 204 254 307 371
#     4  10  22  39  60  90 122 158 205 253 302 362
#     4  11  22  40  61  87 121 161 205 249 306 362
#
# _framework density 18.310108
#
# number of rings (size 3 to 8) (size 9 to 14) (size 15 to 20)
#    0.000    1.500    2.500    4.125    0.000    7.000 
#    4.500    2.500    0.000    0.000    0.000    0.000 
#    0.000    0.000    0.000    0.000    0.000    0.000 
#
# Total GULP energy -178606.216938 kJ/mol
# GULP energy per Si atom -5581.444279 kJ/mol
# Density = 1.826843 g / cm^3
# Si number density = 18.310108 Si / 1000 Ang^3
#
#
#
# Elastic Constant Matrix: (Units=GPa)
#
#
# Indices 1 2 3 4 5 6 
#
# 1 150.9894 81.1932 63.4477 0.0000 0.0000 0.0000
# 2 81.1932 196.4408 69.3636 0.0000 0.0000 0.0000
# 3 63.4477 69.3636 117.8337 0.0000 0.0000 0.0000
# 4 0.0000 0.0000 0.0000 -1.7256 0.0000 0.0000
# 5 0.0000 0.0000 0.0000 0.0000 27.1664 0.0000
# 6 0.0000 0.0000 0.0000 0.0000 0.0000 82.1180
#
#
#
# Elastic Compliance Matrix: (Units=1/GPa)
#
#
# Indices 1 2 3 4 5 6 
#
# 1 0.009572 -0.002697 -0.003566 0.000000 0.000000 0.000000
# 2 -0.002697 0.007186 -0.002778 0.000000 0.000000 0.000000
# 3 -0.003566 -0.002778 0.012042 0.000000 0.000000 0.000000
# 4 0.000000 0.000000 0.000000 -0.579517 0.000000 0.000000
# 5 0.000000 0.000000 0.000000 0.000000 0.036810 0.000000
# 6 0.000000 0.000000 0.000000 0.000000 0.000000 0.012178
#
#
# Mechanical properties :
#
#
# Convention : Reuss Voigt Hill
#
# Bulk Modulus (GPa) = 93.30548 99.25255 96.27901
# Shear Modulus (GPa) = -10.41507 38.26239 13.92366
#
# Velocity S-wave (km/s) = -2.38757 4.57627 2.76059
# Velocity P-wave (km/s) = 6.59306 9.06902 7.92829
#
# Compressibility (1/GPa) = 0.01071748
#
# Stress axis : x y z
#
# Youngs Moduli (GPa) = 104.47242 139.15481 83.04132
#
# Poissons Ratio (x) = 0.37530 0.29616
# Poissons Ratio (y) = 0.28176 0.23069
# Poissons Ratio (z) = 0.37259 0.38658
#
# Static dielectric constant tensor:
#      x y z
#    x 1.636970 0.000000 0.000000 
#    y 0.000000 1.627600 0.000000 
#    z 0.000000 0.000000 1.625690 
# 
# From -- ./inp_files/1872.got.cif
#   From: 2010.05.17/outbox.cif.g08.bks.cpg/sg51_1_cif.got.tgz:1872.got - 2010.06.03 11:52:47.
