data_PCOD9406607
_publ_section_title
;
Structure prediction by ZEFSAII (Michael W. Deem and Ramdas Pophale) SiO2 
 PCOD9406607
Probable space group: P M M A
;
_chemical_formula_sum "Si O2"
_cell_formula_units_Z 30
_cell_length_a 19.684340
_cell_length_b 7.911166
_cell_length_c 10.730054
_cell_angle_alpha 90.000000
_cell_angle_beta 90.000000
_cell_angle_gamma 90.000000
_cell_volume 1670.949262
_symmetry_space_group_name_H-M "P M M A"
_symmetry_group_IT_number 51
_symmetry_cell_setting 'orthorhombic'
loop_
_space_group_symop_operation_xyz
x,y,z
1/2-x,-y,z
1/2+x,-y,-z
-x,y,-z
-x,-y,-z
1/2+x,y,-z
1/2-x,y,z
x,-y,z
loop_
_atom_site_type_symbol
_atom_site_label
_atom_site_fract_x
_atom_site_fract_y
_atom_site_fract_z
Si Si1 0.250000 0.690304 0.105481
Si Si2 0.128031 0.689725 0.301646
Si Si3 0.750000 0.000000 0.081837
Si Si4 0.167512 0.000000 0.476699
Si Si5 0.885346 0.000000 0.243068
Si Si6 0.506243 0.192687 0.860080
O O1 0.250000 0.500000 0.052730
O O2 0.184797 0.708285 0.194410
O O3 0.250000 0.834730 0.003892
O O4 0.133936 0.500000 0.354015
O O5 0.056163 0.712559 0.232541
O O6 0.142275 0.835157 0.401511
O O7 0.816996 0.000000 0.165008
O O8 0.134121 0.000000 0.612872
O O9 0.250000 0.000000 0.483114
O O10 0.933092 0.157735 0.202029
O O11 0.535614 0.000000 0.875896
O O12 0.500000 0.263786 0.000000
#
# Coordination Sequence:
#
# PCOD9406607 Si02
#       6
#     4   8   2   4   4   8
#     4  10  22  35  57  93 117 144 205 252 288 356
#     4  11  22  38  63  90 117 160 202 240 296 352
#     4  12  20  38  66  82 116 164 192 248 310 348
#     4  12  22  40  60  83 122 164 195 254 291 332
#     4  10  22  37  61  89 115 159 209 229 304 367
#     4   9  19  37  61  89 123 149 189 250 301 355
#
# _framework density 17.953866999999999
#
# number of rings (size 3 to 8) (size 9 to 14) (size 15 to 20)
#    0.800    0.800    3.333    2.400    0.000    2.667 
#    0.000    5.333    0.000    0.000    0.000    0.000 
#    0.000    0.000    0.000    0.000    0.000    0.000 
#
# Total GULP energy -167325.677969 kJ/mol
# GULP energy per Si atom -5577.522599 kJ/mol
# Density = 1.791300 g / cm^3
# Si number density = 17.953867 Si / 1000 Ang^3
#
#
#
# Elastic Constant Matrix: (Units=GPa)
#
#
# Indices 1 2 3 4 5 6 
#
# 1 146.4666 51.8313 73.4629 0.0000 0.0000 0.0000
# 2 51.8313 119.9938 84.7882 0.0000 0.0000 0.0000
# 3 73.4629 84.7882 144.6776 0.0000 0.0000 0.0000
# 4 0.0000 0.0000 0.0000 47.2738 0.0000 0.0000
# 5 0.0000 0.0000 0.0000 0.0000 30.0778 0.0000
# 6 0.0000 0.0000 0.0000 0.0000 0.0000 39.3966
#
#
#
# Elastic Compliance Matrix: (Units=1/GPa)
#
#
# Indices 1 2 3 4 5 6 
#
# 1 0.009253 -0.001155 -0.004021 0.000000 0.000000 0.000000
# 2 -0.001155 0.014368 -0.007834 0.000000 0.000000 0.000000
# 3 -0.004021 -0.007834 0.013545 0.000000 0.000000 0.000000
# 4 0.000000 0.000000 0.000000 0.021153 0.000000 0.000000
# 5 0.000000 0.000000 0.000000 0.000000 0.033247 0.000000
# 6 0.000000 0.000000 0.000000 0.000000 0.000000 0.025383
#
#
# Mechanical properties :
#
#
# Convention : Reuss Voigt Hill
#
# Bulk Modulus (GPa) = 89.72504 92.36695 91.04600
# Shear Modulus (GPa) = 34.08632 36.75335 35.41983
#
# Velocity S-wave (km/s) = 4.36196 4.52940 4.44647
# Velocity P-wave (km/s) = 8.68636 8.88327 8.78536
#
# Compressibility (1/GPa) = 0.01114516
#
# Stress axis : x y z
#
# Youngs Moduli (GPa) = 108.06835 69.59784 73.82857
#
# Poissons Ratio (x) = 0.08041 0.29690
# Poissons Ratio (y) = 0.12486 0.57836
# Poissons Ratio (z) = 0.43459 0.54522
#
# Static dielectric constant tensor:
#      x y z
#    x 1.616110 0.000000 0.000000 
#    y 0.000000 1.637870 0.000000 
#    z 0.000000 0.000000 1.583920 
# 
# From -- ./inp_files/10343.got.cif
#   From: 2010.05.17/outbox.cif.g08.bks.cpg/sg51_6_cif.got.tgz:10343.got - 2010.06.03 11:52:47.
