data_PCOD9406342
_publ_section_title
;
Structure prediction by ZEFSAII (Michael W. Deem and Ramdas Pophale) SiO2 
 PCOD9406342
Probable space group: P M M A
;
_chemical_formula_sum "Si O2"
_cell_formula_units_Z 48
_cell_length_a 16.736046
_cell_length_b 15.378773
_cell_length_c 9.513220
_cell_angle_alpha 90.000000
_cell_angle_beta 90.000000
_cell_angle_gamma 90.000000
_cell_volume 2448.511159
_symmetry_space_group_name_H-M "P M M A"
_symmetry_group_IT_number 51
_symmetry_cell_setting 'orthorhombic'
loop_
_space_group_symop_operation_xyz
x,y,z
1/2-x,-y,z
1/2+x,-y,-z
-x,y,-z
-x,-y,-z
1/2+x,y,-z
1/2-x,y,z
x,-y,z
loop_
_atom_site_type_symbol
_atom_site_label
_atom_site_fract_x
_atom_site_fract_y
_atom_site_fract_z
Si Si1 0.843543 0.239458 0.240760
Si Si2 0.656860 0.897965 0.743663
Si Si3 0.411359 0.752109 0.061461
Si Si4 0.345820 0.602390 0.255228
Si Si5 0.590144 0.898872 0.444855
Si Si6 0.652823 0.402454 0.421205
O O1 0.750000 0.228668 0.274347
O O2 0.891005 0.161721 0.314146
O O3 0.872674 0.329061 0.312619
O O4 0.855149 0.242657 0.074883
O O5 0.750000 0.887261 0.780274
O O6 0.604782 0.834886 0.839351
O O7 0.644678 0.875857 0.579411
O O8 0.635098 0.000000 0.759456
O O9 0.390809 0.666830 0.151754
O O10 0.500000 0.750532 0.000000
O O11 0.250000 0.617617 0.243495
O O12 0.359515 0.500000 0.226847
O O13 0.369200 0.618946 0.417908
O O14 0.500000 0.889063 0.500000
O O15 0.603366 0.000000 0.409498
O O16 0.750000 0.405187 0.418680
O O17 0.624296 0.500000 0.387559
#
# Coordination Sequence:
#
# PCOD9406342 Si02
#       6
#     8   8   8   8   8   8
#     4  11  22  35  56  85 114 146 187 236 285 332
#     4  10  21  39  62  83 106 145 195 237 276 336
#     4  12  25  38  54  80 118 156 189 234 291 344
#     4   9  18  36  61  83 107 146 193 235 278 338
#     4  10  21  38  60  86 116 148 182 226 284 342
#     4   8  16  33  58  85 108 135 178 230 278 324
#
# _framework density 19.603750999999999
#
# number of rings (size 3 to 8) (size 9 to 14) (size 15 to 20)
#    0.000    2.000    0.000    5.000    0.000    4.333 
#    0.000    1.667    0.000    2.500    0.000    0.000 
#    0.000    0.000    0.000    0.000    0.000    0.000 
#
# Total GULP energy -268207.263965 kJ/mol
# GULP energy per Si atom -5587.651333 kJ/mol
# Density = 1.955913 g / cm^3
# Si number density = 19.603751 Si / 1000 Ang^3
#
#
#
# Elastic Constant Matrix: (Units=GPa)
#
#
# Indices 1 2 3 4 5 6 
#
# 1 23.7843 5.9483 -9.5578 0.0000 0.0000 0.0000
# 2 5.9483 62.6919 38.5357 0.0000 0.0000 0.0000
# 3 -9.5578 38.5357 63.0846 0.0000 0.0000 0.0000
# 4 0.0000 0.0000 0.0000 -9.2675 0.0000 0.0000
# 5 0.0000 0.0000 0.0000 0.0000 2.5348 0.0000
# 6 0.0000 0.0000 0.0000 0.0000 0.0000 87.9247
#
#
#
# Elastic Compliance Matrix: (Units=1/GPa)
#
#
# Indices 1 2 3 4 5 6 
#
# 1 0.053226 -0.016024 0.017852 0.000000 0.000000 0.000000
# 2 -0.016024 0.030365 -0.020977 0.000000 0.000000 0.000000
# 3 0.017852 -0.020977 0.031370 0.000000 0.000000 0.000000
# 4 0.000000 0.000000 0.000000 -0.107904 0.000000 0.000000
# 5 0.000000 0.000000 0.000000 0.000000 0.394504 0.000000
# 6 0.000000 0.000000 0.000000 0.000000 0.000000 0.011373
#
#
# Mechanical properties :
#
#
# Convention : Reuss Voigt Hill
#
# Bulk Modulus (GPa) = 13.04368 24.37925 18.71146
# Shear Modulus (GPa) = 10.48688 23.88071 17.18380
#
# Velocity S-wave (km/s) = 2.31539 3.49402 2.96388
# Velocity P-wave (km/s) = 3.71701 5.36102 4.61285
#
# Compressibility (1/GPa) = 0.07666549
#
# Stress axis : x y z
#
# Youngs Moduli (GPa) = 18.78784 32.93235 31.87744
#
# Poissons Ratio (x) = 0.52770 -0.56908
# Poissons Ratio (y) = 0.30105 0.66868
# Poissons Ratio (z) = -0.33541 0.69081
#
# Static dielectric constant tensor:
#      x y z
#    x 1.716540 0.000000 0.000000 
#    y 0.000000 1.675880 0.000000 
#    z 0.000000 0.000000 1.651230 
# 
# From -- ./inp_files/9562.got.cif
#   From: 2010.05.17/outbox.cif.g08.bks.cpg/sg51_5_cif.got.tgz:9562.got - 2010.06.03 11:52:47.
