data_PCOD9406816
_publ_section_title
;
Structure prediction by ZEFSAII (Michael W. Deem and Ramdas Pophale) SiO2 
 PCOD9406816
Probable space group: P M M A
;
_chemical_formula_sum "Si O2"
_cell_formula_units_Z 64
_cell_length_a 8.770784
_cell_length_b 15.789424
_cell_length_c 24.203384
_cell_angle_alpha 90.000000
_cell_angle_beta 90.000000
_cell_angle_gamma 90.000000
_cell_volume 3351.820818
_symmetry_space_group_name_H-M "P M M A"
_symmetry_group_IT_number 51
_symmetry_cell_setting 'orthorhombic'
loop_
_space_group_symop_operation_xyz
x,y,z
1/2-x,-y,z
1/2+x,-y,-z
-x,y,-z
-x,-y,-z
1/2+x,y,-z
1/2-x,y,z
x,-y,z
loop_
_atom_site_type_symbol
_atom_site_label
_atom_site_fract_x
_atom_site_fract_y
_atom_site_fract_z
Si Si1 0.432987 0.252907 0.061191
Si Si2 0.567394 0.404150 0.629203
Si Si3 0.067759 0.095927 0.367950
Si Si4 0.932378 0.596223 0.134002
Si Si5 0.568420 0.751059 0.438817
Si Si6 0.568099 0.152748 0.252847
Si Si7 0.567704 0.341562 0.752134
Si Si8 0.932602 0.094969 0.861960
O O1 0.250000 0.256619 0.058929
O O2 0.495062 0.334132 0.094039
O O3 0.476990 0.168829 0.095687
O O4 0.500000 0.250180 0.000000
O O5 0.750000 0.395328 0.621001
O O6 0.523125 0.500000 0.614295
O O7 0.484276 0.332375 0.594270
O O8 0.538690 0.388354 0.694237
O O9 0.250000 0.107772 0.367147
O O10 0.994063 0.167174 0.406308
O O11 0.004409 0.108535 0.306206
O O12 0.034538 0.000000 0.386606
O O13 0.750000 0.607056 0.135092
O O14 0.966873 0.500000 0.116483
O O15 0.997884 0.611501 0.195263
O O16 0.500000 0.749084 0.500000
O O17 0.750000 0.754487 0.441135
O O18 0.750000 0.152538 0.257298
O O19 0.505676 0.248660 0.251286
O O20 0.515107 0.109481 0.196204
O O21 0.750000 0.333523 0.759312
O O22 0.750000 0.102156 0.852711
O O23 0.964192 0.000000 0.882627
#
# Coordination Sequence:
#
# PCOD9406816 Si02
#       8
#     8   8   8   8   8   8   8   8
#     4  11  24  42  65  89 120 163 209 261 311 368
#     4  10  22  41  66  95 128 166 209 256 308 370
#     4  11  24  43  67  94 127 167 209 256 311 373
#     4  11  24  41  63  93 128 163 204 257 311 368
#     4  12  26  44  67  92 124 166 211 263 314 369
#     4  12  23  36  61  96 131 166 205 253 309 367
#     4  11  21  37  64  94 128 168 206 249 308 372
#     4  10  22  41  64  91 124 165 208 251 306 370
#
# _framework density 19.094100999999998
#
# number of rings (size 3 to 8) (size 9 to 14) (size 15 to 20)
#    0.000    1.000    2.500    4.500    0.000    6.500 
#    0.000    0.000    0.000    0.000    0.000    0.000 
#    0.000    0.000    0.000    0.000    0.000    0.000 
#
# Total GULP energy -358053.190991 kJ/mol
# GULP energy per Si atom -5594.581109 kJ/mol
# Density = 1.905064 g / cm^3
# Si number density = 19.094101 Si / 1000 Ang^3
#
#
#
# Elastic Constant Matrix: (Units=GPa)
#
#
# Indices 1 2 3 4 5 6 
#
# 1 93.7309 85.8395 69.6889 0.0000 0.0000 0.0000
# 2 85.8395 185.4430 87.6232 0.0000 0.0000 0.0000
# 3 69.6889 87.6232 149.0685 0.0000 0.0000 0.0000
# 4 0.0000 0.0000 0.0000 -6.0772 0.0000 0.0000
# 5 0.0000 0.0000 0.0000 0.0000 36.6364 0.0000
# 6 0.0000 0.0000 0.0000 0.0000 0.0000 20.7316
#
#
#
# Elastic Compliance Matrix: (Units=1/GPa)
#
#
# Indices 1 2 3 4 5 6 
#
# 1 0.021685 -0.007265 -0.005867 0.000000 0.000000 0.000000
# 2 -0.007265 0.009900 -0.002423 0.000000 0.000000 0.000000
# 3 -0.005867 -0.002423 0.010875 0.000000 0.000000 0.000000
# 4 0.000000 0.000000 0.000000 -0.164550 0.000000 0.000000
# 5 0.000000 0.000000 0.000000 0.000000 0.027295 0.000000
# 6 0.000000 0.000000 0.000000 0.000000 0.000000 0.048236
#
#
# Mechanical properties :
#
#
# Convention : Reuss Voigt Hill
#
# Bulk Modulus (GPa) = 88.10669 101.61618 94.86144
# Shear Modulus (GPa) = -428.62738 22.59755 -203.01492
#
# Velocity S-wave (km/s) = -14.99896 3.44391 -10.32251
# Velocity P-wave (km/s) = 15.92843 8.31554 9.60642
#
# Compressibility (1/GPa) = 0.01134988
#
# Stress axis : x y z
#
# Youngs Moduli (GPa) = 46.11588 101.00550 91.95189
#
# Poissons Ratio (x) = 0.73385 0.53946
# Poissons Ratio (y) = 0.33505 0.22280
# Poissons Ratio (z) = 0.27055 0.24473
#
# Static dielectric constant tensor:
#      x y z
#    x 1.637630 0.000000 0.000000 
#    y 0.000000 1.663580 0.000000 
#    z 0.000000 0.000000 1.626460 
# 
# From -- ./inp_files/34975.got.cif
#   From: 2010.05.17/outbox.cif.g08.bks.cpg/sg51_18_cif.got.tgz:34975.got - 2010.06.03 11:52:47.
