data_PCOD9406994
_publ_section_title
;
Structure prediction by ZEFSAII (Michael W. Deem and Ramdas Pophale) SiO2 
 PCOD9406994
Probable space group: P M M A
;
_chemical_formula_sum "Si O2"
_cell_formula_units_Z 64
_cell_length_a 9.123145
_cell_length_b 14.437539
_cell_length_c 31.790588
_cell_angle_alpha 90.000000
_cell_angle_beta 90.000000
_cell_angle_gamma 90.000000
_cell_volume 4187.321515
_symmetry_space_group_name_H-M "P M M A"
_symmetry_group_IT_number 51
_symmetry_cell_setting 'orthorhombic'
loop_
_space_group_symop_operation_xyz
x,y,z
1/2-x,-y,z
1/2+x,-y,-z
-x,y,-z
-x,-y,-z
1/2+x,y,-z
1/2-x,y,z
x,-y,z
loop_
_atom_site_type_symbol
_atom_site_label
_atom_site_fract_x
_atom_site_fract_y
_atom_site_fract_z
Si Si1 0.076078 0.393486 0.842663
Si Si2 0.423993 0.606493 0.742197
Si Si3 0.923222 0.110869 0.207239
Si Si4 0.925411 0.108464 0.628288
Si Si5 0.418883 0.887242 0.542336
Si Si6 0.925629 0.211956 0.714284
Si Si7 0.574283 0.892000 0.956523
Si Si8 0.425784 0.212359 0.128847
O O1 0.250000 0.379574 0.849884
O O2 0.040516 0.500000 0.853364
O O3 0.051749 0.382070 0.792438
O O4 0.982877 0.316926 0.866519
O O5 0.250000 0.620114 0.734995
O O6 0.459989 0.500000 0.731514
O O7 0.516815 0.683462 0.718464
O O8 0.750000 0.133465 0.207116
O O9 0.998144 0.154448 0.248353
O O10 0.999008 0.154498 0.166276
O O11 0.939811 0.000000 0.207259
O O12 0.750000 0.113180 0.622429
O O13 0.964371 0.166921 0.669440
O O14 0.002888 0.140740 0.585566
O O15 0.963090 0.000000 0.635413
O O16 0.500000 0.855744 0.500000
O O17 0.250000 0.858900 0.541907
O O18 0.423381 0.000000 0.541893
O O19 0.750000 0.207980 0.719277
O O20 0.750000 0.887686 0.961175
O O21 0.533346 0.832009 0.915976
O O22 0.534283 0.000000 0.949181
O O23 0.500000 0.862021 0.000000
O O24 0.250000 0.208096 0.133396
#
# Coordination Sequence:
#
# PCOD9406994 Si02
#       8
#     8   8   8   8   8   8   8   8
#     4   9  18  33  52  73  98 127 159 196 238 284
#     4   9  18  33  51  69  93 125 160 200 242 284
#     4  11  23  35  47  66  95 132 168 197 228 276
#     4   9  18  31  44  61  91 129 163 195 236 284
#     4   9  16  26  42  63  86 116 157 202 243 281
#     4  11  21  32  48  70  96 127 161 201 244 284
#     4   9  19  35  53  74 100 128 157 191 233 280
#     4  11  21  33  52  77 101 124 155 199 243 282
#
# _framework density 15.284233
#
# number of rings (size 3 to 8) (size 9 to 14) (size 15 to 20)
#    0.000    2.250    1.250    3.000    0.000    6.000 
#    0.000    3.750    0.000    0.375    0.000    0.000 
#    0.000    0.500    0.000    1.625    0.000    2.375 
#
# Total GULP energy -357035.071560 kJ/mol
# GULP energy per Si atom -5578.672993 kJ/mol
# Density = 1.524945 g / cm^3
# Si number density = 15.284233 Si / 1000 Ang^3
#
#
#
# Elastic Constant Matrix: (Units=GPa)
#
#
# Indices 1 2 3 4 5 6 
#
# 1 66.5751 54.1966 72.8004 0.0000 0.0000 0.0000
# 2 54.1966 88.2493 70.7014 0.0000 0.0000 0.0000
# 3 72.8004 70.7014 147.3726 0.0000 0.0000 0.0000
# 4 0.0000 0.0000 0.0000 7.6549 0.0000 0.0000
# 5 0.0000 0.0000 0.0000 0.0000 27.8176 0.0000
# 6 0.0000 0.0000 0.0000 0.0000 0.0000 24.6323
#
#
#
# Elastic Compliance Matrix: (Units=1/GPa)
#
#
# Indices 1 2 3 4 5 6 
#
# 1 0.042057 -0.014918 -0.013619 0.000000 0.000000 0.000000
# 2 -0.014918 0.023697 -0.003999 0.000000 0.000000 0.000000
# 3 -0.013619 -0.003999 0.015432 0.000000 0.000000 0.000000
# 4 0.000000 0.000000 0.000000 0.130636 0.000000 0.000000
# 5 0.000000 0.000000 0.000000 0.000000 0.035948 0.000000
# 6 0.000000 0.000000 0.000000 0.000000 0.000000 0.040597
#
#
# Mechanical properties :
#
#
# Convention : Reuss Voigt Hill
#
# Bulk Modulus (GPa) = 62.05837 77.51042 69.78440
# Shear Modulus (GPa) = 13.93491 18.98752 16.46121
#
# Velocity S-wave (km/s) = 3.02274 3.52844 3.28534
# Velocity P-wave (km/s) = 7.27143 8.21113 7.75552
#
# Compressibility (1/GPa) = 0.01611386
#
# Stress axis : x y z
#
# Youngs Moduli (GPa) = 23.77720 42.19927 64.80073
#
# Poissons Ratio (x) = 0.62951 0.88253
# Poissons Ratio (y) = 0.35470 0.25917
# Poissons Ratio (z) = 0.32382 0.16878
#
# Static dielectric constant tensor:
#      x y z
#    x 1.509850 0.000000 0.000000 
#    y 0.000000 1.501230 0.000000 
#    z 0.000000 0.000000 1.484030 
# 
# From -- ./inp_files/37630.got.cif
#   From: 2010.05.17/outbox.cif.g08.bks.cpg/sg51_19_cif.got.tgz:37630.got - 2010.06.03 11:52:47.
