data_PCOD9406064
_publ_section_title
;
Structure prediction by ZEFSAII (Michael W. Deem and Ramdas Pophale) SiO2 
 PCOD9406064
Probable space group: P M M A
;
_chemical_formula_sum "Si O2"
_cell_formula_units_Z 64
_cell_length_a 16.018543
_cell_length_b 9.190355
_cell_length_c 22.942366
_cell_angle_alpha 90.000000
_cell_angle_beta 90.000000
_cell_angle_gamma 90.000000
_cell_volume 3377.485573
_symmetry_space_group_name_H-M "P M M A"
_symmetry_group_IT_number 51
_symmetry_cell_setting 'orthorhombic'
loop_
_space_group_symop_operation_xyz
x,y,z
1/2-x,-y,z
1/2+x,-y,-z
-x,y,-z
-x,-y,-z
1/2+x,y,-z
1/2-x,y,z
x,-y,z
loop_
_atom_site_type_symbol
_atom_site_label
_atom_site_fract_x
_atom_site_fract_y
_atom_site_fract_z
Si Si1 0.848110 0.335158 0.001247
Si Si2 0.650116 0.663854 0.766332
Si Si3 0.611227 0.835244 0.883925
Si Si4 0.649505 0.667467 0.227167
Si Si5 0.152220 0.824872 0.351708
Si Si6 0.412364 0.164664 0.886897
Si Si7 0.499009 0.176930 0.566634
Si Si8 0.152175 0.175468 0.651326
O O1 0.750000 0.343491 0.013381
O O2 0.881558 0.500000 0.997334
O O3 0.859480 0.252526 0.940402
O O4 0.887391 0.248057 0.054574
O O5 0.750000 0.653260 0.762260
O O6 0.615300 0.500000 0.768335
O O7 0.632154 0.751204 0.824890
O O8 0.624381 0.750662 0.708637
O O9 0.511741 0.843714 0.886819
O O10 0.644983 0.000000 0.883491
O O11 0.750000 0.667023 0.222931
O O12 0.620684 0.500000 0.228345
O O13 0.615765 0.750196 0.170698
O O14 0.629184 0.749624 0.287360
O O15 0.250000 0.787339 0.364216
O O16 0.084647 0.781936 0.400378
O O17 0.149288 0.000000 0.345130
O O18 0.377842 0.000000 0.886739
O O19 0.500000 0.228693 0.500000
O O20 0.415898 0.219651 0.602708
O O21 0.497790 0.000000 0.565383
O O22 0.250000 0.210885 0.637648
O O23 0.147819 0.000000 0.657884
#
# Coordination Sequence:
#
# PCOD9406064 Si02
#       8
#     8   8   8   8   8   8   8   8
#     4  11  24  41  60  82 110 145 186 231 278 332
#     4  10  21  37  57  82 111 144 185 232 282 336
#     4  11  24  39  57  83 113 145 184 230 279 333
#     4  10  21  37  57  82 111 144 185 232 282 336
#     4   9  18  33  54  80 112 149 188 234 286 337
#     4  11  24  39  57  83 113 145 184 230 279 333
#     4   9  18  32  53  83 115 146 187 236 281 335
#     4   9  18  33  54  80 112 149 188 234 286 337
#
# _framework density 18.949007000000002
#
# number of rings (size 3 to 8) (size 9 to 14) (size 15 to 20)
#    0.000    2.000    0.000    3.000    1.750    9.500 
#    0.000    2.500    0.000    1.500    0.000    3.500 
#    0.000    0.000    0.000    0.000    0.000    0.000 
#
# Total GULP energy -357294.521935 kJ/mol
# GULP energy per Si atom -5582.726905 kJ/mol
# Density = 1.890588 g / cm^3
# Si number density = 18.949007 Si / 1000 Ang^3
#
#
#
# Elastic Constant Matrix: (Units=GPa)
#
#
# Indices 1 2 3 4 5 6 
#
# 1 58.4296 29.6828 48.4546 0.0000 0.0000 0.0000
# 2 29.6828 97.6652 60.0398 0.0000 0.0000 0.0000
# 3 48.4546 60.0398 150.2953 0.0000 0.0000 0.0000
# 4 0.0000 0.0000 0.0000 -14.8340 0.0000 0.0000
# 5 0.0000 0.0000 0.0000 0.0000 40.3085 0.0000
# 6 0.0000 0.0000 0.0000 0.0000 0.0000 23.6657
#
#
#
# Elastic Compliance Matrix: (Units=1/GPa)
#
#
# Indices 1 2 3 4 5 6 
#
# 1 0.024177 -0.003388 -0.006441 0.000000 0.000000 0.000000
# 2 -0.003388 0.014047 -0.004519 0.000000 0.000000 0.000000
# 3 -0.006441 -0.004519 0.010535 0.000000 0.000000 0.000000
# 4 0.000000 0.000000 0.000000 -0.067413 0.000000 0.000000
# 5 0.000000 0.000000 0.000000 0.000000 0.024809 0.000000
# 6 0.000000 0.000000 0.000000 0.000000 0.000000 0.042255
#
#
# Mechanical properties :
#
#
# Convention : Reuss Voigt Hill
#
# Bulk Modulus (GPa) = 49.84383 64.74940 57.29662
# Shear Modulus (GPa) = 59.66873 21.04223 40.35548
#
# Velocity S-wave (km/s) = 5.61760 3.33598 4.61986
# Velocity P-wave (km/s) = 8.27272 7.00592 7.66553
#
# Compressibility (1/GPa) = 0.02006266
#
# Stress axis : x y z
#
# Youngs Moduli (GPa) = 41.36082 71.18968 94.91782
#
# Poissons Ratio (x) = 0.24122 0.61138
# Poissons Ratio (y) = 0.14015 0.42894
# Poissons Ratio (z) = 0.26641 0.32171
#
# Static dielectric constant tensor:
#      x y z
#    x 1.668850 0.000000 0.000000 
#    y 0.000000 1.668450 0.000000 
#    z 0.000000 0.000000 1.632380 
# 
# From -- ./inp_files/33808.got.cif
#   From: 2010.05.17/outbox.cif.g08.bks.cpg/sg51_17_cif.got.tgz:33808.got - 2010.06.03 11:52:47.
