data_PCOD9406123
_publ_section_title
;
Structure prediction by ZEFSAII (Michael W. Deem and Ramdas Pophale) SiO2 
 PCOD9406123
Probable space group: P M M A
;
_chemical_formula_sum "Si O2"
_cell_formula_units_Z 48
_cell_length_a 29.266458
_cell_length_b 8.851808
_cell_length_c 10.216678
_cell_angle_alpha 90.000000
_cell_angle_beta 90.000000
_cell_angle_gamma 90.000000
_cell_volume 2646.743504
_symmetry_space_group_name_H-M "P M M A"
_symmetry_group_IT_number 51
_symmetry_cell_setting 'orthorhombic'
loop_
_space_group_symop_operation_xyz
x,y,z
1/2-x,-y,z
1/2+x,-y,-z
-x,y,-z
-x,-y,-z
1/2+x,y,-z
1/2-x,y,z
x,-y,z
loop_
_atom_site_type_symbol
_atom_site_label
_atom_site_fract_x
_atom_site_fract_y
_atom_site_fract_z
Si Si1 0.695852 0.178546 0.279754
Si Si2 0.622134 0.316184 0.787991
Si Si3 0.981225 0.317770 0.856502
Si Si4 0.803010 0.682545 0.999432
Si Si5 0.036175 0.176305 0.618026
Si Si6 0.371423 0.319124 0.513222
O O1 0.750000 0.203241 0.296485
O O2 0.668540 0.251439 0.398560
O O3 0.687128 0.000000 0.274784
O O4 0.683082 0.252071 0.140367
O O5 0.622681 0.500000 0.788200
O O6 0.571554 0.270706 0.835640
O O7 0.662066 0.266935 0.886656
O O8 0.629874 0.267458 0.638223
O O9 0.983178 0.500000 0.841402
O O10 0.012569 0.242928 0.746546
O O11 0.000000 0.280171 0.000000
O O12 0.750000 0.726098 0.973770
O O13 0.804470 0.500000 0.006200
O O14 0.081132 0.266199 0.576744
O O15 0.000000 0.189233 0.500000
O O16 0.047425 0.000000 0.636267
O O17 0.368828 0.500000 0.514590
#
# Coordination Sequence:
#
# PCOD9406123 Si02
#       6
#     8   8   8   8   8   8
#     4  10  22  40  59  84 119 153 188 233 285 343
#     4   9  19  35  55  84 115 145 188 240 288 334
#     4  10  21  37  58  84 114 151 195 239 284 339
#     4   9  18  35  59  85 113 147 188 234 284 341
#     4  11  23  39  58  83 118 156 192 232 284 341
#     4  11  22  37  61  87 114 151 194 238 285 338
#
# _framework density 18.135493
#
# number of rings (size 3 to 8) (size 9 to 14) (size 15 to 20)
#    0.000    2.000    1.667    1.500    2.333    2.667 
#    0.000    4.167    0.000    2.000    0.000    0.000 
#    0.000    0.000    0.000    0.000    0.000    0.000 
#
# Total GULP energy -268029.866099 kJ/mol
# GULP energy per Si atom -5583.955544 kJ/mol
# Density = 1.809422 g / cm^3
# Si number density = 18.135493 Si / 1000 Ang^3
#
#
#
# Elastic Constant Matrix: (Units=GPa)
#
#
# Indices 1 2 3 4 5 6 
#
# 1 95.6511 42.0228 99.1072 0.0000 0.0000 0.0000
# 2 42.0228 29.7076 48.8584 0.0000 0.0000 0.0000
# 3 99.1072 48.8584 189.9573 0.0000 0.0000 0.0000
# 4 0.0000 0.0000 0.0000 5.9604 0.0000 0.0000
# 5 0.0000 0.0000 0.0000 0.0000 40.2705 0.0000
# 6 0.0000 0.0000 0.0000 0.0000 0.0000 20.8125
#
#
#
# Elastic Compliance Matrix: (Units=1/GPa)
#
#
# Indices 1 2 3 4 5 6 
#
# 1 0.035715 -0.034446 -0.009774 0.000000 0.000000 0.000000
# 2 -0.034446 0.091562 -0.005579 0.000000 0.000000 0.000000
# 3 -0.009774 -0.005579 0.011799 0.000000 0.000000 0.000000
# 4 0.000000 0.000000 0.000000 0.167773 0.000000 0.000000
# 5 0.000000 0.000000 0.000000 0.000000 0.024832 0.000000
# 6 0.000000 0.000000 0.000000 0.000000 0.000000 0.048048
#
#
# Mechanical properties :
#
#
# Convention : Reuss Voigt Hill
#
# Bulk Modulus (GPa) = 25.33036 77.25474 51.29255
# Shear Modulus (GPa) = 10.15257 21.76386 15.95821
#
# Velocity S-wave (km/s) = 2.36861 3.46796 2.96960
# Velocity P-wave (km/s) = 4.63444 7.66334 6.33265
#
# Compressibility (1/GPa) = 0.03947832
#
# Stress axis : x y z
#
# Youngs Moduli (GPa) = 27.99925 10.92155 84.75495
#
# Poissons Ratio (x) = 0.37620 0.82840
# Poissons Ratio (y) = 0.96446 0.47283
# Poissons Ratio (z) = 0.27367 0.06093
#
# Static dielectric constant tensor:
#      x y z
#    x 1.612590 0.000000 0.000000 
#    y 0.000000 1.604740 0.000000 
#    z 0.000000 0.000000 1.593420 
# 
# From -- ./inp_files/12752.got.cif
#   From: 2010.05.17/outbox.cif.g08.bks.cpg/sg51_7_cif.got.tgz:12752.got - 2010.06.03 11:52:47.
