data_PCOD9406026
_publ_section_title
;
Structure prediction by ZEFSAII (Michael W. Deem and Ramdas Pophale) SiO2 
 PCOD9406026
Probable space group: P M M A
;
_chemical_formula_sum "Si O2"
_cell_formula_units_Z 64
_cell_length_a 16.586255
_cell_length_b 9.573762
_cell_length_c 21.913259
_cell_angle_alpha 90.000000
_cell_angle_beta 90.000000
_cell_angle_gamma 90.000000
_cell_volume 3479.669021
_symmetry_space_group_name_H-M "P M M A"
_symmetry_group_IT_number 51
_symmetry_cell_setting 'orthorhombic'
loop_
_space_group_symop_operation_xyz
x,y,z
1/2-x,-y,z
1/2+x,-y,-z
-x,y,-z
-x,-y,-z
1/2+x,y,-z
1/2-x,y,z
x,-y,z
loop_
_atom_site_type_symbol
_atom_site_label
_atom_site_fract_x
_atom_site_fract_y
_atom_site_fract_z
Si Si1 0.340347 0.157063 0.518675
Si Si2 0.656929 0.165055 0.123432
Si Si3 0.346084 0.841058 0.270850
Si Si4 0.155565 0.331824 0.149907
Si Si5 0.496053 0.334527 0.927251
Si Si6 0.596791 0.664898 0.375683
Si Si7 0.439220 0.835722 0.396277
Si Si8 0.344847 0.154779 0.730941
O O1 0.250000 0.156477 0.494359
O O2 0.346711 0.264752 0.573583
O O3 0.396021 0.185007 0.460913
O O4 0.358189 0.000000 0.542184
O O5 0.750000 0.208389 0.107623
O O6 0.582623 0.250896 0.095752
O O7 0.648915 0.176163 0.196809
O O8 0.650151 0.000000 0.108105
O O9 0.250000 0.837591 0.278913
O O10 0.364934 0.737760 0.215152
O O11 0.385686 0.810481 0.336042
O O12 0.369475 0.000000 0.253399
O O13 0.250000 0.291716 0.134226
O O14 0.155544 0.500000 0.154583
O O15 0.082310 0.293176 0.103740
O O16 0.484940 0.500000 0.914165
O O17 0.500000 0.316740 0.000000
O O18 0.601224 0.500000 0.376695
O O19 0.511018 0.727525 0.393463
O O20 0.615683 0.726689 0.309277
O O21 0.463445 0.000000 0.394147
O O22 0.250000 0.153261 0.716132
O O23 0.378225 0.000000 0.716145
#
# Coordination Sequence:
#
# PCOD9406026 Si02
#       8
#     8   8   8   8   8   8   8   8
#     4  10  21  39  61  79 100 138 186 232 278 331
#     4   9  20  39  62  88 118 152 194 247 301 348
#     4   9  18  34  57  84 109 136 179 232 281 330
#     4   9  19  36  56  80 116 157 194 235 285 342
#     4  10  22  38  58  87 121 159 201 239 281 342
#     4  12  25  36  51  80 115 146 180 226 278 333
#     4  10  21  37  57  80 107 141 181 227 278 333
#     4   9  19  38  61  82 107 144 188 231 282 342
#
# _framework density 18.392555000000002
#
# number of rings (size 3 to 8) (size 9 to 14) (size 15 to 20)
#    0.000    2.250    0.000    3.000    1.750    8.000 
#    0.000    2.500    0.000    3.750    0.000    0.000 
#    0.000    0.000    0.000    0.000    0.000    0.000 
#
# Total GULP energy -356859.417606 kJ/mol
# GULP energy per Si atom -5575.928400 kJ/mol
# Density = 1.835069 g / cm^3
# Si number density = 18.392555 Si / 1000 Ang^3
#
#
#
# Elastic Constant Matrix: (Units=GPa)
#
#
# Indices 1 2 3 4 5 6 
#
# 1 95.4743 51.2352 40.7042 0.0000 0.0000 0.0000
# 2 51.2352 80.2193 43.1658 0.0000 0.0000 0.0000
# 3 40.7042 43.1658 51.8846 0.0000 0.0000 0.0000
# 4 0.0000 0.0000 0.0000 28.3042 0.0000 0.0000
# 5 0.0000 0.0000 0.0000 0.0000 88.8755 0.0000
# 6 0.0000 0.0000 0.0000 0.0000 0.0000 -12.9649
#
#
#
# Elastic Compliance Matrix: (Units=1/GPa)
#
#
# Indices 1 2 3 4 5 6 
#
# 1 0.017627 -0.006911 -0.008079 0.000000 0.000000 0.000000
# 2 -0.006911 0.025279 -0.015610 0.000000 0.000000 0.000000
# 3 -0.008079 -0.015610 0.038598 0.000000 0.000000 0.000000
# 4 0.000000 0.000000 0.000000 0.035330 0.000000 0.000000
# 5 0.000000 0.000000 0.000000 0.000000 0.011252 0.000000
# 6 0.000000 0.000000 0.000000 0.000000 0.000000 -0.077131
#
#
# Mechanical properties :
#
#
# Convention : Reuss Voigt Hill
#
# Bulk Modulus (GPa) = 49.24801 55.30984 52.27893
# Shear Modulus (GPa) = 42.04395 27.00781 34.52588
#
# Velocity S-wave (km/s) = 4.78632 3.83614 4.33733
# Velocity P-wave (km/s) = 7.57491 7.05397 7.31908
#
# Compressibility (1/GPa) = 0.02030539
#
# Stress axis : x y z
#
# Youngs Moduli (GPa) = 56.73084 39.55815 25.90789
#
# Poissons Ratio (x) = 0.27338 0.20931
# Poissons Ratio (y) = 0.39206 0.40441
# Poissons Ratio (z) = 0.45834 0.61749
#
# Static dielectric constant tensor:
#      x y z
#    x 1.686380 0.000000 0.000000 
#    y 0.000000 1.621510 0.000000 
#    z 0.000000 0.000000 1.615190 
# 
# From -- ./inp_files/35805.got.cif
#   From: 2010.05.17/outbox.cif.g08.bks.cpg/sg51_18_cif.got.tgz:35805.got - 2010.06.03 11:52:47.
