data_PCOD9406274
_publ_section_title
;
Structure prediction by ZEFSAII (Michael W. Deem and Ramdas Pophale) SiO2 
 PCOD9406274
Probable space group: P M M A
;
_chemical_formula_sum "Si O2"
_cell_formula_units_Z 40
_cell_length_a 9.070159
_cell_length_b 14.675170
_cell_length_c 15.368845
_cell_angle_alpha 90.000000
_cell_angle_beta 90.000000
_cell_angle_gamma 90.000000
_cell_volume 2045.687408
_symmetry_space_group_name_H-M "P M M A"
_symmetry_group_IT_number 51
_symmetry_cell_setting 'orthorhombic'
loop_
_space_group_symop_operation_xyz
x,y,z
1/2-x,-y,z
1/2+x,-y,-z
-x,y,-z
-x,-y,-z
1/2+x,y,-z
1/2-x,y,z
x,-y,z
loop_
_atom_site_type_symbol
_atom_site_label
_atom_site_fract_x
_atom_site_fract_y
_atom_site_fract_z
Si Si1 0.421721 0.609762 0.766674
Si Si2 0.080422 0.888956 0.412984
Si Si3 0.580430 0.389035 0.588179
Si Si4 0.572797 0.265484 0.905692
Si Si5 0.570492 0.104263 0.777862
O O1 0.250000 0.636186 0.770456
O O2 0.429398 0.500000 0.771380
O O3 0.493788 0.638080 0.674879
O O4 0.511785 0.653945 0.845118
O O5 0.250000 0.860521 0.417949
O O6 0.018622 0.863685 0.317965
O O7 0.000000 0.858126 0.500000
O O8 0.077955 0.000000 0.412620
O O9 0.500000 0.359511 0.500000
O O10 0.750000 0.359102 0.591367
O O11 0.581132 0.500000 0.586917
O O12 0.750000 0.269873 0.912070
O O13 0.530360 0.173127 0.853948
O O14 0.500000 0.268205 0.000000
O O15 0.750000 0.103159 0.772753
O O16 0.522670 0.000000 0.792951
#
# Coordination Sequence:
#
# PCOD9406274 Si02
#       5
#     8   8   8   8   8
#     4  10  21  38  59  82 110 145 185 229 276 327
#     4   8  13  24  45  73 104 137 172 208 248 299
#     4   9  16  28  50  81 115 149 184 222 267 321
#     4  11  23  39  59  81 107 139 179 230 284 336
#     4   8  16  33  56  80 108 144 181 216 262 322
#
# _framework density 19.553329000000002
#
# number of rings (size 3 to 8) (size 9 to 14) (size 15 to 20)
#    0.000    2.800    0.000    3.000    0.000    4.400 
#    0.000    3.000    0.000    6.600    0.000    0.000 
#    0.000    0.000    0.000    0.000    0.000    0.000 
#
# Total GULP energy -223270.400678 kJ/mol
# GULP energy per Si atom -5581.760017 kJ/mol
# Density = 1.950883 g / cm^3
# Si number density = 19.553329 Si / 1000 Ang^3
#
#
#
# Elastic Constant Matrix: (Units=GPa)
#
#
# Indices 1 2 3 4 5 6 
#
# 1 102.7908 30.8528 84.4531 0.0000 0.0000 0.0000
# 2 30.8528 67.4480 44.7779 0.0000 0.0000 0.0000
# 3 84.4531 44.7779 212.2362 0.0000 0.0000 0.0000
# 4 0.0000 0.0000 0.0000 29.3768 0.0000 0.0000
# 5 0.0000 0.0000 0.0000 0.0000 37.4616 0.0000
# 6 0.0000 0.0000 0.0000 0.0000 0.0000 5.0784
#
#
#
# Elastic Compliance Matrix: (Units=1/GPa)
#
#
# Indices 1 2 3 4 5 6 
#
# 1 0.015093 -0.003392 -0.005290 0.000000 0.000000 0.000000
# 2 -0.003392 0.018003 -0.002449 0.000000 0.000000 0.000000
# 3 -0.005290 -0.002449 0.007333 0.000000 0.000000 0.000000
# 4 0.000000 0.000000 0.000000 0.034040 0.000000 0.000000
# 5 0.000000 0.000000 0.000000 0.000000 0.026694 0.000000
# 6 0.000000 0.000000 0.000000 0.000000 0.000000 0.196911
#
#
# Mechanical properties :
#
#
# Convention : Reuss Voigt Hill
#
# Bulk Modulus (GPa) = 55.04084 78.07139 66.55611
# Shear Modulus (GPa) = 15.31897 29.20946 22.26422
#
# Velocity S-wave (km/s) = 2.80205 3.86921 3.37804
# Velocity P-wave (km/s) = 6.21923 7.74436 7.02332
#
# Compressibility (1/GPa) = 0.01816833
#
# Stress axis : x y z
#
# Youngs Moduli (GPa) = 66.25586 55.54492 136.36191
#
# Poissons Ratio (x) = 0.18840 0.72138
# Poissons Ratio (y) = 0.22473 0.33391
# Poissons Ratio (z) = 0.35051 0.13601
#
# Static dielectric constant tensor:
#      x y z
#    x 1.658890 0.000000 0.000000 
#    y 0.000000 1.733470 0.000000 
#    z 0.000000 0.000000 1.656480 
# 
# From -- ./inp_files/20470.got.cif
#   From: 2010.05.17/outbox.cif.g08.bks.cpg/sg51_11_cif.got.tgz:20470.got - 2010.06.03 11:52:47.
