data_PCOD9406401
_publ_section_title
;
Structure prediction by ZEFSAII (Michael W. Deem and Ramdas Pophale) SiO2 
 PCOD9406401
Probable space group: P M M A
;
_chemical_formula_sum "Si O2"
_cell_formula_units_Z 48
_cell_length_a 19.549565
_cell_length_b 8.738197
_cell_length_c 15.411825
_cell_angle_alpha 90.000000
_cell_angle_beta 90.000000
_cell_angle_gamma 90.000000
_cell_volume 2632.770474
_symmetry_space_group_name_H-M "P M M A"
_symmetry_group_IT_number 51
_symmetry_cell_setting 'orthorhombic'
loop_
_space_group_symop_operation_xyz
x,y,z
1/2-x,-y,z
1/2+x,-y,-z
-x,y,-z
-x,-y,-z
1/2+x,y,-z
1/2-x,y,z
x,-y,z
loop_
_atom_site_type_symbol
_atom_site_label
_atom_site_fract_x
_atom_site_fract_y
_atom_site_fract_z
Si Si1 0.085198 0.316052 0.275262
Si Si2 0.671303 0.315406 0.894920
Si Si3 0.926341 0.184432 0.038690
Si Si4 0.064172 0.183884 0.760682
Si Si5 0.669885 0.183166 0.565509
Si Si6 0.170054 0.316920 0.623605
O O1 0.081902 0.500000 0.277240
O O2 0.129184 0.268381 0.190695
O O3 0.123181 0.255814 0.360570
O O4 0.009574 0.248270 0.266587
O O5 0.750000 0.264218 0.890162
O O6 0.670784 0.500000 0.897639
O O7 0.632798 0.252799 0.979107
O O8 0.922132 0.229322 0.139346
O O9 0.923169 0.000000 0.033812
O O10 0.000000 0.232508 0.000000
O O11 0.121789 0.247982 0.697000
O O12 0.062827 0.000000 0.756498
O O13 0.750000 0.220912 0.582074
O O14 0.652449 0.247898 0.470541
O O15 0.662865 0.000000 0.565619
O O16 0.250000 0.280465 0.640334
O O17 0.162808 0.500000 0.620761
#
# Coordination Sequence:
#
# PCOD9406401 Si02
#       6
#     8   8   8   8   8   8
#     4  11  22  37  59  87 121 157 196 241 293 350
#     4  10  22  38  58  87 120 154 195 242 290 346
#     4  10  21  39  60  83 115 154 196 240 291 347
#     4  11  23  39  61  87 118 154 197 245 294 350
#     4  10  21  38  61  88 119 156 196 240 293 349
#     4  10  22  41  63  87 117 153 195 243 294 350
#
# _framework density 18.231743999999999
#
# number of rings (size 3 to 8) (size 9 to 14) (size 15 to 20)
#    0.000    1.667    1.667    2.500    0.000    6.667 
#    0.000    6.667    0.000    0.000    0.000    0.000 
#    0.000    0.000    0.000    0.000    0.000    0.000 
#
# Total GULP energy -268263.523923 kJ/mol
# GULP energy per Si atom -5588.823415 kJ/mol
# Density = 1.819025 g / cm^3
# Si number density = 18.231744 Si / 1000 Ang^3
#
#
#
# Elastic Constant Matrix: (Units=GPa)
#
#
# Indices 1 2 3 4 5 6 
#
# 1 138.5247 49.0012 116.5082 0.0000 0.0000 0.0000
# 2 49.0012 47.3061 59.3444 0.0000 0.0000 0.0000
# 3 116.5082 59.3444 196.4674 0.0000 0.0000 0.0000
# 4 0.0000 0.0000 0.0000 33.9984 0.0000 0.0000
# 5 0.0000 0.0000 0.0000 0.0000 41.0105 0.0000
# 6 0.0000 0.0000 0.0000 0.0000 0.0000 28.4081
#
#
#
# Elastic Compliance Matrix: (Units=1/GPa)
#
#
# Indices 1 2 3 4 5 6 
#
# 1 0.015887 -0.007467 -0.007166 0.000000 0.000000 0.000000
# 2 -0.007467 0.037546 -0.006913 0.000000 0.000000 0.000000
# 3 -0.007166 -0.006913 0.011427 0.000000 0.000000 0.000000
# 4 0.000000 0.000000 0.000000 0.029413 0.000000 0.000000
# 5 0.000000 0.000000 0.000000 0.000000 0.024384 0.000000
# 6 0.000000 0.000000 0.000000 0.000000 0.000000 0.035201
#
#
# Mechanical properties :
#
#
# Convention : Reuss Voigt Hill
#
# Bulk Modulus (GPa) = 45.93755 92.44510 69.19132
# Shear Modulus (GPa) = 24.48499 31.17969 27.83234
#
# Velocity S-wave (km/s) = 3.66865 4.13993 3.91139
# Velocity P-wave (km/s) = 6.57241 8.58299 7.64409
#
# Compressibility (1/GPa) = 0.02176869
#
# Stress axis : x y z
#
# Youngs Moduli (GPa) = 62.94318 26.63428 87.50836
#
# Poissons Ratio (x) = 0.19888 0.62708
# Poissons Ratio (y) = 0.47000 0.60493
# Poissons Ratio (z) = 0.45105 0.18412
#
# Static dielectric constant tensor:
#      x y z
#    x 1.599850 0.000000 0.000000 
#    y 0.000000 1.613370 0.000000 
#    z 0.000000 0.000000 1.594570 
# 
# From -- ./inp_files/24740.got.cif
#   From: 2010.05.17/outbox.cif.g08.bks.cpg/sg51_13_cif.got.tgz:24740.got - 2010.06.03 11:52:47.
