data_PCOD9406351
_publ_section_title
;
Structure prediction by ZEFSAII (Michael W. Deem and Ramdas Pophale) SiO2 
 PCOD9406351
Probable space group: P M M A
;
_chemical_formula_sum "Si O2"
_cell_formula_units_Z 64
_cell_length_a 31.657502
_cell_length_b 7.768343
_cell_length_c 12.294440
_cell_angle_alpha 90.000000
_cell_angle_beta 90.000000
_cell_angle_gamma 90.000000
_cell_volume 3023.526559
_symmetry_space_group_name_H-M "P M M A"
_symmetry_group_IT_number 51
_symmetry_cell_setting 'orthorhombic'
loop_
_space_group_symop_operation_xyz
x,y,z
1/2-x,-y,z
1/2+x,-y,-z
-x,y,-z
-x,-y,-z
1/2+x,y,-z
1/2-x,y,z
x,-y,z
loop_
_atom_site_type_symbol
_atom_site_label
_atom_site_fract_x
_atom_site_fract_y
_atom_site_fract_z
Si Si1 0.625921 0.293621 0.131228
Si Si2 0.911484 0.797169 0.756698
Si Si3 0.452310 0.792041 0.018060
Si Si4 0.120643 0.298442 0.624647
Si Si5 0.796919 0.710450 0.980887
Si Si6 0.816361 0.697798 0.738302
Si Si7 0.046926 0.709081 0.467023
Si Si8 0.796005 0.199823 0.499312
O O1 0.631754 0.500000 0.136359
O O2 0.625790 0.224569 0.254309
O O3 0.581330 0.258854 0.073479
O O4 0.664547 0.227959 0.056124
O O5 0.933818 0.733541 0.866151
O O6 0.867096 0.704866 0.737975
O O7 0.940638 0.771134 0.652387
O O8 0.902157 0.000000 0.769183
O O9 0.453900 0.000000 0.020636
O O10 0.500000 0.728995 0.000000
O O11 0.110668 0.500000 0.639138
O O12 0.082366 0.226714 0.552063
O O13 0.164011 0.285095 0.557704
O O14 0.750000 0.757974 0.020065
O O15 0.798982 0.500000 0.978003
O O16 0.802376 0.767805 0.855630
O O17 0.802201 0.500000 0.730788
O O18 0.800706 0.788581 0.629622
O O19 0.048190 0.500000 0.465359
O O20 0.000000 0.762588 0.500000
O O21 0.750000 0.272260 0.468826
O O22 0.797193 0.000000 0.468193
#
# Coordination Sequence:
#
# PCOD9406351 Si02
#       8
#     8   8   8   8   8   8   8   8
#     4  10  21  38  60  87 116 149 196 245 289 341
#     4  11  22  37  60  88 118 153 197 241 290 349
#     4  10  23  41  59  84 120 158 194 236 289 349
#     4  10  22  39  59  85 117 156 198 243 294 347
#     4   9  18  33  55  84 115 146 183 232 289 344
#     4  11  20  35  60  88 118 151 191 238 295 347
#     4  10  22  39  59  86 119 154 194 242 295 348
#     4  11  24  40  59  86 120 157 197 241 290 347
#
# _framework density 21.167335000000001
#
# number of rings (size 3 to 8) (size 9 to 14) (size 15 to 20)
#    0.000    1.750    2.500    1.500    1.750    3.500 
#    0.000    1.250    0.000    1.125    0.000    0.000 
#    0.000    0.000    0.000    0.000    0.000    0.000 
#
# Total GULP energy -357648.909605 kJ/mol
# GULP energy per Si atom -5588.264213 kJ/mol
# Density = 2.111916 g / cm^3
# Si number density = 21.167335 Si / 1000 Ang^3
#
#
#
# Elastic Constant Matrix: (Units=GPa)
#
#
# Indices 1 2 3 4 5 6 
#
# 1 147.8896 -6.5317 56.3697 0.0000 0.0000 0.0000
# 2 -6.5317 30.2398 -3.1400 0.0000 0.0000 0.0000
# 3 56.3697 -3.1400 137.5081 0.0000 0.0000 0.0000
# 4 0.0000 0.0000 0.0000 -13.4378 0.0000 0.0000
# 5 0.0000 0.0000 0.0000 0.0000 32.0317 0.0000
# 6 0.0000 0.0000 0.0000 0.0000 0.0000 60.1127
#
#
#
# Elastic Compliance Matrix: (Units=1/GPa)
#
#
# Indices 1 2 3 4 5 6 
#
# 1 0.008073 0.001403 -0.003277 0.000000 0.000000 0.000000
# 2 0.001403 0.033392 0.000187 0.000000 0.000000 0.000000
# 3 -0.003277 0.000187 0.008620 0.000000 0.000000 0.000000
# 4 0.000000 0.000000 0.000000 -0.074417 0.000000 0.000000
# 5 0.000000 0.000000 0.000000 0.000000 0.031219 0.000000
# 6 0.000000 0.000000 0.000000 0.000000 0.000000 0.016635
#
#
# Mechanical properties :
#
#
# Convention : Reuss Voigt Hill
#
# Bulk Modulus (GPa) = 21.40820 45.44816 33.42818
# Shear Modulus (GPa) = 117.74167 33.67063 75.70615
#
# Velocity S-wave (km/s) = 7.46626 3.99267 5.98692
# Velocity P-wave (km/s) = 9.19034 6.54009 7.97606
#
# Compressibility (1/GPa) = 0.04671107
#
# Stress axis : x y z
#
# Youngs Moduli (GPa) = 123.86988 29.94772 116.00810
#
# Poissons Ratio (x) = -0.04203 0.38020
# Poissons Ratio (y) = -0.17384 -0.02171
# Poissons Ratio (z) = 0.40597 -0.00561
#
# Static dielectric constant tensor:
#      x y z
#    x 1.743330 0.000000 0.000000 
#    y 0.000000 1.785650 0.000000 
#    z 0.000000 0.000000 1.738170 
# 
# From -- ./inp_files/19657.got.cif
#   From: 2010.05.17/outbox.cif.g08.bks.cpg/sg51_10_cif.got.tgz:19657.got - 2010.06.03 11:52:47.
