data_PCOD9406911
_publ_section_title
;
Structure prediction by ZEFSAII (Michael W. Deem and Ramdas Pophale) SiO2 
 PCOD9406911
Probable space group: P M M A
;
_chemical_formula_sum "Si O2"
_cell_formula_units_Z 32
_cell_length_a 11.929268
_cell_length_b 7.567323
_cell_length_c 13.275967
_cell_angle_alpha 90.000000
_cell_angle_beta 90.000000
_cell_angle_gamma 90.000000
_cell_volume 1198.456379
_symmetry_space_group_name_H-M "P M M A"
_symmetry_group_IT_number 51
_symmetry_cell_setting 'orthorhombic'
loop_
_space_group_symop_operation_xyz
x,y,z
1/2-x,-y,z
1/2+x,-y,-z
-x,y,-z
-x,-y,-z
1/2+x,y,-z
1/2-x,y,z
x,-y,z
loop_
_atom_site_type_symbol
_atom_site_label
_atom_site_fract_x
_atom_site_fract_y
_atom_site_fract_z
Si Si1 0.124629 0.289687 0.322062
Si Si2 0.873830 0.298683 0.010860
Si Si3 0.121532 0.786957 0.546265
Si Si4 0.087207 0.796337 0.771707
O O1 0.250000 0.219180 0.315107
O O2 0.126402 0.500000 0.312655
O O3 0.069956 0.250580 0.433088
O O4 0.047648 0.211197 0.235509
O O5 0.750000 0.227135 0.977754
O O6 0.880489 0.500000 0.970201
O O7 0.868814 0.302311 0.132256
O O8 0.000000 0.216146 0.000000
O O9 0.250000 0.731969 0.519636
O O10 0.115885 0.719724 0.661890
O O11 0.116366 0.000000 0.555515
O O12 0.122891 0.000000 0.778292
#
# Coordination Sequence:
#
# PCOD9406911 Si02
#       4
#     8   8   8   8
#     4   9  19  36  58  86 123 168 214 256 298 349
#     4  10  23  44  68  92 118 153 201 256 312 370
#     4   9  19  34  54  83 119 160 204 247 291 343
#     4  11  23  37  58  90 125 161 201 248 306 370
#
# _framework density 26.701014000000001
#
# number of rings (size 3 to 8) (size 9 to 14) (size 15 to 20)
#    0.000    2.250    0.000    1.500    0.000   14.000 
#    0.000   10.000    0.000    0.000    0.000    0.000 
#    0.000    0.000    0.000    0.000    0.000    0.000 
#
# Total GULP energy -178432.039798 kJ/mol
# GULP energy per Si atom -5576.001244 kJ/mol
# Density = 2.664024 g / cm^3
# Si number density = 26.701014 Si / 1000 Ang^3
#
#
#
# Elastic Constant Matrix: (Units=GPa)
#
#
# Indices 1 2 3 4 5 6 
#
# 1 127.6147 -3.6359 29.0667 0.0000 0.0000 0.0000
# 2 -3.6359 92.8665 -2.9215 0.0000 0.0000 0.0000
# 3 29.0667 -2.9215 63.1036 0.0000 0.0000 0.0000
# 4 0.0000 0.0000 0.0000 28.2642 0.0000 0.0000
# 5 0.0000 0.0000 0.0000 0.0000 27.8629 0.0000
# 6 0.0000 0.0000 0.0000 0.0000 0.0000 -1.8975
#
#
#
# Elastic Compliance Matrix: (Units=1/GPa)
#
#
# Indices 1 2 3 4 5 6 
#
# 1 0.008759 0.000216 -0.004025 0.000000 0.000000 0.000000
# 2 0.000216 0.010789 0.000400 0.000000 0.000000 0.000000
# 3 -0.004025 0.000400 0.017719 0.000000 0.000000 0.000000
# 4 0.000000 0.000000 0.000000 0.035380 0.000000 0.000000
# 5 0.000000 0.000000 0.000000 0.000000 0.035890 0.000000
# 6 0.000000 0.000000 0.000000 0.000000 0.000000 -0.526998
#
#
# Mechanical properties :
#
#
# Convention : Reuss Voigt Hill
#
# Bulk Modulus (GPa) = 32.83999 36.51150 34.67574
# Shear Modulus (GPa) = -12.45350 28.25095 7.89873
#
# Velocity S-wave (km/s) = -2.16198 3.25629 1.72181
# Velocity P-wave (km/s) = 2.46852 5.27653 4.11919
#
# Compressibility (1/GPa) = 0.03045068
#
# Stress axis : x y z
#
# Youngs Moduli (GPa) = 114.16941 92.68538 56.43581
#
# Poissons Ratio (x) = -0.02005 0.22713
# Poissons Ratio (y) = -0.02470 -0.02257
# Poissons Ratio (z) = 0.45948 -0.03706
#
# Static dielectric constant tensor:
#      x y z
#    x 2.504570 0.000000 0.000000 
#    y 0.000000 1.952410 0.000000 
#    z 0.000000 0.000000 2.021340 
# 
# From -- ./inp_files/15824.got.cif
#   From: 2010.05.17/outbox.cif.g08.bks.cpg/sg51_8_cif.got.tgz:15824.got - 2010.06.03 11:52:47.
