data_PCOD9406788
_publ_section_title
;
Structure prediction by ZEFSAII (Michael W. Deem and Ramdas Pophale) SiO2 
 PCOD9406788
Probable space group: P M M A
;
_chemical_formula_sum "Si O2"
_cell_formula_units_Z 64
_cell_length_a 14.957859
_cell_length_b 17.622077
_cell_length_c 12.195122
_cell_angle_alpha 90.000000
_cell_angle_beta 90.000000
_cell_angle_gamma 90.000000
_cell_volume 3214.494440
_symmetry_space_group_name_H-M "P M M A"
_symmetry_group_IT_number 51
_symmetry_cell_setting 'orthorhombic'
loop_
_space_group_symop_operation_xyz
x,y,z
1/2-x,-y,z
1/2+x,-y,-z
-x,y,-z
-x,-y,-z
1/2+x,y,-z
1/2-x,y,z
x,-y,z
loop_
_atom_site_type_symbol
_atom_site_label
_atom_site_fract_x
_atom_site_fract_y
_atom_site_fract_z
Si Si1 0.356822 0.814103 0.729957
Si Si2 0.514969 0.587153 0.872905
Si Si3 0.893090 0.586202 0.513277
Si Si4 0.649347 0.634619 0.269269
Si Si5 0.641426 0.084762 0.473796
Si Si6 0.143628 0.863699 0.283307
Si Si7 0.147609 0.683374 0.273824
Si Si8 0.987050 0.912843 0.128757
O O1 0.250000 0.826143 0.743988
O O2 0.372287 0.724306 0.728981
O O3 0.385304 0.852833 0.615132
O O4 0.413966 0.855917 0.822134
O O5 0.547109 0.500000 0.867082
O O6 0.422684 0.593573 0.805940
O O7 0.582766 0.642806 0.811751
O O8 0.500000 0.606962 0.000000
O O9 0.868434 0.500000 0.544478
O O10 0.855112 0.605809 0.394106
O O11 0.864769 0.643996 0.607743
O O12 0.000000 0.589568 0.500000
O O13 0.750000 0.624260 0.227616
O O14 0.750000 0.084290 0.473248
O O15 0.615827 0.105017 0.597480
O O16 0.610565 0.000000 0.443980
O O17 0.250000 0.879075 0.267623
O O18 0.130414 0.772979 0.282781
O O19 0.080294 0.899232 0.191781
O O20 0.250000 0.673127 0.239191
O O21 0.958317 0.000000 0.146605
O O22 0.000000 0.900473 0.000000
#
# Coordination Sequence:
#
# PCOD9406788 Si02
#       8
#     8   8   8   8   8   8   8   8
#     4  10  22  40  62  90 123 157 196 247 302 354
#     4  11  25  44  63  86 119 157 203 259 308 357
#     4  11  22  37  61  93 128 164 199 243 304 364
#     4  11  23  40  64  92 123 161 203 249 304 365
#     4   9  17  33  59  88 119 154 191 233 288 352
#     4  10  22  40  62  90 123 157 196 247 302 354
#     4  11  23  40  64  92 123 161 203 249 304 365
#     4  11  25  42  61  88 119 157 207 251 294 357
#
# _framework density 19.909818000000001
#
# number of rings (size 3 to 8) (size 9 to 14) (size 15 to 20)
#    0.000    1.500    1.250    3.375    0.000    9.500 
#    0.000    6.250    0.000    0.000    0.000    0.000 
#    0.000    0.000    0.000    0.000    0.000    0.000 
#
# Total GULP energy -357972.154203 kJ/mol
# GULP energy per Si atom -5593.314909 kJ/mol
# Density = 1.986450 g / cm^3
# Si number density = 19.909818 Si / 1000 Ang^3
#
#
#
# Elastic Constant Matrix: (Units=GPa)
#
#
# Indices 1 2 3 4 5 6 
#
# 1 45.8903 14.4413 9.4843 0.0000 0.0000 0.0000
# 2 14.4413 47.3324 11.0406 0.0000 0.0000 0.0000
# 3 9.4843 11.0406 86.5606 0.0000 0.0000 0.0000
# 4 0.0000 0.0000 0.0000 54.0945 0.0000 0.0000
# 5 0.0000 0.0000 0.0000 0.0000 -45.7909 0.0000
# 6 0.0000 0.0000 0.0000 0.0000 0.0000 7.2110
#
#
#
# Elastic Compliance Matrix: (Units=1/GPa)
#
#
# Indices 1 2 3 4 5 6 
#
# 1 0.024367 -0.007021 -0.001774 0.000000 0.000000 0.000000
# 2 -0.007021 0.023798 -0.002266 0.000000 0.000000 0.000000
# 3 -0.001774 -0.002266 0.012036 0.000000 0.000000 0.000000
# 4 0.000000 0.000000 0.000000 0.018486 0.000000 0.000000
# 5 0.000000 0.000000 0.000000 0.000000 -0.021838 0.000000
# 6 0.000000 0.000000 0.000000 0.000000 0.000000 0.138677
#
#
# Mechanical properties :
#
#
# Convention : Reuss Voigt Hill
#
# Bulk Modulus (GPa) = 26.26139 27.74619 27.00379
# Shear Modulus (GPa) = 21.70700 12.75740 17.23220
#
# Velocity S-wave (km/s) = 3.30550 2.53407 2.94515
# Velocity P-wave (km/s) = 5.27136 4.74639 5.01575
#
# Compressibility (1/GPa) = 0.03807872
#
# Stress axis : x y z
#
# Youngs Moduli (GPa) = 41.03882 42.02075 83.08372
#
# Poissons Ratio (x) = 0.29501 0.14742
# Poissons Ratio (y) = 0.28812 0.18828
# Poissons Ratio (z) = 0.07282 0.09522
#
# Static dielectric constant tensor:
#      x y z
#    x 1.712250 0.000000 0.000000 
#    y 0.000000 1.684950 0.000000 
#    z 0.000000 0.000000 1.654560 
# 
# From -- ./inp_files/16821.got.cif
#   From: 2010.05.17/outbox.cif.g08.bks.cpg/sg51_9_cif.got.tgz:16821.got - 2010.06.03 11:52:47.
