data_PCOD9406801
_publ_section_title
;
Structure prediction by ZEFSAII (Michael W. Deem and Ramdas Pophale) SiO2 
 PCOD9406801
Probable space group: P M M A
;
_chemical_formula_sum "Si O2"
_cell_formula_units_Z 64
_cell_length_a 24.141974
_cell_length_b 8.773750
_cell_length_c 15.740948
_cell_angle_alpha 90.000000
_cell_angle_beta 90.000000
_cell_angle_gamma 90.000000
_cell_volume 3334.179044
_symmetry_space_group_name_H-M "P M M A"
_symmetry_group_IT_number 51
_symmetry_cell_setting 'orthorhombic'
loop_
_space_group_symop_operation_xyz
x,y,z
1/2-x,-y,z
1/2+x,-y,-z
-x,y,-z
-x,-y,-z
1/2+x,y,-z
1/2-x,y,z
x,-y,z
loop_
_atom_site_type_symbol
_atom_site_label
_atom_site_fract_x
_atom_site_fract_y
_atom_site_fract_z
Si Si1 0.389139 0.682773 0.405655
Si Si2 0.314677 0.316655 0.243307
Si Si3 0.502844 0.681538 0.841027
Si Si4 0.115171 0.180838 0.090215
Si Si5 0.619610 0.318350 0.403267
Si Si6 0.119062 0.319348 0.911565
Si Si7 0.003727 0.181145 0.652794
Si Si8 0.184676 0.181106 0.753497
O O1 0.399055 0.500000 0.401515
O O2 0.347880 0.723342 0.329141
O O3 0.365749 0.716523 0.499089
O O4 0.447275 0.766611 0.392001
O O5 0.250000 0.278031 0.249870
O O6 0.319295 0.500000 0.232468
O O7 0.343523 0.236782 0.163636
O O8 0.507827 0.500000 0.826373
O O9 0.556098 0.740051 0.891397
O O10 0.445592 0.709842 0.890172
O O11 0.500503 0.765617 0.750633
O O12 0.108837 0.000000 0.093792
O O13 0.134834 0.233195 0.997515
O O14 0.622360 0.500000 0.390500
O O15 0.556972 0.262883 0.387069
O O16 0.658117 0.238176 0.334238
O O17 0.126007 0.500000 0.923314
O O18 0.154079 0.263420 0.831223
O O19 0.010374 0.000000 0.647859
O O20 0.250000 0.212875 0.755324
O O21 0.176033 0.000000 0.761338
#
# Coordination Sequence:
#
# PCOD9406801 Si02
#       8
#     8   8   8   8   8   8   8   8
#     4  10  22  40  64  92 126 164 209 258 308 368
#     4  10  22  42  66  89 118 162 213 262 309 362
#     4  11  22  39  64  93 126 162 205 253 306 372
#     4  12  25  40  63  95 129 165 203 252 312 372
#     4  11  23  40  64  94 126 166 210 255 307 371
#     4  11  24  42  67  94 123 164 207 254 309 370
#     4  12  23  36  61  94 129 166 203 250 314 376
#     4  11  25  44  65  91 125 164 208 263 318 367
#
# _framework density 19.195129000000001
#
# number of rings (size 3 to 8) (size 9 to 14) (size 15 to 20)
#    0.000    1.000    2.500    4.500    0.000    7.750 
#    0.000    1.250    0.000    0.000    0.000    0.000 
#    0.000    0.000    0.000    0.000    0.000    0.000 
#
# Total GULP energy -358094.287720 kJ/mol
# GULP energy per Si atom -5595.223246 kJ/mol
# Density = 1.915144 g / cm^3
# Si number density = 19.195129 Si / 1000 Ang^3
#
#
#
# Elastic Constant Matrix: (Units=GPa)
#
#
# Indices 1 2 3 4 5 6 
#
# 1 79.0253 24.1863 11.2070 0.0000 0.0000 0.0000
# 2 24.1863 27.1444 8.3005 0.0000 0.0000 0.0000
# 3 11.2070 8.3005 93.6933 0.0000 0.0000 0.0000
# 4 0.0000 0.0000 0.0000 -101.3552 0.0000 0.0000
# 5 0.0000 0.0000 0.0000 0.0000 -6.1769 0.0000
# 6 0.0000 0.0000 0.0000 0.0000 0.0000 23.7868
#
#
#
# Elastic Compliance Matrix: (Units=1/GPa)
#
#
# Indices 1 2 3 4 5 6 
#
# 1 0.017447 -0.015323 -0.000729 0.000000 0.000000 0.000000
# 2 -0.015323 0.051323 -0.002714 0.000000 0.000000 0.000000
# 3 -0.000729 -0.002714 0.011001 0.000000 0.000000 0.000000
# 4 0.000000 0.000000 0.000000 -0.009866 0.000000 0.000000
# 5 0.000000 0.000000 0.000000 0.000000 -0.161895 0.000000
# 6 0.000000 0.000000 0.000000 0.000000 0.000000 0.042040
#
#
# Mechanical properties :
#
#
# Convention : Reuss Voigt Hill
#
# Bulk Modulus (GPa) = 23.67515 31.91674 27.79595
# Shear Modulus (GPa) = 3007.15362 -6.33777 1500.40793
#
# Velocity S-wave (km/s) = 39.62353 -1.81905 27.98853
# Velocity P-wave (km/s) = 45.88820 3.50024 32.54211
#
# Compressibility (1/GPa) = 0.04223838
#
# Stress axis : x y z
#
# Youngs Moduli (GPa) = 57.31533 19.48444 90.90238
#
# Poissons Ratio (x) = 0.29856 0.06631
# Poissons Ratio (y) = 0.87824 0.24671
# Poissons Ratio (z) = 0.04181 0.05288
#
# Static dielectric constant tensor:
#      x y z
#    x 1.638750 0.000000 0.000000 
#    y 0.000000 1.642670 0.000000 
#    z 0.000000 0.000000 1.659300 
# 
# From -- ./inp_files/26353.got.cif
#   From: 2010.05.17/outbox.cif.g08.bks.cpg/sg51_14_cif.got.tgz:26353.got - 2010.06.03 11:52:47.
