data_PCOD9406558
_publ_section_title
;
Structure prediction by ZEFSAII (Michael W. Deem and Ramdas Pophale) SiO2 
 PCOD9406558
Probable space group: P M M A
;
_chemical_formula_sum "Si O2"
_cell_formula_units_Z 38
_cell_length_a 10.623003
_cell_length_b 9.257725
_cell_length_c 17.331150
_cell_angle_alpha 90.000000
_cell_angle_beta 90.000000
_cell_angle_gamma 90.000000
_cell_volume 1704.429182
_symmetry_space_group_name_H-M "P M M A"
_symmetry_group_IT_number 51
_symmetry_cell_setting 'orthorhombic'
loop_
_space_group_symop_operation_xyz
x,y,z
1/2-x,-y,z
1/2+x,-y,-z
-x,y,-z
-x,-y,-z
1/2+x,y,-z
1/2-x,y,z
x,-y,z
loop_
_atom_site_type_symbol
_atom_site_label
_atom_site_fract_x
_atom_site_fract_y
_atom_site_fract_z
Si Si1 0.250000 0.296892 0.646039
Si Si2 0.250000 0.000000 0.596009
Si Si3 0.750000 0.337308 0.174744
Si Si4 0.250000 0.161574 0.436751
Si Si5 0.030471 0.665558 0.357415
Si Si6 0.611876 0.331202 0.941344
Si Si7 0.997917 0.172626 0.806042
O O1 0.250000 0.358115 0.732465
O O2 0.386368 0.337430 0.611976
O O3 0.250000 0.126098 0.659270
O O4 0.250000 0.875945 0.527398
O O5 0.750000 0.500000 0.140665
O O6 0.625862 0.244079 0.160923
O O7 0.373487 0.248765 0.412073
O O8 0.250000 0.000000 0.399360
O O9 0.071067 0.500000 0.345964
O O10 0.027175 0.753639 0.277081
O O11 0.750000 0.316860 0.977935
O O12 0.597064 0.500000 0.917178
O O13 0.603263 0.228487 0.867466
O O14 0.500000 0.298012 0.000000
O O15 0.003331 0.000000 0.799457
#
# Coordination Sequence:
#
# PCOD9406558 Si02
#       7
#     4   2   4   4   8   8   8
#     4  10  22  38  68  95 126 168 220 265 331 400
#     4  10  26  42  68  94 140 176 216 268 344 402
#     4  10  21  39  64  98 132 169 219 282 332 384
#     4  10  25  43  63  93 130 174 217 268 338 395
#     4  11  23  43  68  97 132 173 224 284 332 390
#     4  10  23  43  66  95 132 180 226 268 325 392
#     4  11  23  38  65  99 132 172 222 274 337 389
#
# _framework density 22.294854000000001
#
# number of rings (size 3 to 8) (size 9 to 14) (size 15 to 20)
#    0.316    1.263    0.000    5.368   10.316    2.526 
#    0.000    4.211    0.000    0.000    0.000    0.000 
#    0.000    0.000    0.000    0.000    0.000    0.000 
#
# Total GULP energy -211762.829977 kJ/mol
# GULP energy per Si atom -5572.706052 kJ/mol
# Density = 2.224411 g / cm^3
# Si number density = 22.294854 Si / 1000 Ang^3
#
#
#
# Elastic Constant Matrix: (Units=GPa)
#
#
# Indices 1 2 3 4 5 6 
#
# 1 139.8381 43.6371 31.1328 0.0000 0.0000 0.0000
# 2 43.6371 210.5570 51.2865 0.0000 0.0000 0.0000
# 3 31.1328 51.2865 69.5400 0.0000 0.0000 0.0000
# 4 0.0000 0.0000 0.0000 39.3282 0.0000 0.0000
# 5 0.0000 0.0000 0.0000 0.0000 14.3519 0.0000
# 6 0.0000 0.0000 0.0000 0.0000 0.0000 117.8399
#
#
#
# Elastic Compliance Matrix: (Units=1/GPa)
#
#
# Indices 1 2 3 4 5 6 
#
# 1 0.008102 -0.000970 -0.002912 0.000000 0.000000 0.000000
# 2 -0.000970 0.005905 -0.003921 0.000000 0.000000 0.000000
# 3 -0.002912 -0.003921 0.018576 0.000000 0.000000 0.000000
# 4 0.000000 0.000000 0.000000 0.025427 0.000000 0.000000
# 5 0.000000 0.000000 0.000000 0.000000 0.069677 0.000000
# 6 0.000000 0.000000 0.000000 0.000000 0.000000 0.008486
#
#
# Mechanical properties :
#
#
# Convention : Reuss Voigt Hill
#
# Bulk Modulus (GPa) = 58.90203 74.67199 66.78701
# Shear Modulus (GPa) = 31.75844 53.89594 42.82719
#
# Velocity S-wave (km/s) = 3.77832 4.92206 4.38761
# Velocity P-wave (km/s) = 6.74619 8.11590 7.46254
#
# Compressibility (1/GPa) = 0.01697734
#
# Stress axis : x y z
#
# Youngs Moduli (GPa) = 123.42510 169.33714 53.83362
#
# Poissons Ratio (x) = 0.16423 0.15676
# Poissons Ratio (y) = 0.11970 0.21109
# Poissons Ratio (z) = 0.35942 0.66399
#
# Static dielectric constant tensor:
#      x y z
#    x 1.904610 0.000000 0.000000 
#    y 0.000000 1.814970 0.000000 
#    z 0.000000 0.000000 1.829030 
# 
# From -- ./inp_files/28862.got.cif
#   From: 2010.05.17/outbox.cif.g08.bks.cpg/sg51_15_cif.got.tgz:28862.got - 2010.06.03 11:52:47.
