data_PCOD9406508
_publ_section_title
;
Structure prediction by ZEFSAII (Michael W. Deem and Ramdas Pophale) SiO2 
 PCOD9406508
Probable space group: P M M A
;
_chemical_formula_sum "Si O2"
_cell_formula_units_Z 44
_cell_length_a 8.677791
_cell_length_b 18.355827
_cell_length_c 14.617866
_cell_angle_alpha 90.000000
_cell_angle_beta 90.000000
_cell_angle_gamma 90.000000
_cell_volume 2328.451083
_symmetry_space_group_name_H-M "P M M A"
_symmetry_group_IT_number 51
_symmetry_cell_setting 'orthorhombic'
loop_
_space_group_symop_operation_xyz
x,y,z
1/2-x,-y,z
1/2+x,-y,-z
-x,y,-z
-x,-y,-z
1/2+x,y,-z
1/2-x,y,z
x,-y,z
loop_
_atom_site_type_symbol
_atom_site_label
_atom_site_fract_x
_atom_site_fract_y
_atom_site_fract_z
Si Si1 0.064314 0.500000 0.602220
Si Si2 0.564045 0.641758 0.282004
Si Si3 0.066176 0.307761 0.096587
Si Si4 0.434360 0.856119 0.902633
Si Si5 0.434319 0.917438 0.282456
Si Si6 0.565320 0.214881 0.398502
O O1 0.250000 0.500000 0.596580
O O2 0.018008 0.428045 0.658309
O O3 0.000000 0.500000 0.500000
O O4 0.750000 0.640812 0.270720
O O5 0.486374 0.645220 0.183031
O O6 0.522577 0.715215 0.336977
O O7 0.250000 0.301770 0.091765
O O8 0.994999 0.226756 0.109546
O O9 0.000000 0.335336 0.000000
O O10 0.250000 0.855483 0.904497
O O11 0.495330 0.901864 0.817356
O O12 0.500000 0.882249 0.000000
O O13 0.250000 0.909638 0.277329
O O14 0.500734 0.857485 0.351032
O O15 0.470915 0.000000 0.311000
O O16 0.500000 0.223204 0.500000
O O17 0.750000 0.211152 0.401713
#
# Coordination Sequence:
#
# PCOD9406508 Si02
#       6
#     4   8   8   8   8   8
#     4  10  22  40  63  92 129 164 201 248 300 352
#     4  10  21  39  62  91 124 161 200 246 297 353
#     4  11  21  35  60  90 122 159 200 247 295 354
#     4  11  21  36  59  87 120 157 198 244 297 357
#     4  11  24  41  60  85 118 155 200 251 303 357
#     4  11  23  39  62  87 116 154 201 249 300 358
#
# _framework density 18.896681999999998
#
# number of rings (size 3 to 8) (size 9 to 14) (size 15 to 20)
#    0.000    1.273    1.818    6.000    0.000    3.636 
#    0.000    0.455    0.000    0.000    0.000    0.000 
#    0.000    0.000    0.000    0.000    0.000    0.000 
#
# Total GULP energy -246050.572275 kJ/mol
# GULP energy per Si atom -5592.058461 kJ/mol
# Density = 1.885367 g / cm^3
# Si number density = 18.896682 Si / 1000 Ang^3
#
#
#
# Elastic Constant Matrix: (Units=GPa)
#
#
# Indices 1 2 3 4 5 6 
#
# 1 88.1242 55.1674 58.9421 0.0000 0.0000 0.0000
# 2 55.1674 118.8267 80.9339 0.0000 0.0000 0.0000
# 3 58.9421 80.9339 161.6310 0.0000 0.0000 0.0000
# 4 0.0000 0.0000 0.0000 10.4169 0.0000 0.0000
# 5 0.0000 0.0000 0.0000 0.0000 40.0306 0.0000
# 6 0.0000 0.0000 0.0000 0.0000 0.0000 18.5206
#
#
#
# Elastic Compliance Matrix: (Units=1/GPa)
#
#
# Indices 1 2 3 4 5 6 
#
# 1 0.017175 -0.005627 -0.003446 0.000000 0.000000 0.000000
# 2 -0.005627 0.014615 -0.005266 0.000000 0.000000 0.000000
# 3 -0.003446 -0.005266 0.010080 0.000000 0.000000 0.000000
# 4 0.000000 0.000000 0.000000 0.095998 0.000000 0.000000
# 5 0.000000 0.000000 0.000000 0.000000 0.024981 0.000000
# 6 0.000000 0.000000 0.000000 0.000000 0.000000 0.053994
#
#
# Mechanical properties :
#
#
# Convention : Reuss Voigt Hill
#
# Bulk Modulus (GPa) = 75.79938 84.29655 80.04796
# Shear Modulus (GPa) = 20.00660 25.36284 22.68472
#
# Velocity S-wave (km/s) = 3.25735 3.66756 3.46852
# Velocity P-wave (km/s) = 7.37202 7.91459 7.64812
#
# Compressibility (1/GPa) = 0.01319272
#
# Stress axis : x y z
#
# Youngs Moduli (GPa) = 58.22506 68.42367 99.20268
#
# Poissons Ratio (x) = 0.38501 0.34181
# Poissons Ratio (y) = 0.32762 0.52242
# Poissons Ratio (z) = 0.20062 0.36033
#
# Static dielectric constant tensor:
#      x y z
#    x 1.633550 0.000000 0.000000 
#    y 0.000000 1.647460 0.000000 
#    z 0.000000 0.000000 1.636170 
# 
# From -- ./inp_files/20952.got.cif
#   From: 2010.05.17/outbox.cif.g08.bks.cpg/sg51_11_cif.got.tgz:20952.got - 2010.06.03 11:52:47.
