data_PCOD9406683
_publ_section_title
;
Structure prediction by ZEFSAII (Michael W. Deem and Ramdas Pophale) SiO2 
 PCOD9406683
Probable space group: P M M A
;
_chemical_formula_sum "Si O2"
_cell_formula_units_Z 44
_cell_length_a 10.233576
_cell_length_b 7.401607
_cell_length_c 30.502828
_cell_angle_alpha 90.000000
_cell_angle_beta 90.000000
_cell_angle_gamma 90.000000
_cell_volume 2310.433893
_symmetry_space_group_name_H-M "P M M A"
_symmetry_group_IT_number 51
_symmetry_cell_setting 'orthorhombic'
loop_
_space_group_symop_operation_xyz
x,y,z
1/2-x,-y,z
1/2+x,-y,-z
-x,y,-z
-x,-y,-z
1/2+x,y,-z
1/2-x,y,z
x,-y,z
loop_
_atom_site_type_symbol
_atom_site_label
_atom_site_fract_x
_atom_site_fract_y
_atom_site_fract_z
Si Si1 0.401366 0.715602 0.883617
Si Si2 0.403081 0.000000 0.959282
Si Si3 0.898550 0.716218 0.808802
Si Si4 0.399694 0.779805 0.536922
Si Si5 0.600432 0.220478 0.363667
Si Si6 0.398000 0.215312 0.291219
O O1 0.250000 0.748029 0.870770
O O2 0.416805 0.500000 0.890418
O O3 0.425068 0.827034 0.927868
O O4 0.499880 0.777467 0.845536
O O5 0.250000 0.000000 0.972679
O O6 0.500000 0.000000 0.000000
O O7 0.750000 0.785704 0.814609
O O8 0.892930 0.500000 0.812747
O O9 0.940189 0.755454 0.758989
O O10 0.500000 0.717608 0.500000
O O11 0.250000 0.725047 0.528241
O O12 0.434309 0.725367 0.586612
O O13 0.401124 0.000000 0.536432
O O14 0.750000 0.275842 0.354947
O O15 0.499399 0.284900 0.327108
O O16 0.599960 0.000000 0.363088
O O17 0.250000 0.287130 0.295790
O O18 0.390844 0.000000 0.297606
#
# Coordination Sequence:
#
# PCOD9406683 Si02
#       6
#     8   4   8   8   8   8
#     4   9  19  36  55  76 105 137 169 209 252 294
#     4  10  22  38  56  82 110 138 174 212 251 296
#     4   9  18  32  49  70  96 126 160 197 238 284
#     4   8  13  20  30  45  67  98 136 175 216 265
#     4   8  14  24  35  50  76 108 142 180 222 272
#     4   9  17  27  40  61  87 115 147 185 227 272
#
# _framework density 19.044042000000001
#
# number of rings (size 3 to 8) (size 9 to 14) (size 15 to 20)
#    0.000    3.273    0.000    1.091    1.273    2.545 
#    0.000    3.636    0.000    0.000    0.000    0.000 
#    0.000    0.727    0.000    1.636    0.000    3.273 
#
# Total GULP energy -245347.830165 kJ/mol
# GULP energy per Si atom -5576.087049 kJ/mol
# Density = 1.900070 g / cm^3
# Si number density = 19.044042 Si / 1000 Ang^3
#
#
#
# Elastic Constant Matrix: (Units=GPa)
#
#
# Indices 1 2 3 4 5 6 
#
# 1 135.2975 24.9667 146.2999 0.0000 0.0000 0.0000
# 2 24.9667 66.9808 24.9320 0.0000 0.0000 0.0000
# 3 146.2999 24.9320 188.9339 0.0000 0.0000 0.0000
# 4 0.0000 0.0000 0.0000 93.2056 0.0000 0.0000
# 5 0.0000 0.0000 0.0000 0.0000 44.7057 0.0000
# 6 0.0000 0.0000 0.0000 0.0000 0.0000 0.1967
#
#
#
# Elastic Compliance Matrix: (Units=1/GPa)
#
#
# Indices 1 2 3 4 5 6 
#
# 1 0.046495 -0.004132 -0.035458 0.000000 0.000000 0.000000
# 2 -0.004132 0.016068 0.001080 0.000000 0.000000 0.000000
# 3 -0.035458 0.001080 0.032607 0.000000 0.000000 0.000000
# 4 0.000000 0.000000 0.000000 0.010729 0.000000 0.000000
# 5 0.000000 0.000000 0.000000 0.000000 0.022369 0.000000
# 6 0.000000 0.000000 0.000000 0.000000 0.000000 5.083300
#
#
# Mechanical properties :
#
#
# Convention : Reuss Voigt Hill
#
# Bulk Modulus (GPa) = 55.10032 87.06770 71.08401
# Shear Modulus (GPa) = 0.94435 40.62251 20.78343
#
# Velocity S-wave (km/s) = 0.70495 4.62354 3.30712
# Velocity P-wave (km/s) = 5.44596 8.62098 7.21040
#
# Compressibility (1/GPa) = 0.01814871
#
# Stress axis : x y z
#
# Youngs Moduli (GPa) = 21.50786 62.23487 30.66850
#
# Poissons Ratio (x) = 0.25718 1.08743
# Poissons Ratio (y) = 0.08888 -0.03311
# Poissons Ratio (z) = 0.76262 -0.06718
#
# Static dielectric constant tensor:
#      x y z
#    x 1.653460 0.000000 0.000000 
#    y 0.000000 1.804810 0.000000 
#    z 0.000000 0.000000 1.619830 
# 
# From -- ./inp_files/36724.got.cif
#   From: 2010.05.17/outbox.cif.g08.bks.cpg/sg51_19_cif.got.tgz:36724.got - 2010.06.03 11:52:47.
