data_PCOD9406444
_publ_section_title
;
Structure prediction by ZEFSAII (Michael W. Deem and Ramdas Pophale) SiO2 
 PCOD9406444
Probable space group: P M M A
;
_chemical_formula_sum "Si O2"
_cell_formula_units_Z 48
_cell_length_a 8.577878
_cell_length_b 17.189305
_cell_length_c 16.347341
_cell_angle_alpha 90.000000
_cell_angle_beta 90.000000
_cell_angle_gamma 90.000000
_cell_volume 2410.378832
_symmetry_space_group_name_H-M "P M M A"
_symmetry_group_IT_number 51
_symmetry_cell_setting 'orthorhombic'
loop_
_space_group_symop_operation_xyz
x,y,z
1/2-x,-y,z
1/2+x,-y,-z
-x,y,-z
-x,-y,-z
1/2+x,y,-z
1/2-x,y,z
x,-y,z
loop_
_atom_site_type_symbol
_atom_site_label
_atom_site_fract_x
_atom_site_fract_y
_atom_site_fract_z
Si Si1 0.436085 0.162046 0.658447
Si Si2 0.059892 0.410216 0.251542
Si Si3 0.063493 0.000000 0.408006
Si Si4 0.437170 0.316274 0.413666
Si Si5 0.564016 0.000000 0.091848
Si Si6 0.437636 0.678629 0.087170
Si Si7 0.562758 0.160692 0.837914
O O1 0.250000 0.160799 0.656600
O O2 0.501157 0.077654 0.634912
O O3 0.499860 0.228988 0.599268
O O4 0.498335 0.181063 0.748731
O O5 0.250000 0.407988 0.251148
O O6 0.011489 0.500000 0.253410
O O7 0.011133 0.365380 0.333967
O O8 0.008831 0.368945 0.167304
O O9 0.000000 0.000000 0.500000
O O10 0.250000 0.000000 0.407316
O O11 0.500000 0.347276 0.500000
O O12 0.250000 0.315034 0.415294
O O13 0.503348 0.077870 0.135168
O O14 0.750000 0.000000 0.091726
O O15 0.500000 0.000000 0.000000
O O16 0.250000 0.674800 0.085518
O O17 0.482375 0.768866 0.102029
O O18 0.500000 0.650791 0.000000
O O19 0.750000 0.156782 0.834601
#
# Coordination Sequence:
#
# PCOD9406444 Si02
#       7
#     8   8   4   8   4   8   8
#     4  12  24  40  62  90 123 163 209 258 310 370
#     4   9  19  39  65  91 124 165 206 253 313 380
#     4  12  25  42  61  86 122 162 208 259 308 365
#     4  11  22  40  64  93 126 166 211 257 313 375
#     4  12  25  40  57  86 122 164 212 263 312 371
#     4  10  21  38  62  92 124 163 208 252 308 370
#     4  11  22  40  62  87 120 164 210 259 313 372
#
# _framework density 19.913882000000001
#
# number of rings (size 3 to 8) (size 9 to 14) (size 15 to 20)
#    0.000    1.167    1.667    5.500    0.000    3.333 
#    0.000    0.000    0.000    3.500    0.000    0.000 
#    0.000    0.000    0.000    0.000    0.000    0.000 
#
# Total GULP energy -268434.245017 kJ/mol
# GULP energy per Si atom -5592.380105 kJ/mol
# Density = 1.986856 g / cm^3
# Si number density = 19.913882 Si / 1000 Ang^3
#
#
#
# Elastic Constant Matrix: (Units=GPa)
#
#
# Indices 1 2 3 4 5 6 
#
# 1 86.2246 29.2381 31.5619 0.0000 0.0000 0.0000
# 2 29.2381 126.6207 58.6859 0.0000 0.0000 0.0000
# 3 31.5619 58.6859 163.4403 0.0000 0.0000 0.0000
# 4 0.0000 0.0000 0.0000 12.1933 0.0000 0.0000
# 5 0.0000 0.0000 0.0000 0.0000 38.6155 0.0000
# 6 0.0000 0.0000 0.0000 0.0000 0.0000 7.2325
#
#
#
# Elastic Compliance Matrix: (Units=1/GPa)
#
#
# Indices 1 2 3 4 5 6 
#
# 1 0.012971 -0.002200 -0.001715 0.000000 0.000000 0.000000
# 2 -0.002200 0.009848 -0.003111 0.000000 0.000000 0.000000
# 3 -0.001715 -0.003111 0.007567 0.000000 0.000000 0.000000
# 4 0.000000 0.000000 0.000000 0.082012 0.000000 0.000000
# 5 0.000000 0.000000 0.000000 0.000000 0.025896 0.000000
# 6 0.000000 0.000000 0.000000 0.000000 0.000000 0.138264
#
#
# Mechanical properties :
#
#
# Convention : Reuss Voigt Hill
#
# Bulk Modulus (GPa) = 61.22519 68.36191 64.79355
# Shear Modulus (GPa) = 16.88874 28.72824 22.80849
#
# Velocity S-wave (km/s) = 2.91536 3.80231 3.38798
# Velocity P-wave (km/s) = 6.49185 7.32667 6.92186
#
# Compressibility (1/GPa) = 0.01633315
#
# Stress axis : x y z
#
# Youngs Moduli (GPa) = 77.09227 101.54759 132.15898
#
# Poissons Ratio (x) = 0.22345 0.22663
# Poissons Ratio (y) = 0.16964 0.41115
# Poissons Ratio (z) = 0.13220 0.31592
#
# Static dielectric constant tensor:
#      x y z
#    x 1.676500 0.000000 0.000000 
#    y 0.000000 1.710200 0.000000 
#    z 0.000000 0.000000 1.701360 
# 
# From -- ./inp_files/21197.got.cif
#   From: 2010.05.17/outbox.cif.g08.bks.cpg/sg51_11_cif.got.tgz:21197.got - 2010.06.03 11:52:47.
