data_PCOD9406366
_publ_section_title
;
Structure prediction by ZEFSAII (Michael W. Deem and Ramdas Pophale) SiO2 
 PCOD9406366
Probable space group: P M M A
;
_chemical_formula_sum "Si O2"
_cell_formula_units_Z 40
_cell_length_a 15.993603
_cell_length_b 7.530895
_cell_length_c 15.018603
_cell_angle_alpha 90.000000
_cell_angle_beta 90.000000
_cell_angle_gamma 90.000000
_cell_volume 1808.932833
_symmetry_space_group_name_H-M "P M M A"
_symmetry_group_IT_number 51
_symmetry_cell_setting 'orthorhombic'
loop_
_space_group_symop_operation_xyz
x,y,z
1/2-x,-y,z
1/2+x,-y,-z
-x,y,-z
-x,-y,-z
1/2+x,y,-z
1/2-x,y,z
x,-y,z
loop_
_atom_site_type_symbol
_atom_site_label
_atom_site_fract_x
_atom_site_fract_y
_atom_site_fract_z
Si Si1 0.841212 0.782701 0.218445
Si Si2 0.658089 0.706298 0.797155
Si Si3 0.400556 0.215884 0.591946
Si Si4 0.507519 0.206693 0.098550
Si Si5 0.903046 0.214521 0.603279
O O1 0.750000 0.731493 0.184101
O O2 0.852319 0.724419 0.320729
O O3 0.918328 0.717573 0.159349
O O4 0.844443 0.000000 0.220566
O O5 0.750000 0.782075 0.817393
O O6 0.658479 0.500000 0.821848
O O7 0.579655 0.787323 0.848637
O O8 0.641967 0.718938 0.691271
O O9 0.371689 0.274576 0.493978
O O10 0.498397 0.261776 0.605286
O O11 0.397133 0.000000 0.589844
O O12 0.530264 0.000000 0.086258
O O13 0.500000 0.285822 0.000000
O O14 0.898083 0.000000 0.606507
#
# Coordination Sequence:
#
# PCOD9406366 Si02
#       5
#     8   8   8   8   8
#     4   9  16  28  50  81 112 136 166 217 278 334
#     4  11  24  39  55  79 113 153 191 226 272 329
#     4   8  14  26  49  81 111 139 175 222 275 327
#     4  10  21  38  61  85 107 137 181 233 285 332
#     4   9  16  30  54  81 107 140 185 229 268 322
#
# _framework density 22.112486000000001
#
# number of rings (size 3 to 8) (size 9 to 14) (size 15 to 20)
#    0.000    2.600    2.000    1.800    0.000    3.600 
#    0.000    6.000    0.000    0.600    0.000    0.000 
#    0.000    0.000    0.000    0.000    0.000    0.000 
#
# Total GULP energy -223286.973023 kJ/mol
# GULP energy per Si atom -5582.174326 kJ/mol
# Density = 2.206216 g / cm^3
# Si number density = 22.112486 Si / 1000 Ang^3
#
#
#
# Elastic Constant Matrix: (Units=GPa)
#
#
# Indices 1 2 3 4 5 6 
#
# 1 134.9476 -7.5019 78.0368 0.0000 0.0000 0.0000
# 2 -7.5019 50.1320 -5.3858 0.0000 0.0000 0.0000
# 3 78.0368 -5.3858 151.6823 0.0000 0.0000 0.0000
# 4 0.0000 0.0000 0.0000 102.0249 0.0000 0.0000
# 5 0.0000 0.0000 0.0000 0.0000 -4.2968 0.0000
# 6 0.0000 0.0000 0.0000 0.0000 0.0000 41.7875
#
#
#
# Elastic Compliance Matrix: (Units=1/GPa)
#
#
# Indices 1 2 3 4 5 6 
#
# 1 0.010599 0.001004 -0.005417 0.000000 0.000000 0.000000
# 2 0.001004 0.020119 0.000198 0.000000 0.000000 0.000000
# 3 -0.005417 0.000198 0.009387 0.000000 0.000000 0.000000
# 4 0.000000 0.000000 0.000000 0.009802 0.000000 0.000000
# 5 0.000000 0.000000 0.000000 0.000000 -0.232729 0.000000
# 6 0.000000 0.000000 0.000000 0.000000 0.000000 0.023931
#
#
# Mechanical properties :
#
#
# Convention : Reuss Voigt Hill
#
# Bulk Modulus (GPa) = 31.57194 51.89559 41.73376
# Shear Modulus (GPa) = -35.73874 46.01063 5.13595
#
# Velocity S-wave (km/s) = -4.02459 4.56648 1.52568
# Velocity P-wave (km/s) = 2.69955 7.16404 4.69233
#
# Compressibility (1/GPa) = 0.03167369
#
# Stress axis : x y z
#
# Youngs Moduli (GPa) = 94.35136 49.70470 106.53348
#
# Poissons Ratio (x) = -0.04991 0.57710
# Poissons Ratio (y) = -0.09473 -0.02107
# Poissons Ratio (z) = 0.51111 -0.00983
#
# Static dielectric constant tensor:
#      x y z
#    x 1.799940 0.000000 0.000000 
#    y 0.000000 1.842960 0.000000 
#    z 0.000000 0.000000 1.797830 
# 
# From -- ./inp_files/23682.got.cif
#   From: 2010.05.17/outbox.cif.g08.bks.cpg/sg51_12_cif.got.tgz:23682.got - 2010.06.03 11:52:47.
