data_PCOD9406382
_publ_section_title
;
Structure prediction by ZEFSAII (Michael W. Deem and Ramdas Pophale) SiO2 
 PCOD9406382
Probable space group: P M M A
;
_chemical_formula_sum "Si O2"
_cell_formula_units_Z 48
_cell_length_a 14.286658
_cell_length_b 17.154665
_cell_length_c 9.576133
_cell_angle_alpha 90.000000
_cell_angle_beta 90.000000
_cell_angle_gamma 90.000000
_cell_volume 2346.945795
_symmetry_space_group_name_H-M "P M M A"
_symmetry_group_IT_number 51
_symmetry_cell_setting 'orthorhombic'
loop_
_space_group_symop_operation_xyz
x,y,z
1/2-x,-y,z
1/2+x,-y,-z
-x,y,-z
-x,-y,-z
1/2+x,y,-z
1/2-x,y,z
x,-y,z
loop_
_atom_site_type_symbol
_atom_site_label
_atom_site_fract_x
_atom_site_fract_y
_atom_site_fract_z
Si Si1 0.136918 0.858715 0.022055
Si Si2 0.357449 0.154339 0.338106
Si Si3 0.479878 0.692756 0.347929
Si Si4 0.138156 0.301445 0.875902
Si Si5 0.360874 0.000000 0.841440
Si Si6 0.889974 0.000000 0.486947
Si Si7 0.862052 0.590876 0.869880
O O1 0.250000 0.860110 0.016312
O O2 0.111089 0.773263 0.969751
O O3 0.099946 0.923413 0.916206
O O4 0.113669 0.873097 0.182795
O O5 0.250000 0.183978 0.331377
O O6 0.426836 0.224877 0.373824
O O7 0.357622 0.079590 0.438774
O O8 0.500000 0.657636 0.500000
O O9 0.576426 0.702078 0.262614
O O10 0.414946 0.640704 0.247323
O O11 0.250000 0.298917 0.847313
O O12 0.117669 0.374921 0.975727
O O13 0.368396 0.000000 0.676269
O O14 0.250000 0.000000 0.871787
O O15 0.000000 0.000000 0.500000
O O16 0.750000 0.600068 0.850392
O O17 0.885929 0.500000 0.861195
#
# Coordination Sequence:
#
# PCOD9406382 Si02
#       7
#     8   8   8   8   4   4   8
#     4   9  19  37  63  89 116 156 219 272 319 377
#     4  11  23  43  66  88 126 176 224 274 330 392
#     4  12  26  40  63 101 139 176 216 265 327 403
#     4  10  22  42  66  97 131 171 219 272 328 386
#     4  10  21  38  61  86 115 160 210 268 325 372
#     4  12  27  42  54  88 132 171 222 271 331 402
#     4  10  22  45  75 102 130 168 219 274 327 391
#
# _framework density 20.452113000000001
#
# number of rings (size 3 to 8) (size 9 to 14) (size 15 to 20)
#    0.000    1.500    1.667    2.750    4.667    4.333 
#    0.000    0.833    0.000    2.000    0.000    0.000 
#    0.000    0.000    0.000    0.000    0.000    0.000 
#
# Total GULP energy -268317.332028 kJ/mol
# GULP energy per Si atom -5589.944417 kJ/mol
# Density = 2.040556 g / cm^3
# Si number density = 20.452113 Si / 1000 Ang^3
#
#
#
# Elastic Constant Matrix: (Units=GPa)
#
#
# Indices 1 2 3 4 5 6 
#
# 1 101.2921 28.7824 30.6754 0.0000 0.0000 0.0000
# 2 28.7824 100.1246 31.1744 0.0000 0.0000 0.0000
# 3 30.6754 31.1744 120.0110 0.0000 0.0000 0.0000
# 4 0.0000 0.0000 0.0000 -3.9978 0.0000 0.0000
# 5 0.0000 0.0000 0.0000 0.0000 32.5719 0.0000
# 6 0.0000 0.0000 0.0000 0.0000 0.0000 17.1122
#
#
#
# Elastic Compliance Matrix: (Units=1/GPa)
#
#
# Indices 1 2 3 4 5 6 
#
# 1 0.011268 -0.002549 -0.002218 0.000000 0.000000 0.000000
# 2 -0.002549 0.011443 -0.002321 0.000000 0.000000 0.000000
# 3 -0.002218 -0.002321 0.009502 0.000000 0.000000 0.000000
# 4 0.000000 0.000000 0.000000 -0.250139 0.000000 0.000000
# 5 0.000000 0.000000 0.000000 0.000000 0.030701 0.000000
# 6 0.000000 0.000000 0.000000 0.000000 0.000000 0.058438
#
#
# Mechanical properties :
#
#
# Convention : Reuss Voigt Hill
#
# Bulk Modulus (GPa) = 55.43836 55.85468 55.64652
# Shear Modulus (GPa) = -46.04151 24.52364 -10.75893
#
# Velocity S-wave (km/s) = -4.74981 3.46652 -2.29608
# Velocity P-wave (km/s) = 1.70754 6.58723 4.49866
#
# Compressibility (1/GPa) = 0.01803805
#
# Stress axis : x y z
#
# Youngs Moduli (GPa) = 88.74367 87.39080 105.23588
#
# Poissons Ratio (x) = 0.22273 0.23344
# Poissons Ratio (y) = 0.22617 0.24425
# Poissons Ratio (z) = 0.19685 0.20283
#
# Static dielectric constant tensor:
#      x y z
#    x 1.768380 0.000000 0.000000 
#    y 0.000000 1.719790 0.000000 
#    z 0.000000 0.000000 1.665650 
# 
# From -- ./inp_files/8360.got.cif
#   From: 2010.05.17/outbox.cif.g08.bks.cpg/sg51_5_cif.got.tgz:8360.got - 2010.06.03 11:52:47.
