data_PCOD9406392
_publ_section_title
;
Structure prediction by ZEFSAII (Michael W. Deem and Ramdas Pophale) SiO2 
 PCOD9406392
Probable space group: P M M A
;
_chemical_formula_sum "Si O2"
_cell_formula_units_Z 48
_cell_length_a 9.257075
_cell_length_b 8.609829
_cell_length_c 31.913195
_cell_angle_alpha 90.000000
_cell_angle_beta 90.000000
_cell_angle_gamma 90.000000
_cell_volume 2543.540132
_symmetry_space_group_name_H-M "P M M A"
_symmetry_group_IT_number 51
_symmetry_cell_setting 'orthorhombic'
loop_
_space_group_symop_operation_xyz
x,y,z
1/2-x,-y,z
1/2+x,-y,-z
-x,y,-z
-x,-y,-z
1/2+x,y,-z
1/2-x,y,z
x,-y,z
loop_
_atom_site_type_symbol
_atom_site_label
_atom_site_fract_x
_atom_site_fract_y
_atom_site_fract_z
Si Si1 0.578323 0.187061 0.365780
Si Si2 0.082103 0.812153 0.957597
Si Si3 0.582320 0.314318 0.714805
Si Si4 0.917492 0.686256 0.876441
Si Si5 0.917623 0.189170 0.458940
Si Si6 0.582443 0.186182 0.204555
O O1 0.750000 0.220936 0.361705
O O2 0.488812 0.264390 0.328939
O O3 0.530462 0.236633 0.412631
O O4 0.563405 0.000000 0.362821
O O5 0.250000 0.764220 0.958406
O O6 0.000948 0.747176 0.917166
O O7 0.078356 0.000000 0.955662
O O8 0.000000 0.763957 0.000000
O O9 0.750000 0.265269 0.716644
O O10 0.576853 0.500000 0.718914
O O11 0.493104 0.240413 0.752802
O O12 0.750000 0.737461 0.877177
O O13 0.920122 0.500000 0.876230
O O14 0.996434 0.746993 0.834962
O O15 0.750000 0.231774 0.462181
O O16 0.000000 0.245951 0.500000
O O17 0.924670 0.000000 0.459110
O O18 0.750000 0.236765 0.203564
O O19 0.579584 0.000000 0.202472
#
# Coordination Sequence:
#
# PCOD9406392 Si02
#       6
#     8   8   8   8   8   8
#     4   9  18  33  53  78 107 139 178 222 267 320
#     4  10  21  38  61  88 117 152 195 239 283 331
#     4  11  24  39  55  79 110 142 179 223 270 322
#     4  11  24  40  59  86 119 153 189 229 275 328
#     4   8  14  25  43  70 103 135 169 213 263 314
#     4  11  24  41  62  87 112 141 181 226 272 326
#
# _framework density 18.871334999999998
#
# number of rings (size 3 to 8) (size 9 to 14) (size 15 to 20)
#    0.000    2.000    0.000    4.500    0.000   12.333 
#    0.000    1.667    0.000    0.500    0.000    0.000 
#    0.000    0.000    0.000    0.000    0.000    0.000 
#
# Total GULP energy -268124.150172 kJ/mol
# GULP energy per Si atom -5585.919795 kJ/mol
# Density = 1.882838 g / cm^3
# Si number density = 18.871335 Si / 1000 Ang^3
#
#
#
# Elastic Constant Matrix: (Units=GPa)
#
#
# Indices 1 2 3 4 5 6 
#
# 1 163.1437 37.4640 110.9139 0.0000 0.0000 0.0000
# 2 37.4640 19.5651 29.7716 0.0000 0.0000 0.0000
# 3 110.9139 29.7716 201.0969 0.0000 0.0000 0.0000
# 4 0.0000 0.0000 0.0000 -460.6794 0.0000 0.0000
# 5 0.0000 0.0000 0.0000 0.0000 43.0699 0.0000
# 6 0.0000 0.0000 0.0000 0.0000 0.0000 23.0025
#
#
#
# Elastic Compliance Matrix: (Units=1/GPa)
#
#
# Indices 1 2 3 4 5 6 
#
# 1 0.013745 -0.019083 -0.004756 0.000000 0.000000 0.000000
# 2 -0.019083 0.092467 -0.003164 0.000000 0.000000 0.000000
# 3 -0.004756 -0.003164 0.008064 0.000000 0.000000 0.000000
# 4 0.000000 0.000000 0.000000 -0.002171 0.000000 0.000000
# 5 0.000000 0.000000 0.000000 0.000000 0.023218 0.000000
# 6 0.000000 0.000000 0.000000 0.000000 0.000000 0.043474
#
#
# Mechanical properties :
#
#
# Convention : Reuss Voigt Hill
#
# Bulk Modulus (GPa) = 16.59189 82.23386 49.41287
# Shear Modulus (GPa) = 19.77121 -65.21099 -22.71989
#
# Velocity S-wave (km/s) = 3.24031 -5.88478 -3.47354
# Velocity P-wave (km/s) = 4.77605 1.58223 3.18647
#
# Compressibility (1/GPa) = 0.06027041
#
# Stress axis : x y z
#
# Youngs Moduli (GPa) = 72.75410 10.81468 124.00374
#
# Poissons Ratio (x) = 0.20637 0.58974
# Poissons Ratio (y) = 1.38833 0.39240
# Poissons Ratio (z) = 0.34601 0.03422
#
# Static dielectric constant tensor:
#      x y z
#    x 1.638360 0.000000 0.000000 
#    y 0.000000 1.641130 0.000000 
#    z 0.000000 0.000000 1.627780 
# 
# From -- ./inp_files/36979.got.cif
#   From: 2010.05.17/outbox.cif.g08.bks.cpg/sg51_19_cif.got.tgz:36979.got - 2010.06.03 11:52:47.
