data_PCOD9406641
_publ_section_title
;
Structure prediction by ZEFSAII (Michael W. Deem and Ramdas Pophale) SiO2 
 PCOD9406641
Probable space group: P M M A
;
_chemical_formula_sum "Si O2"
_cell_formula_units_Z 64
_cell_length_a 18.038661
_cell_length_b 14.098338
_cell_length_c 13.199744
_cell_angle_alpha 90.000000
_cell_angle_beta 90.000000
_cell_angle_gamma 90.000000
_cell_volume 3356.894741
_symmetry_space_group_name_H-M "P M M A"
_symmetry_group_IT_number 51
_symmetry_cell_setting 'orthorhombic'
loop_
_space_group_symop_operation_xyz
x,y,z
1/2-x,-y,z
1/2+x,-y,-z
-x,y,-z
-x,-y,-z
1/2+x,y,-z
1/2-x,y,z
x,-y,z
loop_
_atom_site_type_symbol
_atom_site_label
_atom_site_fract_x
_atom_site_fract_y
_atom_site_fract_z
Si Si1 0.587212 0.387303 0.005042
Si Si2 0.161051 0.803917 0.504256
Si Si3 0.088271 0.885848 0.302152
Si Si4 0.586403 0.112816 0.297479
Si Si5 0.161079 0.222958 0.887796
Si Si6 0.666078 0.615041 0.796251
Si Si7 0.661628 0.111140 0.906095
Si Si8 0.840201 0.607342 0.571588
O O1 0.598188 0.500000 0.019913
O O2 0.627420 0.326442 0.091010
O O3 0.500000 0.368084 0.000000
O O4 0.621537 0.359921 0.896164
O O5 0.250000 0.812429 0.507300
O O6 0.130578 0.844832 0.398809
O O7 0.125009 0.858198 0.597671
O O8 0.140842 0.691726 0.504375
O O9 0.122156 0.852442 0.195292
O O10 0.000935 0.865106 0.305029
O O11 0.097198 0.000000 0.305213
O O12 0.624266 0.170813 0.206915
O O13 0.594604 0.000000 0.279927
O O14 0.250000 0.226453 0.876215
O O15 0.143213 0.164697 0.990475
O O16 0.750000 0.652763 0.804893
O O17 0.670561 0.500000 0.795765
O O18 0.634617 0.636833 0.685058
O O19 0.750000 0.117455 0.891030
O O20 0.642347 0.000000 0.918414
O O21 0.750000 0.604257 0.577997
O O22 0.865061 0.500000 0.548021
#
# Coordination Sequence:
#
# PCOD9406641 Si02
#       8
#     8   8   8   8   8   8   8   8
#     4  10  22  37  55  84 121 159 199 245 297 353
#     4  11  22  36  61  90 118 156 204 254 307 363
#     4  10  22  39  60  87 118 152 193 249 313 368
#     4  11  25  43  61  83 118 164 209 250 301 371
#     4  11  24  39  61  88 117 160 207 247 295 359
#     4   8  14  28  51  77 108 145 182 229 290 352
#     4   9  19  36  59  90 122 148 185 243 306 362
#     4   8  16  31  53  84 116 144 183 236 294 353
#
# _framework density 19.065238999999998
#
# number of rings (size 3 to 8) (size 9 to 14) (size 15 to 20)
#    0.000    2.250    0.000    3.000    3.500    4.500 
#    0.000    2.500    0.000    3.000    0.000    0.000 
#    0.000    0.000    0.000    0.000    0.000    0.000 
#
# Total GULP energy -357383.162352 kJ/mol
# GULP energy per Si atom -5584.111912 kJ/mol
# Density = 1.902185 g / cm^3
# Si number density = 19.065239 Si / 1000 Ang^3
#
#
#
# Elastic Constant Matrix: (Units=GPa)
#
#
# Indices 1 2 3 4 5 6 
#
# 1 38.7418 9.0695 17.8904 0.0000 0.0000 0.0000
# 2 9.0695 40.7145 4.8782 0.0000 0.0000 0.0000
# 3 17.8904 4.8782 61.6098 0.0000 0.0000 0.0000
# 4 0.0000 0.0000 0.0000 36.1475 0.0000 0.0000
# 5 0.0000 0.0000 0.0000 0.0000 -42.3868 0.0000
# 6 0.0000 0.0000 0.0000 0.0000 0.0000 17.8053
#
#
#
# Elastic Compliance Matrix: (Units=1/GPa)
#
#
# Indices 1 2 3 4 5 6 
#
# 1 0.031158 -0.005913 -0.008580 0.000000 0.000000 0.000000
# 2 -0.005913 0.025919 -0.000335 0.000000 0.000000 0.000000
# 3 -0.008580 -0.000335 0.018749 0.000000 0.000000 0.000000
# 4 0.000000 0.000000 0.000000 0.027664 0.000000 0.000000
# 5 0.000000 0.000000 0.000000 0.000000 -0.023592 0.000000
# 6 0.000000 0.000000 0.000000 0.000000 0.000000 0.056163
#
#
# Mechanical properties :
#
#
# Convention : Reuss Voigt Hill
#
# Bulk Modulus (GPa) = 21.65885 22.74914 22.20400
# Shear Modulus (GPa) = 27.60808 9.59505 18.60157
#
# Velocity S-wave (km/s) = 3.80950 2.24581 3.12698
# Velocity P-wave (km/s) = 5.54389 4.32239 4.97081
#
# Compressibility (1/GPa) = 0.04617050
#
# Stress axis : x y z
#
# Youngs Moduli (GPa) = 32.09448 38.58234 53.33592
#
# Poissons Ratio (x) = 0.22813 0.45760
# Poissons Ratio (y) = 0.18977 0.01788
# Poissons Ratio (z) = 0.27536 0.01293
#
# Static dielectric constant tensor:
#      x y z
#    x 1.635100 0.000000 0.000000 
#    y 0.000000 1.705470 0.000000 
#    z 0.000000 0.000000 1.632980 
# 
# From -- ./inp_files/17615.got.cif
#   From: 2010.05.17/outbox.cif.g08.bks.cpg/sg51_9_cif.got.tgz:17615.got - 2010.06.03 11:52:47.
