data_PCOD9406773
_publ_section_title
;
Structure prediction by ZEFSAII (Michael W. Deem and Ramdas Pophale) SiO2 
 PCOD9406773
Probable space group: P M M A
;
_chemical_formula_sum "Si O2"
_cell_formula_units_Z 40
_cell_length_a 16.909173
_cell_length_b 8.065109
_cell_length_c 11.925957
_cell_angle_alpha 90.000000
_cell_angle_beta 90.000000
_cell_angle_gamma 90.000000
_cell_volume 1626.394316
_symmetry_space_group_name_H-M "P M M A"
_symmetry_group_IT_number 51
_symmetry_cell_setting 'orthorhombic'
loop_
_space_group_symop_operation_xyz
x,y,z
1/2-x,-y,z
1/2+x,-y,-z
-x,y,-z
-x,-y,-z
1/2+x,y,-z
1/2-x,y,z
x,-y,z
loop_
_atom_site_type_symbol
_atom_site_label
_atom_site_fract_x
_atom_site_fract_y
_atom_site_fract_z
Si Si1 0.250000 0.298082 0.194133
Si Si2 0.391072 0.193877 0.033950
Si Si3 0.250000 0.304270 0.450840
Si Si4 0.838436 0.305269 0.208288
Si Si5 0.008159 0.699418 0.231503
Si Si6 0.918540 0.195716 0.546662
O O1 0.250000 0.500000 0.193626
O O2 0.323857 0.231304 0.125463
O O3 0.250000 0.239782 0.322747
O O4 0.468065 0.243492 0.106893
O O5 0.394400 0.000000 0.005525
O O6 0.361009 0.289829 0.923657
O O7 0.250000 0.500000 0.447191
O O8 0.165501 0.254448 0.500622
O O9 0.750000 0.234642 0.227679
O O10 0.834405 0.500000 0.237459
O O11 0.919737 0.236707 0.261925
O O12 0.008671 0.500000 0.232677
O O13 0.070796 0.762440 0.322065
O O14 0.000000 0.272637 0.500000
O O15 0.920345 0.000000 0.531440
#
# Coordination Sequence:
#
# PCOD9406773 Si02
#       6
#     4   8   4   8   8   8
#     4  11  21  35  59  90 122 159 204 254 305 357
#     4  12  23  35  58  91 124 162 206 254 307 362
#     4  11  23  41  71 100 124 163 210 260 317 377
#     4  10  22  40  60  83 121 169 212 255 304 365
#     4  11  23  40  63  90 122 163 210 258 310 367
#     4  11  25  45  69  97 131 166 204 259 324 382
#
# _framework density 24.594282
#
# number of rings (size 3 to 8) (size 9 to 14) (size 15 to 20)
#    0.000    1.000    3.000    4.200    0.000    6.400 
#    1.800    0.000    0.000    0.000    0.000    0.000 
#    0.000    0.000    0.000    0.000    0.000    0.000 
#
# Total GULP energy -223646.424170 kJ/mol
# GULP energy per Si atom -5591.160604 kJ/mol
# Density = 2.453830 g / cm^3
# Si number density = 24.594282 Si / 1000 Ang^3
#
#
#
# Elastic Constant Matrix: (Units=GPa)
#
#
# Indices 1 2 3 4 5 6 
#
# 1 210.3037 18.3854 19.5757 0.0000 0.0000 0.0000
# 2 18.3854 53.4676 -22.8531 0.0000 0.0000 0.0000
# 3 19.5757 -22.8531 40.9522 0.0000 0.0000 0.0000
# 4 0.0000 0.0000 0.0000 16.8270 0.0000 0.0000
# 5 0.0000 0.0000 0.0000 0.0000 37.7157 0.0000
# 6 0.0000 0.0000 0.0000 0.0000 0.0000 47.8785
#
#
#
# Elastic Compliance Matrix: (Units=1/GPa)
#
#
# Indices 1 2 3 4 5 6 
#
# 1 0.005560 -0.004003 -0.004892 0.000000 0.000000 0.000000
# 2 -0.004003 0.027443 0.017228 0.000000 0.000000 0.000000
# 3 -0.004892 0.017228 0.036371 0.000000 0.000000 0.000000
# 4 0.000000 0.000000 0.000000 0.059428 0.000000 0.000000
# 5 0.000000 0.000000 0.000000 0.000000 0.026514 0.000000
# 6 0.000000 0.000000 0.000000 0.000000 0.000000 0.020886
#
#
# Mechanical properties :
#
#
# Convention : Reuss Voigt Hill
#
# Bulk Modulus (GPa) = 11.62249 37.21550 24.41899
# Shear Modulus (GPa) = 26.56526 39.79194 33.17860
#
# Velocity S-wave (km/s) = 3.29011 4.02672 3.67691
# Velocity P-wave (km/s) = 4.37825 6.06497 5.28928
#
# Compressibility (1/GPa) = 0.08604012
#
# Stress axis : x y z
#
# Youngs Moduli (GPa) = 179.84706 36.43960 27.49469
#
# Poissons Ratio (x) = 0.14586 0.13449
# Poissons Ratio (y) = 0.71988 -0.47367
# Poissons Ratio (z) = 0.87974 -0.62776
#
# Static dielectric constant tensor:
#      x y z
#    x 1.975670 0.000000 0.000000 
#    y 0.000000 1.854220 0.000000 
#    z 0.000000 0.000000 1.978270 
# 
# From -- ./inp_files/23759.got.cif
#   From: 2010.05.17/outbox.cif.g08.bks.cpg/sg51_12_cif.got.tgz:23759.got - 2010.06.03 11:52:47.
