data_PCOD9406457
_publ_section_title
;
Structure prediction by ZEFSAII (Michael W. Deem and Ramdas Pophale) SiO2 
 PCOD9406457
Probable space group: P M M A
;
_chemical_formula_sum "Si O2"
_cell_formula_units_Z 36
_cell_length_a 8.166261
_cell_length_b 14.041221
_cell_length_c 14.850363
_cell_angle_alpha 90.000000
_cell_angle_beta 90.000000
_cell_angle_gamma 90.000000
_cell_volume 1702.806113
_symmetry_space_group_name_H-M "P M M A"
_symmetry_group_IT_number 51
_symmetry_cell_setting 'orthorhombic'
loop_
_space_group_symop_operation_xyz
x,y,z
1/2-x,-y,z
1/2+x,-y,-z
-x,y,-z
-x,-y,-z
1/2+x,y,-z
1/2-x,y,z
x,-y,z
loop_
_atom_site_type_symbol
_atom_site_label
_atom_site_fract_x
_atom_site_fract_y
_atom_site_fract_z
Si Si1 0.938957 0.704439 0.094572
Si Si2 0.948925 0.289458 0.601191
Si Si3 0.556576 0.500000 0.873013
Si Si4 0.442093 0.500000 0.342929
Si Si5 0.065313 0.832526 0.235581
Si Si6 0.441505 0.000000 0.895011
O O1 0.750000 0.729707 0.111238
O O2 0.962657 0.592160 0.092838
O O3 0.056608 0.739277 0.173333
O O4 0.000000 0.745931 0.000000
O O5 0.750000 0.290776 0.609929
O O6 0.009478 0.397701 0.623205
O O7 0.008921 0.207988 0.671324
O O8 0.000000 0.266752 0.500000
O O9 0.250000 0.500000 0.102227
O O10 0.547814 0.500000 0.764653
O O11 0.250000 0.500000 0.369300
O O12 0.250000 0.864168 0.253899
O O13 0.989913 0.910591 0.168476
O O14 0.250000 0.000000 0.903957
O O15 0.500000 0.000000 0.000000
#
# Coordination Sequence:
#
# PCOD9406457 Si02
#       6
#     8   8   4   4   8   4
#     4  12  24  38  57  86 121 162 208 255 311 372
#     4  10  21  38  63  93 128 168 211 258 312 368
#     4  11  20  37  58  81 120 164 210 255 308 371
#     4   9  17  35  59  87 123 169 211 254 308 361
#     4  11  23  43  67  92 124 164 207 258 315 374
#     4  12  26  46  71 100 129 160 203 258 316 382
#
# _framework density 21.141572
#
# number of rings (size 3 to 8) (size 9 to 14) (size 15 to 20)
#    0.000    1.111    2.222    5.333    0.000    1.778 
#    0.000    0.556    0.000    0.000    0.000    0.000 
#    0.000    0.000    0.000    0.000    0.000    0.000 
#
# Total GULP energy -200865.877914 kJ/mol
# GULP energy per Si atom -5579.607720 kJ/mol
# Density = 2.109345 g / cm^3
# Si number density = 21.141572 Si / 1000 Ang^3
#
#
#
# Elastic Constant Matrix: (Units=GPa)
#
#
# Indices 1 2 3 4 5 6 
#
# 1 63.7934 15.1431 20.3083 0.0000 0.0000 0.0000
# 2 15.1431 110.5521 59.9810 0.0000 0.0000 0.0000
# 3 20.3083 59.9810 169.2357 0.0000 0.0000 0.0000
# 4 0.0000 0.0000 0.0000 10.2523 0.0000 0.0000
# 5 0.0000 0.0000 0.0000 0.0000 28.7011 0.0000
# 6 0.0000 0.0000 0.0000 0.0000 0.0000 21.1927
#
#
#
# Elastic Compliance Matrix: (Units=1/GPa)
#
#
# Indices 1 2 3 4 5 6 
#
# 1 0.016488 -0.001467 -0.001459 0.000000 0.000000 0.000000
# 2 -0.001467 0.011330 -0.003839 0.000000 0.000000 0.000000
# 3 -0.001459 -0.003839 0.007445 0.000000 0.000000 0.000000
# 4 0.000000 0.000000 0.000000 0.097539 0.000000 0.000000
# 5 0.000000 0.000000 0.000000 0.000000 0.034842 0.000000
# 6 0.000000 0.000000 0.000000 0.000000 0.000000 0.047186
#
#
# Mechanical properties :
#
#
# Convention : Reuss Voigt Hill
#
# Bulk Modulus (GPa) = 46.01458 59.38287 52.69872
# Shear Modulus (GPa) = 21.22205 28.57247 24.89726
#
# Velocity S-wave (km/s) = 3.17173 3.68024 3.43541
# Velocity P-wave (km/s) = 5.93510 6.79765 6.38097
#
# Compressibility (1/GPa) = 0.02173224
#
# Stress axis : x y z
#
# Youngs Moduli (GPa) = 60.64941 88.26459 134.32339
#
# Poissons Ratio (x) = 0.12950 0.19592
# Poissons Ratio (y) = 0.08898 0.51572
# Poissons Ratio (z) = 0.08846 0.33888
#
# Static dielectric constant tensor:
#      x y z
#    x 1.762360 0.000000 0.000000 
#    y 0.000000 1.847170 0.000000 
#    z 0.000000 0.000000 1.772910 
# 
# From -- ./inp_files/20381.got.cif
#   From: 2010.05.17/outbox.cif.g08.bks.cpg/sg51_11_cif.got.tgz:20381.got - 2010.06.03 11:52:47.
