data_PCOD9406779
_publ_section_title
;
Structure prediction by ZEFSAII (Michael W. Deem and Ramdas Pophale) SiO2 
 PCOD9406779
Probable space group: P M M A
;
_chemical_formula_sum "Si O2"
_cell_formula_units_Z 40
_cell_length_a 17.085928
_cell_length_b 15.702216
_cell_length_c 7.441874
_cell_angle_alpha 90.000000
_cell_angle_beta 90.000000
_cell_angle_gamma 90.000000
_cell_volume 1996.557544
_symmetry_space_group_name_H-M "P M M A"
_symmetry_group_IT_number 51
_symmetry_cell_setting 'orthorhombic'
loop_
_space_group_symop_operation_xyz
x,y,z
1/2-x,-y,z
1/2+x,-y,-z
-x,y,-z
-x,-y,-z
1/2+x,y,-z
1/2-x,y,z
x,-y,z
loop_
_atom_site_type_symbol
_atom_site_label
_atom_site_fract_x
_atom_site_fract_y
_atom_site_fract_z
Si Si1 0.158431 0.093066 0.500155
Si Si2 0.158070 0.091092 0.936793
Si Si3 0.654758 0.724867 0.091597
Si Si4 0.907572 0.726364 0.495726
Si Si5 0.655630 0.403021 0.786605
O O1 0.250000 0.099586 0.450945
O O2 0.155389 0.092164 0.718445
O O3 0.115643 0.178272 0.440243
O O4 0.129106 0.000000 0.439009
O O5 0.250000 0.089482 0.987490
O O6 0.126836 0.183833 0.988969
O O7 0.123361 0.000000 0.996042
O O8 0.750000 0.728146 0.098788
O O9 0.623910 0.716578 0.293101
O O10 0.630413 0.647301 0.965605
O O11 0.870171 0.654717 0.620588
O O12 0.000000 0.718176 0.500000
O O13 0.750000 0.405324 0.788789
O O14 0.626838 0.500000 0.778070
#
# Coordination Sequence:
#
# PCOD9406779 Si02
#       5
#     8   8   8   8   8
#     4   8  14  28  52  79 108 146 190 229 263 309
#     4   7  10  20  43  73 100 128 165 211 262 311
#     4   9  18  35  57  78 105 143 186 230 274 321
#     4  11  22  35  55  84 119 153 180 218 279 344
#     4  10  22  40  61  83 105 135 185 243 285 325
#
# _framework density 20.034483000000002
#
# number of rings (size 3 to 8) (size 9 to 14) (size 15 to 20)
#    0.000    3.000    0.000    4.200    0.000    2.400 
#    0.000    4.000    0.000    3.600    0.000    7.000 
#    0.000    0.000    0.000    0.000    0.000    0.000 
#
# Total GULP energy -223032.250822 kJ/mol
# GULP energy per Si atom -5575.806271 kJ/mol
# Density = 1.998888 g / cm^3
# Si number density = 20.034483 Si / 1000 Ang^3
#
#
#
# Elastic Constant Matrix: (Units=GPa)
#
#
# Indices 1 2 3 4 5 6 
#
# 1 5.4776 24.4785 6.6211 0.0000 0.0000 0.0000
# 2 24.4785 222.7875 67.6724 0.0000 0.0000 0.0000
# 3 6.6211 67.6724 85.9351 0.0000 0.0000 0.0000
# 4 0.0000 0.0000 0.0000 -38.8707 0.0000 0.0000
# 5 0.0000 0.0000 0.0000 0.0000 -3.4302 0.0000
# 6 0.0000 0.0000 0.0000 0.0000 0.0000 4.1253
#
#
#
# Elastic Compliance Matrix: (Units=1/GPa)
#
#
# Indices 1 2 3 4 5 6 
#
# 1 0.359982 -0.040914 0.004483 0.000000 0.000000 0.000000
# 2 -0.040914 0.010550 -0.005156 0.000000 0.000000 0.000000
# 3 0.004483 -0.005156 0.015351 0.000000 0.000000 0.000000
# 4 0.000000 0.000000 0.000000 -0.025726 0.000000 0.000000
# 5 0.000000 0.000000 0.000000 0.000000 -0.291530 0.000000
# 6 0.000000 0.000000 0.000000 0.000000 0.000000 0.242409
#
#
# Mechanical properties :
#
#
# Convention : Reuss Voigt Hill
#
# Bulk Modulus (GPa) = 3.30349 56.86047 30.08198
# Shear Modulus (GPa) = 10.09872 6.72675 8.41274
#
# Velocity S-wave (km/s) = 2.24758 1.83436 2.05140
# Velocity P-wave (km/s) = 2.89620 5.73842 4.54518
#
# Compressibility (1/GPa) = 0.30271033
#
# Stress axis : x y z
#
# Youngs Moduli (GPa) = 2.77791 94.78658 65.14162
#
# Poissons Ratio (x) = 3.87814 -0.29206
# Poissons Ratio (y) = 0.11366 0.33584
# Poissons Ratio (z) = -0.01245 0.48868
#
# Static dielectric constant tensor:
#      x y z
#    x 1.714900 0.000000 0.000000 
#    y 0.000000 2.195600 0.000000 
#    z 0.000000 0.000000 1.726010 
# 
# From -- ./inp_files/7969.got.cif
#   From: 2010.05.17/outbox.cif.g08.bks.cpg/sg51_4_cif.got.tgz:7969.got - 2010.06.03 11:52:47.
