data_PCOD9406694
_publ_section_title
;
Structure prediction by ZEFSAII (Michael W. Deem and Ramdas Pophale) SiO2 
 PCOD9406694
Probable space group: P M M A
;
_chemical_formula_sum "Si O2"
_cell_formula_units_Z 40
_cell_length_a 20.112960
_cell_length_b 7.567417
_cell_length_c 10.888670
_cell_angle_alpha 90.000000
_cell_angle_beta 90.000000
_cell_angle_gamma 90.000000
_cell_volume 1657.289932
_symmetry_space_group_name_H-M "P M M A"
_symmetry_group_IT_number 51
_symmetry_cell_setting 'orthorhombic'
loop_
_space_group_symop_operation_xyz
x,y,z
1/2-x,-y,z
1/2+x,-y,-z
-x,y,-z
-x,-y,-z
1/2+x,y,-z
1/2-x,y,z
x,-y,z
loop_
_atom_site_type_symbol
_atom_site_label
_atom_site_fract_x
_atom_site_fract_y
_atom_site_fract_z
Si Si1 0.323883 0.704539 0.465558
Si Si2 0.959682 0.711397 0.616104
Si Si3 0.959657 0.787905 0.882480
Si Si4 0.325702 0.783518 0.010075
Si Si5 0.330672 0.200785 0.738382
O O1 0.250000 0.784938 0.454645
O O2 0.317873 0.500000 0.430131
O O3 0.384581 0.785406 0.390836
O O4 0.345481 0.708364 0.609380
O O5 0.955272 0.500000 0.600752
O O6 0.988945 0.742853 0.750171
O O7 0.000000 0.781800 0.500000
O O8 0.883124 0.726956 0.897149
O O9 0.959195 0.000000 0.889980
O O10 0.000000 0.721484 0.000000
O O11 0.250000 0.725864 0.035788
O O12 0.324136 0.000000 0.006158
O O13 0.347835 0.726166 0.872472
O O14 0.250000 0.195047 0.743253
O O15 0.355930 0.000000 0.730134
#
# Coordination Sequence:
#
# PCOD9406694 Si02
#       5
#     8   8   8   8   8
#     4   9  18  33  53  77 106 138 176 225 270 308
#     4  10  23  41  57  77 109 149 185 218 268 331
#     4  10  22  38  57  84 112 140 180 229 274 317
#     4   8  15  30  52  78 110 143 173 214 270 324
#     4   8  14  26  48  78 107 137 172 210 260 321
#
# _framework density 24.13579
#
# number of rings (size 3 to 8) (size 9 to 14) (size 15 to 20)
#    0.000    3.000    0.000    1.200    2.800    2.400 
#    0.000    1.000    0.000    1.200    0.000    0.000 
#    0.000    0.000    0.000    0.000    0.000    0.000 
#
# Total GULP energy -223265.769050 kJ/mol
# GULP energy per Si atom -5581.644226 kJ/mol
# Density = 2.408086 g / cm^3
# Si number density = 24.135790 Si / 1000 Ang^3
#
#
#
# Elastic Constant Matrix: (Units=GPa)
#
#
# Indices 1 2 3 4 5 6 
#
# 1 104.7920 8.5969 64.4803 0.0000 0.0000 0.0000
# 2 8.5969 54.7248 -9.1192 0.0000 0.0000 0.0000
# 3 64.4803 -9.1192 145.6029 0.0000 0.0000 0.0000
# 4 0.0000 0.0000 0.0000 21.1452 0.0000 0.0000
# 5 0.0000 0.0000 0.0000 0.0000 38.5892 0.0000
# 6 0.0000 0.0000 0.0000 0.0000 0.0000 -4.5547
#
#
#
# Elastic Compliance Matrix: (Units=1/GPa)
#
#
# Indices 1 2 3 4 5 6 
#
# 1 0.013645 -0.003184 -0.006242 0.000000 0.000000 0.000000
# 2 -0.003184 0.019209 0.002613 0.000000 0.000000 0.000000
# 3 -0.006242 0.002613 0.009796 0.000000 0.000000 0.000000
# 4 0.000000 0.000000 0.000000 0.047292 0.000000 0.000000
# 5 0.000000 0.000000 0.000000 0.000000 0.025914 0.000000
# 6 0.000000 0.000000 0.000000 0.000000 0.000000 -0.219554
#
#
# Mechanical properties :
#
#
# Convention : Reuss Voigt Hill
#
# Bulk Modulus (GPa) = 34.45413 48.11505 41.28459
# Shear Modulus (GPa) = -62.18986 27.11339 -17.53824
#
# Velocity S-wave (km/s) = -5.08159 3.35531 -2.69857
# Velocity P-wave (km/s) = 4.48598 5.91517 2.72628
#
# Compressibility (1/GPa) = 0.02902410
#
# Stress axis : x y z
#
# Youngs Moduli (GPa) = 73.28874 52.05944 102.08362
#
# Poissons Ratio (x) = 0.16574 0.63720
# Poissons Ratio (y) = 0.23332 -0.26674
# Poissons Ratio (z) = 0.45746 -0.13603
#
# Static dielectric constant tensor:
#      x y z
#    x 1.970930 0.000000 0.000000 
#    y 0.000000 1.900620 0.000000 
#    z 0.000000 0.000000 1.924560 
# 
# From -- ./inp_files/10638.got.cif
#   From: 2010.05.17/outbox.cif.g08.bks.cpg/sg51_6_cif.got.tgz:10638.got - 2010.06.03 11:52:47.
