data_PCOD9406079
_publ_section_title
;
Structure prediction by ZEFSAII (Michael W. Deem and Ramdas Pophale) SiO2 
 PCOD9406079
Probable space group: P M M A
;
_chemical_formula_sum "Si O2"
_cell_formula_units_Z 34
_cell_length_a 9.106204
_cell_length_b 7.569301
_cell_length_c 23.201833
_cell_angle_alpha 90.000000
_cell_angle_beta 90.000000
_cell_angle_gamma 90.000000
_cell_volume 1599.246642
_symmetry_space_group_name_H-M "P M M A"
_symmetry_group_IT_number 51
_symmetry_cell_setting 'orthorhombic'
loop_
_space_group_symop_operation_xyz
x,y,z
1/2-x,-y,z
1/2+x,-y,-z
-x,y,-z
-x,-y,-z
1/2+x,y,-z
1/2-x,y,z
x,-y,z
loop_
_atom_site_type_symbol
_atom_site_label
_atom_site_fract_x
_atom_site_fract_y
_atom_site_fract_z
Si Si1 0.583726 0.212028 0.556634
Si Si2 0.580425 0.714510 0.790032
Si Si3 0.083264 0.287874 0.674893
Si Si4 0.925209 0.797939 0.091131
Si Si5 0.500000 0.500000 0.000000
O O1 0.500000 0.279917 0.500000
O O2 0.750000 0.280488 0.560004
O O3 0.496171 0.248518 0.614978
O O4 0.592051 0.000000 0.550963
O O5 0.750000 0.770255 0.794286
O O6 0.578022 0.500000 0.790734
O O7 0.508295 0.775436 0.730128
O O8 0.487807 0.778162 0.844605
O O9 0.250000 0.219929 0.675215
O O10 0.090110 0.500000 0.679919
O O11 0.750000 0.761851 0.090294
O O12 0.948891 0.000000 0.072143
O O13 0.999611 0.654952 0.050012
#
# Coordination Sequence:
#
# PCOD9406079 Si02
#       5
#     8   8   8   8   2
#     4  10  21  37  57  82 115 157 205 257 315 375
#     4  10  21  39  64  92 125 164 207 259 319 376
#     4  10  21  37  60  89 121 160 206 254 310 372
#     4  11  25  44  69 100 132 171 219 266 319 384
#     4  12  24  44  72  96 134 176 212 266 318 378
#
# _framework density 21.260010000000001
#
# number of rings (size 3 to 8) (size 9 to 14) (size 15 to 20)
#    0.000    1.647    1.176    2.824    0.000    7.529 
#    0.000    0.000    0.000    0.000    0.000    0.000 
#    0.000    0.000    0.000    0.000    0.000    0.000 
#
# Total GULP energy -189601.166769 kJ/mol
# GULP energy per Si atom -5576.504905 kJ/mol
# Density = 2.121162 g / cm^3
# Si number density = 21.260010 Si / 1000 Ang^3
#
#
#
# Elastic Constant Matrix: (Units=GPa)
#
#
# Indices 1 2 3 4 5 6 
#
# 1 41.2041 10.2402 13.0271 0.0000 0.0000 0.0000
# 2 10.2402 81.3260 19.7401 0.0000 0.0000 0.0000
# 3 13.0271 19.7401 160.5372 0.0000 0.0000 0.0000
# 4 0.0000 0.0000 0.0000 44.6003 0.0000 0.0000
# 5 0.0000 0.0000 0.0000 0.0000 -372.1649 0.0000
# 6 0.0000 0.0000 0.0000 0.0000 0.0000 23.7711
#
#
#
# Elastic Compliance Matrix: (Units=1/GPa)
#
#
# Indices 1 2 3 4 5 6 
#
# 1 0.025509 -0.002793 -0.001727 0.000000 0.000000 0.000000
# 2 -0.002793 0.012980 -0.001369 0.000000 0.000000 0.000000
# 3 -0.001727 -0.001369 0.006538 0.000000 0.000000 0.000000
# 4 0.000000 0.000000 0.000000 0.022421 0.000000 0.000000
# 5 0.000000 0.000000 0.000000 0.000000 -0.002687 0.000000
# 6 0.000000 0.000000 0.000000 0.000000 0.000000 0.042068
#
#
# Mechanical properties :
#
#
# Convention : Reuss Voigt Hill
#
# Bulk Modulus (GPa) = 30.07578 41.00912 35.54245
# Shear Modulus (GPa) = 38.55331 -44.75471 -3.10070
#
# Velocity S-wave (km/s) = 4.26305 -4.59313 -1.20898
# Velocity P-wave (km/s) = 6.19748 2.96612 3.84778
#
# Compressibility (1/GPa) = 0.03324934
#
# Stress axis : x y z
#
# Youngs Moduli (GPa) = 39.20117 77.04004 152.96165
#
# Poissons Ratio (x) = 0.21517 0.26410
# Poissons Ratio (y) = 0.10949 0.20947
# Poissons Ratio (z) = 0.06768 0.10550
#
# Static dielectric constant tensor:
#      x y z
#    x 1.759110 0.000000 0.000000 
#    y 0.000000 1.795350 0.000000 
#    z 0.000000 0.000000 1.703060 
# 
# From -- ./inp_files/31175.got.cif
#   From: 2010.05.17/outbox.cif.g08.bks.cpg/sg51_16_cif.got.tgz:31175.got - 2010.06.03 11:52:47.
