data_PCOD9406387
_publ_section_title
;
Structure prediction by ZEFSAII (Michael W. Deem and Ramdas Pophale) SiO2 
 PCOD9406387
Probable space group: P M M A
;
_chemical_formula_sum "Si O2"
_cell_formula_units_Z 64
_cell_length_a 13.899430
_cell_length_b 8.937636
_cell_length_c 24.717844
_cell_angle_alpha 90.000000
_cell_angle_beta 90.000000
_cell_angle_gamma 90.000000
_cell_volume 3070.649460
_symmetry_space_group_name_H-M "P M M A"
_symmetry_group_IT_number 51
_symmetry_cell_setting 'orthorhombic'
loop_
_space_group_symop_operation_xyz
x,y,z
1/2-x,-y,z
1/2+x,-y,-z
-x,y,-z
-x,-y,-z
1/2+x,y,-z
1/2-x,y,z
x,-y,z
loop_
_atom_site_type_symbol
_atom_site_label
_atom_site_fract_x
_atom_site_fract_y
_atom_site_fract_z
Si Si1 0.865974 0.825429 0.907715
Si Si2 0.866999 0.669877 0.470887
Si Si3 0.366337 0.177319 0.974460
Si Si4 0.044175 0.322036 0.314696
Si Si5 0.636912 0.176868 0.358429
Si Si6 0.638245 0.819143 0.145178
Si Si7 0.961291 0.321558 0.804642
Si Si8 0.633829 0.828141 0.580599
O O1 0.750000 0.823109 0.908717
O O2 0.901574 0.739562 0.855294
O O3 0.896040 0.000000 0.903499
O O4 0.899350 0.765090 0.966868
O O5 0.750000 0.665567 0.473373
O O6 0.900340 0.500000 0.461326
O O7 0.888614 0.775003 0.419900
O O8 0.899593 0.733880 0.528507
O O9 0.250000 0.190280 0.973838
O O10 0.395236 0.232850 0.915126
O O11 0.387692 0.000000 0.975399
O O12 0.052656 0.500000 0.321162
O O13 0.078566 0.279684 0.254502
O O14 0.098900 0.241103 0.363286
O O15 0.933468 0.271251 0.320837
O O16 0.750000 0.208627 0.349904
O O17 0.621734 0.000000 0.351100
O O18 0.750000 0.779466 0.152780
O O19 0.567029 0.747817 0.187812
O O20 0.632360 0.000000 0.146469
O O21 0.966337 0.500000 0.806910
O O22 0.750000 0.826565 0.580035
O O23 0.602099 0.000000 0.575610
#
# Coordination Sequence:
#
# PCOD9406387 Si02
#       8
#     8   8   8   8   8   8   8   8
#     4   9  18  35  60  85 109 141 182 228 275 325
#     4   9  17  32  57  88 120 151 181 214 263 334
#     4   7  12  27  53  84 111 135 172 222 273 325
#     4  11  25  42  57  76 107 150 196 233 270 327
#     4  10  21  38  61  88 116 144 179 230 284 326
#     4   9  18  35  60  85 109 141 182 228 275 325
#     4  11  25  40  53  76 112 150 187 229 276 329
#     4  10  21  38  61  88 116 144 179 230 284 326
#
# _framework density 20.842497000000002
#
# number of rings (size 3 to 8) (size 9 to 14) (size 15 to 20)
#    0.000    2.500    0.000    3.375    0.000    7.500 
#    0.000   10.625    0.000    2.250    0.000    0.000 
#    0.000    0.000    0.000    0.000    0.000    0.000 
#
# Total GULP energy -357443.872911 kJ/mol
# GULP energy per Si atom -5585.060514 kJ/mol
# Density = 2.079506 g / cm^3
# Si number density = 20.842497 Si / 1000 Ang^3
#
#
#
# Elastic Constant Matrix: (Units=GPa)
#
#
# Indices 1 2 3 4 5 6 
#
# 1 30.3749 0.3370 -1.7847 0.0000 0.0000 0.0000
# 2 0.3370 46.1055 20.3168 0.0000 0.0000 0.0000
# 3 -1.7847 20.3168 103.6737 0.0000 0.0000 0.0000
# 4 0.0000 0.0000 0.0000 31.8260 0.0000 0.0000
# 5 0.0000 0.0000 0.0000 0.0000 26.2569 0.0000
# 6 0.0000 0.0000 0.0000 0.0000 0.0000 44.2623
#
#
#
# Elastic Compliance Matrix: (Units=1/GPa)
#
#
# Indices 1 2 3 4 5 6 
#
# 1 0.032967 -0.000537 0.000673 0.000000 0.000000 0.000000
# 2 -0.000537 0.023748 -0.004663 0.000000 0.000000 0.000000
# 3 0.000673 -0.004663 0.010571 0.000000 0.000000 0.000000
# 4 0.000000 0.000000 0.000000 0.031421 0.000000 0.000000
# 5 0.000000 0.000000 0.000000 0.000000 0.038085 0.000000
# 6 0.000000 0.000000 0.000000 0.000000 0.000000 0.022593
#
#
# Mechanical properties :
#
#
# Convention : Reuss Voigt Hill
#
# Bulk Modulus (GPa) = 17.17295 24.21027 20.69161
# Shear Modulus (GPa) = 26.61681 31.22138 28.91909
#
# Velocity S-wave (km/s) = 3.57745 3.87456 3.72897
# Velocity P-wave (km/s) = 5.03205 5.62648 5.33755
#
# Compressibility (1/GPa) = 0.05823112
#
# Stress axis : x y z
#
# Youngs Moduli (GPa) = 30.33299 42.10850 94.59786
#
# Poissons Ratio (x) = 0.02263 -0.06365
# Poissons Ratio (y) = 0.01630 0.44112
# Poissons Ratio (z) = -0.02041 0.19636
#
# Static dielectric constant tensor:
#      x y z
#    x 1.804640 0.000000 0.000000 
#    y 0.000000 1.692680 0.000000 
#    z 0.000000 0.000000 1.750220 
# 
# From -- ./inp_files/35865.got.cif
#   From: 2010.05.17/outbox.cif.g08.bks.cpg/sg51_18_cif.got.tgz:35865.got - 2010.06.03 11:52:47.
