data_PCOD9406376
_publ_section_title
;
Structure prediction by ZEFSAII (Michael W. Deem and Ramdas Pophale) SiO2 
 PCOD9406376
Probable space group: P M M A
;
_chemical_formula_sum "Si O2"
_cell_formula_units_Z 40
_cell_length_a 15.149778
_cell_length_b 9.299704
_cell_length_c 15.236174
_cell_angle_alpha 90.000000
_cell_angle_beta 90.000000
_cell_angle_gamma 90.000000
_cell_volume 2146.600955
_symmetry_space_group_name_H-M "P M M A"
_symmetry_group_IT_number 51
_symmetry_cell_setting 'orthorhombic'
loop_
_space_group_symop_operation_xyz
x,y,z
1/2-x,-y,z
1/2+x,-y,-z
-x,y,-z
-x,-y,-z
1/2+x,y,-z
1/2-x,y,z
x,-y,z
loop_
_atom_site_type_symbol
_atom_site_label
_atom_site_fract_x
_atom_site_fract_y
_atom_site_fract_z
Si Si1 0.111490 0.829182 0.341897
Si Si2 0.750000 0.330603 0.331393
Si Si3 0.750000 0.671190 0.995061
Si Si4 0.075102 0.170622 0.730281
Si Si5 0.750000 0.330735 0.540609
Si Si6 0.250000 0.167546 0.187812
Si Si7 0.919911 0.169320 0.065580
O O1 0.164690 0.743064 0.415307
O O2 0.165791 0.809762 0.251053
O O3 0.010399 0.786655 0.326444
O O4 0.115228 0.000000 0.361559
O O5 0.750000 0.500000 0.311482
O O6 0.837450 0.256749 0.293423
O O7 0.750000 0.311535 0.436477
O O8 0.750000 0.500000 0.996715
O O9 0.750000 0.731125 0.895737
O O10 0.663954 0.735187 0.042193
O O11 0.053812 0.189926 0.833221
O O12 0.090251 0.000000 0.716461
O O13 0.750000 0.500000 0.560704
O O14 0.250000 0.000000 0.159359
O O15 0.897208 0.000000 0.054039
O O16 0.000000 0.201914 0.000000
#
# Coordination Sequence:
#
# PCOD9406376 Si02
#       7
#     8   4   4   8   4   4   8
#     4   9  19  37  62  88 111 138 181 237 287 329
#     4  11  25  41  56  79 117 158 189 223 272 333
#     4  12  24  34  50  81 118 151 186 231 280 329
#     4  10  21  38  61  86 109 142 189 236 281 328
#     4  10  22  39  58  84 116 150 184 218 271 342
#     4   9  17  34  58  82 111 147 185 226 279 338
#     4  10  21  39  61  82 109 148 192 234 277 330
#
# _framework density 18.634111000000001
#
# number of rings (size 3 to 8) (size 9 to 14) (size 15 to 20)
#    0.000    2.000    0.000    3.900    0.000   11.600 
#    0.000    6.000    0.000    0.000    0.000    0.000 
#    0.000    0.000    0.000    0.000    0.000    0.000 
#
# Total GULP energy -223499.825684 kJ/mol
# GULP energy per Si atom -5587.495642 kJ/mol
# Density = 1.859170 g / cm^3
# Si number density = 18.634111 Si / 1000 Ang^3
#
#
#
# Elastic Constant Matrix: (Units=GPa)
#
#
# Indices 1 2 3 4 5 6 
#
# 1 149.6231 66.8692 44.5037 0.0000 0.0000 0.0000
# 2 66.8692 68.3704 45.9042 0.0000 0.0000 0.0000
# 3 44.5037 45.9042 61.7422 0.0000 0.0000 0.0000
# 4 0.0000 0.0000 0.0000 87.1509 0.0000 0.0000
# 5 0.0000 0.0000 0.0000 0.0000 -13.7038 0.0000
# 6 0.0000 0.0000 0.0000 0.0000 0.0000 -12.3605
#
#
#
# Elastic Compliance Matrix: (Units=1/GPa)
#
#
# Indices 1 2 3 4 5 6 
#
# 1 0.011874 -0.011715 0.000151 0.000000 0.000000 0.000000
# 2 -0.011715 0.040762 -0.021862 0.000000 0.000000 0.000000
# 3 0.000151 -0.021862 0.032341 0.000000 0.000000 0.000000
# 4 0.000000 0.000000 0.000000 0.011474 0.000000 0.000000
# 5 0.000000 0.000000 0.000000 0.000000 -0.072972 0.000000
# 6 0.000000 0.000000 0.000000 0.000000 0.000000 -0.080903
#
#
# Mechanical properties :
#
#
# Convention : Reuss Voigt Hill
#
# Bulk Modulus (GPa) = 55.16881 66.03222 60.60051
# Shear Modulus (GPa) = 323.21985 20.38122 171.80053
#
# Velocity S-wave (km/s) = 13.18456 3.31079 9.61233
# Velocity P-wave (km/s) = 16.16933 7.08013 12.48150
#
# Compressibility (1/GPa) = 0.01812619
#
# Stress axis : x y z
#
# Youngs Moduli (GPa) = 84.21702 24.53290 30.92005
#
# Poissons Ratio (x) = 0.28739 -0.00466
# Poissons Ratio (y) = 0.98657 0.67596
# Poissons Ratio (z) = -0.01270 0.53633
#
# Static dielectric constant tensor:
#      x y z
#    x 1.624080 0.000000 0.000000 
#    y 0.000000 1.615530 0.000000 
#    z 0.000000 0.000000 1.632090 
# 
# From -- ./inp_files/23857.got.cif
#   From: 2010.05.17/outbox.cif.g08.bks.cpg/sg51_12_cif.got.tgz:23857.got - 2010.06.03 11:52:47.
