data_PCOD9406622
_publ_section_title
;
Structure prediction by ZEFSAII (Michael W. Deem and Ramdas Pophale) SiO2 
 PCOD9406622
Probable space group: P M M A
;
_chemical_formula_sum "Si O2"
_cell_formula_units_Z 48
_cell_length_a 8.104491
_cell_length_b 32.648213
_cell_length_c 9.273608
_cell_angle_alpha 90.000000
_cell_angle_beta 90.000000
_cell_angle_gamma 90.000000
_cell_volume 2453.770232
_symmetry_space_group_name_H-M "P M M A"
_symmetry_group_IT_number 51
_symmetry_cell_setting 'orthorhombic'
loop_
_space_group_symop_operation_xyz
x,y,z
1/2-x,-y,z
1/2+x,-y,-z
-x,y,-z
-x,-y,-z
1/2+x,y,-z
1/2-x,y,z
x,-y,z
loop_
_atom_site_type_symbol
_atom_site_label
_atom_site_fract_x
_atom_site_fract_y
_atom_site_fract_z
Si Si1 0.946773 0.669029 0.665174
Si Si2 0.449808 0.410823 0.167488
Si Si3 0.948861 0.000000 0.167902
Si Si4 0.949587 0.910868 0.167400
Si Si5 0.449589 0.169576 0.665782
Si Si6 0.053162 0.750043 0.834383
Si Si7 0.051197 0.500000 0.167869
O O1 0.750000 0.667028 0.669265
O O2 0.012098 0.627580 0.740682
O O3 0.000000 0.671983 0.500000
O O4 0.999113 0.708996 0.753425
O O5 0.250000 0.410752 0.171752
O O6 0.507091 0.455671 0.223611
O O7 0.500000 0.406496 0.000000
O O8 0.007296 0.955675 0.223626
O O9 0.750000 0.000000 0.177519
O O10 0.000000 0.000000 0.000000
O O11 0.750000 0.910874 0.171701
O O12 0.009505 0.872296 0.259241
O O13 0.000000 0.906552 0.000000
O O14 0.500000 0.171727 0.500000
O O15 0.250000 0.169441 0.672810
O O16 0.510525 0.209441 0.752499
O O17 0.250000 0.751530 0.829993
O O18 0.000000 0.749683 0.000000
O O19 0.250000 0.500000 0.177428
O O20 0.000000 0.500000 0.000000
#
# Coordination Sequence:
#
# PCOD9406622 Si02
#       7
#     8   8   4   8   8   8   4
#     4  11  23  38  55  78 108 142 176 215 262 312
#     4   9  18  32  53  78 104 135 173 215 259 306
#     4   8  14  26  47  72 100 130 164 208 255 298
#     4   9  17  31  51  76 102 132 170 212 255 302
#     4  10  22  37  53  75 105 138 172 209 255 306
#     4  11  23  39  59  82 105 134 172 215 260 310
#     4   8  14  28  49  74 102 132 168 212 257 302
#
# _framework density 19.561733
#
# number of rings (size 3 to 8) (size 9 to 14) (size 15 to 20)
#    0.000    2.333    0.000    2.500    0.000    6.000 
#    0.000    0.833    0.000    0.000    0.000    0.000 
#    0.000    0.000    0.000    0.000    0.000    0.000 
#
# Total GULP energy -267753.398345 kJ/mol
# GULP energy per Si atom -5578.195799 kJ/mol
# Density = 1.951721 g / cm^3
# Si number density = 19.561733 Si / 1000 Ang^3
#
#
#
# Elastic Constant Matrix: (Units=GPa)
#
#
# Indices 1 2 3 4 5 6 
#
# 1 18.7868 21.3364 6.8365 0.0000 0.0000 0.0000
# 2 21.3364 257.2791 115.2745 0.0000 0.0000 0.0000
# 3 6.8365 115.2745 130.1612 0.0000 0.0000 0.0000
# 4 0.0000 0.0000 0.0000 -6.1494 0.0000 0.0000
# 5 0.0000 0.0000 0.0000 0.0000 28.3893 0.0000
# 6 0.0000 0.0000 0.0000 0.0000 0.0000 20.3898
#
#
#
# Elastic Compliance Matrix: (Units=1/GPa)
#
#
# Indices 1 2 3 4 5 6 
#
# 1 0.059092 -0.005819 0.002050 0.000000 0.000000 0.000000
# 2 -0.005819 0.007017 -0.005909 0.000000 0.000000 0.000000
# 3 0.002050 -0.005909 0.012808 0.000000 0.000000 0.000000
# 4 0.000000 0.000000 0.000000 -0.162618 0.000000 0.000000
# 5 0.000000 0.000000 0.000000 0.000000 0.035225 0.000000
# 6 0.000000 0.000000 0.000000 0.000000 0.000000 0.049044
#
#
# Mechanical properties :
#
#
# Convention : Reuss Voigt Hill
#
# Bulk Modulus (GPa) = 16.78961 77.01356 46.90158
# Shear Modulus (GPa) = 125.70333 26.04458 75.87396
#
# Velocity S-wave (km/s) = 8.02492 3.65280 6.23467
# Velocity P-wave (km/s) = 9.71943 7.56608 8.70956
#
# Compressibility (1/GPa) = 0.05956065
#
# Stress axis : x y z
#
# Youngs Moduli (GPa) = 16.92288 142.51561 78.07629
#
# Poissons Ratio (x) = 0.82928 -0.16003
# Poissons Ratio (y) = 0.09847 0.46132
# Poissons Ratio (z) = -0.03469 0.84207
#
# Static dielectric constant tensor:
#      x y z
#    x 1.707170 0.000000 0.000000 
#    y 0.000000 1.748150 0.000000 
#    z 0.000000 0.000000 1.616010 
# 
# From -- ./inp_files/6143.got.cif
#   From: 2010.05.17/outbox.cif.g08.bks.cpg/sg51_4_cif.got.tgz:6143.got - 2010.06.03 11:52:47.
