data_PCOD9406196
_publ_section_title
;
Structure prediction by ZEFSAII (Michael W. Deem and Ramdas Pophale) SiO2 
 PCOD9406196
Probable space group: P M M A
;
_chemical_formula_sum "Si O2"
_cell_formula_units_Z 32
_cell_length_a 10.232153
_cell_length_b 13.558798
_cell_length_c 12.270315
_cell_angle_alpha 90.000000
_cell_angle_beta 90.000000
_cell_angle_gamma 90.000000
_cell_volume 1702.330687
_symmetry_space_group_name_H-M "P M M A"
_symmetry_group_IT_number 51
_symmetry_cell_setting 'orthorhombic'
loop_
_space_group_symop_operation_xyz
x,y,z
1/2-x,-y,z
1/2+x,-y,-z
-x,y,-z
-x,-y,-z
1/2+x,y,-z
1/2-x,y,z
x,-y,z
loop_
_atom_site_type_symbol
_atom_site_label
_atom_site_fract_x
_atom_site_fract_y
_atom_site_fract_z
Si Si1 0.750000 0.113877 0.574024
Si Si2 0.250000 0.113281 0.923056
Si Si3 0.500000 0.763925 0.000000
Si Si4 0.022924 0.731514 0.376822
Si Si5 0.750000 0.172448 0.324741
Si Si6 0.903112 0.389099 0.823855
O O1 0.623373 0.175661 0.614293
O O2 0.750000 0.115615 0.441306
O O3 0.750000 0.000000 0.610164
O O4 0.250000 0.117621 0.790817
O O5 0.123276 0.169010 0.969232
O O6 0.250000 0.000000 0.957956
O O7 0.529929 0.691687 0.899597
O O8 0.081006 0.648394 0.299371
O O9 0.000000 0.696798 0.500000
O O10 0.883285 0.765067 0.330181
O O11 0.750000 0.389900 0.851607
O O12 0.955223 0.500000 0.838339
#
# Coordination Sequence:
#
# PCOD9406196 Si02
#       6
#     4   4   4   8   4   8
#     4  10  21  37  60  90 125 166 205 240 302 375
#     4  12  25  41  65  90 126 168 205 250 308 363
#     4  12  24  46  62  92 128 156 212 260 300 362
#     4  10  21  39  62  92 126 157 199 256 303 363
#     4  10  21  38  60  88 127 156 201 252 301 354
#     4  11  23  42  67  92 121 165 206 254 314 365
#
# _framework density 18.797758000000002
#
# number of rings (size 3 to 8) (size 9 to 14) (size 15 to 20)
#    0.000    1.250    5.000    1.125    0.000    6.000 
#    0.000    3.125    0.000    0.000    0.000    0.000 
#    0.000    0.000    0.000    0.000    0.000    0.000 
#
# Total GULP energy -178651.444777 kJ/mol
# GULP energy per Si atom -5582.857649 kJ/mol
# Density = 1.875497 g / cm^3
# Si number density = 18.797758 Si / 1000 Ang^3
#
#
#
# Elastic Constant Matrix: (Units=GPa)
#
#
# Indices 1 2 3 4 5 6 
#
# 1 128.6828 62.3214 33.3363 0.0000 0.0000 0.0000
# 2 62.3214 152.4348 59.0293 0.0000 0.0000 0.0000
# 3 33.3363 59.0293 85.9341 0.0000 0.0000 0.0000
# 4 0.0000 0.0000 0.0000 39.1068 0.0000 0.0000
# 5 0.0000 0.0000 0.0000 0.0000 -64.4312 0.0000
# 6 0.0000 0.0000 0.0000 0.0000 0.0000 -4.0635
#
#
#
# Elastic Compliance Matrix: (Units=1/GPa)
#
#
# Indices 1 2 3 4 5 6 
#
# 1 0.009817 -0.003459 -0.001432 0.000000 0.000000 0.000000
# 2 -0.003459 0.010156 -0.005635 0.000000 0.000000 0.000000
# 3 -0.001432 -0.005635 0.016063 0.000000 0.000000 0.000000
# 4 0.000000 0.000000 0.000000 0.025571 0.000000 0.000000
# 5 0.000000 0.000000 0.000000 0.000000 -0.015520 0.000000
# 6 0.000000 0.000000 0.000000 0.000000 0.000000 -0.246093
#
#
# Mechanical properties :
#
#
# Convention : Reuss Voigt Hill
#
# Bulk Modulus (GPa) = 66.73548 75.15844 70.94696
# Shear Modulus (GPa) = -28.74246 8.28007 -10.23119
#
# Velocity S-wave (km/s) = -3.91453 2.10104 -2.33551
# Velocity P-wave (km/s) = 3.89198 6.77903 5.52733
#
# Compressibility (1/GPa) = 0.01498453
#
# Stress axis : x y z
#
# Youngs Moduli (GPa) = 101.86066 98.46039 62.25483
#
# Poissons Ratio (x) = 0.34058 0.08917
# Poissons Ratio (y) = 0.35234 0.35079
# Poissons Ratio (z) = 0.14590 0.55479
#
# Static dielectric constant tensor:
#      x y z
#    x 1.638710 0.000000 0.000000 
#    y 0.000000 1.623620 0.000000 
#    z 0.000000 0.000000 1.667670 
# 
# From -- ./inp_files/13866.got.cif
#   From: 2010.05.17/outbox.cif.g08.bks.cpg/sg51_7_cif.got.tgz:13866.got - 2010.06.03 11:52:47.
