data_PCOD9406293
_publ_section_title
;
Structure prediction by ZEFSAII (Michael W. Deem and Ramdas Pophale) SiO2 
 PCOD9406293
Probable space group: P M M A
;
_chemical_formula_sum "Si O2"
_cell_formula_units_Z 56
_cell_length_a 15.942960
_cell_length_b 15.564203
_cell_length_c 11.198814
_cell_angle_alpha 90.000000
_cell_angle_beta 90.000000
_cell_angle_gamma 90.000000
_cell_volume 2778.867724
_symmetry_space_group_name_H-M "P M M A"
_symmetry_group_IT_number 51
_symmetry_cell_setting 'orthorhombic'
loop_
_space_group_symop_operation_xyz
x,y,z
1/2-x,-y,z
1/2+x,-y,-z
-x,y,-z
-x,-y,-z
1/2+x,y,-z
1/2-x,y,z
x,-y,z
loop_
_atom_site_type_symbol
_atom_site_label
_atom_site_fract_x
_atom_site_fract_y
_atom_site_fract_z
Si Si1 0.442671 0.401329 0.119919
Si Si2 0.844520 0.238482 0.941328
Si Si3 0.455614 0.595890 0.630313
Si Si4 0.967400 0.093452 0.845554
Si Si5 0.157139 0.240314 0.578389
Si Si6 0.086649 0.093413 0.428223
Si Si7 0.342971 0.852592 0.827334
O O1 0.413180 0.500000 0.116717
O O2 0.370741 0.330692 0.106732
O O3 0.489428 0.390271 0.248371
O O4 0.500000 0.389136 0.000000
O O5 0.750000 0.214685 0.901289
O O6 0.916086 0.170813 0.903781
O O7 0.844451 0.230125 0.085134
O O8 0.500000 0.591926 0.500000
O O9 0.416787 0.500000 0.646833
O O10 0.398851 0.679265 0.613712
O O11 0.938722 0.096330 0.708836
O O12 0.068424 0.101020 0.850122
O O13 0.941779 0.000000 0.893813
O O14 0.250000 0.273477 0.558665
O O15 0.132123 0.180051 0.467911
O O16 0.155426 0.176114 0.690904
O O17 0.000000 0.093452 0.500000
O O18 0.129108 0.000000 0.452336
O O19 0.250000 0.893542 0.850073
#
# Coordination Sequence:
#
# PCOD9406293 Si02
#       7
#     8   8   8   8   8   8   8
#     4  10  21  40  67  92 117 161 213 255 306 372
#     4  11  24  40  60  89 127 163 204 257 307 362
#     4  10  22  39  60  89 122 157 201 252 304 363
#     4  11  23  40  63  86 118 165 208 250 306 368
#     4  11  22  36  60  88 118 157 198 245 309 372
#     4  10  21  38  59  84 114 152 201 252 298 356
#     4  10  22  39  60  91 123 155 201 259 312 366
#
# _framework density 20.152093000000001
#
# number of rings (size 3 to 8) (size 9 to 14) (size 15 to 20)
#    0.000    1.571    1.429    3.429    2.000    3.143 
#    0.000    4.286    0.000    7.714    0.000    0.000 
#    0.000    0.000    0.000    0.000    0.000    0.000 
#
# Total GULP energy -312033.166594 kJ/mol
# GULP energy per Si atom -5572.020832 kJ/mol
# Density = 2.010623 g / cm^3
# Si number density = 20.152093 Si / 1000 Ang^3
#
#
#
# Elastic Constant Matrix: (Units=GPa)
#
#
# Indices 1 2 3 4 5 6 
#
# 1 98.6461 55.1283 14.2012 0.0000 0.0000 0.0000
# 2 55.1283 99.8466 21.0366 0.0000 0.0000 0.0000
# 3 14.2012 21.0366 110.6639 0.0000 0.0000 0.0000
# 4 0.0000 0.0000 0.0000 22.7658 0.0000 0.0000
# 5 0.0000 0.0000 0.0000 0.0000 20.8694 0.0000
# 6 0.0000 0.0000 0.0000 0.0000 0.0000 -33.9981
#
#
#
# Elastic Compliance Matrix: (Units=1/GPa)
#
#
# Indices 1 2 3 4 5 6 
#
# 1 0.014675 -0.008027 -0.000357 0.000000 0.000000 0.000000
# 2 -0.008027 0.014824 -0.001788 0.000000 0.000000 0.000000
# 3 -0.000357 -0.001788 0.009422 0.000000 0.000000 0.000000
# 4 0.000000 0.000000 0.000000 0.043926 0.000000 0.000000
# 5 0.000000 0.000000 0.000000 0.000000 0.047917 0.000000
# 6 0.000000 0.000000 0.000000 0.000000 0.000000 -0.029413
#
#
# Mechanical properties :
#
#
# Convention : Reuss Voigt Hill
#
# Bulk Modulus (GPa) = 53.83181 54.43208 54.13194
# Shear Modulus (GPa) = 39.09729 16.51346 27.80538
#
# Velocity S-wave (km/s) = 4.40945 2.86569 3.71856
# Velocity P-wave (km/s) = 7.25914 6.16595 6.73476
#
# Compressibility (1/GPa) = 0.01857638
#
# Stress axis : x y z
#
# Youngs Moduli (GPa) = 68.14515 67.45826 106.13361
#
# Poissons Ratio (x) = 0.54149 0.03792
# Poissons Ratio (y) = 0.54700 0.18975
# Poissons Ratio (z) = 0.02435 0.12061
#
# Static dielectric constant tensor:
#      x y z
#    x 1.736370 0.000000 0.000000 
#    y 0.000000 1.717200 0.000000 
#    z 0.000000 0.000000 1.674010 
# 
# From -- ./inp_files/16605.got.cif
#   From: 2010.05.17/outbox.cif.g08.bks.cpg/sg51_9_cif.got.tgz:16605.got - 2010.06.03 11:52:47.
