data_PCOD9406874
_publ_section_title
;
Structure prediction by ZEFSAII (Michael W. Deem and Ramdas Pophale) SiO2 
 PCOD9406874
Probable space group: P M M A
;
_chemical_formula_sum "Si O2"
_cell_formula_units_Z 44
_cell_length_a 8.545058
_cell_length_b 29.785333
_cell_length_c 9.345570
_cell_angle_alpha 90.000000
_cell_angle_beta 90.000000
_cell_angle_gamma 90.000000
_cell_volume 2378.610160
_symmetry_space_group_name_H-M "P M M A"
_symmetry_group_IT_number 51
_symmetry_cell_setting 'orthorhombic'
loop_
_space_group_symop_operation_xyz
x,y,z
1/2-x,-y,z
1/2+x,-y,-z
-x,y,-z
-x,-y,-z
1/2+x,y,-z
1/2-x,y,z
x,-y,z
loop_
_atom_site_type_symbol
_atom_site_label
_atom_site_fract_x
_atom_site_fract_y
_atom_site_fract_z
Si Si1 0.936373 0.672540 0.162980
Si Si2 0.938072 0.411932 0.661432
Si Si3 0.437856 0.766643 0.163157
Si Si4 0.560893 0.950479 0.661248
Si Si5 0.438860 0.500000 0.161566
Si Si6 0.438993 0.864785 0.161509
O O1 0.750000 0.671218 0.157287
O O2 0.000680 0.632250 0.258527
O O3 0.990918 0.720913 0.223889
O O4 0.000000 0.668334 0.000000
O O5 0.750000 0.411037 0.658758
O O6 0.989014 0.455626 0.752100
O O7 0.000000 0.414373 0.500000
O O8 0.250000 0.762803 0.162559
O O9 0.482677 0.815619 0.224117
O O10 0.500000 0.767912 0.000000
O O11 0.500000 0.947095 0.500000
O O12 0.750000 0.949253 0.659426
O O13 0.504305 0.907859 0.751064
O O14 0.513892 0.000000 0.717574
O O15 0.250000 0.500000 0.156731
O O16 0.500000 0.500000 0.000000
O O17 0.250000 0.865822 0.157683
O O18 0.500000 0.867492 0.000000
#
# Coordination Sequence:
#
# PCOD9406874 Si02
#       6
#     8   8   8   8   4   8
#     4  11  21  35  56  82 109 142 182 223 264 312
#     4  11  23  40  59  84 115 148 182 221 269 317
#     4   9  16  29  49  73 102 135 171 214 261 309
#     4   9  18  33  50  69  96 130 167 207 252 305
#     4  10  23  40  62  88 114 144 183 224 263 312
#     4   9  18  31  49  74 102 131 166 211 260 308
#
# _framework density 18.498197000000001
#
# number of rings (size 3 to 8) (size 9 to 14) (size 15 to 20)
#    0.000    2.182    0.000    4.636    0.000    4.727 
#    0.000    0.909    0.000    2.182    0.000    0.000 
#    0.000    0.000    0.000    0.000    0.000    0.000 
#
# Total GULP energy -245436.636110 kJ/mol
# GULP energy per Si atom -5578.105366 kJ/mol
# Density = 1.845609 g / cm^3
# Si number density = 18.498197 Si / 1000 Ang^3
#
#
#
# Elastic Constant Matrix: (Units=GPa)
#
#
# Indices 1 2 3 4 5 6 
#
# 1 58.2511 49.0084 25.1228 0.0000 0.0000 0.0000
# 2 49.0084 235.8599 91.9947 0.0000 0.0000 0.0000
# 3 25.1228 91.9947 89.5884 0.0000 0.0000 0.0000
# 4 0.0000 0.0000 0.0000 -12.3203 0.0000 0.0000
# 5 0.0000 0.0000 0.0000 0.0000 28.0507 0.0000
# 6 0.0000 0.0000 0.0000 0.0000 0.0000 -6.5497
#
#
#
# Elastic Compliance Matrix: (Units=1/GPa)
#
#
# Indices 1 2 3 4 5 6 
#
# 1 0.021099 -0.003464 -0.002360 0.000000 0.000000 0.000000
# 2 -0.003464 0.007641 -0.006875 0.000000 0.000000 0.000000
# 3 -0.002360 -0.006875 0.018884 0.000000 0.000000 0.000000
# 4 0.000000 0.000000 0.000000 -0.081167 0.000000 0.000000
# 5 0.000000 0.000000 0.000000 0.000000 0.035650 0.000000
# 6 0.000000 0.000000 0.000000 0.000000 0.000000 -0.152678
#
#
# Mechanical properties :
#
#
# Convention : Reuss Voigt Hill
#
# Bulk Modulus (GPa) = 44.99168 79.55012 62.27090
# Shear Modulus (GPa) = -42.45702 16.34104 -13.05799
#
# Velocity S-wave (km/s) = -4.79602 2.97540 -2.65977
# Velocity P-wave (km/s) = 2.50880 7.40957 4.92989
#
# Compressibility (1/GPa) = 0.02222633
#
# Stress axis : x y z
#
# Youngs Moduli (GPa) = 47.39581 130.87319 52.95596
#
# Poissons Ratio (x) = 0.45328 0.12498
# Poissons Ratio (y) = 0.16416 0.36407
# Poissons Ratio (z) = 0.11186 0.89975
#
# Static dielectric constant tensor:
#      x y z
#    x 1.622540 0.000000 0.000000 
#    y 0.000000 1.688550 0.000000 
#    z 0.000000 0.000000 1.580630 
# 
# From -- ./inp_files/5744.got.cif
#   From: 2010.05.17/outbox.cif.g08.bks.cpg/sg51_3_cif.got.tgz:5744.got - 2010.06.03 11:52:47.
