data_PCOD9406791
_publ_section_title
;
Structure prediction by ZEFSAII (Michael W. Deem and Ramdas Pophale) SiO2 
 PCOD9406791
Probable space group: P M M A
;
_chemical_formula_sum "Si O2"
_cell_formula_units_Z 64
_cell_length_a 14.831565
_cell_length_b 18.665552
_cell_length_c 11.582116
_cell_angle_alpha 90.000000
_cell_angle_beta 90.000000
_cell_angle_gamma 90.000000
_cell_volume 3206.385439
_symmetry_space_group_name_H-M "P M M A"
_symmetry_group_IT_number 51
_symmetry_cell_setting 'orthorhombic'
loop_
_space_group_symop_operation_xyz
x,y,z
1/2-x,-y,z
1/2+x,-y,-z
-x,y,-z
-x,-y,-z
1/2+x,y,-z
1/2-x,y,z
x,-y,z
loop_
_atom_site_type_symbol
_atom_site_label
_atom_site_fract_x
_atom_site_fract_y
_atom_site_fract_z
Si Si1 0.892012 0.419159 0.988236
Si Si2 0.142282 0.803004 0.233434
Si Si3 0.977991 0.417977 0.366564
Si Si4 0.647811 0.665796 0.201978
Si Si5 0.481173 0.915577 0.366067
Si Si6 0.850833 0.359713 0.750437
Si Si7 0.852524 0.917462 0.198477
Si Si8 0.857988 0.210354 0.030073
O O1 0.869331 0.500000 0.954118
O O2 0.852212 0.399748 0.111698
O O3 0.856899 0.366656 0.889284
O O4 0.000000 0.413283 0.000000
O O5 0.250000 0.818292 0.230647
O O6 0.090126 0.862572 0.306369
O O7 0.131483 0.722667 0.282957
O O8 0.107992 0.796868 0.100572
O O9 0.944278 0.500000 0.354360
O O10 0.071847 0.409698 0.298787
O O11 0.000000 0.404432 0.500000
O O12 0.911323 0.360335 0.309017
O O13 0.750000 0.684403 0.236258
O O14 0.608155 0.729340 0.120616
O O15 0.500000 0.899709 0.500000
O O16 0.574797 0.906254 0.297661
O O17 0.454545 0.000000 0.356678
O O18 0.750000 0.379700 0.714152
O O19 0.750000 0.903534 0.239109
O O20 0.870834 0.864868 0.093222
O O21 0.857738 0.000000 0.161342
O O22 0.750000 0.224864 0.020632
#
# Coordination Sequence:
#
# PCOD9406791 Si02
#       8
#     8   8   8   8   8   8   8   8
#     4  11  21  34  58  91 122 156 200 255 324 390
#     4  10  22  40  62  91 127 163 201 251 312 371
#     4  11  26  45  63  87 122 166 216 265 314 371
#     4  11  22  39  63  92 125 161 207 262 319 385
#     4  10  23  41  62  91 125 165 214 257 297 357
#     4  11  23  41  62  87 122 162 204 255 314 376
#     4   9  19  37  60  87 121 160 203 252 306 366
#     4   9  19  37  60  90 125 160 199 249 315 379
#
# _framework density 19.960170999999999
#
# number of rings (size 3 to 8) (size 9 to 14) (size 15 to 20)
#    0.000    1.750    2.500    1.125    1.750    5.250 
#    0.000    5.000    0.000    0.000    0.000    0.000 
#    0.000    0.000    0.000    0.000    0.000    0.000 
#
# Total GULP energy -357396.249161 kJ/mol
# GULP energy per Si atom -5584.316393 kJ/mol
# Density = 1.991474 g / cm^3
# Si number density = 19.960171 Si / 1000 Ang^3
#
#
#
# Elastic Constant Matrix: (Units=GPa)
#
#
# Indices 1 2 3 4 5 6 
#
# 1 69.6566 39.1903 24.6261 0.0000 0.0000 0.0000
# 2 39.1903 86.2949 42.3669 0.0000 0.0000 0.0000
# 3 24.6261 42.3669 95.8561 0.0000 0.0000 0.0000
# 4 0.0000 0.0000 0.0000 34.3841 0.0000 0.0000
# 5 0.0000 0.0000 0.0000 0.0000 -34.6668 0.0000
# 6 0.0000 0.0000 0.0000 0.0000 0.0000 167.6460
#
#
#
# Elastic Compliance Matrix: (Units=1/GPa)
#
#
# Indices 1 2 3 4 5 6 
#
# 1 0.019428 -0.008139 -0.001394 0.000000 0.000000 0.000000
# 2 -0.008139 0.018209 -0.005957 0.000000 0.000000 0.000000
# 3 -0.001394 -0.005957 0.013423 0.000000 0.000000 0.000000
# 4 0.000000 0.000000 0.000000 0.029083 0.000000 0.000000
# 5 0.000000 0.000000 0.000000 0.000000 -0.028846 0.000000
# 6 0.000000 0.000000 0.000000 0.000000 0.000000 0.005965
#
#
# Mechanical properties :
#
#
# Convention : Reuss Voigt Hill
#
# Bulk Modulus (GPa) = 49.79931 51.57489 50.68710
# Shear Modulus (GPa) = 52.66715 43.18096 47.92406
#
# Velocity S-wave (km/s) = 5.14232 4.65624 4.90530
# Velocity P-wave (km/s) = 7.76282 7.40286 7.58498
#
# Compressibility (1/GPa) = 0.02008060
#
# Stress axis : x y z
#
# Youngs Moduli (GPa) = 51.47224 54.91785 74.49665
#
# Poissons Ratio (x) = 0.44696 0.10385
# Poissons Ratio (y) = 0.41892 0.44379
# Poissons Ratio (z) = 0.07175 0.32716
#
# Static dielectric constant tensor:
#      x y z
#    x 1.736830 0.000000 0.000000 
#    y 0.000000 1.720100 0.000000 
#    z 0.000000 0.000000 1.692210 
# 
# From -- ./inp_files/16855.got.cif
#   From: 2010.05.17/outbox.cif.g08.bks.cpg/sg51_9_cif.got.tgz:16855.got - 2010.06.03 11:52:47.
