data_PCOD9406858
_publ_section_title
;
Structure prediction by ZEFSAII (Michael W. Deem and Ramdas Pophale) SiO2 
 PCOD9406858
Probable space group: P M M A
;
_chemical_formula_sum "Si O2"
_cell_formula_units_Z 32
_cell_length_a 16.275277
_cell_length_b 11.289745
_cell_length_c 8.282257
_cell_angle_alpha 90.000000
_cell_angle_beta 90.000000
_cell_angle_gamma 90.000000
_cell_volume 1521.812770
_symmetry_space_group_name_H-M "P M M A"
_symmetry_group_IT_number 51
_symmetry_cell_setting 'orthorhombic'
loop_
_space_group_symop_operation_xyz
x,y,z
1/2-x,-y,z
1/2+x,-y,-z
-x,y,-z
-x,-y,-z
1/2+x,y,-z
1/2-x,y,z
x,-y,z
loop_
_atom_site_type_symbol
_atom_site_label
_atom_site_fract_x
_atom_site_fract_y
_atom_site_fract_z
Si Si1 0.341677 0.000000 0.555552
Si Si2 0.095432 0.639704 0.492978
Si Si3 0.250000 0.645619 0.731207
Si Si4 0.750000 0.861657 0.007526
Si Si5 0.881301 0.176633 0.730732
Si Si6 0.983713 0.000000 0.189476
O O1 0.353008 0.890815 0.432214
O O2 0.250000 0.000000 0.611619
O O3 0.400657 0.000000 0.708998
O O4 0.090421 0.500000 0.494339
O O5 0.165995 0.666896 0.626767
O O6 0.124129 0.688236 0.319780
O O7 0.000000 0.684802 0.500000
O O8 0.250000 0.500000 0.773173
O O9 0.250000 0.750696 0.867487
O O10 0.672336 0.849966 0.886769
O O11 0.750000 0.000000 0.059121
O O12 0.969768 0.119239 0.756758
O O13 0.000000 0.000000 0.000000
#
# Coordination Sequence:
#
# PCOD9406858 Si02
#       6
#     4   8   4   4   8   4
#     4  11  21  41  67  92 131 185 234 272 338 410
#     4  10  22  44  71  99 133 182 242 295 344 423
#     4  10  25  46  72 108 143 184 237 293 369 430
#     4  12  23  44  68 104 151 180 227 299 357 426
#     4  11  21  43  64  96 138 178 239 282 332 423
#     4  11  25  42  61  97 144 182 218 287 358 414
#
# _framework density 21.027553999999999
#
# number of rings (size 3 to 8) (size 9 to 14) (size 15 to 20)
#    0.000    1.250    3.750    3.750    0.000    5.000 
#    6.750    0.000    0.000    5.250    0.000    0.000 
#    0.000    0.000    0.000    0.000    0.000    0.000 
#
# Total GULP energy -178227.790550 kJ/mol
# GULP energy per Si atom -5569.618455 kJ/mol
# Density = 2.097969 g / cm^3
# Si number density = 21.027554 Si / 1000 Ang^3
#
#
#
# Elastic Constant Matrix: (Units=GPa)
#
#
# Indices 1 2 3 4 5 6 
#
# 1 168.9578 45.4663 85.0575 0.0000 0.0000 0.0000
# 2 45.4663 84.6579 82.8439 0.0000 0.0000 0.0000
# 3 85.0575 82.8439 155.7764 0.0000 0.0000 0.0000
# 4 0.0000 0.0000 0.0000 39.9704 0.0000 0.0000
# 5 0.0000 0.0000 0.0000 0.0000 34.1896 0.0000
# 6 0.0000 0.0000 0.0000 0.0000 0.0000 3.3205
#
#
#
# Elastic Compliance Matrix: (Units=1/GPa)
#
#
# Indices 1 2 3 4 5 6 
#
# 1 0.008162 -0.000047 -0.004432 0.000000 0.000000 0.000000
# 2 -0.000047 0.024631 -0.013073 0.000000 0.000000 0.000000
# 3 -0.004432 -0.013073 0.015792 0.000000 0.000000 0.000000
# 4 0.000000 0.000000 0.000000 0.025019 0.000000 0.000000
# 5 0.000000 0.000000 0.000000 0.000000 0.029249 0.000000
# 6 0.000000 0.000000 0.000000 0.000000 0.000000 0.301160
#
#
# Mechanical properties :
#
#
# Convention : Reuss Voigt Hill
#
# Bulk Modulus (GPa) = 74.17906 92.90306 83.54106
# Shear Modulus (GPa) = 11.27115 28.56438 19.91777
#
# Velocity S-wave (km/s) = 2.31772 3.68968 3.08104
# Velocity P-wave (km/s) = 6.52044 7.90121 7.24380
#
# Compressibility (1/GPa) = 0.01348089
#
# Stress axis : x y z
#
# Youngs Moduli (GPa) = 122.51308 40.59995 63.32277
#
# Poissons Ratio (x) = 0.00189 0.28065
# Poissons Ratio (y) = 0.00570 0.82785
# Poissons Ratio (z) = 0.54299 0.53078
#
# Static dielectric constant tensor:
#      x y z
#    x 1.930510 0.000000 0.000000 
#    y 0.000000 1.837600 0.000000 
#    z 0.000000 0.000000 1.791860 
# 
# From -- ./inp_files/7649.got.cif
#   From: 2010.05.17/outbox.cif.g08.bks.cpg/sg51_4_cif.got.tgz:7649.got - 2010.06.03 11:52:47.
