data_PCOD9406069
_publ_section_title
;
Structure prediction by ZEFSAII (Michael W. Deem and Ramdas Pophale) SiO2 
 PCOD9406069
Probable space group: P M M A
;
_chemical_formula_sum "Si O2"
_cell_formula_units_Z 64
_cell_length_a 14.458110
_cell_length_b 24.627741
_cell_length_c 9.453933
_cell_angle_alpha 90.000000
_cell_angle_beta 90.000000
_cell_angle_gamma 90.000000
_cell_volume 3366.267486
_symmetry_space_group_name_H-M "P M M A"
_symmetry_group_IT_number 51
_symmetry_cell_setting 'orthorhombic'
loop_
_space_group_symop_operation_xyz
x,y,z
1/2-x,-y,z
1/2+x,-y,-z
-x,y,-z
-x,-y,-z
1/2+x,y,-z
1/2-x,y,z
x,-y,z
loop_
_atom_site_type_symbol
_atom_site_label
_atom_site_fract_x
_atom_site_fract_y
_atom_site_fract_z
Si Si1 0.356141 0.841806 0.374370
Si Si2 0.638706 0.751936 0.247931
Si Si3 0.640288 0.439561 0.887427
Si Si4 0.643940 0.868127 0.286957
Si Si5 0.139747 0.641310 0.859691
Si Si6 0.484084 0.939736 0.329749
Si Si7 0.137445 0.278933 0.428573
Si Si8 0.024001 0.386274 0.345420
O O1 0.250000 0.844776 0.328803
O O2 0.357921 0.853753 0.544203
O O3 0.414596 0.889810 0.305713
O O4 0.387135 0.779220 0.357992
O O5 0.750000 0.758333 0.256422
O O6 0.604490 0.812571 0.219958
O O7 0.619765 0.705668 0.133496
O O8 0.613536 0.729550 0.404657
O O9 0.750000 0.437318 0.862199
O O10 0.617934 0.500000 0.941534
O O11 0.586239 0.426323 0.745818
O O12 0.618595 0.393060 0.001306
O O13 0.750000 0.877603 0.246799
O O14 0.580528 0.919999 0.264120
O O15 0.250000 0.635119 0.827996
O O16 0.072052 0.621199 0.737477
O O17 0.500000 0.941921 0.500000
O O18 0.454878 0.000000 0.285060
O O19 0.250000 0.286225 0.418323
O O20 0.081895 0.329806 0.365997
O O21 0.000000 0.406885 0.500000
#
# Coordination Sequence:
#
# PCOD9406069 Si02
#       8
#     8   8   8   8   8   8   8   8
#     4   8  15  25  37  54  83 125 168 214 268 326
#     4   8  14  27  47  71  99 131 175 225 277 333
#     4  10  24  47  67  82 111 154 191 224 268 329
#     4   8  14  23  36  54  82 120 162 218 275 326
#     4  10  21  37  57  82 112 149 190 229 274 333
#     4   9  16  22  31  49  78 121 173 221 265 328
#     4   9  17  30  48  75 108 136 172 226 289 344
#     4  12  23  33  60  92 116 145 180 232 284 332
#
# _framework density 19.012156000000001
#
# number of rings (size 3 to 8) (size 9 to 14) (size 15 to 20)
#    0.000    2.750    1.250    2.250    1.750    2.750 
#    0.000    2.500    0.000    1.500    0.000    0.000 
#    0.000    0.000    0.000    2.250    0.000   20.875 
#
# Total GULP energy -356618.238841 kJ/mol
# GULP energy per Si atom -5572.159982 kJ/mol
# Density = 1.896888 g / cm^3
# Si number density = 19.012156 Si / 1000 Ang^3
#
#
#
# Elastic Constant Matrix: (Units=GPa)
#
#
# Indices 1 2 3 4 5 6 
#
# 1 57.5711 34.9512 24.2980 0.0000 0.0000 0.0000
# 2 34.9512 110.6292 32.6462 0.0000 0.0000 0.0000
# 3 24.2980 32.6462 43.6100 0.0000 0.0000 0.0000
# 4 0.0000 0.0000 0.0000 18.6717 0.0000 0.0000
# 5 0.0000 0.0000 0.0000 0.0000 18.7381 0.0000
# 6 0.0000 0.0000 0.0000 0.0000 0.0000 19.6099
#
#
#
# Elastic Compliance Matrix: (Units=1/GPa)
#
#
# Indices 1 2 3 4 5 6 
#
# 1 0.024526 -0.004770 -0.010094 0.000000 0.000000 0.000000
# 2 -0.004770 0.012530 -0.006722 0.000000 0.000000 0.000000
# 3 -0.010094 -0.006722 0.033587 0.000000 0.000000 0.000000
# 4 0.000000 0.000000 0.000000 0.053557 0.000000 0.000000
# 5 0.000000 0.000000 0.000000 0.000000 0.053367 0.000000
# 6 0.000000 0.000000 0.000000 0.000000 0.000000 0.050995
#
#
# Mechanical properties :
#
#
# Convention : Reuss Voigt Hill
#
# Bulk Modulus (GPa) = 36.40334 43.95568 40.17951
# Shear Modulus (GPa) = 17.80050 19.39826 18.59938
#
# Velocity S-wave (km/s) = 3.06317 3.19769 3.13115
# Velocity P-wave (km/s) = 5.63025 6.06660 5.85249
#
# Compressibility (1/GPa) = 0.02747001
#
# Stress axis : x y z
#
# Youngs Moduli (GPa) = 40.77332 79.80976 29.77331
#
# Poissons Ratio (x) = 0.38066 0.30055
# Poissons Ratio (y) = 0.19447 0.20014
# Poissons Ratio (z) = 0.41159 0.53650
#
# Static dielectric constant tensor:
#      x y z
#    x 1.697750 0.000000 0.000000 
#    y 0.000000 1.694070 0.000000 
#    z 0.000000 0.000000 1.640630 
# 
# From -- ./inp_files/8735.got.cif
#   From: 2010.05.17/outbox.cif.g08.bks.cpg/sg51_5_cif.got.tgz:8735.got - 2010.06.03 11:52:47.
