data_PCOD9406158
_publ_section_title
;
Structure prediction by ZEFSAII (Michael W. Deem and Ramdas Pophale) SiO2 
 PCOD9406158
Probable space group: P M M A
;
_chemical_formula_sum "Si O2"
_cell_formula_units_Z 48
_cell_length_a 8.959796
_cell_length_b 18.791839
_cell_length_c 15.767464
_cell_angle_alpha 90.000000
_cell_angle_beta 90.000000
_cell_angle_gamma 90.000000
_cell_volume 2654.784373
_symmetry_space_group_name_H-M "P M M A"
_symmetry_group_IT_number 51
_symmetry_cell_setting 'orthorhombic'
loop_
_space_group_symop_operation_xyz
x,y,z
1/2-x,-y,z
1/2+x,-y,-z
-x,y,-z
-x,-y,-z
1/2+x,y,-z
1/2-x,y,z
x,-y,z
loop_
_atom_site_type_symbol
_atom_site_label
_atom_site_fract_x
_atom_site_fract_y
_atom_site_fract_z
Si Si1 0.071847 0.416651 0.909473
Si Si2 0.070756 0.330980 0.244159
Si Si3 0.572952 0.915082 0.090190
Si Si4 0.071435 0.836694 0.249958
Si Si5 0.427531 0.084630 0.590467
Si Si6 0.929354 0.417101 0.589131
O O1 0.250000 0.409743 0.914447
O O2 0.035882 0.500000 0.892656
O O3 0.007009 0.368553 0.835002
O O4 0.000000 0.397880 0.000000
O O5 0.250000 0.339864 0.235881
O O6 0.038442 0.247328 0.247982
O O7 0.023951 0.369620 0.331271
O O8 0.750000 0.901447 0.088391
O O9 0.497042 0.873747 0.167092
O O10 0.551044 0.000000 0.102354
O O11 0.500000 0.895737 0.000000
O O12 0.250000 0.846159 0.250896
O O13 0.001237 0.872359 0.333193
O O14 0.500000 0.103466 0.500000
O O15 0.250000 0.096637 0.588111
O O16 0.452577 0.000000 0.604085
O O17 0.750000 0.413469 0.582160
O O18 0.970396 0.500000 0.603757
O O19 0.000000 0.394417 0.500000
#
# Coordination Sequence:
#
# PCOD9406158 Si02
#       6
#     8   8   8   8   8   8
#     4  10  21  37  59  85 110 141 183 229 276 326
#     4  10  22  38  55  79 112 149 185 222 270 326
#     4  10  21  38  60  84 109 141 183 228 275 328
#     4  11  23  37  55  82 115 149 185 226 275 331
#     4  10  21  38  60  84 110 144 187 233 280 330
#     4   9  18  34  56  79 104 137 177 221 266 312
#
# _framework density 18.080565
#
# number of rings (size 3 to 8) (size 9 to 14) (size 15 to 20)
#    0.000    2.000    0.000    3.000    0.000    9.000 
#    0.000    3.333    0.000    0.000    0.000    0.000 
#    0.000    0.000    0.000    0.000    0.000    0.000 
#
# Total GULP energy -268183.721876 kJ/mol
# GULP energy per Si atom -5587.160872 kJ/mol
# Density = 1.803941 g / cm^3
# Si number density = 18.080565 Si / 1000 Ang^3
#
#
#
# Elastic Constant Matrix: (Units=GPa)
#
#
# Indices 1 2 3 4 5 6 
#
# 1 76.9224 79.2827 98.1139 0.0000 0.0000 0.0000
# 2 79.2827 98.9169 125.2259 0.0000 0.0000 0.0000
# 3 98.1139 125.2259 226.0985 0.0000 0.0000 0.0000
# 4 0.0000 0.0000 0.0000 -22.7522 0.0000 0.0000
# 5 0.0000 0.0000 0.0000 0.0000 42.1609 0.0000
# 6 0.0000 0.0000 0.0000 0.0000 0.0000 26.7891
#
#
#
# Elastic Compliance Matrix: (Units=1/GPa)
#
#
# Indices 1 2 3 4 5 6 
#
# 1 0.075180 -0.063435 0.002510 0.000000 0.000000 0.000000
# 2 -0.063435 0.087354 -0.020854 0.000000 0.000000 0.000000
# 3 0.002510 -0.020854 0.014884 0.000000 0.000000 0.000000
# 4 0.000000 0.000000 0.000000 -0.043952 0.000000 0.000000
# 5 0.000000 0.000000 0.000000 0.000000 0.023719 0.000000
# 6 0.000000 0.000000 0.000000 0.000000 0.000000 0.037329
#
#
# Mechanical properties :
#
#
# Convention : Reuss Voigt Hill
#
# Bulk Modulus (GPa) = 72.15307 111.90920 92.03113
# Shear Modulus (GPa) = 13.78574 15.86057 14.82315
#
# Velocity S-wave (km/s) = 2.76427 2.96500 2.86639
# Velocity P-wave (km/s) = 7.08387 8.58782 7.87185
#
# Compressibility (1/GPa) = 0.01385942
#
# Stress axis : x y z
#
# Youngs Moduli (GPa) = 13.30135 11.44762 67.18586
#
# Poissons Ratio (x) = 0.72618 -0.16863
# Poissons Ratio (y) = 0.84377 1.40113
# Poissons Ratio (z) = -0.03338 0.23873
#
# Static dielectric constant tensor:
#      x y z
#    x 1.603730 0.000000 0.000000 
#    y 0.000000 1.601950 0.000000 
#    z 0.000000 0.000000 1.579350 
# 
# From -- ./inp_files/21071.got.cif
#   From: 2010.05.17/outbox.cif.g08.bks.cpg/sg51_11_cif.got.tgz:21071.got - 2010.06.03 11:52:47.
