data_PCOD9406796
_publ_section_title
;
Structure prediction by ZEFSAII (Michael W. Deem and Ramdas Pophale) SiO2 
 PCOD9406796
Probable space group: P M M A
;
_chemical_formula_sum "Si O2"
_cell_formula_units_Z 24
_cell_length_a 10.261579
_cell_length_b 8.876657
_cell_length_c 13.959440
_cell_angle_alpha 90.000000
_cell_angle_beta 90.000000
_cell_angle_gamma 90.000000
_cell_volume 1271.544689
_symmetry_space_group_name_H-M "P M M A"
_symmetry_group_IT_number 51
_symmetry_cell_setting 'orthorhombic'
loop_
_space_group_symop_operation_xyz
x,y,z
1/2-x,-y,z
1/2+x,-y,-z
-x,y,-z
-x,-y,-z
1/2+x,y,-z
1/2-x,y,z
x,-y,z
loop_
_atom_site_type_symbol
_atom_site_label
_atom_site_fract_x
_atom_site_fract_y
_atom_site_fract_z
Si Si1 0.015064 0.319842 0.215601
Si Si2 0.600231 0.181007 0.583221
Si Si3 0.750000 0.319736 0.928944
Si Si4 0.750000 0.820648 0.138652
O O1 0.001126 0.500000 0.218639
O O2 0.065199 0.259962 0.317283
O O3 0.123062 0.284246 0.134681
O O4 0.878793 0.244833 0.188416
O O5 0.500000 0.225985 0.500000
O O6 0.750000 0.214899 0.556861
O O7 0.589415 0.000000 0.595939
O O8 0.750000 0.500000 0.948045
O O9 0.750000 0.233259 0.028566
O O10 0.750000 0.000000 0.144480
#
# Coordination Sequence:
#
# PCOD9406796 Si02
#       4
#     8   8   4   4
#     4  11  23  42  65  92 126 166 209 257 312 368
#     4  10  22  40  63  92 127 165 205 252 307 366
#     4  10  22  42  65  90 125 164 207 256 312 370
#     4  12  26  40  61  94 127 164 211 258 310 370
#
# _framework density 18.874682
#
# number of rings (size 3 to 8) (size 9 to 14) (size 15 to 20)
#    0.000    1.333    1.667    3.500    2.333    7.333 
#    0.000    0.000    0.000    0.000    0.000    0.000 
#    0.000    0.000    0.000    0.000    0.000    0.000 
#
# Total GULP energy -134240.015886 kJ/mol
# GULP energy per Si atom -5593.333995 kJ/mol
# Density = 1.883172 g / cm^3
# Si number density = 18.874682 Si / 1000 Ang^3
#
#
#
# Elastic Constant Matrix: (Units=GPa)
#
#
# Indices 1 2 3 4 5 6 
#
# 1 183.5046 65.1646 64.2751 0.0000 0.0000 0.0000
# 2 65.1646 50.1451 41.9977 0.0000 0.0000 0.0000
# 3 64.2751 41.9977 99.2306 0.0000 0.0000 0.0000
# 4 0.0000 0.0000 0.0000 40.4591 0.0000 0.0000
# 5 0.0000 0.0000 0.0000 0.0000 38.9974 0.0000
# 6 0.0000 0.0000 0.0000 0.0000 0.0000 25.6718
#
#
#
# Elastic Compliance Matrix: (Units=1/GPa)
#
#
# Indices 1 2 3 4 5 6 
#
# 1 0.010272 -0.012046 -0.001555 0.000000 0.000000 0.000000
# 2 -0.012046 0.045019 -0.011251 0.000000 0.000000 0.000000
# 3 -0.001555 -0.011251 0.015847 0.000000 0.000000 0.000000
# 4 0.000000 0.000000 0.000000 0.024716 0.000000 0.000000
# 5 0.000000 0.000000 0.000000 0.000000 0.025643 0.000000
# 6 0.000000 0.000000 0.000000 0.000000 0.000000 0.038953
#
#
# Mechanical properties :
#
#
# Convention : Reuss Voigt Hill
#
# Bulk Modulus (GPa) = 46.65629 75.08391 60.87010
# Shear Modulus (GPa) = 23.00982 31.78851 27.39917
#
# Velocity S-wave (km/s) = 3.49533 4.10834 3.81417
# Velocity P-wave (km/s) = 6.40799 7.89754 7.19144
#
# Compressibility (1/GPa) = 0.02143334
#
# Stress axis : x y z
#
# Youngs Moduli (GPa) = 97.35341 22.21283 63.10487
#
# Poissons Ratio (x) = 0.26758 0.09814
# Poissons Ratio (y) = 1.17272 0.70999
# Poissons Ratio (z) = 0.15140 0.24991
#
# Static dielectric constant tensor:
#      x y z
#    x 1.639090 0.000000 0.000000 
#    y 0.000000 1.630020 0.000000 
#    z 0.000000 0.000000 1.608850 
# 
# From -- ./inp_files/14932.got.cif
#   From: 2010.05.17/outbox.cif.g08.bks.cpg/sg51_8_cif.got.tgz:14932.got - 2010.06.03 11:52:47.
