data_PCOD9406831
_publ_section_title
;
Structure prediction by ZEFSAII (Michael W. Deem and Ramdas Pophale) SiO2 
 PCOD9406831
Probable space group: P M M A
;
_chemical_formula_sum "Si O2"
_cell_formula_units_Z 40
_cell_length_a 22.031304
_cell_length_b 10.880225
_cell_length_c 7.075978
_cell_angle_alpha 90.000000
_cell_angle_beta 90.000000
_cell_angle_gamma 90.000000
_cell_volume 1696.151160
_symmetry_space_group_name_H-M "P M M A"
_symmetry_group_IT_number 51
_symmetry_cell_setting 'orthorhombic'
loop_
_space_group_symop_operation_xyz
x,y,z
1/2-x,-y,z
1/2+x,-y,-z
-x,y,-z
-x,-y,-z
1/2+x,y,-z
1/2-x,y,z
x,-y,z
loop_
_atom_site_type_symbol
_atom_site_label
_atom_site_fract_x
_atom_site_fract_y
_atom_site_fract_z
Si Si1 0.559103 0.373598 0.629060
Si Si2 0.182037 0.298428 0.418814
Si Si3 0.320729 0.643879 0.971324
Si Si4 0.371605 0.859823 0.708290
Si Si5 0.489006 0.132428 0.223123
O O1 0.500000 0.376267 0.500000
O O2 0.557979 0.500000 0.745373
O O3 0.622061 0.371205 0.515343
O O4 0.552993 0.247698 0.739666
O O5 0.250000 0.337633 0.472786
O O6 0.178472 0.318213 0.193266
O O7 0.166983 0.168797 0.518674
O O8 0.250000 0.646845 0.914260
O O9 0.340569 0.500000 0.950511
O O10 0.353890 0.751559 0.854676
O O11 0.444674 0.852575 0.681298
O O12 0.359750 0.000000 0.774773
O O13 0.463255 0.000000 0.281237
O O14 0.500000 0.128763 0.000000
#
# Coordination Sequence:
#
# PCOD9406831 Si02
#       5
#     8   8   8   8   8
#     4  11  23  40  64  96 129 165 218 276 328 388
#     4  11  24  43  67  98 138 182 225 276 344 411
#     4  10  23  42  65  96 135 180 227 280 346 414
#     4  11  24  43  69 102 139 180 231 287 343 409
#     4  10  22  41  66  96 132 176 222 273 340 409
#
# _framework density 23.582802000000001
#
# number of rings (size 3 to 8) (size 9 to 14) (size 15 to 20)
#    0.000    1.400    2.000    2.400    0.000    7.600 
#    0.000    4.000    0.000    0.000    0.000    0.000 
#    0.000    0.000    0.000    0.000    0.000    0.000 
#
# Total GULP energy -223155.021531 kJ/mol
# GULP energy per Si atom -5578.875538 kJ/mol
# Density = 2.352913 g / cm^3
# Si number density = 23.582802 Si / 1000 Ang^3
#
#
#
# Elastic Constant Matrix: (Units=GPa)
#
#
# Indices 1 2 3 4 5 6 
#
# 1 156.0847 74.9355 10.7685 0.0000 0.0000 0.0000
# 2 74.9355 221.4644 56.9768 0.0000 0.0000 0.0000
# 3 10.7685 56.9768 94.1326 0.0000 0.0000 0.0000
# 4 0.0000 0.0000 0.0000 151.5174 0.0000 0.0000
# 5 0.0000 0.0000 0.0000 0.0000 29.1452 0.0000
# 6 0.0000 0.0000 0.0000 0.0000 0.0000 33.6201
#
#
#
# Elastic Compliance Matrix: (Units=1/GPa)
#
#
# Indices 1 2 3 4 5 6 
#
# 1 0.007703 -0.002819 0.000825 0.000000 0.000000 0.000000
# 2 -0.002819 0.006380 -0.003539 0.000000 0.000000 0.000000
# 3 0.000825 -0.003539 0.012671 0.000000 0.000000 0.000000
# 4 0.000000 0.000000 0.000000 0.006600 0.000000 0.000000
# 5 0.000000 0.000000 0.000000 0.000000 0.034311 0.000000
# 6 0.000000 0.000000 0.000000 0.000000 0.000000 0.029744
#
#
# Mechanical properties :
#
#
# Convention : Reuss Voigt Hill
#
# Bulk Modulus (GPa) = 63.74239 84.11592 73.92916
# Shear Modulus (GPa) = 43.97390 64.78992 54.38191
#
# Velocity S-wave (km/s) = 4.32286 5.24719 4.80729
# Velocity P-wave (km/s) = 7.21138 8.51214 7.88861
#
# Compressibility (1/GPa) = 0.01568815
#
# Stress axis : x y z
#
# Youngs Moduli (GPa) = 129.81793 156.74894 78.91999
#
# Poissons Ratio (x) = 0.44182 -0.06510
# Poissons Ratio (y) = 0.36591 0.27930
# Poissons Ratio (z) = -0.10708 0.55474
#
# Static dielectric constant tensor:
#      x y z
#    x 1.916440 0.000000 0.000000 
#    y 0.000000 1.942390 0.000000 
#    z 0.000000 0.000000 1.969110 
# 
# From -- ./inp_files/11448.got.cif
#   From: 2010.05.17/outbox.cif.g08.bks.cpg/sg51_6_cif.got.tgz:11448.got - 2010.06.03 11:52:47.
