data_PCOD9406497
_publ_section_title
;
Structure prediction by ZEFSAII (Michael W. Deem and Ramdas Pophale) SiO2 
 PCOD9406497
Probable space group: P M M A
;
_chemical_formula_sum "Si O2"
_cell_formula_units_Z 40
_cell_length_a 13.729144
_cell_length_b 8.483263
_cell_length_c 15.469729
_cell_angle_alpha 90.000000
_cell_angle_beta 90.000000
_cell_angle_gamma 90.000000
_cell_volume 1801.727458
_symmetry_space_group_name_H-M "P M M A"
_symmetry_group_IT_number 51
_symmetry_cell_setting 'orthorhombic'
loop_
_space_group_symop_operation_xyz
x,y,z
1/2-x,-y,z
1/2+x,-y,-z
-x,y,-z
-x,-y,-z
1/2+x,y,-z
1/2-x,y,z
x,-y,z
loop_
_atom_site_type_symbol
_atom_site_label
_atom_site_fract_x
_atom_site_fract_y
_atom_site_fract_z
Si Si1 0.612332 0.320844 0.971675
Si Si2 0.145581 0.308332 0.837752
Si Si3 0.566526 0.183900 0.792396
Si Si4 0.065974 0.682951 0.386775
Si Si5 0.639344 0.186150 0.437591
O O1 0.644338 0.500000 0.955795
O O2 0.618418 0.227148 0.882715
O O3 0.500000 0.328032 0.000000
O O4 0.654395 0.260126 0.061486
O O5 0.250000 0.270259 0.795319
O O6 0.133225 0.500000 0.835713
O O7 0.047779 0.229662 0.803493
O O8 0.602288 0.278350 0.708992
O O9 0.575306 0.000000 0.775304
O O10 0.079378 0.500000 0.407381
O O11 0.118534 0.784317 0.460633
O O12 0.950272 0.724061 0.392204
O O13 0.750000 0.237573 0.417719
O O14 0.630788 0.000000 0.418785
#
# Coordination Sequence:
#
# PCOD9406497 Si02
#       5
#     8   8   8   8   8
#     4   8  15  30  50  70  95 130 169 207 252 307
#     4   9  18  33  52  74 102 136 174 218 268 321
#     4  11  21  33  51  75 105 139 176 220 268 315
#     4  11  22  37  59  84 112 147 187 227 267 323
#     4  10  21  39  62  86 114 144 175 220 278 334
#
# _framework density 22.200917
#
# number of rings (size 3 to 8) (size 9 to 14) (size 15 to 20)
#    0.000    2.200    0.000    6.600    0.000    6.400 
#    0.000    1.000    0.000    3.600    0.000    0.000 
#    0.000    0.000    0.000    0.000    0.000    0.000 
#
# Total GULP energy -223291.377753 kJ/mol
# GULP energy per Si atom -5582.284444 kJ/mol
# Density = 2.215039 g / cm^3
# Si number density = 22.200917 Si / 1000 Ang^3
#
#
#
# Elastic Constant Matrix: (Units=GPa)
#
#
# Indices 1 2 3 4 5 6 
#
# 1 61.1281 -7.0488 -14.4790 0.0000 0.0000 0.0000
# 2 -7.0488 44.6142 -6.9752 0.0000 0.0000 0.0000
# 3 -14.4790 -6.9752 94.6829 0.0000 0.0000 0.0000
# 4 0.0000 0.0000 0.0000 47.5468 0.0000 0.0000
# 5 0.0000 0.0000 0.0000 0.0000 85.5395 0.0000
# 6 0.0000 0.0000 0.0000 0.0000 0.0000 147.3981
#
#
#
# Elastic Compliance Matrix: (Units=1/GPa)
#
#
# Indices 1 2 3 4 5 6 
#
# 1 0.017415 0.003205 0.002899 0.000000 0.000000 0.000000
# 2 0.003205 0.023265 0.002204 0.000000 0.000000 0.000000
# 3 0.002899 0.002204 0.011167 0.000000 0.000000 0.000000
# 4 0.000000 0.000000 0.000000 0.021032 0.000000 0.000000
# 5 0.000000 0.000000 0.000000 0.000000 0.011691 0.000000
# 6 0.000000 0.000000 0.000000 0.000000 0.000000 0.006784
#
#
# Mechanical properties :
#
#
# Convention : Reuss Voigt Hill
#
# Bulk Modulus (GPa) = 14.60617 15.93546 15.27081
# Shear Modulus (GPa) = 51.25055 71.35875 61.30465
#
# Velocity S-wave (km/s) = 4.80989 5.67556 5.26056
# Velocity P-wave (km/s) = 6.11883 7.08116 6.61751
#
# Compressibility (1/GPa) = 0.06846424
#
# Stress axis : x y z
#
# Youngs Moduli (GPa) = 57.42051 42.98245 89.54718
#
# Poissons Ratio (x) = -0.13775 -0.25962
# Poissons Ratio (y) = -0.18402 -0.19736
# Poissons Ratio (z) = -0.16648 -0.09473
#
# Static dielectric constant tensor:
#      x y z
#    x 1.852790 0.000000 0.000000 
#    y 0.000000 1.752780 0.000000 
#    z 0.000000 0.000000 1.834930 
# 
# From -- ./inp_files/23679.got.cif
#   From: 2010.05.17/outbox.cif.g08.bks.cpg/sg51_12_cif.got.tgz:23679.got - 2010.06.03 11:52:47.
