data_PCOD9406714
_publ_section_title
;
Structure prediction by ZEFSAII (Michael W. Deem and Ramdas Pophale) SiO2 
 PCOD9406714
Probable space group: P M M A
;
_chemical_formula_sum "Si O2"
_cell_formula_units_Z 64
_cell_length_a 13.862862
_cell_length_b 9.111489
_cell_length_c 24.659469
_cell_angle_alpha 90.000000
_cell_angle_beta 90.000000
_cell_angle_gamma 90.000000
_cell_volume 3114.769947
_symmetry_space_group_name_H-M "P M M A"
_symmetry_group_IT_number 51
_symmetry_cell_setting 'orthorhombic'
loop_
_space_group_symop_operation_xyz
x,y,z
1/2-x,-y,z
1/2+x,-y,-z
-x,y,-z
-x,-y,-z
1/2+x,y,-z
1/2-x,y,z
x,-y,z
loop_
_atom_site_type_symbol
_atom_site_label
_atom_site_fract_x
_atom_site_fract_y
_atom_site_fract_z
Si Si1 0.140820 0.175826 0.361352
Si Si2 0.636256 0.177034 0.852558
Si Si3 0.549874 0.176069 0.303816
Si Si4 0.366129 0.174508 0.026361
Si Si5 0.632363 0.332912 0.527358
Si Si6 0.866193 0.831893 0.419691
Si Si7 0.458849 0.674463 0.804997
Si Si8 0.866493 0.171771 0.092120
O O1 0.250000 0.225815 0.349368
O O2 0.062139 0.211546 0.316231
O O3 0.108682 0.240923 0.419070
O O4 0.142248 0.000000 0.366505
O O5 0.750000 0.206878 0.845416
O O6 0.566429 0.259618 0.811896
O O7 0.624425 0.000000 0.848405
O O8 0.605170 0.225321 0.913721
O O9 0.602852 0.216844 0.359811
O O10 0.583330 0.259786 0.250563
O O11 0.560103 0.000000 0.296156
O O12 0.250000 0.192203 0.026292
O O13 0.400625 0.228054 0.967448
O O14 0.384906 0.000000 0.025544
O O15 0.750000 0.332254 0.525461
O O16 0.600641 0.500000 0.533349
O O17 0.599885 0.264023 0.470466
O O18 0.750000 0.833508 0.421246
O O19 0.900479 0.000000 0.426642
O O20 0.459047 0.500000 0.804243
O O21 0.402761 0.736396 0.857230
O O22 0.750000 0.173376 0.091305
O O23 0.896036 0.000000 0.097946
#
# Coordination Sequence:
#
# PCOD9406714 Si02
#       8
#     8   8   8   8   8   8   8   8
#     4   9  18  34  56  79 103 132 168 216 269 313
#     4   9  18  36  62  86 109 141 183 230 275 322
#     4  10  22  39  56  75  99 134 188 236 265 308
#     4   7  12  27  55  88 111 131 172 228 277 319
#     4   9  17  30  51  80 111 139 166 199 249 320
#     4   9  18  34  56  79 103 132 168 216 269 313
#     4  12  26  39  52  77 115 152 186 226 275 334
#     4   9  18  36  62  86 109 141 183 230 275 322
#
# _framework density 20.547263999999998
#
# number of rings (size 3 to 8) (size 9 to 14) (size 15 to 20)
#    0.000    2.750    0.000    3.000    0.000    5.000 
#    0.000    8.125    0.000    2.250    0.000    0.000 
#    0.000    0.000    0.000    0.000    0.000    0.000 
#
# Total GULP energy -357239.916231 kJ/mol
# GULP energy per Si atom -5581.873691 kJ/mol
# Density = 2.050050 g / cm^3
# Si number density = 20.547264 Si / 1000 Ang^3
#
#
#
# Elastic Constant Matrix: (Units=GPa)
#
#
# Indices 1 2 3 4 5 6 
#
# 1 27.6571 7.5864 1.1381 0.0000 0.0000 0.0000
# 2 7.5864 40.3213 39.8168 0.0000 0.0000 0.0000
# 3 1.1381 39.8168 122.9729 0.0000 0.0000 0.0000
# 4 0.0000 0.0000 0.0000 -22.6946 0.0000 0.0000
# 5 0.0000 0.0000 0.0000 0.0000 27.0463 0.0000
# 6 0.0000 0.0000 0.0000 0.0000 0.0000 -51.8880
#
#
#
# Elastic Compliance Matrix: (Units=1/GPa)
#
#
# Indices 1 2 3 4 5 6 
#
# 1 0.038839 -0.010220 0.002950 0.000000 0.000000 0.000000
# 2 -0.010220 0.039147 -0.012581 0.000000 0.000000 0.000000
# 3 0.002950 -0.012581 0.012178 0.000000 0.000000 0.000000
# 4 0.000000 0.000000 0.000000 -0.044063 0.000000 0.000000
# 5 0.000000 0.000000 0.000000 0.000000 0.036974 0.000000
# 6 0.000000 0.000000 0.000000 0.000000 0.000000 -0.019272
#
#
# Mechanical properties :
#
#
# Convention : Reuss Voigt Hill
#
# Bulk Modulus (GPa) = 19.81703 32.00375 25.91039
# Shear Modulus (GPa) = 41.55412 -0.01325 20.77044
#
# Velocity S-wave (km/s) = 4.50195 -0.08038 3.18285
# Velocity P-wave (km/s) = 6.05714 3.94979 5.11321
#
# Compressibility (1/GPa) = 0.05046164
#
# Stress axis : x y z
#
# Youngs Moduli (GPa) = 25.74725 25.54476 82.11528
#
# Poissons Ratio (x) = 0.26108 -0.24222
# Poissons Ratio (y) = 0.26315 1.03306
# Poissons Ratio (z) = -0.07595 0.32137
#
# Static dielectric constant tensor:
#      x y z
#    x 1.804800 0.000000 0.000000 
#    y 0.000000 1.680140 0.000000 
#    z 0.000000 0.000000 1.722530 
# 
# From -- ./inp_files/35606.got.cif
#   From: 2010.05.17/outbox.cif.g08.bks.cpg/sg51_18_cif.got.tgz:35606.got - 2010.06.03 11:52:47.
