data_PCOD9406668
_publ_section_title
;
Structure prediction by ZEFSAII (Michael W. Deem and Ramdas Pophale) SiO2 
 PCOD9406668
Probable space group: P M M A
;
_chemical_formula_sum "Si O2"
_cell_formula_units_Z 48
_cell_length_a 13.702662
_cell_length_b 10.484883
_cell_length_c 18.142474
_cell_angle_alpha 90.000000
_cell_angle_beta 90.000000
_cell_angle_gamma 90.000000
_cell_volume 2606.543896
_symmetry_space_group_name_H-M "P M M A"
_symmetry_group_IT_number 51
_symmetry_cell_setting 'orthorhombic'
loop_
_space_group_symop_operation_xyz
x,y,z
1/2-x,-y,z
1/2+x,-y,-z
-x,y,-z
-x,-y,-z
1/2+x,y,-z
1/2-x,y,z
x,-y,z
loop_
_atom_site_type_symbol
_atom_site_label
_atom_site_fract_x
_atom_site_fract_y
_atom_site_fract_z
Si Si1 0.493541 0.772493 0.817866
Si Si2 0.134876 0.355297 0.939431
Si Si3 0.634250 0.145553 0.318999
Si Si4 0.636591 0.139507 0.939377
Si Si5 0.983710 0.651273 0.413516
Si Si6 0.641713 0.651597 0.704491
O O1 0.428408 0.681021 0.868763
O O2 0.422976 0.839696 0.758659
O O3 0.558859 0.854697 0.873843
O O4 0.572845 0.698652 0.769374
O O5 0.250000 0.346253 0.921341
O O6 0.114935 0.500000 0.963787
O O7 0.116490 0.253197 0.003827
O O8 0.750000 0.163312 0.308290
O O9 0.592554 0.252737 0.374850
O O10 0.617948 0.000000 0.345926
O O11 0.750000 0.153822 0.914041
O O12 0.629728 0.000000 0.976110
O O13 0.958784 0.500000 0.401952
O O14 0.000000 0.671611 0.500000
O O15 0.085302 0.677531 0.371353
O O16 0.750000 0.707587 0.707224
O O17 0.649100 0.500000 0.710756
#
# Coordination Sequence:
#
# PCOD9406668 Si02
#       6
#     8   8   8   8   8   8
#     4  11  20  34  56  78 104 141 184 227 268 321
#     4  10  22  38  55  77 105 138 179 228 280 332
#     4  10  22  38  56  82 115 149 184 223 270 322
#     4  10  22  38  55  77 105 138 178 225 278 333
#     4   9  19  36  59  86 113 144 183 223 265 316
#     4   9  18  32  51  78 110 140 172 216 269 319
#
# _framework density 18.415189999999999
#
# number of rings (size 3 to 8) (size 9 to 14) (size 15 to 20)
#    0.000    2.167    0.000    2.500    0.000    6.000 
#    0.000    5.000    0.000    4.500    0.000    0.000 
#    0.000    0.000    0.000    0.000    0.000    0.000 
#
# Total GULP energy -267706.408460 kJ/mol
# GULP energy per Si atom -5577.216843 kJ/mol
# Density = 1.837328 g / cm^3
# Si number density = 18.415190 Si / 1000 Ang^3
#
#
#
# Elastic Constant Matrix: (Units=GPa)
#
#
# Indices 1 2 3 4 5 6 
#
# 1 143.2903 65.0607 64.8185 0.0000 0.0000 0.0000
# 2 65.0607 116.0899 67.9945 0.0000 0.0000 0.0000
# 3 64.8185 67.9945 116.2213 0.0000 0.0000 0.0000
# 4 0.0000 0.0000 0.0000 21.6619 0.0000 0.0000
# 5 0.0000 0.0000 0.0000 0.0000 9.1437 0.0000
# 6 0.0000 0.0000 0.0000 0.0000 0.0000 11.2581
#
#
#
# Elastic Compliance Matrix: (Units=1/GPa)
#
#
# Indices 1 2 3 4 5 6 
#
# 1 0.010258 -0.003648 -0.003587 0.000000 0.000000 0.000000
# 2 -0.003648 0.014402 -0.006391 0.000000 0.000000 0.000000
# 3 -0.003587 -0.006391 0.014344 0.000000 0.000000 0.000000
# 4 0.000000 0.000000 0.000000 0.046164 0.000000 0.000000
# 5 0.000000 0.000000 0.000000 0.000000 0.109365 0.000000
# 6 0.000000 0.000000 0.000000 0.000000 0.000000 0.088825
#
#
# Mechanical properties :
#
#
# Convention : Reuss Voigt Hill
#
# Bulk Modulus (GPa) = 85.09468 85.70543 85.40005
# Shear Modulus (GPa) = 15.89694 20.26125 18.07909
#
# Velocity S-wave (km/s) = 2.94130 3.32059 3.13669
# Velocity P-wave (km/s) = 7.60554 7.83221 7.71971
#
# Compressibility (1/GPa) = 0.01175162
#
# Stress axis : x y z
#
# Youngs Moduli (GPa) = 97.48815 69.43568 69.71729
#
# Poissons Ratio (x) = 0.25331 0.25005
# Poissons Ratio (y) = 0.35564 0.44557
# Poissons Ratio (z) = 0.34965 0.44377
#
# Static dielectric constant tensor:
#      x y z
#    x 1.649990 0.000000 0.000000 
#    y 0.000000 1.637970 0.000000 
#    z 0.000000 0.000000 1.609650 
# 
# From -- ./inp_files/29483.got.cif
#   From: 2010.05.17/outbox.cif.g08.bks.cpg/sg51_15_cif.got.tgz:29483.got - 2010.06.03 11:52:47.
