data_PCOD9406583
_publ_section_title
;
Structure prediction by ZEFSAII (Michael W. Deem and Ramdas Pophale) SiO2 
 PCOD9406583
Probable space group: P M M A
;
_chemical_formula_sum "Si O2"
_cell_formula_units_Z 40
_cell_length_a 16.892071
_cell_length_b 7.643057
_cell_length_c 11.850663
_cell_angle_alpha 90.000000
_cell_angle_beta 90.000000
_cell_angle_gamma 90.000000
_cell_volume 1530.004277
_symmetry_space_group_name_H-M "P M M A"
_symmetry_group_IT_number 51
_symmetry_cell_setting 'orthorhombic'
loop_
_space_group_symop_operation_xyz
x,y,z
1/2-x,-y,z
1/2+x,-y,-z
-x,y,-z
-x,-y,-z
1/2+x,y,-z
1/2-x,y,z
x,-y,z
loop_
_atom_site_type_symbol
_atom_site_label
_atom_site_fract_x
_atom_site_fract_y
_atom_site_fract_z
Si Si1 0.250000 0.788438 0.813562
Si Si2 0.394758 0.702062 0.969506
Si Si3 0.338746 0.799231 0.213386
Si Si4 0.486579 0.704249 0.762815
Si Si5 0.081117 0.798626 0.536871
Si Si6 0.250000 0.786155 0.550656
O O1 0.325296 0.713038 0.877550
O O2 0.250000 0.741323 0.682546
O O3 0.250000 0.000000 0.822584
O O4 0.408698 0.500000 0.003884
O O5 0.468105 0.765569 0.891004
O O6 0.358663 0.793044 0.079514
O O7 0.250000 0.723511 0.231711
O O8 0.420250 0.724263 0.264072
O O9 0.335060 0.000000 0.250133
O O10 0.466743 0.500000 0.758899
O O11 0.431714 0.800236 0.672129
O O12 0.166054 0.723718 0.503802
O O13 0.000000 0.708269 0.500000
O O14 0.080230 0.000000 0.496589
O O15 0.250000 0.000000 0.543170
#
# Coordination Sequence:
#
# PCOD9406583 Si02
#       6
#     4   8   8   8   8   4
#     4  11  19  31  57  86 117 156 201 249 296 350
#     4  11  22  36  57  87 122 159 199 247 300 354
#     4  11  24  40  59  85 118 161 209 249 293 357
#     4  11  24  40  60  87 122 158 198 248 307 365
#     4  10  21  40  65  91 121 157 201 255 308 361
#     4   9  18  35  61  90 117 152 197 249 308 360
#
# _framework density 26.143719000000001
#
# number of rings (size 3 to 8) (size 9 to 14) (size 15 to 20)
#    0.000    1.400    3.000    2.700    0.000    6.400 
#    1.800    0.500    0.000    0.000    0.000    0.000 
#    0.000    0.000    0.000    0.000    0.000    0.000 
#
# Total GULP energy -223703.744654 kJ/mol
# GULP energy per Si atom -5592.593616 kJ/mol
# Density = 2.608422 g / cm^3
# Si number density = 26.143719 Si / 1000 Ang^3
#
#
#
# Elastic Constant Matrix: (Units=GPa)
#
#
# Indices 1 2 3 4 5 6 
#
# 1 250.5964 4.4394 21.9033 0.0000 0.0000 0.0000
# 2 4.4394 73.5423 -5.7451 0.0000 0.0000 0.0000
# 3 21.9033 -5.7451 71.2477 0.0000 0.0000 0.0000
# 4 0.0000 0.0000 0.0000 22.0349 0.0000 0.0000
# 5 0.0000 0.0000 0.0000 0.0000 45.4701 0.0000
# 6 0.0000 0.0000 0.0000 0.0000 0.0000 17.1730
#
#
#
# Elastic Compliance Matrix: (Units=1/GPa)
#
#
# Indices 1 2 3 4 5 6 
#
# 1 0.004110 -0.000349 -0.001292 0.000000 0.000000 0.000000
# 2 -0.000349 0.013713 0.001213 0.000000 0.000000 0.000000
# 3 -0.001292 0.001213 0.014530 0.000000 0.000000 0.000000
# 4 0.000000 0.000000 0.000000 0.045383 0.000000 0.000000
# 5 0.000000 0.000000 0.000000 0.000000 0.021992 0.000000
# 6 0.000000 0.000000 0.000000 0.000000 0.000000 0.058231
#
#
# Mechanical properties :
#
#
# Convention : Reuss Voigt Hill
#
# Bulk Modulus (GPa) = 31.74744 48.50904 40.12824
# Shear Modulus (GPa) = 29.53101 41.92153 35.72627
#
# Velocity S-wave (km/s) = 3.36455 4.00872 3.70068
# Velocity P-wave (km/s) = 5.22143 6.32625 5.80021
#
# Compressibility (1/GPa) = 0.03149860
#
# Stress axis : x y z
#
# Youngs Moduli (GPa) = 243.33584 72.92111 68.82120
#
# Poissons Ratio (x) = 0.02545 0.08888
# Poissons Ratio (y) = 0.08492 -0.08349
# Poissons Ratio (z) = 0.31427 -0.08846
#
# Static dielectric constant tensor:
#      x y z
#    x 2.125810 0.000000 0.000000 
#    y 0.000000 1.928290 0.000000 
#    z 0.000000 0.000000 2.109050 
# 
# From -- ./inp_files/23813.got.cif
#   From: 2010.05.17/outbox.cif.g08.bks.cpg/sg51_12_cif.got.tgz:23813.got - 2010.06.03 11:52:47.
