data_PCOD9406122
_publ_section_title
;
Structure prediction by ZEFSAII (Michael W. Deem and Ramdas Pophale) SiO2 
 PCOD9406122
Probable space group: P M M A
;
_chemical_formula_sum "Si O2"
_cell_formula_units_Z 64
_cell_length_a 15.235252
_cell_length_b 7.745040
_cell_length_c 24.746624
_cell_angle_alpha 90.000000
_cell_angle_beta 90.000000
_cell_angle_gamma 90.000000
_cell_volume 2920.043135
_symmetry_space_group_name_H-M "P M M A"
_symmetry_group_IT_number 51
_symmetry_cell_setting 'orthorhombic'
loop_
_space_group_symop_operation_xyz
x,y,z
1/2-x,-y,z
1/2+x,-y,-z
-x,y,-z
-x,-y,-z
1/2+x,y,-z
1/2-x,y,z
x,-y,z
loop_
_atom_site_type_symbol
_atom_site_label
_atom_site_fract_x
_atom_site_fract_y
_atom_site_fract_z
Si Si1 0.486405 0.211371 0.061435
Si Si2 0.652179 0.797108 0.407888
Si Si3 0.650690 0.205781 0.850442
Si Si4 0.969644 0.794639 0.631736
Si Si5 0.655845 0.792728 0.128278
Si Si6 0.344567 0.699359 0.748686
Si Si7 0.462484 0.298533 0.254257
Si Si8 0.349687 0.293953 0.469299
O O1 0.403703 0.271073 0.097397
O O2 0.573037 0.262135 0.094218
O O3 0.482919 0.000000 0.060211
O O4 0.500000 0.269407 0.000000
O O5 0.750000 0.721904 0.399336
O O6 0.568730 0.722198 0.376511
O O7 0.631429 0.782442 0.471685
O O8 0.656758 0.000000 0.394562
O O9 0.750000 0.275290 0.845995
O O10 0.594707 0.231231 0.795469
O O11 0.657152 0.000000 0.857444
O O12 0.924137 0.722952 0.685735
O O13 0.915654 0.756443 0.577701
O O14 0.974398 0.000000 0.637390
O O15 0.750000 0.760980 0.101027
O O16 0.657222 0.704483 0.186256
O O17 0.649000 0.000000 0.137544
O O18 0.250000 0.776643 0.730541
O O19 0.345076 0.500000 0.730266
O O20 0.439785 0.782585 0.738862
O O21 0.475060 0.500000 0.242649
O O22 0.250000 0.241790 0.454914
O O23 0.352218 0.500000 0.475520
#
# Coordination Sequence:
#
# PCOD9406122 Si02
#       8
#     8   8   8   8   8   8   8   8
#     4   9  17  30  51  81 114 142 174 222 275 327
#     4   9  19  37  59  84 116 152 187 226 278 338
#     4  10  21  38  59  81 109 148 190 230 275 329
#     4  11  23  37  57  84 114 149 189 234 282 333
#     4   9  16  27  48  76 103 132 168 212 260 313
#     4   9  18  33  53  76 102 134 171 212 265 326
#     4  11  23  38  57  80 109 146 186 232 281 330
#     4  10  21  37  58  84 114 149 190 236 284 333
#
# _framework density 21.917484000000002
#
# number of rings (size 3 to 8) (size 9 to 14) (size 15 to 20)
#    0.000    2.250    1.250    1.500    0.000    5.500 
#    0.000    2.500    0.000    1.500    0.000    1.750 
#    0.000    0.000    0.000    0.000    0.000    0.000 
#
# Total GULP energy -357124.680233 kJ/mol
# GULP energy per Si atom -5580.073129 kJ/mol
# Density = 2.186760 g / cm^3
# Si number density = 21.917484 Si / 1000 Ang^3
#
#
#
# Elastic Constant Matrix: (Units=GPa)
#
#
# Indices 1 2 3 4 5 6 
#
# 1 139.4615 11.0479 72.9337 0.0000 0.0000 0.0000
# 2 11.0479 41.9417 -3.6282 0.0000 0.0000 0.0000
# 3 72.9337 -3.6282 138.3553 0.0000 0.0000 0.0000
# 4 0.0000 0.0000 0.0000 26.8814 0.0000 0.0000
# 5 0.0000 0.0000 0.0000 0.0000 -7.7064 0.0000
# 6 0.0000 0.0000 0.0000 0.0000 0.0000 11.5885
#
#
#
# Elastic Compliance Matrix: (Units=1/GPa)
#
#
# Indices 1 2 3 4 5 6 
#
# 1 0.010309 -0.003193 -0.005518 0.000000 0.000000 0.000000
# 2 -0.003193 0.024886 0.002336 0.000000 0.000000 0.000000
# 3 -0.005518 0.002336 0.010198 0.000000 0.000000 0.000000
# 4 0.000000 0.000000 0.000000 0.037200 0.000000 0.000000
# 5 0.000000 0.000000 0.000000 0.000000 -0.129762 0.000000
# 6 0.000000 0.000000 0.000000 0.000000 0.000000 0.086292
#
#
# Mechanical properties :
#
#
# Convention : Reuss Voigt Hill
#
# Bulk Modulus (GPa) = 30.63528 53.38502 42.01015
# Shear Modulus (GPa) = 79.67449 22.11304 50.89377
#
# Velocity S-wave (km/s) = 6.03581 3.17980 4.82401
# Velocity P-wave (km/s) = 7.91091 6.15562 7.08781
#
# Compressibility (1/GPa) = 0.03264211
#
# Stress axis : x y z
#
# Youngs Moduli (GPa) = 97.00059 40.18367 98.05907
#
# Poissons Ratio (x) = 0.12830 0.54111
# Poissons Ratio (y) = 0.30971 -0.22904
# Poissons Ratio (z) = 0.53527 -0.09386
#
# Static dielectric constant tensor:
#      x y z
#    x 1.864430 0.000000 0.000000 
#    y 0.000000 1.812720 0.000000 
#    z 0.000000 0.000000 1.774140 
# 
# From -- ./inp_files/35659.got.cif
#   From: 2010.05.17/outbox.cif.g08.bks.cpg/sg51_18_cif.got.tgz:35659.got - 2010.06.03 11:52:47.
