data_PCOD9406112
_publ_section_title
;
Structure prediction by ZEFSAII (Michael W. Deem and Ramdas Pophale) SiO2 
 PCOD9406112
Probable space group: P M M A
;
_chemical_formula_sum "Si O2"
_cell_formula_units_Z 48
_cell_length_a 9.547707
_cell_length_b 8.720507
_cell_length_c 31.688804
_cell_angle_alpha 90.000000
_cell_angle_beta 90.000000
_cell_angle_gamma 90.000000
_cell_volume 2638.436621
_symmetry_space_group_name_H-M "P M M A"
_symmetry_group_IT_number 51
_symmetry_cell_setting 'orthorhombic'
loop_
_space_group_symop_operation_xyz
x,y,z
1/2-x,-y,z
1/2+x,-y,-z
-x,y,-z
-x,-y,-z
1/2+x,y,-z
1/2-x,y,z
x,-y,z
loop_
_atom_site_type_symbol
_atom_site_label
_atom_site_fract_x
_atom_site_fract_y
_atom_site_fract_z
Si Si1 0.912567 0.685332 0.541315
Si Si2 0.587595 0.816451 0.787833
Si Si3 0.088279 0.686892 0.960137
Si Si4 0.412680 0.183625 0.618580
Si Si5 0.584333 0.315272 0.134390
Si Si6 0.086943 0.683526 0.710473
O O1 0.750000 0.732235 0.538320
O O2 0.916667 0.500000 0.543315
O O3 0.000000 0.733412 0.500000
O O4 0.987260 0.751096 0.582619
O O5 0.750000 0.768351 0.789129
O O6 0.506724 0.760478 0.829399
O O7 0.510436 0.747875 0.747113
O O8 0.581955 0.000000 0.785562
O O9 0.250000 0.731751 0.964893
O O10 0.084262 0.500000 0.960391
O O11 0.041000 0.732527 0.913120
O O12 0.000000 0.741917 0.000000
O O13 0.250000 0.227693 0.609928
O O14 0.449248 0.248806 0.664669
O O15 0.420588 0.000000 0.619448
O O16 0.750000 0.279975 0.139386
O O17 0.571272 0.500000 0.137401
O O18 0.250000 0.724316 0.719170
O O19 0.077047 0.500000 0.709095
#
# Coordination Sequence:
#
# PCOD9406112 Si02
#       6
#     8   8   8   8   8   8
#     4  10  21  37  58  83 111 146 187 229 272 316
#     4  11  24  38  52  75 107 140 175 217 264 313
#     4   8  14  25  43  70 102 132 164 206 255 306
#     4  10  21  37  58  84 113 145 180 218 264 318
#     4   9  18  33  53  77 104 135 174 217 260 311
#     4  10  21  38  61  85 107 136 176 219 263 315
#
# _framework density 18.192592999999999
#
# number of rings (size 3 to 8) (size 9 to 14) (size 15 to 20)
#    0.000    2.333    0.000    3.500    0.000    8.333 
#    0.000    1.667    0.000    0.500    0.000    0.000 
#    0.000    0.000    0.000    0.000    0.000    0.000 
#
# Total GULP energy -267955.452260 kJ/mol
# GULP energy per Si atom -5582.405255 kJ/mol
# Density = 1.815119 g / cm^3
# Si number density = 18.192593 Si / 1000 Ang^3
#
#
#
# Elastic Constant Matrix: (Units=GPa)
#
#
# Indices 1 2 3 4 5 6 
#
# 1 126.5788 42.6224 129.6424 0.0000 0.0000 0.0000
# 2 42.6224 25.1022 46.2547 0.0000 0.0000 0.0000
# 3 129.6424 46.2547 199.3755 0.0000 0.0000 0.0000
# 4 0.0000 0.0000 0.0000 -80.1245 0.0000 0.0000
# 5 0.0000 0.0000 0.0000 0.0000 39.1911 0.0000
# 6 0.0000 0.0000 0.0000 0.0000 0.0000 23.2019
#
#
#
# Elastic Compliance Matrix: (Units=1/GPa)
#
#
# Indices 1 2 3 4 5 6 
#
# 1 0.031920 -0.027866 -0.014291 0.000000 0.000000 0.000000
# 2 -0.027866 0.093909 -0.003667 0.000000 0.000000 0.000000
# 3 -0.014291 -0.003667 0.015159 0.000000 0.000000 0.000000
# 4 0.000000 0.000000 0.000000 -0.012481 0.000000 0.000000
# 5 0.000000 0.000000 0.000000 0.000000 0.025516 0.000000
# 6 0.000000 0.000000 0.000000 0.000000 0.000000 0.043100
#
#
# Mechanical properties :
#
#
# Convention : Reuss Voigt Hill
#
# Bulk Modulus (GPa) = 20.26731 87.56618 53.91675
# Shear Modulus (GPa) = 16.38165 5.28952 10.83558
#
# Velocity S-wave (km/s) = 3.00402 1.70699 2.44315
# Velocity P-wave (km/s) = 4.81630 7.21959 6.13674
#
# Compressibility (1/GPa) = 0.04934054
#
# Stress axis : x y z
#
# Youngs Moduli (GPa) = 31.32788 10.64858 65.96615
#
# Poissons Ratio (x) = 0.29673 0.94274
# Poissons Ratio (y) = 0.87297 0.24193
# Poissons Ratio (z) = 0.44772 0.03905
#
# Static dielectric constant tensor:
#      x y z
#    x 1.611860 0.000000 0.000000 
#    y 0.000000 1.611960 0.000000 
#    z 0.000000 0.000000 1.600500 
# 
# From -- ./inp_files/36922.got.cif
#   From: 2010.05.17/outbox.cif.g08.bks.cpg/sg51_19_cif.got.tgz:36922.got - 2010.06.03 11:52:47.
