data_PCOD9406937
_publ_section_title
;
Structure prediction by ZEFSAII (Michael W. Deem and Ramdas Pophale) SiO2 
 PCOD9406937
Probable space group: P M M A
;
_chemical_formula_sum "Si O2"
_cell_formula_units_Z 38
_cell_length_a 16.058956
_cell_length_b 11.819081
_cell_length_c 9.493702
_cell_angle_alpha 90.000000
_cell_angle_beta 90.000000
_cell_angle_gamma 90.000000
_cell_volume 1801.924593
_symmetry_space_group_name_H-M "P M M A"
_symmetry_group_IT_number 51
_symmetry_cell_setting 'orthorhombic'
loop_
_space_group_symop_operation_xyz
x,y,z
1/2-x,-y,z
1/2+x,-y,-z
-x,y,-z
-x,-y,-z
1/2+x,y,-z
1/2-x,y,z
x,-y,z
loop_
_atom_site_type_symbol
_atom_site_label
_atom_site_fract_x
_atom_site_fract_y
_atom_site_fract_z
Si Si1 0.000000 0.791809 0.500000
Si Si2 0.750000 0.366259 0.471038
Si Si3 0.250000 0.752884 0.831339
Si Si4 0.750000 0.000000 0.273302
Si Si5 0.406318 0.366686 0.322590
Si Si6 0.846896 0.000000 0.854236
Si Si7 0.597597 0.244512 0.963263
Si Si8 0.878890 0.000000 0.521159
O O1 0.985589 0.707712 0.629918
O O2 0.926046 0.881328 0.503669
O O3 0.750000 0.500000 0.439747
O O4 0.750000 0.299190 0.325068
O O5 0.668266 0.343296 0.566344
O O6 0.164878 0.725888 0.915906
O O7 0.250000 0.887681 0.815718
O O8 0.823970 0.000000 0.383550
O O9 0.423779 0.500000 0.324253
O O10 0.381023 0.323325 0.169828
O O11 0.750000 0.000000 0.891221
O O12 0.849873 0.000000 0.683238
O O13 0.888625 0.113993 0.914320
O O14 0.500000 0.260069 0.000000
#
# Coordination Sequence:
#
# PCOD9406937 Si02
#       8
#     4   4   4   2   8   4   8   4
#     4  11  23  40  66 110 135 177 230 296 354 411
#     4  10  25  46  76 102 134 189 240 304 359 411
#     4  12  27  46  71 105 154 179 238 302 362 429
#     4  12  26  40  68 110 140 174 230 298 370 420
#     4  11  25  47  73 100 140 188 243 295 356 424
#     4  12  23  46  72 100 140 193 235 289 359 435
#     4  12  28  46  72 105 146 196 235 292 361 442
#     4  11  24  39  74 104 137 182 237 294 355 433
#
# _framework density 21.088564000000002
#
# number of rings (size 3 to 8) (size 9 to 14) (size 15 to 20)
#    0.000    0.632    3.684    3.158    5.895    1.263 
#    0.000    0.000    0.000    0.000    0.000    0.000 
#    0.000    0.000    0.000    0.000    0.000    0.000 
#
# Total GULP energy -212309.775308 kJ/mol
# GULP energy per Si atom -5587.099350 kJ/mol
# Density = 2.104057 g / cm^3
# Si number density = 21.088564 Si / 1000 Ang^3
#
#
#
# Elastic Constant Matrix: (Units=GPa)
#
#
# Indices 1 2 3 4 5 6 
#
# 1 91.9562 44.8942 70.3261 0.0000 0.0000 0.0000
# 2 44.8942 143.6832 58.8425 0.0000 0.0000 0.0000
# 3 70.3261 58.8425 160.7209 0.0000 0.0000 0.0000
# 4 0.0000 0.0000 0.0000 21.2923 0.0000 0.0000
# 5 0.0000 0.0000 0.0000 0.0000 189.3412 0.0000
# 6 0.0000 0.0000 0.0000 0.0000 0.0000 13.5486
#
#
#
# Elastic Compliance Matrix: (Units=1/GPa)
#
#
# Indices 1 2 3 4 5 6 
#
# 1 0.017187 -0.002694 -0.006534 0.000000 0.000000 0.000000
# 2 -0.002694 0.008610 -0.001973 0.000000 0.000000 0.000000
# 3 -0.006534 -0.001973 0.009804 0.000000 0.000000 0.000000
# 4 0.000000 0.000000 0.000000 0.046965 0.000000 0.000000
# 5 0.000000 0.000000 0.000000 0.000000 0.005281 0.000000
# 6 0.000000 0.000000 0.000000 0.000000 0.000000 0.073808
#
#
# Mechanical properties :
#
#
# Convention : Reuss Voigt Hill
#
# Bulk Modulus (GPa) = 75.77377 82.72065 79.24721
# Shear Modulus (GPa) = 26.53112 59.65626 43.09369
#
# Velocity S-wave (km/s) = 3.55079 5.32446 4.52537
# Velocity P-wave (km/s) = 7.26774 8.78125 8.06010
#
# Compressibility (1/GPa) = 0.01319718
#
# Stress axis : x y z
#
# Youngs Moduli (GPa) = 58.18241 116.14834 102.00412
#
# Poissons Ratio (x) = 0.31294 0.66651
# Poissons Ratio (y) = 0.15676 0.20128
# Poissons Ratio (z) = 0.38017 0.22918
#
# Static dielectric constant tensor:
#      x y z
#    x 1.822210 0.000000 0.000000 
#    y 0.000000 1.729880 0.000000 
#    z 0.000000 0.000000 1.752610 
# 
# From -- ./inp_files/9356.got.cif
#   From: 2010.05.17/outbox.cif.g08.bks.cpg/sg51_5_cif.got.tgz:9356.got - 2010.06.03 11:52:47.
