data_PCOD9406099
_publ_section_title
;
Structure prediction by ZEFSAII (Michael W. Deem and Ramdas Pophale) SiO2 
 PCOD9406099
Probable space group: P M M A
;
_chemical_formula_sum "Si O2"
_cell_formula_units_Z 56
_cell_length_a 22.140223
_cell_length_b 8.638250
_cell_length_c 14.681495
_cell_angle_alpha 90.000000
_cell_angle_beta 90.000000
_cell_angle_gamma 90.000000
_cell_volume 2807.876753
_symmetry_space_group_name_H-M "P M M A"
_symmetry_group_IT_number 51
_symmetry_cell_setting 'orthorhombic'
loop_
_space_group_symop_operation_xyz
x,y,z
1/2-x,-y,z
1/2+x,-y,-z
-x,y,-z
-x,-y,-z
1/2+x,y,-z
1/2-x,y,z
x,-y,z
loop_
_atom_site_type_symbol
_atom_site_label
_atom_site_fract_x
_atom_site_fract_y
_atom_site_fract_z
Si Si1 0.567273 0.314739 0.267348
Si Si2 0.179663 0.829371 0.236384
Si Si3 0.939521 0.311534 0.054549
Si Si4 0.680586 0.184608 0.373695
Si Si5 0.653546 0.321662 0.572265
Si Si6 0.179968 0.315089 0.049514
Si Si7 0.030242 0.174230 0.401777
O O1 0.559875 0.500000 0.276929
O O2 0.559413 0.272904 0.161472
O O3 0.632149 0.267458 0.309070
O O4 0.517539 0.226363 0.327010
O O5 0.250000 0.846076 0.216995
O O6 0.177310 0.757305 0.336227
O O7 0.158836 0.724128 0.152708
O O8 0.151366 0.000000 0.233211
O O9 0.939122 0.500000 0.048255
O O10 0.875051 0.256644 0.013459
O O11 0.000000 0.259718 0.000000
O O12 0.750000 0.218123 0.348126
O O13 0.671148 0.238558 0.478308
O O14 0.670789 0.000000 0.369787
O O15 0.671427 0.500000 0.567121
O O16 0.582392 0.299524 0.587197
O O17 0.250000 0.260264 0.031996
O O18 0.182630 0.500000 0.040164
O O19 0.000000 0.166801 0.500000
O O20 0.053709 0.000000 0.382675
#
# Coordination Sequence:
#
# PCOD9406099 Si02
#       7
#     8   8   8   8   8   8   8
#     4  11  23  39  63  93 122 157 204 254 303 362
#     4  10  21  37  57  85 123 161 196 239 296 360
#     4   9  20  38  60  89 123 156 196 254 317 366
#     4  11  24  42  62  86 122 165 204 247 303 363
#     4  12  24  37  60  90 121 157 202 251 297 351
#     4   9  18  35  60  87 116 156 205 253 303 366
#     4  11  23  40  62  86 121 162 197 238 296 362
#
# _framework density 19.943897
#
# number of rings (size 3 to 8) (size 9 to 14) (size 15 to 20)
#    0.000    1.571    1.429    3.429    2.000    4.857 
#    0.000    2.857    0.000    3.857    0.000    0.000 
#    0.000    0.000    0.000    0.000    0.000    0.000 
#
# Total GULP energy -312398.518931 kJ/mol
# GULP energy per Si atom -5578.544981 kJ/mol
# Density = 1.989850 g / cm^3
# Si number density = 19.943897 Si / 1000 Ang^3
#
#
#
# Elastic Constant Matrix: (Units=GPa)
#
#
# Indices 1 2 3 4 5 6 
#
# 1 86.5783 5.4601 44.8784 0.0000 0.0000 0.0000
# 2 5.4601 38.5307 10.5671 0.0000 0.0000 0.0000
# 3 44.8784 10.5671 130.9523 0.0000 0.0000 0.0000
# 4 0.0000 0.0000 0.0000 -38.7436 0.0000 0.0000
# 5 0.0000 0.0000 0.0000 0.0000 29.2778 0.0000
# 6 0.0000 0.0000 0.0000 0.0000 0.0000 19.7559
#
#
#
# Elastic Compliance Matrix: (Units=1/GPa)
#
#
# Indices 1 2 3 4 5 6 
#
# 1 0.014063 -0.000686 -0.004764 0.000000 0.000000 0.000000
# 2 -0.000686 0.026574 -0.001909 0.000000 0.000000 0.000000
# 3 -0.004764 -0.001909 0.009423 0.000000 0.000000 0.000000
# 4 0.000000 0.000000 0.000000 -0.025811 0.000000 0.000000
# 5 0.000000 0.000000 0.000000 0.000000 0.034156 0.000000
# 6 0.000000 0.000000 0.000000 0.000000 0.000000 0.050618
#
#
# Mechanical properties :
#
#
# Convention : Reuss Voigt Hill
#
# Bulk Modulus (GPa) = 28.29564 41.98585 35.14075
# Shear Modulus (GPa) = 36.89420 15.06839 25.98129
#
# Velocity S-wave (km/s) = 4.30571 2.75169 3.61324
# Velocity P-wave (km/s) = 6.23998 5.58511 5.92160
#
# Compressibility (1/GPa) = 0.03534113
#
# Stress axis : x y z
#
# Youngs Moduli (GPa) = 71.10832 37.63053 106.12176
#
# Poissons Ratio (x) = 0.02583 0.50558
# Poissons Ratio (y) = 0.04880 0.20261
# Poissons Ratio (z) = 0.33877 0.07184
#
# Static dielectric constant tensor:
#      x y z
#    x 1.742170 0.000000 0.000000 
#    y 0.000000 1.704940 0.000000 
#    z 0.000000 0.000000 1.887570 
# 
# From -- ./inp_files/25704.got.cif
#   From: 2010.05.17/outbox.cif.g08.bks.cpg/sg51_13_cif.got.tgz:25704.got - 2010.06.03 11:52:47.
