data_PCOD9406454
_publ_section_title
;
Structure prediction by ZEFSAII (Michael W. Deem and Ramdas Pophale) SiO2 
 PCOD9406454
Probable space group: P M M A
;
_chemical_formula_sum "Si O2"
_cell_formula_units_Z 64
_cell_length_a 31.317427
_cell_length_b 8.957108
_cell_length_c 12.107189
_cell_angle_alpha 90.000000
_cell_angle_beta 90.000000
_cell_angle_gamma 90.000000
_cell_volume 3396.230881
_symmetry_space_group_name_H-M "P M M A"
_symmetry_group_IT_number 51
_symmetry_cell_setting 'orthorhombic'
loop_
_space_group_symop_operation_xyz
x,y,z
1/2-x,-y,z
1/2+x,-y,-z
-x,y,-z
-x,-y,-z
1/2+x,y,-z
1/2-x,y,z
x,-y,z
loop_
_atom_site_type_symbol
_atom_site_label
_atom_site_fract_x
_atom_site_fract_y
_atom_site_fract_z
Si Si1 0.374963 0.322122 0.866186
Si Si2 0.573088 0.674530 0.497924
Si Si3 0.048232 0.177987 0.271745
Si Si4 0.675831 0.674714 0.497952
Si Si5 0.624979 0.179398 0.893400
Si Si6 0.298669 0.177559 0.728809
Si Si7 0.701286 0.821795 0.728433
Si Si8 0.951241 0.822807 0.271335
O O1 0.374693 0.500000 0.862483
O O2 0.333357 0.259196 0.803855
O O3 0.416279 0.260913 0.801526
O O4 0.375487 0.262172 0.990677
O O5 0.562256 0.500000 0.485521
O O6 0.557752 0.735485 0.615421
O O7 0.624462 0.689203 0.492846
O O8 0.553556 0.767386 0.397184
O O9 0.083412 0.215873 0.180057
O O10 0.999808 0.207072 0.234595
O O11 0.051979 0.000000 0.294069
O O12 0.686645 0.500000 0.487354
O O13 0.695246 0.765501 0.396199
O O14 0.691540 0.737763 0.614625
O O15 0.666600 0.218723 0.820805
O O16 0.625374 0.000000 0.911944
O O17 0.250000 0.207739 0.764104
O O18 0.305931 0.000000 0.733026
O O19 0.750000 0.792500 0.763260
O O20 0.696902 0.000000 0.708476
O O21 0.943434 0.000000 0.265772
#
# Coordination Sequence:
#
# PCOD9406454 Si02
#       8
#     8   8   8   8   8   8   8   8
#     4  12  26  43  63  89 122 159 202 251 308 363
#     4  11  22  36  59  92 128 163 199 245 307 368
#     4  10  22  40  64  92 120 160 207 252 302 360
#     4  11  22  36  59  92 129 164 197 242 302 363
#     4  10  22  42  64  86 119 159 205 257 302 352
#     4  11  24  42  66  93 121 159 205 250 299 357
#     4  10  21  38  63  92 121 158 204 250 297 356
#     4  11  23  40  64  91 121 159 207 253 300 361
#
# _framework density 18.84442
#
# number of rings (size 3 to 8) (size 9 to 14) (size 15 to 20)
#    0.000    1.250    2.500    3.375    0.000    8.250 
#    0.000    3.750    0.000    0.000    0.000    0.000 
#    0.000    0.000    0.000    0.000    0.000    0.000 
#
# Total GULP energy -357951.151733 kJ/mol
# GULP energy per Si atom -5592.986746 kJ/mol
# Density = 1.880153 g / cm^3
# Si number density = 18.844420 Si / 1000 Ang^3
#
#
#
# Elastic Constant Matrix: (Units=GPa)
#
#
# Indices 1 2 3 4 5 6 
#
# 1 142.4523 84.0762 75.6656 0.0000 0.0000 0.0000
# 2 84.0762 92.3723 70.7531 0.0000 0.0000 0.0000
# 3 75.6656 70.7531 134.0309 0.0000 0.0000 0.0000
# 4 0.0000 0.0000 0.0000 117.1870 0.0000 0.0000
# 5 0.0000 0.0000 0.0000 0.0000 -4.9980 0.0000
# 6 0.0000 0.0000 0.0000 0.0000 0.0000 15.2638
#
#
#
# Elastic Compliance Matrix: (Units=1/GPa)
#
#
# Indices 1 2 3 4 5 6 
#
# 1 0.015543 -0.012467 -0.002194 0.000000 0.000000 0.000000
# 2 -0.012467 0.028174 -0.007835 0.000000 0.000000 0.000000
# 3 -0.002194 -0.007835 0.012835 0.000000 0.000000 0.000000
# 4 0.000000 0.000000 0.000000 0.008533 0.000000 0.000000
# 5 0.000000 0.000000 0.000000 0.000000 -0.200078 0.000000
# 6 0.000000 0.000000 0.000000 0.000000 0.000000 0.065514
#
#
# Mechanical properties :
#
#
# Convention : Reuss Voigt Hill
#
# Bulk Modulus (GPa) = 86.49040 92.20502 89.34771
# Shear Modulus (GPa) = -242.32012 34.71460 -103.80276
#
# Velocity S-wave (km/s) = -11.35205 4.29671 -7.42992
# Velocity P-wave (km/s) = 11.21734 8.58204 5.10770
#
# Compressibility (1/GPa) = 0.01156198
#
# Stress axis : x y z
#
# Youngs Moduli (GPa) = 64.33704 35.49363 77.91162
#
# Poissons Ratio (x) = 0.44250 0.17090
# Poissons Ratio (y) = 0.80209 0.61040
# Poissons Ratio (z) = 0.14112 0.27808
#
# Static dielectric constant tensor:
#      x y z
#    x 1.661140 0.000000 0.000000 
#    y 0.000000 1.627670 0.000000 
#    z 0.000000 0.000000 1.601860 
# 
# From -- ./inp_files/19609.got.cif
#   From: 2010.05.17/outbox.cif.g08.bks.cpg/sg51_10_cif.got.tgz:19609.got - 2010.06.03 11:52:47.
