data_PCOD9406148
_publ_section_title
;
Structure prediction by ZEFSAII (Michael W. Deem and Ramdas Pophale) SiO2 
 PCOD9406148
Probable space group: P M M A
;
_chemical_formula_sum "Si O2"
_cell_formula_units_Z 48
_cell_length_a 8.692581
_cell_length_b 20.755897
_cell_length_c 14.730450
_cell_angle_alpha 90.000000
_cell_angle_beta 90.000000
_cell_angle_gamma 90.000000
_cell_volume 2657.701903
_symmetry_space_group_name_H-M "P M M A"
_symmetry_group_IT_number 51
_symmetry_cell_setting 'orthorhombic'
loop_
_space_group_symop_operation_xyz
x,y,z
1/2-x,-y,z
1/2+x,-y,-z
-x,y,-z
-x,-y,-z
1/2+x,y,-z
1/2-x,y,z
x,-y,z
loop_
_atom_site_type_symbol
_atom_site_label
_atom_site_fract_x
_atom_site_fract_y
_atom_site_fract_z
Si Si1 0.066407 0.738205 0.595062
Si Si2 0.433712 0.424375 0.900524
Si Si3 0.065935 0.314429 0.223459
Si Si4 0.566259 0.927832 0.215687
Si Si5 0.565995 0.116988 0.596393
Si Si6 0.565830 0.809763 0.898995
O O1 0.250000 0.744690 0.590217
O O2 0.000000 0.712678 0.500000
O O3 0.015403 0.696081 0.680348
O O4 0.992161 0.809236 0.606918
O O5 0.250000 0.415174 0.900841
O O6 0.465855 0.500000 0.883856
O O7 0.510838 0.378435 0.827007
O O8 0.500000 0.408275 0.000000
O O9 0.250000 0.314361 0.235251
O O10 0.024332 0.253307 0.159825
O O11 0.750000 0.919859 0.221067
O O12 0.496834 0.919987 0.316301
O O13 0.497798 0.872612 0.151988
O O14 0.532490 0.000000 0.181770
O O15 0.500000 0.093262 0.500000
O O16 0.750000 0.115819 0.594427
O O17 0.750000 0.813482 0.902848
O O18 0.500000 0.804901 0.000000
#
# Coordination Sequence:
#
# PCOD9406148 Si02
#       6
#     8   8   8   8   8   8
#     4  11  21  35  58  86 119 153 190 237 286 340
#     4  10  21  37  58  87 123 162 201 241 288 341
#     4  11  22  37  60  90 120 153 195 239 287 341
#     4  11  24  41  60  82 110 147 191 239 293 350
#     4  11  21  36  58  84 114 148 187 233 288 346
#     4  11  24  40  60  84 113 147 190 240 289 343
#
# _framework density 18.060717
#
# number of rings (size 3 to 8) (size 9 to 14) (size 15 to 20)
#    0.000    1.167    1.667    6.500    0.000    6.333 
#    0.000    0.000    0.000    0.500    0.000    0.000 
#    0.000    0.000    0.000    0.000    0.000    0.000 
#
# Total GULP energy -268437.060566 kJ/mol
# GULP energy per Si atom -5592.438762 kJ/mol
# Density = 1.801961 g / cm^3
# Si number density = 18.060717 Si / 1000 Ang^3
#
#
#
# Elastic Constant Matrix: (Units=GPa)
#
#
# Indices 1 2 3 4 5 6 
#
# 1 89.4844 38.8599 47.9360 0.0000 0.0000 0.0000
# 2 38.8599 67.4854 51.0894 0.0000 0.0000 0.0000
# 3 47.9360 51.0894 129.0194 0.0000 0.0000 0.0000
# 4 0.0000 0.0000 0.0000 -0.0540 0.0000 0.0000
# 5 0.0000 0.0000 0.0000 0.0000 37.4615 0.0000
# 6 0.0000 0.0000 0.0000 0.0000 0.0000 22.7265
#
#
#
# Elastic Compliance Matrix: (Units=1/GPa)
#
#
# Indices 1 2 3 4 5 6 
#
# 1 0.015795 -0.006644 -0.003237 0.000000 0.000000 0.000000
# 2 -0.006644 0.023957 -0.007018 0.000000 0.000000 0.000000
# 3 -0.003237 -0.007018 0.011733 0.000000 0.000000 0.000000
# 4 0.000000 0.000000 0.000000-18.508966 0.000000 0.000000
# 5 0.000000 0.000000 0.000000 0.000000 0.026694 0.000000
# 6 0.000000 0.000000 0.000000 0.000000 0.000000 0.044002
#
#
# Mechanical properties :
#
#
# Convention : Reuss Voigt Hill
#
# Bulk Modulus (GPa) = 56.54467 62.41775 59.48121
# Shear Modulus (GPa) = -0.27252 21.90038 10.81393
#
# Velocity S-wave (km/s) = -0.38887 3.48601 2.44960
# Velocity P-wave (km/s) = 5.58341 7.13008 6.40361
#
# Compressibility (1/GPa) = 0.01768513
#
# Stress axis : x y z
#
# Youngs Moduli (GPa) = 63.31233 41.74197 85.23297
#
# Poissons Ratio (x) = 0.27734 0.27594
# Poissons Ratio (y) = 0.42066 0.59815
# Poissons Ratio (z) = 0.20497 0.29294
#
# Static dielectric constant tensor:
#      x y z
#    x 1.601510 0.000000 0.000000 
#    y 0.000000 1.610730 0.000000 
#    z 0.000000 0.000000 1.604370 
# 
# From -- ./inp_files/21100.got.cif
#   From: 2010.05.17/outbox.cif.g08.bks.cpg/sg51_11_cif.got.tgz:21100.got - 2010.06.03 11:52:47.
