data_PCOD9406985
_publ_section_title
;
Structure prediction by ZEFSAII (Michael W. Deem and Ramdas Pophale) SiO2 
 PCOD9406985
Probable space group: P M M A
;
_chemical_formula_sum "Si O2"
_cell_formula_units_Z 40
_cell_length_a 13.974776
_cell_length_b 8.872948
_cell_length_c 15.697882
_cell_angle_alpha 90.000000
_cell_angle_beta 90.000000
_cell_angle_gamma 90.000000
_cell_volume 1946.497507
_symmetry_space_group_name_H-M "P M M A"
_symmetry_group_IT_number 51
_symmetry_cell_setting 'orthorhombic'
loop_
_space_group_symop_operation_xyz
x,y,z
1/2-x,-y,z
1/2+x,-y,-z
-x,y,-z
-x,-y,-z
1/2+x,y,-z
1/2-x,y,z
x,-y,z
loop_
_atom_site_type_symbol
_atom_site_label
_atom_site_fract_x
_atom_site_fract_y
_atom_site_fract_z
Si Si1 0.889654 0.170720 0.528945
Si Si2 0.060158 0.181471 0.127327
Si Si3 0.646792 0.182643 0.341248
Si Si4 0.856253 0.182799 0.056503
Si Si5 0.058291 0.321504 0.300881
O O1 0.845779 0.227036 0.440880
O O2 0.886038 0.264854 0.615071
O O3 0.000000 0.163336 0.500000
O O4 0.857766 0.000000 0.546216
O O5 0.119514 0.217605 0.042145
O O6 0.098163 0.256059 0.212872
O O7 0.060140 0.000000 0.136770
O O8 0.949702 0.230935 0.109599
O O9 0.750000 0.217622 0.300011
O O10 0.550552 0.257154 0.307142
O O11 0.634728 0.000000 0.337983
O O12 0.750000 0.237644 0.079736
O O13 0.854970 0.000000 0.063250
O O14 0.056132 0.500000 0.299923
#
# Coordination Sequence:
#
# PCOD9406985 Si02
#       5
#     8   8   8   8   8
#     4   8  15  30  50  68  88 119 159 198 236 279
#     4   9  17  31  52  75  98 126 162 204 249 296
#     4   9  18  33  52  72  94 123 162 207 250 289
#     4   8  15  30  53  77  96 119 159 209 254 295
#     4  11  21  31  46  70 101 133 162 194 236 289
#
# _framework density 20.549731000000001
#
# number of rings (size 3 to 8) (size 9 to 14) (size 15 to 20)
#    0.000    3.000    0.000    4.200    0.000    4.800 
#    0.000    5.000    0.000    7.800    0.000    0.000 
#    0.000    0.000    0.000    0.000    0.000    0.000 
#
# Total GULP energy -222928.633421 kJ/mol
# GULP energy per Si atom -5573.215836 kJ/mol
# Density = 2.050296 g / cm^3
# Si number density = 20.549731 Si / 1000 Ang^3
#
#
#
# Elastic Constant Matrix: (Units=GPa)
#
#
# Indices 1 2 3 4 5 6 
#
# 1 53.0328 -8.4980 -18.2017 0.0000 0.0000 0.0000
# 2 -8.4980 40.9280 30.8236 0.0000 0.0000 0.0000
# 3 -18.2017 30.8236 103.9536 0.0000 0.0000 0.0000
# 4 0.0000 0.0000 0.0000 -26.7322 0.0000 0.0000
# 5 0.0000 0.0000 0.0000 0.0000 -1.6200 0.0000
# 6 0.0000 0.0000 0.0000 0.0000 0.0000 -6.0882
#
#
#
# Elastic Compliance Matrix: (Units=1/GPa)
#
#
# Indices 1 2 3 4 5 6 
#
# 1 0.020184 0.001969 0.002950 0.000000 0.000000 0.000000
# 2 0.001969 0.031650 -0.009040 0.000000 0.000000 0.000000
# 3 0.002950 -0.009040 0.012817 0.000000 0.000000 0.000000
# 4 0.000000 0.000000 0.000000 -0.037408 0.000000 0.000000
# 5 0.000000 0.000000 0.000000 0.000000 -0.617279 0.000000
# 6 0.000000 0.000000 0.000000 0.000000 0.000000 -0.164251
#
#
# Mechanical properties :
#
#
# Convention : Reuss Voigt Hill
#
# Bulk Modulus (GPa) = 17.72736 22.90693 20.31714
# Shear Modulus (GPa) = -6.87529 6.03127 -0.42201
#
# Velocity S-wave (km/s) = -1.83110 1.71503 -0.45366
# Velocity P-wave (km/s) = 2.04321 3.88498 3.10385
#
# Compressibility (1/GPa) = 0.05640998
#
# Stress axis : x y z
#
# Youngs Moduli (GPa) = 49.54332 31.59551 78.02315
#
# Poissons Ratio (x) = -0.06221 -0.23019
# Poissons Ratio (y) = -0.09755 0.70532
# Poissons Ratio (z) = -0.14617 0.28562
#
# Static dielectric constant tensor:
#      x y z
#    x 0.752890 0.000000 0.000000 
#    y 0.000000 1.679120 0.000000 
#    z 0.000000 0.000000 1.746340 
# 
# From -- ./inp_files/23725.got.cif
#   From: 2010.05.17/outbox.cif.g08.bks.cpg/sg51_12_cif.got.tgz:23725.got - 2010.06.03 11:52:47.
