data_PCOD9406486
_publ_section_title
;
Structure prediction by ZEFSAII (Michael W. Deem and Ramdas Pophale) SiO2 
 PCOD9406486
Probable space group: P M M A
;
_chemical_formula_sum "Si O2"
_cell_formula_units_Z 48
_cell_length_a 16.184157
_cell_length_b 9.014902
_cell_length_c 17.228049
_cell_angle_alpha 90.000000
_cell_angle_beta 90.000000
_cell_angle_gamma 90.000000
_cell_volume 2513.548046
_symmetry_space_group_name_H-M "P M M A"
_symmetry_group_IT_number 51
_symmetry_cell_setting 'orthorhombic'
loop_
_space_group_symop_operation_xyz
x,y,z
1/2-x,-y,z
1/2+x,-y,-z
-x,y,-z
-x,-y,-z
1/2+x,y,-z
1/2-x,y,z
x,-y,z
loop_
_atom_site_type_symbol
_atom_site_label
_atom_site_fract_x
_atom_site_fract_y
_atom_site_fract_z
Si Si1 0.654127 0.673655 0.802526
Si Si2 0.927542 0.177063 0.660685
Si Si3 0.397509 0.676605 0.661294
Si Si4 0.250000 0.322417 0.779588
Si Si5 0.750000 0.822364 0.052301
Si Si6 0.091047 0.321026 0.031372
Si Si7 0.847404 0.174168 0.499162
O O1 0.750000 0.689861 0.825034
O O2 0.639485 0.500000 0.784666
O O3 0.634157 0.767925 0.726964
O O4 0.599754 0.714335 0.877259
O O5 0.897789 0.223937 0.574812
O O6 0.015916 0.246808 0.678743
O O7 0.931702 0.000000 0.660496
O O8 0.407195 0.500000 0.658631
O O9 0.329526 0.711404 0.726504
O O10 0.367718 0.735108 0.577749
O O11 0.250000 0.500000 0.796092
O O12 0.250000 0.232509 0.858848
O O13 0.750000 0.000000 0.046795
O O14 0.667096 0.756948 0.012376
O O15 0.101098 0.500000 0.023181
O O16 0.000000 0.281619 0.000000
O O17 0.750000 0.185178 0.516374
O O18 0.866664 0.000000 0.484665
#
# Coordination Sequence:
#
# PCOD9406486 Si02
#       7
#     8   8   8   4   4   8   8
#     4  10  21  40  64  92 124 161 209 257 304 360
#     4  11  24  39  59  90 127 164 202 247 306 369
#     4  11  23  41  63  89 118 156 207 259 307 357
#     4  10  24  44  64  85 118 161 204 251 310 371
#     4  12  26  42  66  99 132 163 206 261 318 379
#     4  10  22  43  70  95 126 170 214 258 313 378
#     4  10  21  39  61  85 120 164 203 243 303 371
#
# _framework density 19.096512000000001
#
# number of rings (size 3 to 8) (size 9 to 14) (size 15 to 20)
#    0.000    1.500    1.667    2.750    2.333    6.667 
#    0.000    0.000    0.000    0.000    0.000    0.000 
#    0.000    0.000    0.000    0.000    0.000    0.000 
#
# Total GULP energy -268305.812822 kJ/mol
# GULP energy per Si atom -5589.704434 kJ/mol
# Density = 1.905305 g / cm^3
# Si number density = 19.096512 Si / 1000 Ang^3
#
#
#
# Elastic Constant Matrix: (Units=GPa)
#
#
# Indices 1 2 3 4 5 6 
#
# 1 71.2019 26.7264 21.3884 0.0000 0.0000 0.0000
# 2 26.7264 43.1770 39.4605 0.0000 0.0000 0.0000
# 3 21.3884 39.4605 93.1770 0.0000 0.0000 0.0000
# 4 0.0000 0.0000 0.0000 37.4600 0.0000 0.0000
# 5 0.0000 0.0000 0.0000 0.0000 98.6331 0.0000
# 6 0.0000 0.0000 0.0000 0.0000 0.0000 28.2304
#
#
#
# Elastic Compliance Matrix: (Units=1/GPa)
#
#
# Indices 1 2 3 4 5 6 
#
# 1 0.018350 -0.012250 0.000976 0.000000 0.000000 0.000000
# 2 -0.012250 0.045964 -0.016654 0.000000 0.000000 0.000000
# 3 0.000976 -0.016654 0.017561 0.000000 0.000000 0.000000
# 4 0.000000 0.000000 0.000000 0.026695 0.000000 0.000000
# 5 0.000000 0.000000 0.000000 0.000000 0.010139 0.000000
# 6 0.000000 0.000000 0.000000 0.000000 0.000000 0.035423
#
#
# Mechanical properties :
#
#
# Convention : Reuss Voigt Hill
#
# Bulk Modulus (GPa) = 38.43447 42.52297 40.47872
# Shear Modulus (GPa) = 22.86660 40.86341 31.86500
#
# Velocity S-wave (km/s) = 3.46413 4.63085 4.08932
# Velocity P-wave (km/s) = 6.01419 7.13504 6.59846
#
# Compressibility (1/GPa) = 0.02601831
#
# Stress axis : x y z
#
# Youngs Moduli (GPa) = 54.49675 21.75639 56.94423
#
# Poissons Ratio (x) = 0.26652 -0.05557
# Poissons Ratio (y) = 0.66760 0.94832
# Poissons Ratio (z) = -0.05318 0.36232
#
# Static dielectric constant tensor:
#      x y z
#    x 1.663960 0.000000 0.000000 
#    y 0.000000 1.639280 0.000000 
#    z 0.000000 0.000000 1.643890 
# 
# From -- ./inp_files/29529.got.cif
#   From: 2010.05.17/outbox.cif.g08.bks.cpg/sg51_15_cif.got.tgz:29529.got - 2010.06.03 11:52:47.
