data_PCOD9406653
_publ_section_title
;
Structure prediction by ZEFSAII (Michael W. Deem and Ramdas Pophale) SiO2 
 PCOD9406653
Probable space group: P M M A
;
_chemical_formula_sum "Si O2"
_cell_formula_units_Z 32
_cell_length_a 16.929970
_cell_length_b 12.536221
_cell_length_c 8.211783
_cell_angle_alpha 90.000000
_cell_angle_beta 90.000000
_cell_angle_gamma 90.000000
_cell_volume 1742.851131
_symmetry_space_group_name_H-M "P M M A"
_symmetry_group_IT_number 51
_symmetry_cell_setting 'orthorhombic'
loop_
_space_group_symop_operation_xyz
x,y,z
1/2-x,-y,z
1/2+x,-y,-z
-x,y,-z
-x,-y,-z
1/2+x,y,-z
1/2-x,y,z
x,-y,z
loop_
_atom_site_type_symbol
_atom_site_label
_atom_site_fract_x
_atom_site_fract_y
_atom_site_fract_z
Si Si1 0.841879 0.500000 0.722548
Si Si2 0.842841 0.266054 0.713582
Si Si3 0.425905 0.298040 0.612022
Si Si4 0.518757 0.878512 0.809900
Si Si5 0.341797 0.500000 0.675088
O O1 0.750000 0.500000 0.770727
O O2 0.873015 0.383796 0.772736
O O3 0.843230 0.500000 0.524356
O O4 0.750000 0.257832 0.744691
O O5 0.860004 0.264112 0.519539
O O6 0.895089 0.172983 0.787148
O O7 0.500000 0.336947 0.500000
O O8 0.459431 0.199218 0.713111
O O9 0.389397 0.393189 0.718472
O O10 0.515144 0.000000 0.748884
O O11 0.500000 0.878101 0.000000
O O12 0.250000 0.500000 0.725791
#
# Coordination Sequence:
#
# PCOD9406653 Si02
#       5
#     4   8   8   8   4
#     4   7  12  25  47  76 104 125 148 193 256 305
#     4   9  17  32  56  81 103 129 167 212 253 298
#     4   9  17  30  53  79 101 129 166 207 252 302
#     4  10  22  38  51  67 100 143 178 209 252 303
#     4   9  15  27  49  78 108 129 154 199 253 305
#
# _framework density 18.360719
#
# number of rings (size 3 to 8) (size 9 to 14) (size 15 to 20)
#    0.000    3.000    0.000    2.625    0.000    8.000 
#    0.000    5.000    0.000    6.750    0.000    0.000 
#    0.000    0.000    0.000    0.000    0.000    0.000 
#
# Total GULP energy -178176.974342 kJ/mol
# GULP energy per Si atom -5568.030448 kJ/mol
# Density = 1.831893 g / cm^3
# Si number density = 18.360719 Si / 1000 Ang^3
#
#
#
# Elastic Constant Matrix: (Units=GPa)
#
#
# Indices 1 2 3 4 5 6 
#
# 1 80.9205 88.7999 16.1596 0.0000 0.0000 0.0000
# 2 88.7999 178.6591 31.8515 0.0000 0.0000 0.0000
# 3 16.1596 31.8515 18.0904 0.0000 0.0000 0.0000
# 4 0.0000 0.0000 0.0000 60.4785 0.0000 0.0000
# 5 0.0000 0.0000 0.0000 0.0000 7.6945 0.0000
# 6 0.0000 0.0000 0.0000 0.0000 0.0000 22.3442
#
#
#
# Elastic Compliance Matrix: (Units=1/GPa)
#
#
# Indices 1 2 3 4 5 6 
#
# 1 0.027192 -0.013387 -0.000719 0.000000 0.000000 0.000000
# 2 -0.013387 0.014749 -0.014010 0.000000 0.000000 0.000000
# 3 -0.000719 -0.014010 0.080587 0.000000 0.000000 0.000000
# 4 0.000000 0.000000 0.000000 0.016535 0.000000 0.000000
# 5 0.000000 0.000000 0.000000 0.000000 0.129964 0.000000
# 6 0.000000 0.000000 0.000000 0.000000 0.000000 0.044754
#
#
# Mechanical properties :
#
#
# Convention : Reuss Voigt Hill
#
# Bulk Modulus (GPa) = 15.08393 61.25469 38.16931
# Shear Modulus (GPa) = 12.75147 27.49404 20.12276
#
# Velocity S-wave (km/s) = 2.63819 3.87387 3.31413
# Velocity P-wave (km/s) = 4.18488 7.31050 5.95637
#
# Compressibility (1/GPa) = 0.06629570
#
# Stress axis : x y z
#
# Youngs Moduli (GPa) = 36.77511 67.80168 12.40898
#
# Poissons Ratio (x) = 0.90768 0.00892
# Poissons Ratio (y) = 0.49232 0.17385
# Poissons Ratio (z) = 0.02645 0.94988
#
# Static dielectric constant tensor:
#      x y z
#    x 1.642730 0.000000 0.000000 
#    y 0.000000 1.682790 0.000000 
#    z 0.000000 0.000000 1.634480 
# 
# From -- ./inp_files/9200.got.cif
#   From: 2010.05.17/outbox.cif.g08.bks.cpg/sg51_5_cif.got.tgz:9200.got - 2010.06.03 11:52:47.
