data_PCOD9406531
_publ_section_title
;
Structure prediction by ZEFSAII (Michael W. Deem and Ramdas Pophale) SiO2 
 PCOD9406531
Probable space group: P M M A
;
_chemical_formula_sum "Si O2"
_cell_formula_units_Z 56
_cell_length_a 16.363026
_cell_length_b 8.566027
_cell_length_c 19.966041
_cell_angle_alpha 90.000000
_cell_angle_beta 90.000000
_cell_angle_gamma 90.000000
_cell_volume 2798.562549
_symmetry_space_group_name_H-M "P M M A"
_symmetry_group_IT_number 51
_symmetry_cell_setting 'orthorhombic'
loop_
_space_group_symop_operation_xyz
x,y,z
1/2-x,-y,z
1/2+x,-y,-z
-x,y,-z
-x,-y,-z
1/2+x,y,-z
1/2-x,y,z
x,-y,z
loop_
_atom_site_type_symbol
_atom_site_label
_atom_site_fract_x
_atom_site_fract_y
_atom_site_fract_z
Si Si1 0.496806 0.311250 0.921960
Si Si2 0.583932 0.687649 0.289756
Si Si3 0.344677 0.690224 0.569212
Si Si4 0.904209 0.816373 0.716433
Si Si5 0.659098 0.813076 0.158419
Si Si6 0.338576 0.312500 0.151498
Si Si7 0.348906 0.319277 0.422440
O O1 0.494831 0.500000 0.916807
O O2 0.415426 0.249194 0.886300
O O3 0.580296 0.254547 0.886317
O O4 0.500000 0.268993 0.000000
O O5 0.583429 0.500000 0.287992
O O6 0.607166 0.739341 0.364885
O O7 0.494956 0.751514 0.272392
O O8 0.645189 0.749567 0.233517
O O9 0.250000 0.738058 0.576230
O O10 0.345411 0.500000 0.567477
O O11 0.376036 0.739122 0.495901
O O12 0.847583 0.732996 0.770914
O O13 0.878799 0.776119 0.640887
O O14 0.901502 0.000000 0.727627
O O15 0.750000 0.765810 0.134798
O O16 0.655189 0.000000 0.159756
O O17 0.250000 0.256337 0.126070
O O18 0.339252 0.500000 0.145970
O O19 0.250000 0.319084 0.423943
O O20 0.375875 0.500000 0.414051
#
# Coordination Sequence:
#
# PCOD9406531 Si02
#       7
#     8   8   8   8   8   8   8
#     4  10  22  41  67  98 128 160 202 250 297 353
#     4  11  21  36  60  86 114 152 203 258 306 353
#     4   8  16  32  55  82 108 140 191 251 305 357
#     4  12  24  36  53  81 118 156 198 249 303 361
#     4  11  24  41  62  92 130 169 205 245 300 364
#     4  10  21  39  63  90 121 159 202 249 301 356
#     4   9  18  35  57  79 107 146 194 248 302 358
#
# _framework density 20.010273000000002
#
# number of rings (size 3 to 8) (size 9 to 14) (size 15 to 20)
#    0.000    1.857    1.429    3.857    0.000    5.429 
#    0.000    5.714    0.000    1.714    0.000    0.000 
#    0.000    0.000    0.000    0.000    0.000    0.000 
#
# Total GULP energy -312756.764508 kJ/mol
# GULP energy per Si atom -5584.942223 kJ/mol
# Density = 1.996473 g / cm^3
# Si number density = 20.010273 Si / 1000 Ang^3
#
#
#
# Elastic Constant Matrix: (Units=GPa)
#
#
# Indices 1 2 3 4 5 6 
#
# 1 142.2176 28.8000 71.4876 0.0000 0.0000 0.0000
# 2 28.8000 24.8310 25.7005 0.0000 0.0000 0.0000
# 3 71.4876 25.7005 137.7101 0.0000 0.0000 0.0000
# 4 0.0000 0.0000 0.0000 -9.6509 0.0000 0.0000
# 5 0.0000 0.0000 0.0000 0.0000 20.9629 0.0000
# 6 0.0000 0.0000 0.0000 0.0000 0.0000 -9.3194
#
#
#
# Elastic Compliance Matrix: (Units=1/GPa)
#
#
# Indices 1 2 3 4 5 6 
#
# 1 0.010732 -0.008281 -0.004026 0.000000 0.000000 0.000000
# 2 -0.008281 0.056303 -0.006209 0.000000 0.000000 0.000000
# 3 -0.004026 -0.006209 0.010510 0.000000 0.000000 0.000000
# 4 0.000000 0.000000 0.000000 -0.103617 0.000000 0.000000
# 5 0.000000 0.000000 0.000000 0.000000 0.047703 0.000000
# 6 0.000000 0.000000 0.000000 0.000000 0.000000 -0.107303
#
#
# Mechanical properties :
#
#
# Convention : Reuss Voigt Hill
#
# Bulk Modulus (GPa) = 24.68266 61.85942 43.27104
# Shear Modulus (GPa) = -142.30498 12.31654 -64.99422
#
# Velocity S-wave (km/s) = -8.44218 2.48364 -5.70534
# Velocity P-wave (km/s) = 9.09205 6.26144 4.66153
#
# Compressibility (1/GPa) = 0.04051427
#
# Stress axis : x y z
#
# Youngs Moduli (GPa) = 93.17954 17.76105 95.14536
#
# Poissons Ratio (x) = 0.14707 0.38303
# Poissons Ratio (y) = 0.77159 0.59076
# Poissons Ratio (z) = 0.37512 0.11028
#
# Static dielectric constant tensor:
#      x y z
#    x 1.710500 0.000000 0.000000 
#    y 0.000000 1.674210 0.000000 
#    z 0.000000 0.000000 1.700710 
# 
# From -- ./inp_files/33488.got.cif
#   From: 2010.05.17/outbox.cif.g08.bks.cpg/sg51_17_cif.got.tgz:33488.got - 2010.06.03 11:52:47.
