data_PCOD9406700
_publ_section_title
;
Structure prediction by ZEFSAII (Michael W. Deem and Ramdas Pophale) SiO2 
 PCOD9406700
Probable space group: P M M A
;
_chemical_formula_sum "Si O2"
_cell_formula_units_Z 56
_cell_length_a 16.192604
_cell_length_b 7.707962
_cell_length_c 21.516113
_cell_angle_alpha 90.000000
_cell_angle_beta 90.000000
_cell_angle_gamma 90.000000
_cell_volume 2685.468586
_symmetry_space_group_name_H-M "P M M A"
_symmetry_group_IT_number 51
_symmetry_cell_setting 'orthorhombic'
loop_
_space_group_symop_operation_xyz
x,y,z
1/2-x,-y,z
1/2+x,-y,-z
-x,y,-z
-x,-y,-z
1/2+x,y,-z
1/2-x,y,z
x,-y,z
loop_
_atom_site_type_symbol
_atom_site_label
_atom_site_fract_x
_atom_site_fract_y
_atom_site_fract_z
Si Si1 0.595980 0.699992 0.812591
Si Si2 0.657339 0.296847 0.384119
Si Si3 0.750000 0.288017 0.733766
Si Si4 0.001513 0.287510 0.928951
Si Si5 0.659071 0.709916 0.149368
Si Si6 0.939802 0.800757 0.264810
Si Si7 0.750000 0.206129 0.588356
Si Si8 0.591696 0.802705 0.513302
O O1 0.618263 0.500000 0.824744
O O2 0.670615 0.774663 0.772673
O O3 0.567917 0.773861 0.879560
O O4 0.515294 0.705170 0.768699
O O5 0.750000 0.249547 0.362759
O O6 0.657593 0.500000 0.400204
O O7 0.590914 0.267522 0.330413
O O8 0.634315 0.196163 0.446055
O O9 0.750000 0.500000 0.731563
O O10 0.750000 0.230380 0.662307
O O11 0.997665 0.500000 0.929188
O O12 0.088264 0.236836 0.898196
O O13 0.000000 0.229423 0.000000
O O14 0.750000 0.762900 0.129881
O O15 0.656661 0.500000 0.153990
O O16 0.635452 0.782048 0.216560
O O17 0.964185 0.000000 0.271125
O O18 0.836601 0.274613 0.558362
O O19 0.750000 0.000000 0.573727
O O20 0.500000 0.723722 0.500000
O O21 0.575689 0.000000 0.536129
#
# Coordination Sequence:
#
# PCOD9406700 Si02
#       8
#     8   8   4   8   8   8   4   8
#     4   9  19  37  56  80 114 148 186 231 280 331
#     4  11  23  38  57  82 111 142 178 223 280 338
#     4  10  22  38  58  82 112 151 190 235 280 331
#     4   8  14  28  51  78 111 146 179 221 273 327
#     4   9  17  31  50  75 108 142 179 221 269 326
#     4  11  22  34  54  80 107 142 182 225 276 330
#     4  10  22  40  60  84 118 151 186 241 288 333
#     4  10  22  40  60  83 111 144 185 231 283 338
#
# _framework density 20.852969999999999
#
# number of rings (size 3 to 8) (size 9 to 14) (size 15 to 20)
#    0.000    2.286    0.714    3.000    2.000    4.286 
#    1.286    0.000    0.000    6.857    0.000    0.000 
#    0.000    0.000    0.000    0.000    0.000    0.000 
#
# Total GULP energy -312320.652870 kJ/mol
# GULP energy per Si atom -5577.154516 kJ/mol
# Density = 2.080551 g / cm^3
# Si number density = 20.852970 Si / 1000 Ang^3
#
#
#
# Elastic Constant Matrix: (Units=GPa)
#
#
# Indices 1 2 3 4 5 6 
#
# 1 130.1054 -0.8827 69.9033 0.0000 0.0000 0.0000
# 2 -0.8827 40.5456 -1.5463 0.0000 0.0000 0.0000
# 3 69.9033 -1.5463 155.3348 0.0000 0.0000 0.0000
# 4 0.0000 0.0000 0.0000 24.2885 0.0000 0.0000
# 5 0.0000 0.0000 0.0000 0.0000 20.5386 0.0000
# 6 0.0000 0.0000 0.0000 0.0000 0.0000 17.0109
#
#
#
# Elastic Compliance Matrix: (Units=1/GPa)
#
#
# Indices 1 2 3 4 5 6 
#
# 1 0.010137 0.000047 -0.004561 0.000000 0.000000 0.000000
# 2 0.000047 0.024673 0.000225 0.000000 0.000000 0.000000
# 3 -0.004561 0.000225 0.008493 0.000000 0.000000 0.000000
# 4 0.000000 0.000000 0.000000 0.041172 0.000000 0.000000
# 5 0.000000 0.000000 0.000000 0.000000 0.048689 0.000000
# 6 0.000000 0.000000 0.000000 0.000000 0.000000 0.058786
#
#
# Mechanical properties :
#
#
# Convention : Reuss Voigt Hill
#
# Bulk Modulus (GPa) = 28.79956 51.21493 40.00725
# Shear Modulus (GPa) = 23.57334 29.60169 26.58752
#
# Velocity S-wave (km/s) = 3.36587 3.77177 3.57459
# Velocity P-wave (km/s) = 5.38017 6.60164 6.02195
#
# Compressibility (1/GPa) = 0.03472275
#
# Stress axis : x y z
#
# Youngs Moduli (GPa) = 98.64688 40.52988 117.74871
#
# Poissons Ratio (x) = -0.00189 0.53710
# Poissons Ratio (y) = -0.00461 -0.02644
# Poissons Ratio (z) = 0.44997 -0.00910
#
# Static dielectric constant tensor:
#      x y z
#    x 1.772170 0.000000 0.000000 
#    y 0.000000 1.789440 0.000000 
#    z 0.000000 0.000000 1.706490 
# 
# From -- ./inp_files/33531.got.cif
#   From: 2010.05.17/outbox.cif.g08.bks.cpg/sg51_17_cif.got.tgz:33531.got - 2010.06.03 11:52:47.
