data_PCOD9406958
_publ_section_title
;
Structure prediction by ZEFSAII (Michael W. Deem and Ramdas Pophale) SiO2 
 PCOD9406958
Probable space group: P M M A
;
_chemical_formula_sum "Si O2"
_cell_formula_units_Z 64
_cell_length_a 31.055537
_cell_length_b 8.538208
_cell_length_c 14.456914
_cell_angle_alpha 90.000000
_cell_angle_beta 90.000000
_cell_angle_gamma 90.000000
_cell_volume 3833.375575
_symmetry_space_group_name_H-M "P M M A"
_symmetry_group_IT_number 51
_symmetry_cell_setting 'orthorhombic'
loop_
_space_group_symop_operation_xyz
x,y,z
1/2-x,-y,z
1/2+x,-y,-z
-x,y,-z
-x,-y,-z
1/2+x,y,-z
1/2-x,y,z
x,-y,z
loop_
_atom_site_type_symbol
_atom_site_label
_atom_site_fract_x
_atom_site_fract_y
_atom_site_fract_z
Si Si1 0.085168 0.808633 0.679423
Si Si2 0.076633 0.185835 0.281421
Si Si3 0.124880 0.315534 0.117834
Si Si4 0.491142 0.685415 0.808821
Si Si5 0.147315 0.820606 0.827178
Si Si6 0.549461 0.190468 0.516575
Si Si7 0.064566 0.179503 0.965253
Si Si8 0.201046 0.189894 0.993649
O O1 0.046194 0.731486 0.736078
O O2 0.129128 0.756136 0.730529
O O3 0.078209 0.769483 0.572404
O O4 0.081961 0.000000 0.689111
O O5 0.114668 0.259904 0.221238
O O6 0.068784 0.244964 0.385904
O O7 0.032949 0.224924 0.226383
O O8 0.082889 0.000000 0.284188
O O9 0.129039 0.500000 0.114587
O O10 0.084277 0.266011 0.053414
O O11 0.167105 0.241089 0.071308
O O12 0.498687 0.500000 0.809227
O O13 0.473825 0.741082 0.908543
O O14 0.104873 0.823162 0.892914
O O15 0.183491 0.749363 0.893913
O O16 0.160429 0.000000 0.808613
O O17 0.500000 0.243388 0.500000
O O18 0.547568 0.000000 0.521338
O O19 0.054342 0.000000 0.988568
O O20 0.250000 0.238928 0.010775
O O21 0.199692 0.000000 0.989957
#
# Coordination Sequence:
#
# PCOD9406958 Si02
#       8
#     8   8   8   8   8   8   8   8
#     4   9  15  28  47  66  92 128 167 207 248 289
#     4  11  21  34  49  64  90 130 175 214 248 288
#     4  11  22  35  49  71 101 125 156 203 252 299
#     4  11  20  29  43  68  96 125 163 207 253 291
#     4   7  12  23  44  71  94 117 149 190 233 278
#     4   9  16  28  48  70  88 120 178 227 249 274
#     4   9  17  32  50  66  89 127 168 198 236 290
#     4   9  17  32  54  78 102 129 160 189 227 294
#
# _framework density 16.695468999999999
#
# number of rings (size 3 to 8) (size 9 to 14) (size 15 to 20)
#    0.000    2.500    1.250    4.500    0.000    0.750 
#    0.000    4.375    0.000    0.000    0.000    0.875 
#    0.000    5.000    0.000    0.000    0.000    0.625 
#
# Total GULP energy -356707.529270 kJ/mol
# GULP energy per Si atom -5573.555145 kJ/mol
# Density = 1.665747 g / cm^3
# Si number density = 16.695469 Si / 1000 Ang^3
#
#
#
# Elastic Constant Matrix: (Units=GPa)
#
#
# Indices 1 2 3 4 5 6 
#
# 1 70.4917 -0.8147 57.7285 0.0000 0.0000 0.0000
# 2 -0.8147 22.7607 12.1915 0.0000 0.0000 0.0000
# 3 57.7285 12.1915 135.1415 0.0000 0.0000 0.0000
# 4 0.0000 0.0000 0.0000 3.8864 0.0000 0.0000
# 5 0.0000 0.0000 0.0000 0.0000 16.4596 0.0000
# 6 0.0000 0.0000 0.0000 0.0000 0.0000 -1.4331
#
#
#
# Elastic Compliance Matrix: (Units=1/GPa)
#
#
# Indices 1 2 3 4 5 6 
#
# 1 0.022646 0.006297 -0.010242 0.000000 0.000000 0.000000
# 2 0.006297 0.047917 -0.007012 0.000000 0.000000 0.000000
# 3 -0.010242 -0.007012 0.012407 0.000000 0.000000 0.000000
# 4 0.000000 0.000000 0.000000 0.257310 0.000000 0.000000
# 5 0.000000 0.000000 0.000000 0.000000 0.060755 0.000000
# 6 0.000000 0.000000 0.000000 0.000000 0.000000 -0.697765
#
#
# Mechanical properties :
#
#
# Convention : Reuss Voigt Hill
#
# Bulk Modulus (GPa) = 16.37867 40.73381 28.55624
# Shear Modulus (GPa) = -19.64923 14.40181 -2.62371
#
# Velocity S-wave (km/s) = -3.43435 2.94022 -1.25496
# Velocity P-wave (km/s) = 2.42792 5.99814 3.87833
#
# Compressibility (1/GPa) = 0.06105500
#
# Stress axis : x y z
#
# Youngs Moduli (GPa) = 44.15725 20.86950 80.59776
#
# Poissons Ratio (x) = -0.13141 0.82547
# Poissons Ratio (y) = -0.27804 0.56518
# Poissons Ratio (z) = 0.45225 0.14635
#
# Static dielectric constant tensor:
#      x y z
#    x 1.567520 0.000000 0.000000 
#    y 0.000000 1.558510 0.000000 
#    z 0.000000 0.000000 1.600500 
# 
# From -- ./inp_files/26732.got.cif
#   From: 2010.05.17/outbox.cif.g08.bks.cpg/sg51_14_cif.got.tgz:26732.got - 2010.06.03 11:52:47.
