data_PCOD9406482
_publ_section_title
;
Structure prediction by ZEFSAII (Michael W. Deem and Ramdas Pophale) SiO2 
 PCOD9406482
Probable space group: P M M A
;
_chemical_formula_sum "Si O2"
_cell_formula_units_Z 48
_cell_length_a 15.603373
_cell_length_b 8.917625
_cell_length_c 17.661116
_cell_angle_alpha 90.000000
_cell_angle_beta 90.000000
_cell_angle_gamma 90.000000
_cell_volume 2457.456501
_symmetry_space_group_name_H-M "P M M A"
_symmetry_group_IT_number 51
_symmetry_cell_setting 'orthorhombic'
loop_
_space_group_symop_operation_xyz
x,y,z
1/2-x,-y,z
1/2+x,-y,-z
-x,y,-z
-x,-y,-z
1/2+x,y,-z
1/2-x,y,z
x,-y,z
loop_
_atom_site_type_symbol
_atom_site_label
_atom_site_fract_x
_atom_site_fract_y
_atom_site_fract_z
Si Si1 0.085090 0.168542 0.639124
Si Si2 0.250000 0.818291 0.907499
Si Si3 0.399034 0.320894 0.184095
Si Si4 0.750000 0.818958 0.916140
Si Si5 0.588782 0.817267 0.193671
Si Si6 0.151678 0.667961 0.494752
Si Si7 0.881110 0.830964 0.660524
O O1 0.118481 0.223179 0.720626
O O2 0.100954 0.265244 0.565158
O O3 0.983677 0.161200 0.652455
O O4 0.118333 0.000000 0.624909
O O5 0.336835 0.771423 0.864386
O O6 0.250000 0.000000 0.903998
O O7 0.250000 0.776541 0.995353
O O8 0.400492 0.500000 0.177368
O O9 0.334279 0.247495 0.124203
O O10 0.495870 0.255096 0.177446
O O11 0.364345 0.272350 0.267136
O O12 0.750000 0.000000 0.909542
O O13 0.579046 0.000000 0.192732
O O14 0.250000 0.662637 0.520098
O O15 0.121876 0.500000 0.476348
O O16 0.148898 0.765475 0.418972
O O17 0.849781 0.000000 0.673777
#
# Coordination Sequence:
#
# PCOD9406482 Si02
#       7
#     8   4   8   4   8   8   8
#     4   9  19  35  58  83 110 146 194 243 289 341
#     4   9  20  39  67  96 121 156 203 253 298 349
#     4  11  23  40  62  90 125 162 198 245 306 367
#     4  11  23  41  65  92 121 158 203 249 300 359
#     4   9  19  39  65  93 122 157 204 253 299 353
#     4  11  24  36  49  78 119 156 192 236 290 348
#     4  10  21  39  61  83 108 147 199 248 292 345
#
# _framework density 19.532389999999999
#
# number of rings (size 3 to 8) (size 9 to 14) (size 15 to 20)
#    0.000    2.000    0.000    4.250    2.333    7.333 
#    0.000    5.417    0.000    0.000    0.000    0.000 
#    0.000    0.000    0.000    0.000    0.000    0.000 
#
# Total GULP energy -267963.213511 kJ/mol
# GULP energy per Si atom -5582.566948 kJ/mol
# Density = 1.948793 g / cm^3
# Si number density = 19.532390 Si / 1000 Ang^3
#
#
#
# Elastic Constant Matrix: (Units=GPa)
#
#
# Indices 1 2 3 4 5 6 
#
# 1 84.2912 33.7770 62.4745 0.0000 0.0000 0.0000
# 2 33.7770 92.3150 46.9179 0.0000 0.0000 0.0000
# 3 62.4745 46.9179 135.2732 0.0000 0.0000 0.0000
# 4 0.0000 0.0000 0.0000 2.5203 0.0000 0.0000
# 5 0.0000 0.0000 0.0000 0.0000 38.1472 0.0000
# 6 0.0000 0.0000 0.0000 0.0000 0.0000 34.0277
#
#
#
# Elastic Compliance Matrix: (Units=1/GPa)
#
#
# Indices 1 2 3 4 5 6 
#
# 1 0.018688 -0.002976 -0.007599 0.000000 0.000000 0.000000
# 2 -0.002976 0.013624 -0.003351 0.000000 0.000000 0.000000
# 3 -0.007599 -0.003351 0.012064 0.000000 0.000000 0.000000
# 4 0.000000 0.000000 0.000000 0.396775 0.000000 0.000000
# 5 0.000000 0.000000 0.000000 0.000000 0.026214 0.000000
# 6 0.000000 0.000000 0.000000 0.000000 0.000000 0.029388
#
#
# Mechanical properties :
#
#
# Convention : Reuss Voigt Hill
#
# Bulk Modulus (GPa) = 60.51323 66.46870 63.49096
# Shear Modulus (GPa) = 9.43193 26.18638 17.80916
#
# Velocity S-wave (km/s) = 2.19985 3.66548 3.02284
# Velocity P-wave (km/s) = 6.12378 7.21236 6.69025
#
# Compressibility (1/GPa) = 0.01652531
#
# Stress axis : x y z
#
# Youngs Moduli (GPa) = 53.50994 73.39738 82.88998
#
# Poissons Ratio (x) = 0.21841 0.62986
# Poissons Ratio (y) = 0.15923 0.27778
# Poissons Ratio (z) = 0.40661 0.24597
#
# Static dielectric constant tensor:
#      x y z
#    x 1.695970 0.000000 0.000000 
#    y 0.000000 1.683580 0.000000 
#    z 0.000000 0.000000 1.668160 
# 
# From -- ./inp_files/29641.got.cif
#   From: 2010.05.17/outbox.cif.g08.bks.cpg/sg51_15_cif.got.tgz:29641.got - 2010.06.03 11:52:47.
