data_PCOD9406672
_publ_section_title
;
Structure prediction by ZEFSAII (Michael W. Deem and Ramdas Pophale) SiO2 
 PCOD9406672
Probable space group: P M M A
;
_chemical_formula_sum "Si O2"
_cell_formula_units_Z 64
_cell_length_a 24.761502
_cell_length_b 13.155734
_cell_length_c 9.912530
_cell_angle_alpha 90.000000
_cell_angle_beta 90.000000
_cell_angle_gamma 90.000000
_cell_volume 3229.063483
_symmetry_space_group_name_H-M "P M M A"
_symmetry_group_IT_number 51
_symmetry_cell_setting 'orthorhombic'
loop_
_space_group_symop_operation_xyz
x,y,z
1/2-x,-y,z
1/2+x,-y,-z
-x,y,-z
-x,-y,-z
1/2+x,y,-z
1/2-x,y,z
x,-y,z
loop_
_atom_site_type_symbol
_atom_site_label
_atom_site_fract_x
_atom_site_fract_y
_atom_site_fract_z
Si Si1 0.311377 0.829227 0.057265
Si Si2 0.467272 0.689350 0.136300
Si Si3 0.413557 0.887136 0.563596
Si Si4 0.909778 0.112803 0.755937
Si Si5 0.652432 0.610937 0.281189
Si Si6 0.960675 0.670270 0.379523
Si Si7 0.810714 0.834738 0.262100
Si Si8 0.644610 0.389491 0.961930
O O1 0.250000 0.859417 0.086075
O O2 0.354716 0.877575 0.157568
O O3 0.318660 0.707211 0.071501
O O4 0.322154 0.850695 0.898003
O O5 0.447833 0.798260 0.191094
O O6 0.507420 0.642949 0.244895
O O7 0.412896 0.626748 0.109155
O O8 0.500000 0.702217 0.000000
O O9 0.401373 0.873401 0.404430
O O10 0.449973 0.792358 0.610368
O O11 0.358220 0.881298 0.648783
O O12 0.437691 0.000000 0.582197
O O13 0.932338 0.000000 0.777013
O O14 0.677624 0.500000 0.306284
O O15 0.598936 0.623379 0.372032
O O16 0.686955 0.713367 0.293373
O O17 0.635346 0.612889 0.123374
O O18 0.000000 0.640274 0.500000
O O19 0.750000 0.871583 0.289246
O O20 0.667668 0.500000 0.927900
#
# Coordination Sequence:
#
# PCOD9406672 Si02
#       8
#     8   8   8   8   8   8   8   8
#     4   9  19  36  57  82 110 137 172 222 271 313
#     4  11  21  36  55  80 110 142 178 218 266 316
#     4  10  22  38  56  78 105 141 183 220 260 319
#     4  10  22  38  55  79 107 139 180 221 265 318
#     4   9  18  33  54  81 109 139 178 218 259 312
#     4  11  21  36  55  78 108 144 178 218 265 309
#     4   9  19  36  57  81 109 140 174 218 269 316
#     4   9  18  33  55  81 108 140 178 217 258 313
#
# _framework density 19.819987999999999
#
# number of rings (size 3 to 8) (size 9 to 14) (size 15 to 20)
#    0.000    2.250    2.500    0.000    1.750    4.000 
#    0.000    5.000    0.000    0.000    0.000    3.500 
#    0.000    0.000    0.000    0.000    0.000    0.000 
#
# Total GULP energy -357102.439463 kJ/mol
# GULP energy per Si atom -5579.725617 kJ/mol
# Density = 1.977488 g / cm^3
# Si number density = 19.819988 Si / 1000 Ang^3
#
#
#
# Elastic Constant Matrix: (Units=GPa)
#
#
# Indices 1 2 3 4 5 6 
#
# 1 57.5364 -19.8054 23.7497 0.0000 0.0000 0.0000
# 2 -19.8054 71.6444 2.8036 0.0000 0.0000 0.0000
# 3 23.7497 2.8036 66.2922 0.0000 0.0000 0.0000
# 4 0.0000 0.0000 0.0000 30.4582 0.0000 0.0000
# 5 0.0000 0.0000 0.0000 0.0000 25.2288 0.0000
# 6 0.0000 0.0000 0.0000 0.0000 0.0000 -7.6646
#
#
#
# Elastic Compliance Matrix: (Units=1/GPa)
#
#
# Indices 1 2 3 4 5 6 
#
# 1 0.023270 0.006770 -0.008623 0.000000 0.000000 0.000000
# 2 0.006770 0.015951 -0.003100 0.000000 0.000000 0.000000
# 3 -0.008623 -0.003100 0.018305 0.000000 0.000000 0.000000
# 4 0.000000 0.000000 0.000000 0.032832 0.000000 0.000000
# 5 0.000000 0.000000 0.000000 0.000000 0.039637 0.000000
# 6 0.000000 0.000000 0.000000 0.000000 0.000000 -0.130470
#
#
# Mechanical properties :
#
#
# Convention : Reuss Voigt Hill
#
# Bulk Modulus (GPa) = 20.99947 23.21876 22.10912
# Shear Modulus (GPa) = 197.59673 22.18614 109.89143
#
# Velocity S-wave (km/s) = 9.99560 3.34935 7.45420
# Velocity P-wave (km/s) = 11.99309 5.16699 9.23396
#
# Compressibility (1/GPa) = 0.04762025
#
# Stress axis : x y z
#
# Youngs Moduli (GPa) = 42.97338 62.69309 54.62944
#
# Poissons Ratio (x) = -0.42445 0.47107
# Poissons Ratio (y) = -0.29094 0.16936
# Poissons Ratio (z) = 0.37056 0.19435
#
# Static dielectric constant tensor:
#      x y z
#    x 1.659740 0.000000 0.000000 
#    y 0.000000 1.738830 0.000000 
#    z 0.000000 0.000000 1.620440 
# 
# From -- ./inp_files/11917.got.cif
#   From: 2010.05.17/outbox.cif.g08.bks.cpg/sg51_6_cif.got.tgz:11917.got - 2010.06.03 11:52:47.
