data_PCOD9406019
_publ_section_title
;
Structure prediction by ZEFSAII (Michael W. Deem and Ramdas Pophale) SiO2 
 PCOD9406019
Probable space group: P M M A
;
_chemical_formula_sum "Si O2"
_cell_formula_units_Z 48
_cell_length_a 9.511107
_cell_length_b 8.824940
_cell_length_c 31.658213
_cell_angle_alpha 90.000000
_cell_angle_beta 90.000000
_cell_angle_gamma 90.000000
_cell_volume 2657.230481
_symmetry_space_group_name_H-M "P M M A"
_symmetry_group_IT_number 51
_symmetry_cell_setting 'orthorhombic'
loop_
_space_group_symop_operation_xyz
x,y,z
1/2-x,-y,z
1/2+x,-y,-z
-x,y,-z
-x,-y,-z
1/2+x,y,-z
1/2-x,y,z
x,-y,z
loop_
_atom_site_type_symbol
_atom_site_label
_atom_site_fract_x
_atom_site_fract_y
_atom_site_fract_z
Si Si1 0.914644 0.818897 0.713992
Si Si2 0.915015 0.818998 0.868779
Si Si3 0.585474 0.682077 0.623167
Si Si4 0.586201 0.318466 0.208699
Si Si5 0.088045 0.685007 0.540933
Si Si6 0.416187 0.319146 0.041492
O O1 0.750000 0.779002 0.721214
O O2 0.952360 0.759221 0.667411
O O3 0.009537 0.745766 0.749959
O O4 0.926651 0.000000 0.715553
O O5 0.750000 0.777069 0.863121
O O6 0.958461 0.762617 0.915264
O O7 0.007282 0.744744 0.832377
O O8 0.925287 0.000000 0.866248
O O9 0.750000 0.714861 0.614114
O O10 0.572690 0.500000 0.627857
O O11 0.489421 0.731038 0.584041
O O12 0.750000 0.274225 0.208273
O O13 0.577549 0.500000 0.208903
O O14 0.250000 0.734013 0.539211
O O15 0.087745 0.500000 0.540542
O O16 0.000000 0.734372 0.500000
O O17 0.250000 0.293103 0.035132
O O18 0.437886 0.500000 0.046716
O O19 0.500000 0.269338 0.000000
#
# Coordination Sequence:
#
# PCOD9406019 Si02
#       6
#     8   8   8   8   8   8
#     4  10  21  37  57  80 106 138 175 214 260 316
#     4  10  21  37  57  81 109 142 180 219 262 316
#     4   9  17  30  49  73 101 133 169 209 254 305
#     4  11  24  39  56  80 108 138 175 219 265 313
#     4   9  16  26  43  69 100 132 167 210 258 305
#     4   9  18  33  53  77 106 141 180 221 263 308
#
# _framework density 18.063918999999999
#
# number of rings (size 3 to 8) (size 9 to 14) (size 15 to 20)
#    0.000    2.333    0.000    2.500    0.000    9.000 
#    0.000    3.333    0.000    0.500    0.000    0.000 
#    0.000    0.000    0.000    0.000    0.000    0.000 
#
# Total GULP energy -267981.733115 kJ/mol
# GULP energy per Si atom -5582.952773 kJ/mol
# Density = 1.802280 g / cm^3
# Si number density = 18.063919 Si / 1000 Ang^3
#
#
#
# Elastic Constant Matrix: (Units=GPa)
#
#
# Indices 1 2 3 4 5 6 
#
# 1 121.7641 46.5747 127.2567 0.0000 0.0000 0.0000
# 2 46.5747 28.6924 55.4433 0.0000 0.0000 0.0000
# 3 127.2567 55.4433 200.9251 0.0000 0.0000 0.0000
# 4 0.0000 0.0000 0.0000 -41.5786 0.0000 0.0000
# 5 0.0000 0.0000 0.0000 0.0000 38.8298 0.0000
# 6 0.0000 0.0000 0.0000 0.0000 0.0000 18.1352
#
#
#
# Elastic Compliance Matrix: (Units=1/GPa)
#
#
# Indices 1 2 3 4 5 6 
#
# 1 0.031887 -0.027283 -0.012667 0.000000 0.000000 0.000000
# 2 -0.027283 0.098007 -0.009765 0.000000 0.000000 0.000000
# 3 -0.012667 -0.009765 0.015694 0.000000 0.000000 0.000000
# 4 0.000000 0.000000 0.000000 -0.024051 0.000000 0.000000
# 5 0.000000 0.000000 0.000000 0.000000 0.025753 0.000000
# 6 0.000000 0.000000 0.000000 0.000000 0.000000 0.055141
#
#
# Mechanical properties :
#
#
# Convention : Reuss Voigt Hill
#
# Bulk Modulus (GPa) = 21.66410 89.99233 55.82822
# Shear Modulus (GPa) = 15.76057 11.21776 13.48916
#
# Velocity S-wave (km/s) = 2.95700 2.49470 2.73563
# Velocity P-wave (km/s) = 4.86595 7.63053 6.39932
#
# Compressibility (1/GPa) = 0.04615931
#
# Stress axis : x y z
#
# Youngs Moduli (GPa) = 31.36083 10.20335 63.71730
#
# Poissons Ratio (x) = 0.27837 0.80713
# Poissons Ratio (y) = 0.85560 0.62217
# Poissons Ratio (z) = 0.39726 0.09963
#
# Static dielectric constant tensor:
#      x y z
#    x 1.607930 0.000000 0.000000 
#    y 0.000000 1.600880 0.000000 
#    z 0.000000 0.000000 1.587130 
# 
# From -- ./inp_files/37006.got.cif
#   From: 2010.05.17/outbox.cif.g08.bks.cpg/sg51_19_cif.got.tgz:37006.got - 2010.06.03 11:52:47.
