data_PCOD9406484
_publ_section_title
;
Structure prediction by ZEFSAII (Michael W. Deem and Ramdas Pophale) SiO2 
 PCOD9406484
Probable space group: P M M A
;
_chemical_formula_sum "Si O2"
_cell_formula_units_Z 48
_cell_length_a 10.433903
_cell_length_b 30.621291
_cell_length_c 7.815786
_cell_angle_alpha 90.000000
_cell_angle_beta 90.000000
_cell_angle_gamma 90.000000
_cell_volume 2497.140345
_symmetry_space_group_name_H-M "P M M A"
_symmetry_group_IT_number 51
_symmetry_cell_setting 'orthorhombic'
loop_
_space_group_symop_operation_xyz
x,y,z
1/2-x,-y,z
1/2+x,-y,-z
-x,y,-z
-x,-y,-z
1/2+x,y,-z
1/2-x,y,z
x,-y,z
loop_
_atom_site_type_symbol
_atom_site_label
_atom_site_fract_x
_atom_site_fract_y
_atom_site_fract_z
Si Si1 0.250000 0.654007 0.010415
Si Si2 0.483417 0.777504 0.299626
Si Si3 0.598563 0.552695 0.650868
Si Si4 0.607619 0.132531 0.866561
Si Si5 0.250000 0.712456 0.332831
Si Si6 0.500000 0.595766 0.000000
Si Si7 0.388682 0.952758 0.365081
Si Si8 0.750000 0.731756 0.260592
O O1 0.250000 0.670059 0.209877
O O2 0.123842 0.625959 0.970350
O O3 0.250000 0.695165 0.884144
O O4 0.500000 0.786465 0.500000
O O5 0.431802 0.821523 0.216406
O O6 0.376721 0.739814 0.282819
O O7 0.621561 0.760501 0.238324
O O8 0.500000 0.567441 0.500000
O O9 0.750000 0.566461 0.632399
O O10 0.599813 0.500000 0.647623
O O11 0.539536 0.568199 0.831938
O O12 0.750000 0.137147 0.940558
O O13 0.607961 0.091184 0.742094
O O14 0.500000 0.122093 0.000000
O O15 0.250000 0.711470 0.543150
O O16 0.500000 0.951497 0.500000
O O17 0.250000 0.952887 0.453460
O O18 0.398013 0.000000 0.270584
#
# Coordination Sequence:
#
# PCOD9406484 Si02
#       8
#     4   8   8   8   4   4   8   4
#     4  12  26  40  65  92 130 178 217 268 332 390
#     4  10  21  39  61  85 114 152 199 261 315 368
#     4  10  23  44  72 104 139 182 228 278 332 387
#     4  11  24  37  55  87 118 152 192 243 302 362
#     4  10  22  42  60  85 125 164 212 269 319 382
#     4  12  25  44  64 102 140 180 222 276 335 392
#     4   9  19  38  61  84 115 152 189 233 289 360
#     4  10  24  40  64  91 115 166 218 265 329 386
#
# _framework density 19.221989000000001
#
# number of rings (size 3 to 8) (size 9 to 14) (size 15 to 20)
#    0.000    1.667    1.667    1.750    4.667    2.333 
#    0.000    0.000    0.000    0.000    0.000    0.000 
#    0.000    0.000    0.000    0.000    0.000    0.000 
#
# Total GULP energy -267689.635449 kJ/mol
# GULP energy per Si atom -5576.867405 kJ/mol
# Density = 1.917824 g / cm^3
# Si number density = 19.221989 Si / 1000 Ang^3
#
#
#
# Elastic Constant Matrix: (Units=GPa)
#
#
# Indices 1 2 3 4 5 6 
#
# 1 194.3110 45.5532 60.4629 0.0000 0.0000 0.0000
# 2 45.5532 50.8252 31.0607 0.0000 0.0000 0.0000
# 3 60.4629 31.0607 72.4885 0.0000 0.0000 0.0000
# 4 0.0000 0.0000 0.0000 18.6859 0.0000 0.0000
# 5 0.0000 0.0000 0.0000 0.0000 28.2313 0.0000
# 6 0.0000 0.0000 0.0000 0.0000 0.0000 34.3186
#
#
#
# Elastic Compliance Matrix: (Units=1/GPa)
#
#
# Indices 1 2 3 4 5 6 
#
# 1 0.007486 -0.003920 -0.004564 0.000000 0.000000 0.000000
# 2 -0.003920 0.028708 -0.009032 0.000000 0.000000 0.000000
# 3 -0.004564 -0.009032 0.021472 0.000000 0.000000 0.000000
# 4 0.000000 0.000000 0.000000 0.053516 0.000000 0.000000
# 5 0.000000 0.000000 0.000000 0.000000 0.035422 0.000000
# 6 0.000000 0.000000 0.000000 0.000000 0.000000 0.029139
#
#
# Mechanical properties :
#
#
# Convention : Reuss Voigt Hill
#
# Bulk Modulus (GPa) = 44.18006 65.75316 54.96661
# Shear Modulus (GPa) = 22.90234 28.28367 25.59301
#
# Velocity S-wave (km/s) = 3.45551 3.84007 3.65285
# Velocity P-wave (km/s) = 6.24137 7.34460 6.81534
#
# Compressibility (1/GPa) = 0.02263465
#
# Stress axis : x y z
#
# Youngs Moduli (GPa) = 133.59132 34.83356 46.57191
#
# Poissons Ratio (x) = 0.13654 0.21256
# Poissons Ratio (y) = 0.52365 0.42062
# Poissons Ratio (z) = 0.60972 0.31460
#
# Static dielectric constant tensor:
#      x y z
#    x 1.677250 0.000000 0.000000 
#    y 0.000000 1.713520 0.000000 
#    z 0.000000 0.000000 1.692490 
# 
# From -- ./inp_files/6310.got.cif
#   From: 2010.05.17/outbox.cif.g08.bks.cpg/sg51_4_cif.got.tgz:6310.got - 2010.06.03 11:52:47.
