data_PCOD9406797
_publ_section_title
;
Structure prediction by ZEFSAII (Michael W. Deem and Ramdas Pophale) SiO2 
 PCOD9406797
Probable space group: P M M A
;
_chemical_formula_sum "Si O2"
_cell_formula_units_Z 38
_cell_length_a 7.743503
_cell_length_b 26.117622
_cell_length_c 8.929119
_cell_angle_alpha 90.000000
_cell_angle_beta 90.000000
_cell_angle_gamma 90.000000
_cell_volume 1805.841852
_symmetry_space_group_name_H-M "P M M A"
_symmetry_group_IT_number 51
_symmetry_cell_setting 'orthorhombic'
loop_
_space_group_symop_operation_xyz
x,y,z
1/2-x,-y,z
1/2+x,-y,-z
-x,y,-z
-x,-y,-z
1/2+x,y,-z
1/2-x,y,z
x,-y,z
loop_
_atom_site_type_symbol
_atom_site_label
_atom_site_fract_x
_atom_site_fract_y
_atom_site_fract_z
Si Si1 0.047444 0.893391 0.673401
Si Si2 0.452402 0.000000 0.173643
Si Si3 0.455955 0.687341 0.673527
Si Si4 0.250000 0.500000 0.272305
Si Si5 0.541295 0.209304 0.174478
Si Si6 0.959188 0.580289 0.176330
O O1 0.250000 0.886375 0.681392
O O2 0.970651 0.843962 0.757752
O O3 0.000000 0.894274 0.500000
O O4 0.011950 0.947808 0.748926
O O5 0.250000 0.000000 0.186953
O O6 0.500000 0.000000 0.000000
O O7 0.500000 0.679656 0.500000
O O8 0.250000 0.690693 0.682446
O O9 0.526516 0.740888 0.737366
O O10 0.501669 0.638123 0.773032
O O11 0.405822 0.455993 0.262301
O O12 0.750000 0.209414 0.187770
O O13 0.500000 0.213053 0.000000
O O14 0.750000 0.570845 0.200055
O O15 0.000000 0.572708 0.000000
#
# Coordination Sequence:
#
# PCOD9406797 Si02
#       6
#     8   4   8   2   8   8
#     4  11  23  40  63  92 128 167 214 259 319 379
#     4  12  25  42  63  88 126 168 216 266 319 370
#     4  10  23  41  63  90 125 161 206 252 312 376
#     4  12  24  40  68  92 132 162 214 254 328 354
#     4  10  22  40  63  94 125 160 206 260 312 376
#     4  11  23  39  65  95 126 163 212 260 312 379
#
# _framework density 21.042818
#
# number of rings (size 3 to 8) (size 9 to 14) (size 15 to 20)
#    0.000    1.263    1.053    4.421    1.474    4.211 
#    0.000    0.526    0.000    0.000    0.000    0.000 
#    0.000    0.000    0.000    0.000    0.000    0.000 
#
# Total GULP energy -211758.398128 kJ/mol
# GULP energy per Si atom -5572.589424 kJ/mol
# Density = 2.099492 g / cm^3
# Si number density = 21.042818 Si / 1000 Ang^3
#
#
#
# Elastic Constant Matrix: (Units=GPa)
#
#
# Indices 1 2 3 4 5 6 
#
# 1 93.8287 45.8404 3.9549 0.0000 0.0000 0.0000
# 2 45.8404 156.0967 18.8701 0.0000 0.0000 0.0000
# 3 3.9549 18.8701 48.6055 0.0000 0.0000 0.0000
# 4 0.0000 0.0000 0.0000 -52.3198 0.0000 0.0000
# 5 0.0000 0.0000 0.0000 0.0000 33.0329 0.0000
# 6 0.0000 0.0000 0.0000 0.0000 0.0000 -304.5993
#
#
#
# Elastic Compliance Matrix: (Units=1/GPa)
#
#
# Indices 1 2 3 4 5 6 
#
# 1 0.012451 -0.003708 0.000426 0.000000 0.000000 0.000000
# 2 -0.003708 0.007826 -0.002737 0.000000 0.000000 0.000000
# 3 0.000426 -0.002737 0.021602 0.000000 0.000000 0.000000
# 4 0.000000 0.000000 0.000000 -0.019113 0.000000 0.000000
# 5 0.000000 0.000000 0.000000 0.000000 0.030273 0.000000
# 6 0.000000 0.000000 0.000000 0.000000 0.000000 -0.003283
#
#
# Mechanical properties :
#
#
# Convention : Reuss Voigt Hill
#
# Bulk Modulus (GPa) = 33.50929 48.42907 40.96918
# Shear Modulus (GPa) = 69.69666 -49.45286 10.12190
#
# Velocity S-wave (km/s) = 5.76136 -4.85305 2.19558
# Velocity P-wave (km/s) = 7.75993 2.88761 5.09305
#
# Compressibility (1/GPa) = 0.02984247
#
# Stress axis : x y z
#
# Youngs Moduli (GPa) = 80.31262 127.77844 46.29303
#
# Poissons Ratio (x) = 0.47381 -0.01974
# Poissons Ratio (y) = 0.29781 0.12668
# Poissons Ratio (z) = -0.03425 0.34968
#
# Static dielectric constant tensor:
#      x y z
#    x 1.761860 0.000000 0.000000 
#    y 0.000000 1.726370 0.000000 
#    z 0.000000 0.000000 1.729870 
# 
# From -- ./inp_files/5367.got.cif
#   From: 2010.05.17/outbox.cif.g08.bks.cpg/sg51_3_cif.got.tgz:5367.got - 2010.06.03 11:52:47.
