data_PCOD9406522
_publ_section_title
;
Structure prediction by ZEFSAII (Michael W. Deem and Ramdas Pophale) SiO2 
 PCOD9406522
Probable space group: P M M A
;
_chemical_formula_sum "Si O2"
_cell_formula_units_Z 48
_cell_length_a 9.722830
_cell_length_b 28.841202
_cell_length_c 9.307809
_cell_angle_alpha 90.000000
_cell_angle_beta 90.000000
_cell_angle_gamma 90.000000
_cell_volume 2610.078153
_symmetry_space_group_name_H-M "P M M A"
_symmetry_group_IT_number 51
_symmetry_cell_setting 'orthorhombic'
loop_
_space_group_symop_operation_xyz
x,y,z
1/2-x,-y,z
1/2+x,-y,-z
-x,y,-z
-x,-y,-z
1/2+x,y,-z
1/2-x,y,z
x,-y,z
loop_
_atom_site_type_symbol
_atom_site_label
_atom_site_fract_x
_atom_site_fract_y
_atom_site_fract_z
Si Si1 0.414247 0.797388 0.145524
Si Si2 0.589995 0.053096 0.137577
Si Si3 0.088069 0.313215 0.142887
Si Si4 0.503291 0.604338 0.672008
Si Si5 0.415274 0.137284 0.645710
Si Si6 0.250000 0.555122 0.167279
Si Si7 0.750000 0.443858 0.172773
O O1 0.250000 0.810166 0.137596
O O2 0.419838 0.741893 0.168051
O O3 0.501171 0.823506 0.267000
O O4 0.500000 0.807395 0.000000
O O5 0.750000 0.053963 0.095179
O O6 0.572405 0.089976 0.263125
O O7 0.555495 0.000000 0.179581
O O8 0.500000 0.065895 0.000000
O O9 0.250000 0.324774 0.123752
O O10 0.025861 0.343229 0.272274
O O11 0.000000 0.324098 0.000000
O O12 0.500000 0.601892 0.500000
O O13 0.624257 0.575677 0.745680
O O14 0.374920 0.580065 0.746085
O O15 0.500000 0.131601 0.500000
O O16 0.250000 0.147058 0.628474
O O17 0.250000 0.500000 0.173451
O O18 0.250000 0.567148 0.997719
O O19 0.750000 0.500000 0.186758
#
# Coordination Sequence:
#
# PCOD9406522 Si02
#       7
#     8   8   8   8   8   4   4
#     4  10  21  39  63  90 119 155 200 251 301 361
#     4   9  19  36  58  84 115 153 200 253 306 364
#     4  10  22  41  65  91 119 156 200 244 294 361
#     4  12  25  40  61  93 126 157 195 248 308 359
#     4  11  23  38  57  85 121 162 205 252 310 368
#     4  11  23  43  67  87 117 159 205 249 292 361
#     4  11  25  43  65  91 119 161 207 245 296 359
#
# _framework density 18.390255
#
# number of rings (size 3 to 8) (size 9 to 14) (size 15 to 20)
#    0.000    1.500    0.833    4.000    1.167    7.667 
#    0.000    0.000    0.000    0.000    0.000    0.000 
#    0.000    0.000    0.000    0.000    0.000    0.000 
#
# Total GULP energy -267871.099878 kJ/mol
# GULP energy per Si atom -5580.647914 kJ/mol
# Density = 1.834840 g / cm^3
# Si number density = 18.390255 Si / 1000 Ang^3
#
#
#
# Elastic Constant Matrix: (Units=GPa)
#
#
# Indices 1 2 3 4 5 6 
#
# 1 181.7560 64.7394 101.1132 0.0000 0.0000 0.0000
# 2 64.7394 76.2607 72.6515 0.0000 0.0000 0.0000
# 3 101.1132 72.6515 182.2414 0.0000 0.0000 0.0000
# 4 0.0000 0.0000 0.0000 -10.6857 0.0000 0.0000
# 5 0.0000 0.0000 0.0000 0.0000 32.5037 0.0000
# 6 0.0000 0.0000 0.0000 0.0000 0.0000 30.5078
#
#
#
# Elastic Compliance Matrix: (Units=1/GPa)
#
#
# Indices 1 2 3 4 5 6 
#
# 1 0.008847 -0.004569 -0.003087 0.000000 0.000000 0.000000
# 2 -0.004569 0.023503 -0.006834 0.000000 0.000000 0.000000
# 3 -0.003087 -0.006834 0.009924 0.000000 0.000000 0.000000
# 4 0.000000 0.000000 0.000000 -0.093583 0.000000 0.000000
# 5 0.000000 0.000000 0.000000 0.000000 0.030766 0.000000
# 6 0.000000 0.000000 0.000000 0.000000 0.000000 0.032779
#
#
# Mechanical properties :
#
#
# Convention : Reuss Voigt Hill
#
# Bulk Modulus (GPa) = 75.22796 101.91846 88.57321
# Shear Modulus (GPa) = 109.53632 23.91541 66.72586
#
# Velocity S-wave (km/s) = 7.72602 3.61007 6.03009
# Velocity P-wave (km/s) = 10.98107 8.53914 9.83618
#
# Compressibility (1/GPa) = 0.01329293
#
# Stress axis : x y z
#
# Youngs Moduli (GPa) = 113.03667 42.54802 100.76190
#
# Poissons Ratio (x) = 0.19442 0.31103
# Poissons Ratio (y) = 0.51652 0.68863
# Poissons Ratio (z) = 0.34892 0.29078
#
# Static dielectric constant tensor:
#      x y z
#    x 1.591020 0.000000 0.000000 
#    y 0.000000 1.649790 0.000000 
#    z 0.000000 0.000000 1.604020 
# 
# From -- ./inp_files/6196.got.cif
#   From: 2010.05.17/outbox.cif.g08.bks.cpg/sg51_4_cif.got.tgz:6196.got - 2010.06.03 11:52:47.
