data_PCOD9406144
_publ_section_title
;
Structure prediction by ZEFSAII (Michael W. Deem and Ramdas Pophale) SiO2 
 PCOD9406144
Probable space group: P M M A
;
_chemical_formula_sum "Si O2"
_cell_formula_units_Z 40
_cell_length_a 15.391726
_cell_length_b 15.374679
_cell_length_c 8.704337
_cell_angle_alpha 90.000000
_cell_angle_beta 90.000000
_cell_angle_gamma 90.000000
_cell_volume 2059.819085
_symmetry_space_group_name_H-M "P M M A"
_symmetry_group_IT_number 51
_symmetry_cell_setting 'orthorhombic'
loop_
_space_group_symop_operation_xyz
x,y,z
1/2-x,-y,z
1/2+x,-y,-z
-x,y,-z
-x,-y,-z
1/2+x,y,-z
1/2-x,y,z
x,-y,z
loop_
_atom_site_type_symbol
_atom_site_label
_atom_site_fract_x
_atom_site_fract_y
_atom_site_fract_z
Si Si1 0.907115 0.724388 0.932847
Si Si2 0.750000 0.600385 0.936812
Si Si3 0.645553 0.903216 0.087737
Si Si4 0.750000 0.401045 0.561765
Si Si5 0.400645 0.905507 0.558282
Si Si6 0.902796 0.724661 0.565971
O O1 0.909333 0.723397 0.749229
O O2 0.833774 0.656204 0.985200
O O3 0.884964 0.822001 0.988130
O O4 0.000000 0.699884 0.000000
O O5 0.750000 0.500000 0.988025
O O6 0.750000 0.599118 0.749321
O O7 0.750000 0.899172 0.103551
O O8 0.604967 0.896305 0.257967
O O9 0.623384 0.000000 0.026051
O O10 0.750000 0.500000 0.508821
O O11 0.663734 0.349477 0.513386
O O12 0.500000 0.907745 0.500000
O O13 0.364252 0.818085 0.484544
O O14 0.361096 0.000000 0.519257
O O15 0.000000 0.714732 0.500000
#
# Coordination Sequence:
#
# PCOD9406144 Si02
#       6
#     8   4   8   4   8   8
#     4  11  21  37  62  88 116 154 196 238 291 346
#     4   9  20  40  60  83 118 152 189 239 294 349
#     4  10  21  37  58  86 120 158 197 239 287 339
#     4   9  20  38  60  81 110 152 189 233 292 347
#     4   9  18  34  55  82 116 152 188 227 276 331
#     4  10  21  37  58  87 116 149 191 237 286 343
#
# _framework density 19.419180999999998
#
# number of rings (size 3 to 8) (size 9 to 14) (size 15 to 20)
#    0.000    2.200    1.000    2.400    1.400    2.000 
#    0.000    0.000    0.000    8.400    0.000    0.000 
#    0.000    0.000    0.000    0.000    0.000    0.000 
#
# Total GULP energy -223234.807040 kJ/mol
# GULP energy per Si atom -5580.870176 kJ/mol
# Density = 1.937498 g / cm^3
# Si number density = 19.419181 Si / 1000 Ang^3
#
#
#
# Elastic Constant Matrix: (Units=GPa)
#
#
# Indices 1 2 3 4 5 6 
#
# 1 132.5195 88.9776 36.9813 0.0000 0.0000 0.0000
# 2 88.9776 200.9860 43.1423 0.0000 0.0000 0.0000
# 3 36.9813 43.1423 47.8543 0.0000 0.0000 0.0000
# 4 0.0000 0.0000 0.0000 23.9610 0.0000 0.0000
# 5 0.0000 0.0000 0.0000 0.0000 15.3979 0.0000
# 6 0.0000 0.0000 0.0000 0.0000 0.0000 16.2667
#
#
#
# Elastic Compliance Matrix: (Units=1/GPa)
#
#
# Indices 1 2 3 4 5 6 
#
# 1 0.011786 -0.004046 -0.005461 0.000000 0.000000 0.000000
# 2 -0.004046 0.007558 -0.003687 0.000000 0.000000 0.000000
# 3 -0.005461 -0.003687 0.028441 0.000000 0.000000 0.000000
# 4 0.000000 0.000000 0.000000 0.041734 0.000000 0.000000
# 5 0.000000 0.000000 0.000000 0.000000 0.064944 0.000000
# 6 0.000000 0.000000 0.000000 0.000000 0.000000 0.061475
#
#
# Mechanical properties :
#
#
# Convention : Reuss Voigt Hill
#
# Bulk Modulus (GPa) = 46.73449 79.95136 63.34292
# Shear Modulus (GPa) = 20.04328 25.27571 22.65949
#
# Velocity S-wave (km/s) = 3.21618 3.61166 3.41964
# Velocity P-wave (km/s) = 6.15712 7.65851 6.94849
#
# Compressibility (1/GPa) = 0.02139747
#
# Stress axis : x y z
#
# Youngs Moduli (GPa) = 84.84324 132.30991 35.16014
#
# Poissons Ratio (x) = 0.53528 0.19201
# Poissons Ratio (y) = 0.34325 0.12965
# Poissons Ratio (z) = 0.46334 0.48787
#
# Static dielectric constant tensor:
#      x y z
#    x 1.675450 0.000000 0.000000 
#    y 0.000000 1.697280 0.000000 
#    z 0.000000 0.000000 1.658390 
# 
# From -- ./inp_files/8007.got.cif
#   From: 2010.05.17/outbox.cif.g08.bks.cpg/sg51_5_cif.got.tgz:8007.got - 2010.06.03 11:52:47.
