data_PCOD9406151
_publ_section_title
;
Structure prediction by ZEFSAII (Michael W. Deem and Ramdas Pophale) SiO2 
 PCOD9406151
Probable space group: P M M A
;
_chemical_formula_sum "Si O2"
_cell_formula_units_Z 48
_cell_length_a 17.995064
_cell_length_b 8.201008
_cell_length_c 15.323913
_cell_angle_alpha 90.000000
_cell_angle_beta 90.000000
_cell_angle_gamma 90.000000
_cell_volume 2261.467281
_symmetry_space_group_name_H-M "P M M A"
_symmetry_group_IT_number 51
_symmetry_cell_setting 'orthorhombic'
loop_
_space_group_symop_operation_xyz
x,y,z
1/2-x,-y,z
1/2+x,-y,-z
-x,y,-z
-x,-y,-z
1/2+x,y,-z
1/2-x,y,z
x,-y,z
loop_
_atom_site_type_symbol
_atom_site_label
_atom_site_fract_x
_atom_site_fract_y
_atom_site_fract_z
Si Si1 0.892624 0.313723 0.317039
Si Si2 0.834023 0.307916 0.512262
Si Si3 0.055384 0.812148 0.345495
Si Si4 0.166749 0.307585 0.197285
Si Si5 0.837541 0.000000 0.207700
Si Si6 0.964643 0.000000 0.096986
Si Si7 0.531311 0.676801 0.902129
O O1 0.878316 0.500000 0.285005
O O2 0.850858 0.295495 0.409818
O O3 0.980793 0.292923 0.335361
O O4 0.864026 0.164572 0.257440
O O5 0.750000 0.248375 0.531912
O O6 0.836370 0.500000 0.535744
O O7 0.898885 0.221923 0.566203
O O8 0.115423 0.773257 0.270120
O O9 0.032644 0.000000 0.341891
O O10 0.250000 0.242053 0.192582
O O11 0.171202 0.500000 0.218249
O O12 0.119373 0.297067 0.107705
O O13 0.877577 0.000000 0.112895
O O14 0.750000 0.000000 0.201357
O O15 0.994498 0.834647 0.139522
O O16 0.000000 0.000000 0.000000
O O17 0.514673 0.500000 0.861481
O O18 0.500000 0.669584 0.000000
#
# Coordination Sequence:
#
# PCOD9406151 Si02
#       7
#     8   8   8   8   4   4   8
#     4  11  24  44  68  94 129 176 225 275 330 387
#     4  10  22  40  61  88 126 174 225 277 334 389
#     4  12  24  37  58  92 128 172 226 274 324 389
#     4  10  21  37  58  87 125 168 212 263 326 390
#     4  12  26  44  69 101 134 169 218 276 327 385
#     4  10  22  42  66  93 126 165 206 252 314 387
#     4   9  19  38  64  91 121 161 208 260 316 384
#
# _framework density 21.225156999999999
#
# number of rings (size 3 to 8) (size 9 to 14) (size 15 to 20)
#    0.000    1.500    0.833    4.000    2.333    7.667 
#    0.000    3.333    0.000    1.000    0.000    0.000 
#    0.000    0.000    0.000    0.000    0.000    0.000 
#
# Total GULP energy -267926.862887 kJ/mol
# GULP energy per Si atom -5581.809643 kJ/mol
# Density = 2.117685 g / cm^3
# Si number density = 21.225157 Si / 1000 Ang^3
#
#
#
# Elastic Constant Matrix: (Units=GPa)
#
#
# Indices 1 2 3 4 5 6 
#
# 1 140.4170 41.0326 28.7080 0.0000 0.0000 0.0000
# 2 41.0326 135.7708 14.5134 0.0000 0.0000 0.0000
# 3 28.7080 14.5134 61.3539 0.0000 0.0000 0.0000
# 4 0.0000 0.0000 0.0000 -4.4401 0.0000 0.0000
# 5 0.0000 0.0000 0.0000 0.0000 30.7394 0.0000
# 6 0.0000 0.0000 0.0000 0.0000 0.0000 24.3209
#
#
#
# Elastic Compliance Matrix: (Units=1/GPa)
#
#
# Indices 1 2 3 4 5 6 
#
# 1 0.008466 -0.002190 -0.003443 0.000000 0.000000 0.000000
# 2 -0.002190 0.008123 -0.000897 0.000000 0.000000 0.000000
# 3 -0.003443 -0.000897 0.018122 0.000000 0.000000 0.000000
# 4 0.000000 0.000000 0.000000 -0.225221 0.000000 0.000000
# 5 0.000000 0.000000 0.000000 0.000000 0.032532 0.000000
# 6 0.000000 0.000000 0.000000 0.000000 0.000000 0.041117
#
#
# Mechanical properties :
#
#
# Convention : Reuss Voigt Hill
#
# Bulk Modulus (GPa) = 46.18790 56.22775 51.20782
# Shear Modulus (GPa) = -51.76794 27.00988 -12.37903
#
# Velocity S-wave (km/s) = -4.94397 3.57114 -2.41762
# Velocity P-wave (km/s) = 3.28364 6.59944 4.04786
#
# Compressibility (1/GPa) = 0.02165069
#
# Stress axis : x y z
#
# Youngs Moduli (GPa) = 118.12449 123.10425 55.18156
#
# Poissons Ratio (x) = 0.26965 0.18999
# Poissons Ratio (y) = 0.25874 0.04948
# Poissons Ratio (z) = 0.40670 0.11038
#
# Static dielectric constant tensor:
#      x y z
#    x 1.754860 0.000000 0.000000 
#    y 0.000000 1.770430 0.000000 
#    z 0.000000 0.000000 1.877580 
# 
# From -- ./inp_files/25006.got.cif
#   From: 2010.05.17/outbox.cif.g08.bks.cpg/sg51_13_cif.got.tgz:25006.got - 2010.06.03 11:52:47.
