data_PCOD9406706
_publ_section_title
;
Structure prediction by ZEFSAII (Michael W. Deem and Ramdas Pophale) SiO2 
 PCOD9406706
Probable space group: P M M A
;
_chemical_formula_sum "Si O2"
_cell_formula_units_Z 64
_cell_length_a 8.766969
_cell_length_b 24.235894
_cell_length_c 15.813538
_cell_angle_alpha 90.000000
_cell_angle_beta 90.000000
_cell_angle_gamma 90.000000
_cell_volume 3359.986727
_symmetry_space_group_name_H-M "P M M A"
_symmetry_group_IT_number 51
_symmetry_cell_setting 'orthorhombic'
loop_
_space_group_symop_operation_xyz
x,y,z
1/2-x,-y,z
1/2+x,-y,-z
-x,y,-z
-x,-y,-z
1/2+x,y,-z
1/2-x,y,z
x,-y,z
loop_
_atom_site_type_symbol
_atom_site_label
_atom_site_fract_x
_atom_site_fract_y
_atom_site_fract_z
Si Si1 0.433217 0.745469 0.843053
Si Si2 0.067325 0.366721 0.088093
Si Si3 0.566599 0.134017 0.590101
Si Si4 0.067137 0.564772 0.255686
Si Si5 0.567714 0.867145 0.091064
Si Si6 0.434289 0.064257 0.246279
Si Si7 0.431409 0.631402 0.588296
Si Si8 0.933525 0.255385 0.653786
O O1 0.250000 0.741086 0.837714
O O2 0.499546 0.693765 0.893728
O O3 0.472798 0.803758 0.886058
O O4 0.503987 0.744236 0.749318
O O5 0.250000 0.363424 0.082716
O O6 0.026825 0.404886 0.168124
O O7 0.000000 0.387859 0.000000
O O8 0.500000 0.117296 0.500000
O O9 0.750000 0.131718 0.585912
O O10 0.516933 0.095788 0.668273
O O11 0.523421 0.197232 0.611343
O O12 0.250000 0.571348 0.267396
O O13 0.032664 0.500000 0.251695
O O14 0.983946 0.593933 0.333473
O O15 0.750000 0.871313 0.088687
O O16 0.503405 0.905514 0.165193
O O17 0.500000 0.881671 0.000000
O O18 0.250000 0.068141 0.241442
O O19 0.476228 0.000000 0.248926
O O20 0.500000 0.610650 0.500000
O O21 0.250000 0.633629 0.583351
O O22 0.497124 0.692486 0.605722
O O23 0.750000 0.259849 0.655351
#
# Coordination Sequence:
#
# PCOD9406706 Si02
#       8
#     8   8   8   8   8   8   8   8
#     4  11  22  37  61  93 125 160 199 247 304 367
#     4  11  23  39  63  92 126 164 203 250 302 361
#     4  10  22  38  60  90 122 159 199 244 299 358
#     4  10  23  44  66  89 121 163 210 257 306 360
#     4  11  24  40  62  91 123 159 201 247 303 363
#     4  10  22  42  64  86 117 159 206 254 304 358
#     4  12  25  41  64  93 126 162 205 252 305 368
#     4  11  21  37  62  91 125 163 199 246 306 364
#
# _framework density 19.047695000000001
#
# number of rings (size 3 to 8) (size 9 to 14) (size 15 to 20)
#    0.000    1.250    2.500    3.375    0.000    7.000 
#    0.000    0.000    0.000    0.000    0.000    0.000 
#    0.000    0.000    0.000    0.000    0.000    0.000 
#
# Total GULP energy -357962.797949 kJ/mol
# GULP energy per Si atom -5593.168718 kJ/mol
# Density = 1.900434 g / cm^3
# Si number density = 19.047695 Si / 1000 Ang^3
#
#
#
# Elastic Constant Matrix: (Units=GPa)
#
#
# Indices 1 2 3 4 5 6 
#
# 1 57.7136 56.4919 60.1796 0.0000 0.0000 0.0000
# 2 56.4919 132.2910 75.0518 0.0000 0.0000 0.0000
# 3 60.1796 75.0518 188.3514 0.0000 0.0000 0.0000
# 4 0.0000 0.0000 0.0000 -4.3948 0.0000 0.0000
# 5 0.0000 0.0000 0.0000 0.0000 37.4371 0.0000
# 6 0.0000 0.0000 0.0000 0.0000 0.0000 0.8468
#
#
#
# Elastic Compliance Matrix: (Units=1/GPa)
#
#
# Indices 1 2 3 4 5 6 
#
# 1 0.035509 -0.011276 -0.006852 0.000000 0.000000 0.000000
# 2 -0.011276 0.013348 -0.001716 0.000000 0.000000 0.000000
# 3 -0.006852 -0.001716 0.008182 0.000000 0.000000 0.000000
# 4 0.000000 0.000000 0.000000 -0.227541 0.000000 0.000000
# 5 0.000000 0.000000 0.000000 0.000000 0.026711 0.000000
# 6 0.000000 0.000000 0.000000 0.000000 0.000000 1.180887
#
#
# Mechanical properties :
#
#
# Convention : Reuss Voigt Hill
#
# Bulk Modulus (GPa) = 57.63372 84.64473 71.13923
# Shear Modulus (GPa) = 4.61864 19.22000 11.91932
#
# Velocity S-wave (km/s) = 1.55886 3.17999 2.50424
# Velocity P-wave (km/s) = 5.79339 7.61695 6.76688
#
# Compressibility (1/GPa) = 0.01735095
#
# Stress axis : x y z
#
# Youngs Moduli (GPa) = 28.16158 74.91930 122.21454
#
# Poissons Ratio (x) = 0.84479 0.83746
# Poissons Ratio (y) = 0.31755 0.20970
# Poissons Ratio (z) = 0.19297 0.12855
#
# Static dielectric constant tensor:
#      x y z
#    x 1.637450 0.000000 0.000000 
#    y 0.000000 1.644370 0.000000 
#    z 0.000000 0.000000 1.651950 
# 
# From -- ./inp_files/22238.got.cif
#   From: 2010.05.17/outbox.cif.g08.bks.cpg/sg51_12_cif.got.tgz:22238.got - 2010.06.03 11:52:47.
