data_PCOD9406159
_publ_section_title
;
Structure prediction by ZEFSAII (Michael W. Deem and Ramdas Pophale) SiO2 
 PCOD9406159
Probable space group: P M M A
;
_chemical_formula_sum "Si O2"
_cell_formula_units_Z 18
_cell_length_a 16.476631
_cell_length_b 8.524307
_cell_length_c 4.032919
_cell_angle_alpha 90.000000
_cell_angle_beta 90.000000
_cell_angle_gamma 90.000000
_cell_volume 566.430979
_symmetry_space_group_name_H-M "P M M A"
_symmetry_group_IT_number 51
_symmetry_cell_setting 'orthorhombic'
loop_
_space_group_symop_operation_xyz
x,y,z
1/2-x,-y,z
1/2+x,-y,-z
-x,y,-z
-x,-y,-z
1/2+x,y,-z
1/2-x,y,z
x,-y,z
loop_
_atom_site_type_symbol
_atom_site_label
_atom_site_fract_x
_atom_site_fract_y
_atom_site_fract_z
Si Si1 0.750000 0.823677 0.775302
Si Si2 0.921952 0.500000 0.237159
Si Si3 0.083823 0.167613 0.793406
Si Si4 0.250000 0.500000 0.658079
O O1 0.750000 0.665849 0.546871
O O2 0.750000 0.000000 0.612521
O O3 0.666401 0.825054 0.989642
O O4 0.920737 0.330470 0.409635
O O5 0.829761 0.500000 0.110653
O O6 0.000000 0.500000 0.000000
O O7 0.085584 0.000000 0.614071
O O8 0.000000 0.166380 0.000000
#
# Coordination Sequence:
#
# PCOD9406159 Si02
#       4
#     4   4   8   2
#     4  10  21  37  59  89 121 150 188 242 296 340
#     4  10  21  37  59  85 114 154 199 238 280 343
#     4   9  18  36  61  85 113 152 196 237 280 342
#     4  12  24  38  60  88 120 150 186 244 300 344
#
# _framework density 31.777925
#
# number of rings (size 3 to 8) (size 9 to 14) (size 15 to 20)
#    0.000    2.222    0.000    2.667    0.000    1.778 
#    0.000   17.778    0.000   24.000    0.000    0.000 
#    0.000    0.000    0.000    0.000    0.000    0.000 
#
# Total GULP energy -100582.469667 kJ/mol
# GULP energy per Si atom -5587.914981 kJ/mol
# Density = 3.170560 g / cm^3
# Si number density = 31.777925 Si / 1000 Ang^3
#
#
#
# Elastic Constant Matrix: (Units=GPa)
#
#
# Indices 1 2 3 4 5 6 
#
# 1 410.2955 -5.0266 102.5905 0.0000 0.0000 0.0000
# 2 -5.0266 478.2195 73.7972 0.0000 0.0000 0.0000
# 3 102.5905 73.7972 85.7845 0.0000 0.0000 0.0000
# 4 0.0000 0.0000 0.0000 26.2280 0.0000 0.0000
# 5 0.0000 0.0000 0.0000 0.0000 111.4418 0.0000
# 6 0.0000 0.0000 0.0000 0.0000 0.0000 39.2668
#
#
#
# Elastic Compliance Matrix: (Units=1/GPa)
#
#
# Indices 1 2 3 4 5 6 
#
# 1 0.003751 0.000844 -0.005211 0.000000 0.000000 0.000000
# 2 0.000844 0.002601 -0.003246 0.000000 0.000000 0.000000
# 3 -0.005211 -0.003246 0.020682 0.000000 0.000000 0.000000
# 4 0.000000 0.000000 0.000000 0.038127 0.000000 0.000000
# 5 0.000000 0.000000 0.000000 0.000000 0.008973 0.000000
# 6 0.000000 0.000000 0.000000 0.000000 0.000000 0.025467
#
#
# Mechanical properties :
#
#
# Convention : Reuss Voigt Hill
#
# Bulk Modulus (GPa) = 84.70504 146.33575 115.52040
# Shear Modulus (GPa) = 42.10055 88.91655 65.50855
#
# Velocity S-wave (km/s) = 3.64378 5.29541 4.54524
# Velocity P-wave (km/s) = 6.66453 9.13991 7.99856
#
# Compressibility (1/GPa) = 0.01180567
#
# Stress axis : x y z
#
# Youngs Moduli (GPa) = 266.62579 384.47992 48.35182
#
# Poissons Ratio (x) = -0.32434 0.25196
# Poissons Ratio (y) = -0.22492 0.15696
# Poissons Ratio (z) = 1.38940 1.24814
#
# Static dielectric constant tensor:
#      x y z
#    x 2.412600 0.000000 0.000000 
#    y 0.000000 2.423220 0.000000 
#    z 0.000000 0.000000 2.419790 
# 
# From -- ./inp_files/1595.got.cif
#   From: 2010.05.17/outbox.cif.g08.bks.cpg/sg51_1_cif.got.tgz:1595.got - 2010.06.03 11:52:47.
