data_PCOD9406471
_publ_section_title
;
Structure prediction by ZEFSAII (Michael W. Deem and Ramdas Pophale) SiO2 
 PCOD9406471
Probable space group: P M M A
;
_chemical_formula_sum "Si O2"
_cell_formula_units_Z 64
_cell_length_a 8.938283
_cell_length_b 24.705508
_cell_length_c 15.225211
_cell_angle_alpha 90.000000
_cell_angle_beta 90.000000
_cell_angle_gamma 90.000000
_cell_volume 3362.104511
_symmetry_space_group_name_H-M "P M M A"
_symmetry_group_IT_number 51
_symmetry_cell_setting 'orthorhombic'
loop_
_space_group_symop_operation_xyz
x,y,z
1/2-x,-y,z
1/2+x,-y,-z
-x,y,-z
-x,-y,-z
1/2+x,y,-z
1/2-x,y,z
x,-y,z
loop_
_atom_site_type_symbol
_atom_site_label
_atom_site_fract_x
_atom_site_fract_y
_atom_site_fract_z
Si Si1 0.567801 0.559483 0.213804
Si Si2 0.568983 0.337744 0.096819
Si Si3 0.428736 0.063056 0.595695
Si Si4 0.931017 0.237811 0.222907
Si Si5 0.420372 0.064831 0.911987
Si Si6 0.072841 0.284381 0.589200
Si Si7 0.427530 0.123105 0.243450
Si Si8 0.927800 0.413566 0.409527
O O1 0.750000 0.562046 0.216331
O O2 0.524945 0.500000 0.179850
O O3 0.519756 0.609767 0.153779
O O4 0.518274 0.564545 0.315519
O O5 0.750000 0.339542 0.090582
O O6 0.529902 0.283635 0.151604
O O7 0.500000 0.337947 0.000000
O O8 0.500000 0.071153 0.500000
O O9 0.250000 0.069845 0.592164
O O10 0.498698 0.103991 0.665498
O O11 0.458853 0.000000 0.621296
O O12 0.750000 0.232150 0.222083
O O13 0.977458 0.258304 0.319853
O O14 0.008526 0.180444 0.210981
O O15 0.250000 0.085303 0.903254
O O16 0.518578 0.080552 0.829074
O O17 0.412623 0.000000 0.917941
O O18 0.500000 0.085582 0.000000
O O19 0.250000 0.276590 0.582714
O O20 0.045857 0.348849 0.594500
O O21 0.000000 0.263119 0.500000
O O22 0.250000 0.124708 0.251744
O O23 0.750000 0.423112 0.414753
O O24 0.000000 0.433790 0.500000
#
# Coordination Sequence:
#
# PCOD9406471 Si02
#       8
#     8   8   8   8   8   8   8   8
#     4   9  17  32  56  83 112 147 186 226 275 344
#     4  10  21  39  61  82 106 142 187 235 290 347
#     4  10  21  39  63  90 122 162 206 249 295 346
#     4  10  21  39  58  76 107 149 191 234 285 345
#     4  10  21  39  63  89 117 150 188 232 285 343
#     4   9  17  31  53  77 102 137 179 221 267 322
#     4  12  25  38  57  87 121 155 196 242 291 348
#     4   9  16  29  50  78 109 143 181 217 263 322
#
# _framework density 19.035696999999999
#
# number of rings (size 3 to 8) (size 9 to 14) (size 15 to 20)
#    0.000    2.125    1.250    2.250    0.000    5.500 
#    0.000    3.125    0.000    0.750    0.000    0.000 
#    0.000    0.000    0.000    0.000    0.000    0.000 
#
# Total GULP energy -357207.154528 kJ/mol
# GULP energy per Si atom -5581.361790 kJ/mol
# Density = 1.899237 g / cm^3
# Si number density = 19.035697 Si / 1000 Ang^3
#
#
#
# Elastic Constant Matrix: (Units=GPa)
#
#
# Indices 1 2 3 4 5 6 
#
# 1 43.2491 38.5951 26.1707 0.0000 0.0000 0.0000
# 2 38.5951 63.3464 41.8744 0.0000 0.0000 0.0000
# 3 26.1707 41.8744 109.7835 0.0000 0.0000 0.0000
# 4 0.0000 0.0000 0.0000 -14.7855 0.0000 0.0000
# 5 0.0000 0.0000 0.0000 0.0000 35.9615 0.0000
# 6 0.0000 0.0000 0.0000 0.0000 0.0000 9.8491
#
#
#
# Elastic Compliance Matrix: (Units=1/GPa)
#
#
# Indices 1 2 3 4 5 6 
#
# 1 0.050687 -0.030614 -0.000406 0.000000 0.000000 0.000000
# 2 -0.030614 0.039598 -0.007806 0.000000 0.000000 0.000000
# 3 -0.000406 -0.007806 0.012183 0.000000 0.000000 0.000000
# 4 0.000000 0.000000 0.000000 -0.067634 0.000000 0.000000
# 5 0.000000 0.000000 0.000000 0.000000 0.027808 0.000000
# 6 0.000000 0.000000 0.000000 0.000000 0.000000 0.101532
#
#
# Mechanical properties :
#
#
# Convention : Reuss Voigt Hill
#
# Bulk Modulus (GPa) = 40.29540 47.73996 44.01768
# Shear Modulus (GPa) = 19.99217 13.52093 16.75655
#
# Velocity S-wave (km/s) = 3.24427 2.66802 2.97015
# Velocity P-wave (km/s) = 5.93700 5.88428 5.91070
#
# Compressibility (1/GPa) = 0.02481673
#
# Stress axis : x y z
#
# Youngs Moduli (GPa) = 19.72896 25.25358 82.08088
#
# Poissons Ratio (x) = 0.77310 0.03333
# Poissons Ratio (y) = 0.60397 0.64073
# Poissons Ratio (z) = 0.00801 0.19713
#
# Static dielectric constant tensor:
#      x y z
#    x 1.648990 0.000000 0.000000 
#    y 0.000000 1.681930 0.000000 
#    z 0.000000 0.000000 1.655270 
# 
# From -- ./inp_files/22303.got.cif
#   From: 2010.05.17/outbox.cif.g08.bks.cpg/sg51_12_cif.got.tgz:22303.got - 2010.06.03 11:52:47.
