data_PCOD9406568
_publ_section_title
;
Structure prediction by ZEFSAII (Michael W. Deem and Ramdas Pophale) SiO2 
 PCOD9406568
Probable space group: P M M A
;
_chemical_formula_sum "Si O2"
_cell_formula_units_Z 64
_cell_length_a 13.642100
_cell_length_b 23.256493
_cell_length_c 9.541768
_cell_angle_alpha 90.000000
_cell_angle_beta 90.000000
_cell_angle_gamma 90.000000
_cell_volume 3027.291955
_symmetry_space_group_name_H-M "P M M A"
_symmetry_group_IT_number 51
_symmetry_cell_setting 'orthorhombic'
loop_
_space_group_symop_operation_xyz
x,y,z
1/2-x,-y,z
1/2+x,-y,-z
-x,y,-z
-x,-y,-z
1/2+x,y,-z
1/2-x,y,z
x,-y,z
loop_
_atom_site_type_symbol
_atom_site_label
_atom_site_fract_x
_atom_site_fract_y
_atom_site_fract_z
Si Si1 0.914626 0.562911 0.883154
Si Si2 0.134820 0.436872 0.429035
Si Si3 0.864884 0.238188 0.612084
Si Si4 0.633934 0.330461 0.365202
Si Si5 0.366197 0.934426 0.799794
Si Si6 0.640492 0.931691 0.881266
Si Si7 0.042001 0.313095 0.145829
Si Si8 0.010814 0.875980 0.354927
O O1 0.862395 0.500000 0.904165
O O2 0.927862 0.563230 0.713680
O O3 0.891566 0.631056 0.896693
O O4 0.000000 0.559533 0.000000
O O5 0.250000 0.430612 0.384690
O O6 0.124367 0.500000 0.495106
O O7 0.115536 0.386551 0.537972
O O8 0.750000 0.222888 0.616771
O O9 0.879938 0.277267 0.473215
O O10 0.894387 0.274063 0.750612
O O11 0.934564 0.183041 0.613551
O O12 0.750000 0.331601 0.322645
O O13 0.555184 0.328507 0.239729
O O14 0.250000 0.937580 0.793144
O O15 0.402915 0.881038 0.708492
O O16 0.401883 0.000000 0.764317
O O17 0.392980 0.922001 0.960340
O O18 0.750000 0.907631 0.866392
O O19 0.573270 0.906766 0.762821
O O20 0.645189 0.000000 0.865786
O O21 0.000000 0.287863 0.000000
O O22 0.000000 0.909256 0.500000
#
# Coordination Sequence:
#
# PCOD9406568 Si02
#       8
#     8   8   8   8   8   8   8   8
#     4   9  18  32  52  85 126 159 194 244 309 373
#     4   9  17  31  57  89 116 154 209 257 304 369
#     4  11  25  45  64  82 115 161 208 255 306 362
#     4  10  21  40  62  85 117 156 200 253 306 362
#     4   9  20  40  65  93 127 167 207 247 293 350
#     4   9  19  38  63  90 123 164 206 245 289 346
#     4  11  23  39  62  91 120 155 201 249 310 375
#     4  12  24  37  58  90 125 160 201 250 307 360
#
# _framework density 21.141006999999998
#
# number of rings (size 3 to 8) (size 9 to 14) (size 15 to 20)
#    0.000    2.000    1.250    3.000    0.000    5.000 
#    0.000    5.000    0.000    0.750    0.000    0.000 
#    0.000    0.000    0.000    0.000    0.000    0.000 
#
# Total GULP energy -356305.151387 kJ/mol
# GULP energy per Si atom -5567.267990 kJ/mol
# Density = 2.109289 g / cm^3
# Si number density = 21.141007 Si / 1000 Ang^3
#
#
#
# Elastic Constant Matrix: (Units=GPa)
#
#
# Indices 1 2 3 4 5 6 
#
# 1 102.3687 41.1711 49.8038 0.0000 0.0000 0.0000
# 2 41.1711 43.4089 55.7980 0.0000 0.0000 0.0000
# 3 49.8038 55.7980 105.5752 0.0000 0.0000 0.0000
# 4 0.0000 0.0000 0.0000 8.4773 0.0000 0.0000
# 5 0.0000 0.0000 0.0000 0.0000 -44.5453 0.0000
# 6 0.0000 0.0000 0.0000 0.0000 0.0000 17.8771
#
#
#
# Elastic Compliance Matrix: (Units=1/GPa)
#
#
# Indices 1 2 3 4 5 6 
#
# 1 0.015865 -0.016925 0.001461 0.000000 0.000000 0.000000
# 2 -0.016925 0.089901 -0.039530 0.000000 0.000000 0.000000
# 3 0.001461 -0.039530 0.029675 0.000000 0.000000 0.000000
# 4 0.000000 0.000000 0.000000 0.117962 0.000000 0.000000
# 5 0.000000 0.000000 0.000000 0.000000 -0.022449 0.000000
# 6 0.000000 0.000000 0.000000 0.000000 0.000000 0.055937
#
#
# Mechanical properties :
#
#
# Convention : Reuss Voigt Hill
#
# Bulk Modulus (GPa) = 39.28802 60.54431 49.91617
# Shear Modulus (GPa) = 12.33466 3.33382 7.83424
#
# Velocity S-wave (km/s) = 2.41809 1.25713 1.92711
# Velocity P-wave (km/s) = 5.14007 5.55046 5.34920
#
# Compressibility (1/GPa) = 0.02545305
#
# Stress axis : x y z
#
# Youngs Moduli (GPa) = 63.03288 11.12339 33.69884
#
# Poissons Ratio (x) = 0.18826 -0.04924
# Poissons Ratio (y) = 1.06683 1.33210
# Poissons Ratio (z) = -0.09210 0.43970
#
# Static dielectric constant tensor:
#      x y z
#    x 1.862280 0.000000 0.000000 
#    y 0.000000 1.799630 0.000000 
#    z 0.000000 0.000000 1.812830 
# 
# From -- ./inp_files/8684.got.cif
#   From: 2010.05.17/outbox.cif.g08.bks.cpg/sg51_5_cif.got.tgz:8684.got - 2010.06.03 11:52:47.
