data_PCOD9406972
_publ_section_title
;
Structure prediction by ZEFSAII (Michael W. Deem and Ramdas Pophale) SiO2 
 PCOD9406972
Probable space group: P M M A
;
_chemical_formula_sum "Si O2"
_cell_formula_units_Z 40
_cell_length_a 20.030175
_cell_length_b 11.931700
_cell_length_c 9.494152
_cell_angle_alpha 90.000000
_cell_angle_beta 90.000000
_cell_angle_gamma 90.000000
_cell_volume 2269.045734
_symmetry_space_group_name_H-M "P M M A"
_symmetry_group_IT_number 51
_symmetry_cell_setting 'orthorhombic'
loop_
_space_group_symop_operation_xyz
x,y,z
1/2-x,-y,z
1/2+x,-y,-z
-x,y,-z
-x,-y,-z
1/2+x,y,-z
1/2-x,y,z
x,-y,z
loop_
_atom_site_type_symbol
_atom_site_label
_atom_site_fract_x
_atom_site_fract_y
_atom_site_fract_z
Si Si1 0.442720 0.662115 0.616080
Si Si2 0.638867 0.130014 0.378507
Si Si3 0.250000 0.300813 0.120714
Si Si4 0.250000 0.132343 0.384501
Si Si5 0.825615 0.500000 0.468415
Si Si6 0.002286 0.500000 0.166399
Si Si7 0.341627 0.500000 0.201058
Si Si8 0.250000 0.867536 0.858439
O O1 0.500000 0.638695 0.500000
O O2 0.425103 0.791601 0.624468
O O3 0.372232 0.603963 0.575938
O O4 0.467406 0.606401 0.760205
O O5 0.685687 0.150635 0.515201
O O6 0.686017 0.149984 0.242743
O O7 0.620876 0.000000 0.379741
O O8 0.250000 0.218931 0.256281
O O9 0.311951 0.388007 0.129401
O O10 0.250000 0.220293 0.985561
O O11 0.250000 0.000000 0.342266
O O12 0.750000 0.500000 0.409748
O O13 0.819842 0.500000 0.636452
O O14 0.079544 0.500000 0.204755
O O15 0.000000 0.500000 0.000000
O O16 0.250000 0.000000 0.901871
#
# Coordination Sequence:
#
# PCOD9406972 Si02
#       8
#     8   8   4   4   4   4   4   4
#     4  11  22  39  62  84 115 153 192 231 289 348
#     4   9  20  37  58  85 113 147 189 237 286 337
#     4  11  21  32  60  86 115 147 190 230 290 339
#     4   9  18  34  58  88 115 146 187 231 284 335
#     4  11  20  37  58  90 116 149 185 235 286 338
#     4  11  25  42  56  77 119 156 193 230 286 336
#     4  11  22  35  53  87 120 147 183 244 280 335
#     4   9  20  38  56  80 119 150 187 239 290 341
#
# _framework density 17.628556
#
# number of rings (size 3 to 8) (size 9 to 14) (size 15 to 20)
#    0.000    1.800    3.000    3.300    5.600    0.400 
#    0.000    0.000    0.000    0.600    0.000    0.000 
#    0.000    0.000    0.000    0.000    0.000    0.000 
#
# Total GULP energy -223157.560044 kJ/mol
# GULP energy per Si atom -5578.939001 kJ/mol
# Density = 1.758843 g / cm^3
# Si number density = 17.628556 Si / 1000 Ang^3
#
#
#
# Elastic Constant Matrix: (Units=GPa)
#
#
# Indices 1 2 3 4 5 6 
#
# 1 111.7766 45.8510 30.1741 0.0000 0.0000 0.0000
# 2 45.8510 122.4538 63.9517 0.0000 0.0000 0.0000
# 3 30.1741 63.9517 109.4843 0.0000 0.0000 0.0000
# 4 0.0000 0.0000 0.0000 6.6633 0.0000 0.0000
# 5 0.0000 0.0000 0.0000 0.0000 7.7643 0.0000
# 6 0.0000 0.0000 0.0000 0.0000 0.0000 74.6952
#
#
#
# Elastic Compliance Matrix: (Units=1/GPa)
#
#
# Indices 1 2 3 4 5 6 
#
# 1 0.010627 -0.003525 -0.000870 0.000000 0.000000 0.000000
# 2 -0.003525 0.012920 -0.006575 0.000000 0.000000 0.000000
# 3 -0.000870 -0.006575 0.013214 0.000000 0.000000 0.000000
# 4 0.000000 0.000000 0.000000 0.150076 0.000000 0.000000
# 5 0.000000 0.000000 0.000000 0.000000 0.128794 0.000000
# 6 0.000000 0.000000 0.000000 0.000000 0.000000 0.013388
#
#
# Mechanical properties :
#
#
# Convention : Reuss Voigt Hill
#
# Bulk Modulus (GPa) = 67.47096 69.29647 68.38372
# Shear Modulus (GPa) = 14.04888 31.40710 22.72799
#
# Velocity S-wave (km/s) = 2.82607 4.22548 3.59454
# Velocity P-wave (km/s) = 7.00041 7.94990 7.49021
#
# Compressibility (1/GPa) = 0.01482119
#
# Stress axis : x y z
#
# Youngs Moduli (GPa) = 94.09855 77.39804 75.67539
#
# Poissons Ratio (x) = 0.27282 0.06583
# Poissons Ratio (y) = 0.33168 0.49760
# Poissons Ratio (z) = 0.08186 0.50893
#
# Static dielectric constant tensor:
#      x y z
#    x 1.582620 0.000000 0.000000 
#    y 0.000000 1.636840 0.000000 
#    z 0.000000 0.000000 1.590910 
# 
# From -- ./inp_files/10753.got.cif
#   From: 2010.05.17/outbox.cif.g08.bks.cpg/sg51_6_cif.got.tgz:10753.got - 2010.06.03 11:52:47.
