data_PCOD9406183
_publ_section_title
;
Structure prediction by ZEFSAII (Michael W. Deem and Ramdas Pophale) SiO2 
 PCOD9406183
Probable space group: P M M A
;
_chemical_formula_sum "Si O2"
_cell_formula_units_Z 40
_cell_length_a 22.655607
_cell_length_b 8.991254
_cell_length_c 9.755707
_cell_angle_alpha 90.000000
_cell_angle_beta 90.000000
_cell_angle_gamma 90.000000
_cell_volume 1987.260120
_symmetry_space_group_name_H-M "P M M A"
_symmetry_group_IT_number 51
_symmetry_cell_setting 'orthorhombic'
loop_
_space_group_symop_operation_xyz
x,y,z
1/2-x,-y,z
1/2+x,-y,-z
-x,y,-z
-x,-y,-z
1/2+x,y,-z
1/2-x,y,z
x,-y,z
loop_
_atom_site_type_symbol
_atom_site_label
_atom_site_fract_x
_atom_site_fract_y
_atom_site_fract_z
Si Si1 0.439416 0.326958 0.427853
Si Si2 0.562715 0.176402 0.065151
Si Si3 0.367173 0.328293 0.702594
Si Si4 0.864982 0.174667 0.794871
Si Si5 0.750000 0.677334 0.669845
Si Si6 0.750000 0.823772 0.367455
O O1 0.500000 0.280203 0.500000
O O2 0.445890 0.500000 0.384139
O O3 0.390338 0.321048 0.546752
O O4 0.418203 0.226128 0.303881
O O5 0.612776 0.197737 0.949261
O O6 0.558902 0.000000 0.096826
O O7 0.500000 0.221433 0.000000
O O8 0.582292 0.266652 0.197897
O O9 0.354504 0.500000 0.734744
O O10 0.308373 0.231040 0.710391
O O11 0.807939 0.267604 0.750489
O O12 0.852921 0.000000 0.774508
O O13 0.750000 0.500000 0.656061
O O14 0.750000 0.749051 0.518245
O O15 0.750000 0.000000 0.382637
#
# Coordination Sequence:
#
# PCOD9406183 Si02
#       6
#     8   8   8   8   4   4
#     4  10  21  37  59  89 124 162 206 259 314 371
#     4  10  23  43  64  91 130 171 212 260 312 371
#     4  11  23  39  63  93 126 166 210 258 313 374
#     4  11  23  39  63  92 122 164 211 258 314 372
#     4  12  24  41  64  91 126 162 204 262 318 375
#     4  12  24  41  66  93 126 164 206 260 316 375
#
# _framework density 20.128212999999999
#
# number of rings (size 3 to 8) (size 9 to 14) (size 15 to 20)
#    0.000    1.200    2.000    4.200    0.000    4.000 
#    0.000    1.000    0.000    0.000    0.000    0.000 
#    0.000    0.000    0.000    0.000    0.000    0.000 
#
# Total GULP energy -223750.881490 kJ/mol
# GULP energy per Si atom -5593.772037 kJ/mol
# Density = 2.008240 g / cm^3
# Si number density = 20.128213 Si / 1000 Ang^3
#
#
#
# Elastic Constant Matrix: (Units=GPa)
#
#
# Indices 1 2 3 4 5 6 
#
# 1 75.9879 17.5912 -17.1074 0.0000 0.0000 0.0000
# 2 17.5912 98.5317 27.6399 0.0000 0.0000 0.0000
# 3 -17.1074 27.6399 44.4420 0.0000 0.0000 0.0000
# 4 0.0000 0.0000 0.0000 -16.8109 0.0000 0.0000
# 5 0.0000 0.0000 0.0000 0.0000 27.2612 0.0000
# 6 0.0000 0.0000 0.0000 0.0000 0.0000 31.3350
#
#
#
# Elastic Compliance Matrix: (Units=1/GPa)
#
#
# Indices 1 2 3 4 5 6 
#
# 1 0.016777 -0.005823 0.010080 0.000000 0.000000 0.000000
# 2 -0.005823 0.014315 -0.011144 0.000000 0.000000 0.000000
# 3 0.010080 -0.011144 0.033312 0.000000 0.000000 0.000000
# 4 0.000000 0.000000 0.000000 -0.059485 0.000000 0.000000
# 5 0.000000 0.000000 0.000000 0.000000 0.036682 0.000000
# 6 0.000000 0.000000 0.000000 0.000000 0.000000 0.031913
#
#
# Mechanical properties :
#
#
# Convention : Reuss Voigt Hill
#
# Bulk Modulus (GPa) = 19.75142 30.57878 25.16510
# Shear Modulus (GPa) = 48.00053 21.07959 34.54006
#
# Velocity S-wave (km/s) = 4.88868 3.23966 4.14696
# Velocity P-wave (km/s) = 6.45753 5.40544 5.95477
#
# Compressibility (1/GPa) = 0.05062927
#
# Stress axis : x y z
#
# Youngs Moduli (GPa) = 59.60466 69.85808 30.01902
#
# Poissons Ratio (x) = 0.40677 -0.30258
# Poissons Ratio (y) = 0.34707 0.33454
# Poissons Ratio (z) = -0.60079 0.77851
#
# Static dielectric constant tensor:
#      x y z
#    x 1.732050 0.000000 0.000000 
#    y 0.000000 1.674400 0.000000 
#    z 0.000000 0.000000 1.683140 
# 
# From -- ./inp_files/11478.got.cif
#   From: 2010.05.17/outbox.cif.g08.bks.cpg/sg51_6_cif.got.tgz:11478.got - 2010.06.03 11:52:47.
