data_PCOD9406479
_publ_section_title
;
Structure prediction by ZEFSAII (Michael W. Deem and Ramdas Pophale) SiO2 
 PCOD9406479
Probable space group: P M M A
;
_chemical_formula_sum "Si O2"
_cell_formula_units_Z 56
_cell_length_a 9.501819
_cell_length_b 19.450839
_cell_length_c 16.473198
_cell_angle_alpha 90.000000
_cell_angle_beta 90.000000
_cell_angle_gamma 90.000000
_cell_volume 3044.549300
_symmetry_space_group_name_H-M "P M M A"
_symmetry_group_IT_number 51
_symmetry_cell_setting 'orthorhombic'
loop_
_space_group_symop_operation_xyz
x,y,z
1/2-x,-y,z
1/2+x,-y,-z
-x,y,-z
-x,-y,-z
1/2+x,y,-z
1/2-x,y,z
x,-y,z
loop_
_atom_site_type_symbol
_atom_site_label
_atom_site_fract_x
_atom_site_fract_y
_atom_site_fract_z
Si Si1 0.914333 0.207505 0.924542
Si Si2 0.589413 0.113063 0.323395
Si Si3 0.086305 0.417535 0.917723
Si Si4 0.250000 0.278478 0.499593
Si Si5 0.087952 0.079808 0.867987
Si Si6 0.582097 0.000000 0.584411
Si Si7 0.916016 0.326128 0.794265
Si Si8 0.993884 0.733457 0.374677
O O1 0.750000 0.202889 0.943624
O O2 0.930547 0.255504 0.845823
O O3 0.982028 0.133352 0.907546
O O4 0.000000 0.238188 0.000000
O O5 0.750000 0.097898 0.352317
O O6 0.585028 0.094762 0.228482
O O7 0.475143 0.066239 0.367751
O O8 0.556827 0.192158 0.341838
O O9 0.250000 0.395822 0.924957
O O10 0.083892 0.500000 0.907219
O O11 0.008679 0.381054 0.843017
O O12 0.000000 0.402221 0.000000
O O13 0.371539 0.259185 0.432021
O O14 0.371510 0.294596 0.568268
O O15 0.250000 0.091506 0.894786
O O16 0.052888 0.000000 0.882401
O O17 0.500000 0.000000 0.500000
O O18 0.750000 0.000000 0.575649
O O19 0.750000 0.344488 0.794527
O O20 0.968271 0.312601 0.703277
#
# Coordination Sequence:
#
# PCOD9406479 Si02
#       8
#     8   8   8   4   8   4   8   8
#     4  11  24  40  59  88 119 152 199 253 306 362
#     4  11  22  39  59  81 111 147 194 247 310 380
#     4  10  22  40  65  99 139 178 214 252 298 357
#     4  10  24  38  58  87 125 156 200 256 314 368
#     4  10  21  39  60  82 109 150 196 249 307 370
#     4  12  28  38  54  76 107 148 193 252 316 384
#     4  11  23  39  63  96 130 168 209 254 303 370
#     4  11  22  39  60  90 120 161 200 255 313 372
#
# _framework density 18.393526999999999
#
# number of rings (size 3 to 8) (size 9 to 14) (size 15 to 20)
#    0.000    1.286    3.571    1.929    4.000    4.286 
#    0.000    0.000    0.000    0.000    0.000    3.000 
#    0.000    0.000    0.000    0.000    0.000    0.000 
#
# Total GULP energy -311766.370176 kJ/mol
# GULP energy per Si atom -5567.256610 kJ/mol
# Density = 1.835166 g / cm^3
# Si number density = 18.393527 Si / 1000 Ang^3
#
#
#
# Elastic Constant Matrix: (Units=GPa)
#
#
# Indices 1 2 3 4 5 6 
#
# 1 170.1119 41.7895 43.2663 0.0000 0.0000 0.0000
# 2 41.7895 54.1747 27.6997 0.0000 0.0000 0.0000
# 3 43.2663 27.6997 79.9080 0.0000 0.0000 0.0000
# 4 0.0000 0.0000 0.0000 -104.7736 0.0000 0.0000
# 5 0.0000 0.0000 0.0000 0.0000 33.0844 0.0000
# 6 0.0000 0.0000 0.0000 0.0000 0.0000 12.2356
#
#
#
# Elastic Compliance Matrix: (Units=1/GPa)
#
#
# Indices 1 2 3 4 5 6 
#
# 1 0.007658 -0.004603 -0.002551 0.000000 0.000000 0.000000
# 2 -0.004603 0.025202 -0.006244 0.000000 0.000000 0.000000
# 3 -0.002551 -0.006244 0.016060 0.000000 0.000000 0.000000
# 4 0.000000 0.000000 0.000000 -0.009544 0.000000 0.000000
# 5 0.000000 0.000000 0.000000 0.000000 0.030226 0.000000
# 6 0.000000 0.000000 0.000000 0.000000 0.000000 0.081729
#
#
# Mechanical properties :
#
#
# Convention : Reuss Voigt Hill
#
# Bulk Modulus (GPa) = 45.19860 58.85620 52.02740
# Shear Modulus (GPa) = 26.95413 0.87188 13.91301
#
# Velocity S-wave (km/s) = 3.83223 0.68923 2.75327
# Velocity P-wave (km/s) = 6.64889 5.71849 6.20117
#
# Compressibility (1/GPa) = 0.02212458
#
# Stress axis : x y z
#
# Youngs Moduli (GPa) = 130.58169 39.67935 62.26673
#
# Poissons Ratio (x) = 0.18265 0.15883
# Poissons Ratio (y) = 0.60107 0.38878
# Poissons Ratio (z) = 0.33309 0.24775
#
# Static dielectric constant tensor:
#      x y z
#    x 1.617010 0.000000 0.000000 
#    y 0.000000 1.596600 0.000000 
#    z 0.000000 0.000000 1.640230 
# 
# From -- ./inp_files/21943.got.cif
#   From: 2010.05.17/outbox.cif.g08.bks.cpg/sg51_11_cif.got.tgz:21943.got - 2010.06.03 11:52:47.
