data_PCOD9406468
_publ_section_title
;
Structure prediction by ZEFSAII (Michael W. Deem and Ramdas Pophale) SiO2 
 PCOD9406468
Probable space group: P M M A
;
_chemical_formula_sum "Si O2"
_cell_formula_units_Z 34
_cell_length_a 9.507266
_cell_length_b 10.236550
_cell_length_c 18.892254
_cell_angle_alpha 90.000000
_cell_angle_beta 90.000000
_cell_angle_gamma 90.000000
_cell_volume 1838.624458
_symmetry_space_group_name_H-M "P M M A"
_symmetry_group_IT_number 51
_symmetry_cell_setting 'orthorhombic'
loop_
_space_group_symop_operation_xyz
x,y,z
1/2-x,-y,z
1/2+x,-y,-z
-x,y,-z
-x,-y,-z
1/2+x,y,-z
1/2-x,y,z
x,-y,z
loop_
_atom_site_type_symbol
_atom_site_label
_atom_site_fract_x
_atom_site_fract_y
_atom_site_fract_z
Si Si1 0.250000 0.652938 0.926520
Si Si2 0.580579 0.150006 0.303115
Si Si3 0.750000 0.500000 0.825036
Si Si4 0.250000 0.145762 0.055241
Si Si5 0.581926 0.651340 0.427299
Si Si6 0.528244 0.263185 0.842896
O O1 0.250000 0.500000 0.946552
O O2 0.387430 0.686879 0.881080
O O3 0.250000 0.742732 0.995905
O O4 0.750000 0.159683 0.294988
O O5 0.539648 0.249565 0.365483
O O6 0.510817 0.191496 0.229705
O O7 0.546565 0.000000 0.320913
O O8 0.628169 0.385538 0.827458
O O9 0.386081 0.169212 0.104237
O O10 0.250000 0.000000 0.024933
O O11 0.500000 0.677133 0.500000
O O12 0.750000 0.664062 0.438772
O O13 0.554441 0.500000 0.406714
#
# Coordination Sequence:
#
# PCOD9406468 Si02
#       6
#     4   8   2   4   8   8
#     4  12  25  41  71  92 118 162 213 261 309 377
#     4  10  21  38  65  94 123 163 208 256 302 364
#     4  10  24  40  62  94 124 156 198 262 328 350
#     4  11  27  44  62  91 132 165 200 259 320 373
#     4   9  19  37  59  89 124 162 206 251 299 357
#     4  11  23  43  64  92 125 162 211 256 314 375
#
# _framework density 18.492083999999998
#
# number of rings (size 3 to 8) (size 9 to 14) (size 15 to 20)
#    0.000    1.647    2.353    1.412    4.941    4.235 
#    4.235    0.000    0.000    0.000    0.000    0.000 
#    0.000    0.000    0.000    0.000    0.000    0.000 
#
# Total GULP energy -189421.577039 kJ/mol
# GULP energy per Si atom -5571.222854 kJ/mol
# Density = 1.845000 g / cm^3
# Si number density = 18.492084 Si / 1000 Ang^3
#
#
#
# Elastic Constant Matrix: (Units=GPa)
#
#
# Indices 1 2 3 4 5 6 
#
# 1 90.9779 57.5012 54.4580 0.0000 0.0000 0.0000
# 2 57.5012 149.9189 96.5773 0.0000 0.0000 0.0000
# 3 54.4580 96.5773 142.3012 0.0000 0.0000 0.0000
# 4 0.0000 0.0000 0.0000 20.5727 0.0000 0.0000
# 5 0.0000 0.0000 0.0000 0.0000 12.1648 0.0000
# 6 0.0000 0.0000 0.0000 0.0000 0.0000 21.5004
#
#
#
# Elastic Compliance Matrix: (Units=1/GPa)
#
#
# Indices 1 2 3 4 5 6 
#
# 1 0.015352 -0.003738 -0.003339 0.000000 0.000000 0.000000
# 2 -0.003738 0.012762 -0.007231 0.000000 0.000000 0.000000
# 3 -0.003339 -0.007231 0.013213 0.000000 0.000000 0.000000
# 4 0.000000 0.000000 0.000000 0.048608 0.000000 0.000000
# 5 0.000000 0.000000 0.000000 0.000000 0.082205 0.000000
# 6 0.000000 0.000000 0.000000 0.000000 0.000000 0.046511
#
#
# Mechanical properties :
#
#
# Convention : Reuss Voigt Hill
#
# Bulk Modulus (GPa) = 78.66273 88.91902 83.79088
# Shear Modulus (GPa) = 19.88052 22.49168 21.18610
#
# Velocity S-wave (km/s) = 3.28240 3.49131 3.38847
# Velocity P-wave (km/s) = 7.54960 8.02756 7.79225
#
# Compressibility (1/GPa) = 0.01271250
#
# Stress axis : x y z
#
# Youngs Moduli (GPa) = 65.13605 78.35740 75.68560
#
# Poissons Ratio (x) = 0.29288 0.25269
# Poissons Ratio (y) = 0.24346 0.54728
# Poissons Ratio (z) = 0.21746 0.56660
#
# Static dielectric constant tensor:
#      x y z
#    x 1.624740 0.000000 0.000000 
#    y 0.000000 1.630300 0.000000 
#    z 0.000000 0.000000 1.608790 
# 
# From -- ./inp_files/31227.got.cif
#   From: 2010.05.17/outbox.cif.g08.bks.cpg/sg51_16_cif.got.tgz:31227.got - 2010.06.03 11:52:47.
