data_PCOD9406549
_publ_section_title
;
Structure prediction by ZEFSAII (Michael W. Deem and Ramdas Pophale) SiO2 
 PCOD9406549
Probable space group: P M M A
;
_chemical_formula_sum "Si O2"
_cell_formula_units_Z 48
_cell_length_a 18.868174
_cell_length_b 7.980602
_cell_length_c 14.615316
_cell_angle_alpha 90.000000
_cell_angle_beta 90.000000
_cell_angle_gamma 90.000000
_cell_volume 2200.765326
_symmetry_space_group_name_H-M "P M M A"
_symmetry_group_IT_number 51
_symmetry_cell_setting 'orthorhombic'
loop_
_space_group_symop_operation_xyz
x,y,z
1/2-x,-y,z
1/2+x,-y,-z
-x,y,-z
-x,-y,-z
1/2+x,y,-z
1/2-x,y,z
x,-y,z
loop_
_atom_site_type_symbol
_atom_site_label
_atom_site_fract_x
_atom_site_fract_y
_atom_site_fract_z
Si Si1 0.467293 0.700419 0.401917
Si Si2 0.831550 0.201890 0.886620
Si Si3 0.665087 0.500000 0.399030
Si Si4 0.603653 0.197862 0.088377
Si Si5 0.166563 0.500000 0.801458
Si Si6 0.331854 0.188678 0.475229
Si Si7 0.030322 0.799839 0.205101
O O1 0.500000 0.759889 0.500000
O O2 0.462199 0.500000 0.408040
O O3 0.389600 0.785302 0.397320
O O4 0.500058 0.742936 0.303262
O O5 0.750000 0.265437 0.882782
O O6 0.890964 0.269173 0.816446
O O7 0.826781 0.000000 0.874024
O O8 0.868774 0.225856 0.985530
O O9 0.750000 0.500000 0.395329
O O10 0.633948 0.500000 0.299252
O O11 0.647150 0.331452 0.452601
O O12 0.646086 0.330551 0.148033
O O13 0.522664 0.234141 0.119773
O O14 0.616096 0.000000 0.108495
O O15 0.250000 0.500000 0.792034
O O16 0.250000 0.215769 0.447158
O O17 0.336626 0.000000 0.512034
O O18 0.035495 0.000000 0.209534
#
# Coordination Sequence:
#
# PCOD9406549 Si02
#       7
#     8   8   4   8   4   8   8
#     4  11  25  41  62  90 128 172 215 266 321 378
#     4   9  18  38  67  94 125 166 211 262 319 380
#     4   9  20  38  56  84 124 161 203 259 315 372
#     4  10  22  40  65  93 128 169 209 259 324 385
#     4  11  24  38  60  93 130 168 212 263 315 382
#     4  10  21  39  64  89 118 162 212 263 321 379
#     4  10  22  39  61  94 128 165 214 266 320 381
#
# _framework density 21.810593999999998
#
# number of rings (size 3 to 8) (size 9 to 14) (size 15 to 20)
#    0.000    2.000    0.833    1.500    3.500    5.667 
#    1.500    4.167    0.000    0.000    0.000    0.000 
#    0.000    0.000    0.000    0.000    0.000    0.000 
#
# Total GULP energy -267634.881679 kJ/mol
# GULP energy per Si atom -5575.726702 kJ/mol
# Density = 2.176095 g / cm^3
# Si number density = 21.810594 Si / 1000 Ang^3
#
#
#
# Elastic Constant Matrix: (Units=GPa)
#
#
# Indices 1 2 3 4 5 6 
#
# 1 134.4374 26.3329 49.1200 0.0000 0.0000 0.0000
# 2 26.3329 55.3387 19.2234 0.0000 0.0000 0.0000
# 3 49.1200 19.2234 86.0431 0.0000 0.0000 0.0000
# 4 0.0000 0.0000 0.0000 10.8912 0.0000 0.0000
# 5 0.0000 0.0000 0.0000 0.0000 23.1521 0.0000
# 6 0.0000 0.0000 0.0000 0.0000 0.0000 32.0868
#
#
#
# Elastic Compliance Matrix: (Units=1/GPa)
#
#
# Indices 1 2 3 4 5 6 
#
# 1 0.009826 -0.002956 -0.004949 0.000000 0.000000 0.000000
# 2 -0.002956 0.020481 -0.002888 0.000000 0.000000 0.000000
# 3 -0.004949 -0.002888 0.015092 0.000000 0.000000 0.000000
# 4 0.000000 0.000000 0.000000 0.091817 0.000000 0.000000
# 5 0.000000 0.000000 0.000000 0.000000 0.043193 0.000000
# 6 0.000000 0.000000 0.000000 0.000000 0.000000 0.031165
#
#
# Mechanical properties :
#
#
# Convention : Reuss Voigt Hill
#
# Bulk Modulus (GPa) = 41.99485 51.68575 46.84030
# Shear Modulus (GPa) = 20.73852 25.30222 23.02037
#
# Velocity S-wave (km/s) = 3.08692 3.40970 3.25232
# Velocity P-wave (km/s) = 5.65700 6.26502 5.96875
#
# Compressibility (1/GPa) = 0.02381244
#
# Stress axis : x y z
#
# Youngs Moduli (GPa) = 101.77462 48.82677 66.25862
#
# Poissons Ratio (x) = 0.14435 0.32789
# Poissons Ratio (y) = 0.30089 0.19135
# Poissons Ratio (z) = 0.50365 0.14101
#
# Static dielectric constant tensor:
#      x y z
#    x 1.902670 0.000000 0.000000 
#    y 0.000000 1.731320 0.000000 
#    z 0.000000 0.000000 1.803660 
# 
# From -- ./inp_files/24878.got.cif
#   From: 2010.05.17/outbox.cif.g08.bks.cpg/sg51_13_cif.got.tgz:24878.got - 2010.06.03 11:52:47.
