data_PCOD9406355
_publ_section_title
;
Structure prediction by ZEFSAII (Michael W. Deem and Ramdas Pophale) SiO2 
 PCOD9406355
Probable space group: P M M A
;
_chemical_formula_sum "Si O2"
_cell_formula_units_Z 64
_cell_length_a 15.835060
_cell_length_b 8.816335
_cell_length_c 24.292349
_cell_angle_alpha 90.000000
_cell_angle_beta 90.000000
_cell_angle_gamma 90.000000
_cell_volume 3391.386672
_symmetry_space_group_name_H-M "P M M A"
_symmetry_group_IT_number 51
_symmetry_cell_setting 'orthorhombic'
loop_
_space_group_symop_operation_xyz
x,y,z
1/2-x,-y,z
1/2+x,-y,-z
-x,y,-z
-x,-y,-z
1/2+x,y,-z
1/2-x,y,z
x,-y,z
loop_
_atom_site_type_symbol
_atom_site_label
_atom_site_fract_x
_atom_site_fract_y
_atom_site_fract_z
Si Si1 0.654367 0.681255 0.364306
Si Si2 0.995564 0.183122 0.436220
Si Si3 0.654733 0.818837 0.866321
Si Si4 0.654697 0.181976 0.129635
Si Si5 0.090427 0.818612 0.748416
Si Si6 0.344510 0.182036 0.362140
Si Si7 0.597333 0.681061 0.751996
Si Si8 0.997974 0.681311 0.935667
O O1 0.750000 0.717133 0.382095
O O2 0.645580 0.500000 0.360380
O O3 0.584223 0.746048 0.405318
O O4 0.637817 0.752875 0.304386
O O5 0.000000 0.228004 0.500000
O O6 0.080989 0.226432 0.403763
O O7 0.988414 0.000000 0.433728
O O8 0.750000 0.785173 0.885654
O O9 0.641445 0.748363 0.805980
O O10 0.582793 0.753605 0.905783
O O11 0.644938 0.000000 0.862316
O O12 0.750000 0.228675 0.115061
O O13 0.637545 0.212338 0.194193
O O14 0.582386 0.260945 0.094286
O O15 0.647892 0.000000 0.122290
O O16 0.998215 0.743744 0.751192
O O17 0.081224 0.000000 0.742482
O O18 0.250000 0.215536 0.382740
O O19 0.359240 0.261715 0.303782
O O20 0.350624 0.000000 0.353869
O O21 0.597227 0.500000 0.754371
O O22 0.992793 0.500000 0.930644
O O23 0.000000 0.722105 0.000000
#
# Coordination Sequence:
#
# PCOD9406355 Si02
#       8
#     8   8   8   8   8   8   8   8
#     4  11  24  40  60  90 126 163 201 246 303 363
#     4  10  22  40  63  89 117 157 208 257 303 355
#     4  11  24  42  65  92 122 161 206 251 301 358
#     4  10  22  40  64  93 123 158 201 247 299 361
#     4  11  21  37  63  92 123 160 200 245 301 361
#     4  10  21  38  60  87 121 160 200 246 300 360
#     4  12  23  36  60  93 126 159 196 244 305 366
#     4  11  25  43  63  89 122 162 206 253 306 360
#
# _framework density 18.871338000000002
#
# number of rings (size 3 to 8) (size 9 to 14) (size 15 to 20)
#    0.000    1.250    2.500    3.375    0.000    7.250 
#    0.000    3.750    0.000    0.000    0.000    0.000 
#    0.000    0.000    0.000    0.000    0.000    0.000 
#
# Total GULP energy -357876.447070 kJ/mol
# GULP energy per Si atom -5591.819485 kJ/mol
# Density = 1.882839 g / cm^3
# Si number density = 18.871338 Si / 1000 Ang^3
#
#
#
# Elastic Constant Matrix: (Units=GPa)
#
#
# Indices 1 2 3 4 5 6 
#
# 1 192.3430 69.8319 96.0895 0.0000 0.0000 0.0000
# 2 69.8319 55.9945 63.4443 0.0000 0.0000 0.0000
# 3 96.0895 63.4443 156.3369 0.0000 0.0000 0.0000
# 4 0.0000 0.0000 0.0000 50.3064 0.0000 0.0000
# 5 0.0000 0.0000 0.0000 0.0000 -4.4132 0.0000
# 6 0.0000 0.0000 0.0000 0.0000 0.0000 30.0091
#
#
#
# Elastic Compliance Matrix: (Units=1/GPa)
#
#
# Indices 1 2 3 4 5 6 
#
# 1 0.009819 -0.010010 -0.001973 0.000000 0.000000 0.000000
# 2 -0.010010 0.043266 -0.011405 0.000000 0.000000 0.000000
# 3 -0.001973 -0.011405 0.012237 0.000000 0.000000 0.000000
# 4 0.000000 0.000000 0.000000 0.019878 0.000000 0.000000
# 5 0.000000 0.000000 0.000000 0.000000 -0.226595 0.000000
# 6 0.000000 0.000000 0.000000 0.000000 0.000000 0.033323
#
#
# Mechanical properties :
#
#
# Convention : Reuss Voigt Hill
#
# Bulk Modulus (GPa) = 53.92162 95.93400 74.92781
# Shear Modulus (GPa) = -90.72259 26.86772 -31.92743
#
# Velocity S-wave (km/s) = -6.94108 3.77733 -4.11767
# Velocity P-wave (km/s) = 5.96681 8.36484 4.14534
#
# Compressibility (1/GPa) = 0.01854544
#
# Stress axis : x y z
#
# Youngs Moduli (GPa) = 101.84538 23.11302 81.71664
#
# Poissons Ratio (x) = 0.23136 0.16120
# Poissons Ratio (y) = 1.01949 0.93201
# Poissons Ratio (z) = 0.20090 0.26361
#
# Static dielectric constant tensor:
#      x y z
#    x 1.649060 0.000000 0.000000 
#    y 0.000000 1.631380 0.000000 
#    z 0.000000 0.000000 1.623280 
# 
# From -- ./inp_files/35719.got.cif
#   From: 2010.05.17/outbox.cif.g08.bks.cpg/sg51_18_cif.got.tgz:35719.got - 2010.06.03 11:52:47.
