data_PCOD9406577
_publ_section_title
;
Structure prediction by ZEFSAII (Michael W. Deem and Ramdas Pophale) SiO2 
 PCOD9406577
Probable space group: P M M A
;
_chemical_formula_sum "Si O2"
_cell_formula_units_Z 38
_cell_length_a 11.612186
_cell_length_b 8.279682
_cell_length_c 18.141091
_cell_angle_alpha 90.000000
_cell_angle_beta 90.000000
_cell_angle_gamma 90.000000
_cell_volume 1744.178957
_symmetry_space_group_name_H-M "P M M A"
_symmetry_group_IT_number 51
_symmetry_cell_setting 'orthorhombic'
loop_
_space_group_symop_operation_xyz
x,y,z
1/2-x,-y,z
1/2+x,-y,-z
-x,y,-z
-x,-y,-z
1/2+x,y,-z
1/2-x,y,z
x,-y,z
loop_
_atom_site_type_symbol
_atom_site_label
_atom_site_fract_x
_atom_site_fract_y
_atom_site_fract_z
Si Si1 0.884089 0.500000 0.074766
Si Si2 0.053304 0.327996 0.581831
Si Si3 0.112336 0.819791 0.847124
Si Si4 0.457867 0.185609 0.284932
Si Si5 0.750000 0.500000 0.932776
Si Si6 0.750000 0.189505 0.828317
Si Si7 0.372509 0.000000 0.537911
O O1 0.750000 0.500000 0.103684
O O2 0.932858 0.668369 0.105348
O O3 0.861064 0.500000 0.987455
O O4 0.111149 0.500000 0.594891
O O5 0.126181 0.164940 0.583747
O O6 0.000000 0.333557 0.500000
O O7 0.957868 0.299944 0.644726
O O8 0.250000 0.825932 0.854067
O O9 0.073922 0.793660 0.762809
O O10 0.067667 0.000000 0.868249
O O11 0.359116 0.211898 0.225048
O O12 0.447438 0.000000 0.310322
O O13 0.750000 0.333441 0.887431
O O14 0.750000 0.000000 0.854798
O O15 0.500000 0.000000 0.500000
O O16 0.250000 0.000000 0.494082
#
# Coordination Sequence:
#
# PCOD9406577 Si02
#       7
#     4   8   8   8   2   4   4
#     4   8  18  35  58  90 117 155 205 243 317 390
#     4  10  22  41  63  95 131 175 228 286 342 400
#     4   9  18  34  59  87 119 155 199 256 315 380
#     4  10  21  40  63  91 126 173 220 269 337 399
#     4  10  22  40  66  94 124 166 212 258 334 392
#     4  10  24  42  60  92 129 169 216 267 323 404
#     4  10  22  44  68  98 140 182 231 287 350 410
#
# _framework density 21.786754999999999
#
# number of rings (size 3 to 8) (size 9 to 14) (size 15 to 20)
#    0.316    2.105    1.053    0.000    2.947    2.105 
#    7.579    2.105    0.000    3.789    0.000    0.000 
#    0.000    0.000    0.000    0.000    0.000    0.000 
#
# Total GULP energy -211615.482579 kJ/mol
# GULP energy per Si atom -5568.828489 kJ/mol
# Density = 2.173717 g / cm^3
# Si number density = 21.786755 Si / 1000 Ang^3
#
#
#
# Elastic Constant Matrix: (Units=GPa)
#
#
# Indices 1 2 3 4 5 6 
#
# 1 57.1158 25.7411 15.2271 0.0000 0.0000 0.0000
# 2 25.7411 207.6500 88.7810 0.0000 0.0000 0.0000
# 3 15.2271 88.7810 117.9662 0.0000 0.0000 0.0000
# 4 0.0000 0.0000 0.0000 43.7942 0.0000 0.0000
# 5 0.0000 0.0000 0.0000 0.0000 14.2414 0.0000
# 6 0.0000 0.0000 0.0000 0.0000 0.0000 4.4265
#
#
#
# Elastic Compliance Matrix: (Units=1/GPa)
#
#
# Indices 1 2 3 4 5 6 
#
# 1 0.018621 -0.001888 -0.000983 0.000000 0.000000 0.000000
# 2 -0.001888 0.007292 -0.005244 0.000000 0.000000 0.000000
# 3 -0.000983 -0.005244 0.012551 0.000000 0.000000 0.000000
# 4 0.000000 0.000000 0.000000 0.022834 0.000000 0.000000
# 5 0.000000 0.000000 0.000000 0.000000 0.070218 0.000000
# 6 0.000000 0.000000 0.000000 0.000000 0.000000 0.225914
#
#
# Mechanical properties :
#
#
# Convention : Reuss Voigt Hill
#
# Bulk Modulus (GPa) = 44.97648 71.35893 58.16770
# Shear Modulus (GPa) = 13.12092 29.35793 21.23943
#
# Velocity S-wave (km/s) = 2.45673 3.67483 3.12569
# Velocity P-wave (km/s) = 5.36061 7.12954 6.30739
#
# Compressibility (1/GPa) = 0.02223384
#
# Stress axis : x y z
#
# Youngs Moduli (GPa) = 53.70212 137.13559 79.67727
#
# Poissons Ratio (x) = 0.25895 0.07828
# Poissons Ratio (y) = 0.10140 0.41785
# Poissons Ratio (z) = 0.05276 0.71917
#
# Static dielectric constant tensor:
#      x y z
#    x 1.861400 0.000000 0.000000 
#    y 0.000000 1.846050 0.000000 
#    z 0.000000 0.000000 1.796930 
# 
# From -- ./inp_files/28876.got.cif
#   From: 2010.05.17/outbox.cif.g08.bks.cpg/sg51_15_cif.got.tgz:28876.got - 2010.06.03 11:52:47.
