data_PCOD9406314
_publ_section_title
;
Structure prediction by ZEFSAII (Michael W. Deem and Ramdas Pophale) SiO2 
 PCOD9406314
Probable space group: P M M A
;
_chemical_formula_sum "Si O2"
_cell_formula_units_Z 58
_cell_length_a 9.605173
_cell_length_b 14.258303
_cell_length_c 23.389647
_cell_angle_alpha 90.000000
_cell_angle_beta 90.000000
_cell_angle_gamma 90.000000
_cell_volume 3203.293249
_symmetry_space_group_name_H-M "P M M A"
_symmetry_group_IT_number 51
_symmetry_cell_setting 'orthorhombic'
loop_
_space_group_symop_operation_xyz
x,y,z
1/2-x,-y,z
1/2+x,-y,-z
-x,y,-z
-x,-y,-z
1/2+x,y,-z
1/2-x,y,z
x,-y,z
loop_
_atom_site_type_symbol
_atom_site_label
_atom_site_fract_x
_atom_site_fract_y
_atom_site_fract_z
Si Si1 0.914894 0.610817 0.058685
Si Si2 0.589276 0.387779 0.724763
Si Si3 0.085156 0.393257 0.612766
Si Si4 0.414854 0.203143 0.555391
Si Si5 0.536433 0.896302 0.782529
Si Si6 0.087651 0.710346 0.156515
Si Si7 0.405369 0.886939 0.347154
Si Si8 0.750000 0.000000 0.218161
O O1 0.750000 0.631030 0.052099
O O2 0.927842 0.500000 0.073650
O O3 0.987765 0.673051 0.107143
O O4 0.000000 0.624997 0.000000
O O5 0.750000 0.362638 0.712903
O O6 0.581758 0.500000 0.732508
O O7 0.496250 0.364986 0.670078
O O8 0.547784 0.339773 0.783846
O O9 0.250000 0.393300 0.624948
O O10 0.044250 0.500000 0.597100
O O11 0.061477 0.314278 0.565470
O O12 0.500000 0.171208 0.500000
O O13 0.250000 0.185766 0.549895
O O14 0.478226 0.154108 0.611474
O O15 0.574891 0.820527 0.829763
O O16 0.578092 0.860563 0.719404
O O17 0.372983 0.919425 0.781589
O O18 0.600255 0.000000 0.791388
O O19 0.250000 0.687274 0.144163
O O20 0.250000 0.859322 0.366709
O O21 0.415397 0.000000 0.348392
#
# Coordination Sequence:
#
# PCOD9406314 Si02
#       8
#     8   8   8   8   8   8   8   2
#     4  10  22  39  59  83 115 156 200 241 280 325
#     4   9  18  32  50  77 110 142 174 212 264 324
#     4   9  19  36  54  74 102 135 171 215 266 320
#     4  11  24  38  55  76 101 134 175 222 270 321
#     4   9  20  35  57  83 116 147 182 221 277 326
#     4  11  21  33  56  85 116 151 188 232 279 328
#     4  10  21  38  60  81 108 140 175 217 268 328
#     4   8  20  36  54  84 118 152 178 232 268 330
#
# _framework density 18.106366000000001
#
# number of rings (size 3 to 8) (size 9 to 14) (size 15 to 20)
#    0.414    1.793    0.000    2.483    1.931    5.793 
#    0.000    1.379    0.000    0.414    0.000    0.000 
#    0.000    0.000    0.000    0.000    0.000    0.000 
#
# Total GULP energy -322993.407395 kJ/mol
# GULP energy per Si atom -5568.851852 kJ/mol
# Density = 1.806515 g / cm^3
# Si number density = 18.106366 Si / 1000 Ang^3
#
#
#
# Elastic Constant Matrix: (Units=GPa)
#
#
# Indices 1 2 3 4 5 6 
#
# 1 105.7051 33.6269 49.0800 0.0000 0.0000 0.0000
# 2 33.6269 56.9100 44.8663 0.0000 0.0000 0.0000
# 3 49.0800 44.8663 83.6691 0.0000 0.0000 0.0000
# 4 0.0000 0.0000 0.0000 20.6111 0.0000 0.0000
# 5 0.0000 0.0000 0.0000 0.0000 20.9980 0.0000
# 6 0.0000 0.0000 0.0000 0.0000 0.0000 27.4862
#
#
#
# Elastic Compliance Matrix: (Units=1/GPa)
#
#
# Indices 1 2 3 4 5 6 
#
# 1 0.013282 -0.002955 -0.006207 0.000000 0.000000 0.000000
# 2 -0.002955 0.031098 -0.014942 0.000000 0.000000 0.000000
# 3 -0.006207 -0.014942 0.023605 0.000000 0.000000 0.000000
# 4 0.000000 0.000000 0.000000 0.048518 0.000000 0.000000
# 5 0.000000 0.000000 0.000000 0.000000 0.047624 0.000000
# 6 0.000000 0.000000 0.000000 0.000000 0.000000 0.036382
#
#
# Mechanical properties :
#
#
# Convention : Reuss Voigt Hill
#
# Bulk Modulus (GPa) = 50.56327 55.71450 53.13888
# Shear Modulus (GPa) = 19.58414 21.73312 20.65863
#
# Velocity S-wave (km/s) = 3.29236 3.46830 3.38147
# Velocity P-wave (km/s) = 6.51454 6.84662 6.68264
#
# Compressibility (1/GPa) = 0.01977720
#
# Stress axis : x y z
#
# Youngs Moduli (GPa) = 75.28899 32.15667 42.36339
#
# Poissons Ratio (x) = 0.09502 0.26294
# Poissons Ratio (y) = 0.22247 0.63301
# Poissons Ratio (z) = 0.46730 0.48050
#
# Static dielectric constant tensor:
#      x y z
#    x 1.606460 0.000000 0.000000 
#    y 0.000000 1.658700 0.000000 
#    z 0.000000 0.000000 1.585570 
# 
# From -- ./inp_files/34784.got.cif
#   From: 2010.05.17/outbox.cif.g08.bks.cpg/sg51_18_cif.got.tgz:34784.got - 2010.06.03 11:52:47.
