data_PCOD9406219
_publ_section_title
;
Structure prediction by ZEFSAII (Michael W. Deem and Ramdas Pophale) SiO2 
 PCOD9406219
Probable space group: P M M A
;
_chemical_formula_sum "Si O2"
_cell_formula_units_Z 48
_cell_length_a 9.214336
_cell_length_b 18.590622
_cell_length_c 14.418609
_cell_angle_alpha 90.000000
_cell_angle_beta 90.000000
_cell_angle_gamma 90.000000
_cell_volume 2469.911147
_symmetry_space_group_name_H-M "P M M A"
_symmetry_group_IT_number 51
_symmetry_cell_setting 'orthorhombic'
loop_
_space_group_symop_operation_xyz
x,y,z
1/2-x,-y,z
1/2+x,-y,-z
-x,y,-z
-x,-y,-z
1/2+x,y,-z
1/2-x,y,z
x,-y,z
loop_
_atom_site_type_symbol
_atom_site_label
_atom_site_fract_x
_atom_site_fract_y
_atom_site_fract_z
Si Si1 0.093879 0.500000 0.360821
Si Si2 0.422199 0.196418 0.091568
Si Si3 0.000000 0.619840 0.500000
Si Si4 0.076284 0.000000 0.400434
Si Si5 0.586670 0.711246 0.335755
Si Si6 0.423543 0.500000 0.826885
Si Si7 0.076054 0.645846 0.162960
Si Si8 0.424254 0.147731 0.296673
O O1 0.250000 0.500000 0.311856
O O2 0.083001 0.567412 0.429617
O O3 0.969908 0.500000 0.282680
O O4 0.250000 0.190523 0.080210
O O5 0.456148 0.281396 0.105885
O O6 0.460701 0.156216 0.187427
O O7 0.500000 0.169133 0.000000
O O8 0.090926 0.670444 0.567156
O O9 0.040432 0.071300 0.341496
O O10 0.000000 0.000000 0.500000
O O11 0.250000 0.000000 0.414497
O O12 0.750000 0.717225 0.297765
O O13 0.487019 0.666595 0.264188
O O14 0.511891 0.788517 0.345790
O O15 0.250000 0.500000 0.836061
O O16 0.495413 0.427116 0.866715
O O17 0.250000 0.636317 0.165467
O O18 0.250000 0.160112 0.304817
#
# Coordination Sequence:
#
# PCOD9406219 Si02
#       8
#     4   8   4   4   8   4   8   8
#     4  11  23  37  52  69 104 154 196 247 308 360
#     4   9  19  37  63  91 117 150 190 239 297 359
#     4  11  24  34  50  77 112 144 202 245 304 346
#     4  10  22  42  65  90 126 170 207 244 283 338
#     4  11  22  35  54  81 111 146 195 248 292 342
#     4  12  23  35  53  78 107 144 196 249 299 352
#     4  10  21  38  57  78 110 151 191 233 296 361
#     4   9  21  41  62  87 122 161 198 237 294 354
#
# _framework density 19.433897000000002
#
# number of rings (size 3 to 8) (size 9 to 14) (size 15 to 20)
#    0.000    1.833    1.667    3.250    1.167    7.333 
#    0.000    0.833    0.000    0.000    0.000    0.000 
#    0.000    0.000    0.000    0.000    0.000    0.000 
#
# Total GULP energy -267906.763382 kJ/mol
# GULP energy per Si atom -5581.390904 kJ/mol
# Density = 1.938966 g / cm^3
# Si number density = 19.433897 Si / 1000 Ang^3
#
#
#
# Elastic Constant Matrix: (Units=GPa)
#
#
# Indices 1 2 3 4 5 6 
#
# 1 80.8923 46.9753 30.0363 0.0000 0.0000 0.0000
# 2 46.9753 139.4923 50.0730 0.0000 0.0000 0.0000
# 3 30.0363 50.0730 94.5030 0.0000 0.0000 0.0000
# 4 0.0000 0.0000 0.0000 14.1396 0.0000 0.0000
# 5 0.0000 0.0000 0.0000 0.0000 25.8082 0.0000
# 6 0.0000 0.0000 0.0000 0.0000 0.0000 -19.6737
#
#
#
# Elastic Compliance Matrix: (Units=1/GPa)
#
#
# Indices 1 2 3 4 5 6 
#
# 1 0.015922 -0.004378 -0.002741 0.000000 0.000000 0.000000
# 2 -0.004378 0.010056 -0.003937 0.000000 0.000000 0.000000
# 3 -0.002741 -0.003937 0.013539 0.000000 0.000000 0.000000
# 4 0.000000 0.000000 0.000000 0.070723 0.000000 0.000000
# 5 0.000000 0.000000 0.000000 0.000000 0.038747 0.000000
# 6 0.000000 0.000000 0.000000 0.000000 0.000000 -0.050829
#
#
# Mechanical properties :
#
#
# Convention : Reuss Voigt Hill
#
# Bulk Modulus (GPa) = 57.45250 63.22855 60.34052
# Shear Modulus (GPa) = 39.65966 16.57503 28.11734
#
# Velocity S-wave (km/s) = 4.52236 2.92360 3.80783
# Velocity P-wave (km/s) = 7.54296 6.63343 7.10277
#
# Compressibility (1/GPa) = 0.01740568
#
# Stress axis : x y z
#
# Youngs Moduli (GPa) = 62.80523 99.43865 73.86146
#
# Poissons Ratio (x) = 0.43535 0.20245
# Poissons Ratio (y) = 0.27497 0.29079
# Poissons Ratio (z) = 0.17214 0.39149
#
# Static dielectric constant tensor:
#      x y z
#    x 1.670430 0.000000 0.000000 
#    y 0.000000 1.692630 0.000000 
#    z 0.000000 0.000000 1.675600 
# 
# From -- ./inp_files/21261.got.cif
#   From: 2010.05.17/outbox.cif.g08.bks.cpg/sg51_11_cif.got.tgz:21261.got - 2010.06.03 11:52:47.
