data_PCOD9406780
_publ_section_title
;
Structure prediction by ZEFSAII (Michael W. Deem and Ramdas Pophale) SiO2 
 PCOD9406780
Probable space group: P M M A
;
_chemical_formula_sum "Si O2"
_cell_formula_units_Z 40
_cell_length_a 14.194915
_cell_length_b 11.516159
_cell_length_c 12.326762
_cell_angle_alpha 90.000000
_cell_angle_beta 90.000000
_cell_angle_gamma 90.000000
_cell_volume 2015.066855
_symmetry_space_group_name_H-M "P M M A"
_symmetry_group_IT_number 51
_symmetry_cell_setting 'orthorhombic'
loop_
_space_group_symop_operation_xyz
x,y,z
1/2-x,-y,z
1/2+x,-y,-z
-x,y,-z
-x,-y,-z
1/2+x,y,-z
1/2-x,y,z
x,-y,z
loop_
_atom_site_type_symbol
_atom_site_label
_atom_site_fract_x
_atom_site_fract_y
_atom_site_fract_z
Si Si1 0.470034 0.303007 0.826535
Si Si2 0.144056 0.863740 0.691468
Si Si3 0.641376 0.635157 0.962637
Si Si4 0.444884 0.375046 0.386354
Si Si5 0.363532 0.868066 0.441783
O O1 0.423478 0.186774 0.781893
O O2 0.400434 0.355902 0.916249
O O3 0.485780 0.374180 0.716529
O O4 0.570805 0.294281 0.885685
O O5 0.250000 0.812183 0.698940
O O6 0.108223 0.848043 0.568039
O O7 0.151887 0.000000 0.705834
O O8 0.750000 0.671102 0.958044
O O9 0.634656 0.500000 0.928825
O O10 0.500000 0.375435 0.500000
O O11 0.391235 0.500000 0.381925
O O12 0.392733 0.249982 0.380549
O O13 0.250000 0.873405 0.441063
O O14 0.396341 0.000000 0.409373
#
# Coordination Sequence:
#
# PCOD9406780 Si02
#       5
#     8   8   8   8   8
#     4  11  20  37  62  86 114 155 200 247 297 360
#     4   9  18  34  58  88 120 157 201 246 294 352
#     4  10  22  40  61  83 111 153 204 252 296 352
#     4  11  22  34  52  87 129 158 186 237 305 366
#     4   9  19  37  58  82 117 163 209 244 284 356
#
# _framework density 19.850459000000001
#
# number of rings (size 3 to 8) (size 9 to 14) (size 15 to 20)
#    0.000    2.000    2.000    4.200    0.000    2.400 
#    0.000    2.000    0.000    1.800    0.000    2.800 
#    0.000    0.000    0.000    0.000    0.000    0.000 
#
# Total GULP energy -222866.548984 kJ/mol
# GULP energy per Si atom -5571.663725 kJ/mol
# Density = 1.980528 g / cm^3
# Si number density = 19.850459 Si / 1000 Ang^3
#
#
#
# Elastic Constant Matrix: (Units=GPa)
#
#
# Indices 1 2 3 4 5 6 
#
# 1 93.0907 35.7832 31.5645 0.0000 0.0000 0.0000
# 2 35.7832 124.3834 24.1925 0.0000 0.0000 0.0000
# 3 31.5645 24.1925 96.5162 0.0000 0.0000 0.0000
# 4 0.0000 0.0000 0.0000 41.2220 0.0000 0.0000
# 5 0.0000 0.0000 0.0000 0.0000 20.8927 0.0000
# 6 0.0000 0.0000 0.0000 0.0000 0.0000 72.1711
#
#
#
# Elastic Compliance Matrix: (Units=1/GPa)
#
#
# Indices 1 2 3 4 5 6 
#
# 1 0.013123 -0.003091 -0.003517 0.000000 0.000000 0.000000
# 2 -0.003091 0.009180 -0.001290 0.000000 0.000000 0.000000
# 3 -0.003517 -0.001290 0.011834 0.000000 0.000000 0.000000
# 4 0.000000 0.000000 0.000000 0.024259 0.000000 0.000000
# 5 0.000000 0.000000 0.000000 0.000000 0.047864 0.000000
# 6 0.000000 0.000000 0.000000 0.000000 0.000000 0.013856
#
#
# Mechanical properties :
#
#
# Convention : Reuss Voigt Hill
#
# Bulk Modulus (GPa) = 54.52277 55.23010 54.87644
# Shear Modulus (GPa) = 35.20491 41.68717 38.44604
#
# Velocity S-wave (km/s) = 4.21587 4.58761 4.40566
# Velocity P-wave (km/s) = 7.15713 7.47964 7.32016
#
# Compressibility (1/GPa) = 0.01834096
#
# Stress axis : x y z
#
# Youngs Moduli (GPa) = 76.20255 108.93394 84.49897
#
# Poissons Ratio (x) = 0.33674 0.29717
# Poissons Ratio (y) = 0.23556 0.10901
# Poissons Ratio (z) = 0.26799 0.14053
#
# Static dielectric constant tensor:
#      x y z
#    x 1.747450 0.000000 0.000000 
#    y 0.000000 1.738870 0.000000 
#    z 0.000000 0.000000 1.689200 
# 
# From -- ./inp_files/16160.got.cif
#   From: 2010.05.17/outbox.cif.g08.bks.cpg/sg51_9_cif.got.tgz:16160.got - 2010.06.03 11:52:47.
