data_PCOD9406047
_publ_section_title
;
Structure prediction by ZEFSAII (Michael W. Deem and Ramdas Pophale) SiO2 
 PCOD9406047
Probable space group: P M M A
;
_chemical_formula_sum "Si O2"
_cell_formula_units_Z 44
_cell_length_a 8.812765
_cell_length_b 28.965524
_cell_length_c 9.383104
_cell_angle_alpha 90.000000
_cell_angle_beta 90.000000
_cell_angle_gamma 90.000000
_cell_volume 2395.190767
_symmetry_space_group_name_H-M "P M M A"
_symmetry_group_IT_number 51
_symmetry_cell_setting 'orthorhombic'
loop_
_space_group_symop_operation_xyz
x,y,z
1/2-x,-y,z
1/2+x,-y,-z
-x,y,-z
-x,-y,-z
1/2+x,y,-z
1/2-x,y,z
x,-y,z
loop_
_atom_site_type_symbol
_atom_site_label
_atom_site_fract_x
_atom_site_fract_y
_atom_site_fract_z
Si Si1 0.431477 0.051320 0.657798
Si Si2 0.432457 0.679656 0.657748
Si Si3 0.566594 0.500000 0.341280
Si Si4 0.568913 0.867200 0.843226
Si Si5 0.567240 0.410415 0.158319
Si Si6 0.431918 0.761752 0.158590
O O1 0.500000 0.053225 0.500000
O O2 0.250000 0.055224 0.651126
O O3 0.499212 0.093184 0.746446
O O4 0.468412 0.000000 0.717171
O O5 0.500000 0.674637 0.500000
O O6 0.250000 0.681721 0.649615
O O7 0.475268 0.635838 0.755994
O O8 0.496392 0.725186 0.734102
O O9 0.750000 0.500000 0.351959
O O10 0.500000 0.500000 0.500000
O O11 0.520292 0.454763 0.251718
O O12 0.750000 0.871963 0.848518
O O13 0.534476 0.814599 0.795936
O O14 0.500000 0.872013 0.000000
O O15 0.750000 0.411377 0.146618
O O16 0.500000 0.411302 0.000000
O O17 0.250000 0.756126 0.152184
O O18 0.500000 0.755081 0.000000
#
# Coordination Sequence:
#
# PCOD9406047 Si02
#       6
#     8   8   4   8   8   8
#     4  10  21  37  57  81 110 145 184 226 274 328
#     4  11  23  38  57  83 113 147 187 231 279 331
#     4  10  21  38  58  84 116 148 185 230 278 328
#     4  10  21  37  58  83 111 144 183 227 275 327
#     4  10  22  38  58  84 113 147 188 230 276 331
#     4  10  21  38  59  83 111 145 184 227 276 330
#
# _framework density 18.370144
#
# number of rings (size 3 to 8) (size 9 to 14) (size 15 to 20)
#    0.000    1.818    0.000    3.545    0.000    8.000 
#    0.000    0.000    0.000    0.000    0.000    0.000 
#    0.000    0.000    0.000    0.000    0.000    0.000 
#
# Total GULP energy -245818.167342 kJ/mol
# GULP energy per Si atom -5586.776531 kJ/mol
# Density = 1.832833 g / cm^3
# Si number density = 18.370144 Si / 1000 Ang^3
#
#
#
# Elastic Constant Matrix: (Units=GPa)
#
#
# Indices 1 2 3 4 5 6 
#
# 1 63.0983 75.8133 56.0204 0.0000 0.0000 0.0000
# 2 75.8133 193.5717 121.1166 0.0000 0.0000 0.0000
# 3 56.0204 121.1166 151.0790 0.0000 0.0000 0.0000
# 4 0.0000 0.0000 0.0000 49.6299 0.0000 0.0000
# 5 0.0000 0.0000 0.0000 0.0000 41.4940 0.0000
# 6 0.0000 0.0000 0.0000 0.0000 0.0000 33.1084
#
#
#
# Elastic Compliance Matrix: (Units=1/GPa)
#
#
# Indices 1 2 3 4 5 6 
#
# 1 0.030839 -0.009878 -0.003516 0.000000 0.000000 0.000000
# 2 -0.009878 0.013530 -0.007183 0.000000 0.000000 0.000000
# 3 -0.003516 -0.007183 0.013682 0.000000 0.000000 0.000000
# 4 0.000000 0.000000 0.000000 0.020149 0.000000 0.000000
# 5 0.000000 0.000000 0.000000 0.000000 0.024100 0.000000
# 6 0.000000 0.000000 0.000000 0.000000 0.000000 0.030204
#
#
# Mechanical properties :
#
#
# Convention : Reuss Voigt Hill
#
# Bulk Modulus (GPa) = 59.19058 101.51663 80.35361
# Shear Modulus (GPa) = 27.88792 35.16638 31.52715
#
# Velocity S-wave (km/s) = 3.90052 4.38004 4.14722
# Velocity P-wave (km/s) = 7.25096 8.99786 8.17123
#
# Compressibility (1/GPa) = 0.01689458
#
# Stress axis : x y z
#
# Youngs Moduli (GPa) = 32.42692 73.91237 73.09112
#
# Poissons Ratio (x) = 0.73012 0.25698
# Poissons Ratio (y) = 0.32032 0.52505
# Poissons Ratio (z) = 0.11401 0.53095
#
# Static dielectric constant tensor:
#      x y z
#    x 1.614370 0.000000 0.000000 
#    y 0.000000 1.637280 0.000000 
#    z 0.000000 0.000000 1.580190 
# 
# From -- ./inp_files/5866.got.cif
#   From: 2010.05.17/outbox.cif.g08.bks.cpg/sg51_3_cif.got.tgz:5866.got - 2010.06.03 11:52:47.
