data_PCOD9406854
_publ_section_title
;
Structure prediction by ZEFSAII (Michael W. Deem and Ramdas Pophale) SiO2 
 PCOD9406854
Probable space group: P M M A
;
_chemical_formula_sum "Si O2"
_cell_formula_units_Z 48
_cell_length_a 18.315384
_cell_length_b 9.022998
_cell_length_c 15.787322
_cell_angle_alpha 90.000000
_cell_angle_beta 90.000000
_cell_angle_gamma 90.000000
_cell_volume 2609.007674
_symmetry_space_group_name_H-M "P M M A"
_symmetry_group_IT_number 51
_symmetry_cell_setting 'orthorhombic'
loop_
_space_group_symop_operation_xyz
x,y,z
1/2-x,-y,z
1/2+x,-y,-z
-x,y,-z
-x,-y,-z
1/2+x,y,-z
1/2-x,y,z
x,-y,z
loop_
_atom_site_type_symbol
_atom_site_label
_atom_site_fract_x
_atom_site_fract_y
_atom_site_fract_z
Si Si1 0.521871 0.825787 0.142590
Si Si2 0.527840 0.676473 0.323040
Si Si3 0.614844 0.826624 0.984401
Si Si4 0.750000 0.674929 0.901118
Si Si5 0.335301 0.175562 0.590178
Si Si6 0.616366 0.175894 0.605219
Si Si7 0.750000 0.679307 0.706127
O O1 0.518035 0.728162 0.225989
O O2 0.450618 0.812471 0.083408
O O3 0.528938 0.000000 0.166131
O O4 0.586789 0.785686 0.077879
O O5 0.522594 0.500000 0.330948
O O6 0.606314 0.734253 0.355150
O O7 0.462499 0.753362 0.376094
O O8 0.680238 0.731268 0.950743
O O9 0.634899 0.000000 0.986917
O O10 0.750000 0.500000 0.896924
O O11 0.750000 0.728295 0.803992
O O12 0.250000 0.218268 0.600334
O O13 0.358907 0.193281 0.492119
O O14 0.341219 0.000000 0.610366
O O15 0.677983 0.255377 0.661600
O O16 0.614136 0.000000 0.624227
O O17 0.750000 0.500000 0.700422
#
# Coordination Sequence:
#
# PCOD9406854 Si02
#       7
#     8   8   8   4   8   8   4
#     4   9  19  39  63  86 111 148 197 246 290 341
#     4  12  25  38  58  92 124 157 197 241 298 358
#     4   9  19  37  62  86 111 147 196 245 290 338
#     4  11  23  35  51  84 123 156 187 225 288 357
#     4  10  22  43  65  86 114 155 205 250 295 347
#     4  11  22  40  64  89 117 157 204 247 293 349
#     4  11  23  37  57  90 129 160 191 243 304 359
#
# _framework density 18.3978
#
# number of rings (size 3 to 8) (size 9 to 14) (size 15 to 20)
#    0.000    1.667    0.833    5.000    0.000    9.000 
#    1.500    1.667    0.000    0.000    0.000    0.000 
#    0.000    0.000    0.000    0.000    0.000    0.000 
#
# Total GULP energy -268163.698122 kJ/mol
# GULP energy per Si atom -5586.743711 kJ/mol
# Density = 1.835593 g / cm^3
# Si number density = 18.397800 Si / 1000 Ang^3
#
#
#
# Elastic Constant Matrix: (Units=GPa)
#
#
# Indices 1 2 3 4 5 6 
#
# 1 95.4098 46.0188 21.4992 0.0000 0.0000 0.0000
# 2 46.0188 70.1496 24.7988 0.0000 0.0000 0.0000
# 3 21.4992 24.7988 21.1596 0.0000 0.0000 0.0000
# 4 0.0000 0.0000 0.0000 -6.9472 0.0000 0.0000
# 5 0.0000 0.0000 0.0000 0.0000 -45.0892 0.0000
# 6 0.0000 0.0000 0.0000 0.0000 0.0000 121.1954
#
#
#
# Elastic Compliance Matrix: (Units=1/GPa)
#
#
# Indices 1 2 3 4 5 6 
#
# 1 0.015870 -0.008043 -0.006698 0.000000 0.000000 0.000000
# 2 -0.008043 0.028415 -0.025131 0.000000 0.000000 0.000000
# 3 -0.006698 -0.025131 0.083519 0.000000 0.000000 0.000000
# 4 0.000000 0.000000 0.000000 -0.143942 0.000000 0.000000
# 5 0.000000 0.000000 0.000000 0.000000 -0.022178 0.000000
# 6 0.000000 0.000000 0.000000 0.000000 0.000000 0.008251
#
#
# Mechanical properties :
#
#
# Convention : Reuss Voigt Hill
#
# Bulk Modulus (GPa) = 20.80726 41.26140 31.03433
# Shear Modulus (GPa) = 76.10499 20.12528 48.11513
#
# Velocity S-wave (km/s) = 6.43865 3.31100 5.11951
# Velocity P-wave (km/s) = 8.16144 6.09040 7.20077
#
# Compressibility (1/GPa) = 0.04806015
#
# Stress axis : x y z
#
# Youngs Moduli (GPa) = 63.01315 35.19216 11.97332
#
# Poissons Ratio (x) = 0.28304 0.08020
# Poissons Ratio (y) = 0.50679 0.30090
# Poissons Ratio (z) = 0.42209 0.88441
#
# Static dielectric constant tensor:
#      x y z
#    x 1.616630 0.000000 0.000000 
#    y 0.000000 1.614420 0.000000 
#    z 0.000000 0.000000 1.621870 
# 
# From -- ./inp_files/24860.got.cif
#   From: 2010.05.17/outbox.cif.g08.bks.cpg/sg51_13_cif.got.tgz:24860.got - 2010.06.03 11:52:47.
