data_PCOD9406729
_publ_section_title
;
Structure prediction by ZEFSAII (Michael W. Deem and Ramdas Pophale) SiO2 
 PCOD9406729
Probable space group: P M M A
;
_chemical_formula_sum "Si O2"
_cell_formula_units_Z 56
_cell_length_a 9.970919
_cell_length_b 14.397729
_cell_length_c 23.235769
_cell_angle_alpha 90.000000
_cell_angle_beta 90.000000
_cell_angle_gamma 90.000000
_cell_volume 3335.694227
_symmetry_space_group_name_H-M "P M M A"
_symmetry_group_IT_number 51
_symmetry_cell_setting 'orthorhombic'
loop_
_space_group_symop_operation_xyz
x,y,z
1/2-x,-y,z
1/2+x,-y,-z
-x,y,-z
-x,-y,-z
1/2+x,y,-z
1/2-x,y,z
x,-y,z
loop_
_atom_site_type_symbol
_atom_site_label
_atom_site_fract_x
_atom_site_fract_y
_atom_site_fract_z
Si Si1 0.750000 0.390535 0.074476
Si Si2 0.587649 0.104169 0.667640
Si Si3 0.002453 0.714109 0.123856
Si Si4 0.588443 0.224494 0.556365
Si Si5 0.587221 0.725290 0.745396
Si Si6 0.410097 0.891575 0.942490
Si Si7 0.587437 0.604368 0.636815
Si Si8 0.250000 0.612552 0.062725
O O1 0.750000 0.500000 0.082053
O O2 0.623379 0.345456 0.104333
O O3 0.750000 0.372716 0.005921
O O4 0.750000 0.101581 0.670776
O O5 0.557919 0.147634 0.605199
O O6 0.545350 0.177032 0.716474
O O7 0.536127 0.000000 0.674588
O O8 0.971493 0.818727 0.102550
O O9 0.028695 0.711914 0.191704
O O10 0.124543 0.664823 0.090805
O O11 0.500000 0.210820 0.500000
O O12 0.750000 0.222892 0.545434
O O13 0.552991 0.322695 0.586855
O O14 0.750000 0.724362 0.749770
O O15 0.548022 0.647234 0.698561
O O16 0.250000 0.872703 0.952014
O O17 0.421075 0.000000 0.924971
O O18 0.500000 0.880347 0.000000
O O19 0.750000 0.602146 0.637500
O O20 0.537624 0.500000 0.628159
O O21 0.250000 0.500000 0.073128
#
# Coordination Sequence:
#
# PCOD9406729 Si02
#       8
#     4   8   8   8   8   8   8   4
#     4  11  24  40  55  77 111 149 181 214 276 344
#     4   8  15  30  52  75 104 137 170 215 261 301
#     4  12  22  37  59  84 109 144 180 228 279 330
#     4   9  17  29  48  76 105 135 170 208 251 305
#     4   9  18  32  50  79 103 127 177 227 266 308
#     4  10  22  39  59  82 107 139 178 221 273 334
#     4   8  15  29  49  71  98 133 173 219 263 299
#     4  11  24  40  59  83 111 141 185 232 272 326
#
# _framework density 16.78811
#
# number of rings (size 3 to 8) (size 9 to 14) (size 15 to 20)
#    0.000    2.429    1.429    3.429    1.000    3.429 
#    0.000    0.000    6.286    0.000    0.000    0.000 
#    0.000    0.000    0.000    0.000    0.000    0.000 
#
# Total GULP energy -312071.227548 kJ/mol
# GULP energy per Si atom -5572.700492 kJ/mol
# Density = 1.674990 g / cm^3
# Si number density = 16.788110 Si / 1000 Ang^3
#
#
#
# Elastic Constant Matrix: (Units=GPa)
#
#
# Indices 1 2 3 4 5 6 
#
# 1 77.5080 25.2409 40.8349 0.0000 0.0000 0.0000
# 2 25.2409 84.3475 35.4952 0.0000 0.0000 0.0000
# 3 40.8349 35.4952 111.5488 0.0000 0.0000 0.0000
# 4 0.0000 0.0000 0.0000 3.3862 0.0000 0.0000
# 5 0.0000 0.0000 0.0000 0.0000 22.6370 0.0000
# 6 0.0000 0.0000 0.0000 0.0000 0.0000 29.3275
#
#
#
# Elastic Compliance Matrix: (Units=1/GPa)
#
#
# Indices 1 2 3 4 5 6 
#
# 1 0.016527 -0.002771 -0.005168 0.000000 0.000000 0.000000
# 2 -0.002771 0.014153 -0.003489 0.000000 0.000000 0.000000
# 3 -0.005168 -0.003489 0.011967 0.000000 0.000000 0.000000
# 4 0.000000 0.000000 0.000000 0.295317 0.000000 0.000000
# 5 0.000000 0.000000 0.000000 0.000000 0.044175 0.000000
# 6 0.000000 0.000000 0.000000 0.000000 0.000000 0.034098
#
#
# Mechanical properties :
#
#
# Convention : Reuss Voigt Hill
#
# Bulk Modulus (GPa) = 50.52960 52.94960 51.73960
# Shear Modulus (GPa) = 11.21852 22.52569 16.87210
#
# Velocity S-wave (km/s) = 2.58784 3.66698 3.17362
# Velocity P-wave (km/s) = 6.25244 7.03828 6.65697
#
# Compressibility (1/GPa) = 0.01979038
#
# Stress axis : x y z
#
# Youngs Moduli (GPa) = 60.50632 70.65525 83.56291
#
# Poissons Ratio (x) = 0.19577 0.43189
# Poissons Ratio (y) = 0.16765 0.29158
# Poissons Ratio (z) = 0.31273 0.24654
#
# Static dielectric constant tensor:
#      x y z
#    x 1.536710 0.000000 0.000000 
#    y 0.000000 1.591350 0.000000 
#    z 0.000000 0.000000 1.534820 
# 
# From -- ./inp_files/32130.got.cif
#   From: 2010.05.17/outbox.cif.g08.bks.cpg/sg51_17_cif.got.tgz:32130.got - 2010.06.03 11:52:47.
