data_PCOD9406754
_publ_section_title
;
Structure prediction by ZEFSAII (Michael W. Deem and Ramdas Pophale) SiO2 
 PCOD9406754
Probable space group: P M M A
;
_chemical_formula_sum "Si O2"
_cell_formula_units_Z 30
_cell_length_a 10.309837
_cell_length_b 11.407001
_cell_length_c 13.210302
_cell_angle_alpha 90.000000
_cell_angle_beta 90.000000
_cell_angle_gamma 90.000000
_cell_volume 1553.588597
_symmetry_space_group_name_H-M "P M M A"
_symmetry_group_IT_number 51
_symmetry_cell_setting 'orthorhombic'
loop_
_space_group_symop_operation_xyz
x,y,z
1/2-x,-y,z
1/2+x,-y,-z
-x,y,-z
-x,-y,-z
1/2+x,y,-z
1/2-x,y,z
x,-y,z
loop_
_atom_site_type_symbol
_atom_site_label
_atom_site_fract_x
_atom_site_fract_y
_atom_site_fract_z
Si Si1 0.250000 0.000000 0.937699
Si Si2 0.250000 0.636013 0.134462
Si Si3 0.997201 0.757207 0.799190
Si Si4 0.426202 0.000000 0.088388
Si Si5 0.750000 0.734248 0.090501
Si Si6 0.901097 0.860321 0.408328
O O1 0.410613 0.000000 0.961093
O O2 0.250000 0.873250 0.883971
O O3 0.250000 0.500000 0.107765
O O4 0.124188 0.671644 0.197563
O O5 0.250000 0.708596 0.028560
O O6 0.113542 0.697210 0.862830
O O7 0.052758 0.790957 0.690350
O O8 0.945230 0.878171 0.851372
O O9 0.250000 0.000000 0.072325
O O10 0.750000 0.834776 0.432388
O O11 0.000000 0.836705 0.500000
O O12 0.908927 0.000000 0.386026
#
# Coordination Sequence:
#
# PCOD9406754 Si02
#       6
#     2   4   8   4   4   8
#     4  12  20  32  52  92 130 156 206 242 302 370
#     4  12  28  44  59  87 128 169 215 264 310 369
#     4  12  22  39  63  91 125 170 206 253 313 373
#     4  12  18  30  55  90 127 160 197 241 300 380
#     4  12  22  36  63  91 127 166 206 255 306 373
#     4  10  22  39  62  98 137 166 198 246 311 382
#
# _framework density 19.310131999999999
#
# number of rings (size 3 to 8) (size 9 to 14) (size 15 to 20)
#    0.000    0.533    8.000    0.800    1.867    2.133 
#    0.000    0.000    0.000    0.800    0.000    0.000 
#    0.000    0.000    0.000    0.000    0.000    0.000 
#
# Total GULP energy -167396.965944 kJ/mol
# GULP energy per Si atom -5579.898865 kJ/mol
# Density = 1.926618 g / cm^3
# Si number density = 19.310132 Si / 1000 Ang^3
#
#
#
# Elastic Constant Matrix: (Units=GPa)
#
#
# Indices 1 2 3 4 5 6 
#
# 1 196.8917 16.8205 52.3797 0.0000 0.0000 0.0000
# 2 16.8205 37.9824 9.7070 0.0000 0.0000 0.0000
# 3 52.3797 9.7070 88.7541 0.0000 0.0000 0.0000
# 4 0.0000 0.0000 0.0000 -4.4118 0.0000 0.0000
# 5 0.0000 0.0000 0.0000 0.0000 31.4853 0.0000
# 6 0.0000 0.0000 0.0000 0.0000 0.0000 3.6736
#
#
#
# Elastic Compliance Matrix: (Units=1/GPa)
#
#
# Indices 1 2 3 4 5 6 
#
# 1 0.006148 -0.001847 -0.003427 0.000000 0.000000 0.000000
# 2 -0.001847 0.027640 -0.001933 0.000000 0.000000 0.000000
# 3 -0.003427 -0.001933 0.013501 0.000000 0.000000 0.000000
# 4 0.000000 0.000000 0.000000 -0.226664 0.000000 0.000000
# 5 0.000000 0.000000 0.000000 0.000000 0.031761 0.000000
# 6 0.000000 0.000000 0.000000 0.000000 0.000000 0.272215
#
#
# Mechanical properties :
#
#
# Convention : Reuss Voigt Hill
#
# Bulk Modulus (GPa) = 30.41730 53.49362 41.95546
# Shear Modulus (GPa) = 33.33939 22.46415 27.90177
#
# Velocity S-wave (km/s) = 4.15965 3.41447 3.80535
# Velocity P-wave (km/s) = 6.23350 6.58083 6.40952
#
# Compressibility (1/GPa) = 0.03287603
#
# Stress axis : x y z
#
# Youngs Moduli (GPa) = 162.64668 36.17951 74.07031
#
# Poissons Ratio (x) = 0.06683 0.25380
# Poissons Ratio (y) = 0.30042 0.14317
# Poissons Ratio (z) = 0.55731 0.06993
#
# Static dielectric constant tensor:
#      x y z
#    x 1.871000 0.000000 0.000000 
#    y 0.000000 1.620630 0.000000 
#    z 0.000000 0.000000 1.654560 
# 
# From -- ./inp_files/20061.got.cif
#   From: 2010.05.17/outbox.cif.g08.bks.cpg/sg51_11_cif.got.tgz:20061.got - 2010.06.03 11:52:47.
