data_PCOD9406087
_publ_section_title
;
Structure prediction by ZEFSAII (Michael W. Deem and Ramdas Pophale) SiO2 
 PCOD9406087
Probable space group: P M M A
;
_chemical_formula_sum "Si O2"
_cell_formula_units_Z 48
_cell_length_a 9.008718
_cell_length_b 9.739588
_cell_length_c 29.896202
_cell_angle_alpha 90.000000
_cell_angle_beta 90.000000
_cell_angle_gamma 90.000000
_cell_volume 2623.128691
_symmetry_space_group_name_H-M "P M M A"
_symmetry_group_IT_number 51
_symmetry_cell_setting 'orthorhombic'
loop_
_space_group_symop_operation_xyz
x,y,z
1/2-x,-y,z
1/2+x,-y,-z
-x,y,-z
-x,-y,-z
1/2+x,y,-z
1/2-x,y,z
x,-y,z
loop_
_atom_site_type_symbol
_atom_site_label
_atom_site_fract_x
_atom_site_fract_y
_atom_site_fract_z
Si Si1 0.429558 0.660514 0.867371
Si Si2 0.073232 0.268227 0.606301
Si Si3 0.071284 0.161302 0.211846
Si Si4 0.071955 0.337631 0.300341
Si Si5 0.074897 0.500000 0.451950
Si Si6 0.071596 0.157874 0.951920
Si Si7 0.075661 0.000000 0.548503
O O1 0.250000 0.664501 0.864420
O O2 0.474887 0.500000 0.864852
O O3 0.496943 0.753467 0.828116
O O4 0.472772 0.733388 0.914078
O O5 0.250000 0.296270 0.605559
O O6 0.044200 0.127649 0.580512
O O7 0.013895 0.280956 0.656584
O O8 0.982335 0.374103 0.576777
O O9 0.250000 0.164580 0.206443
O O10 0.036598 0.243605 0.257520
O O11 0.026512 0.000000 0.213047
O O12 0.250000 0.329831 0.308038
O O13 0.036365 0.500000 0.293413
O O14 0.250000 0.500000 0.456987
O O15 0.000000 0.500000 0.500000
O O16 0.250000 0.162874 0.956149
O O17 0.031850 0.000000 0.939020
O O18 0.000000 0.186190 0.000000
O O19 0.000000 0.000000 0.500000
O O20 0.250000 0.000000 0.538619
#
# Coordination Sequence:
#
# PCOD9406087 Si02
#       7
#     8   8   8   8   4   8   4
#     4  10  21  37  57  83 116 154 197 243 293 347
#     4  11  23  40  61  88 120 153 192 238 286 341
#     4  10  22  39  60  87 117 151 193 239 289 348
#     4  10  21  38  59  85 117 151 190 233 284 343
#     4  12  24  40  62  90 120 154 196 238 285 340
#     4   9  18  33  53  78 111 151 195 243 293 347
#     4  10  24  42  60  86 118 152 192 236 283 336
#
# _framework density 18.298760000000001
#
# number of rings (size 3 to 8) (size 9 to 14) (size 15 to 20)
#    0.000    1.833    0.833    2.750    1.167    6.333 
#    0.000    1.667    0.000    0.000    0.000    0.000 
#    0.000    0.000    0.000    0.000    0.000    0.000 
#
# Total GULP energy -267915.073656 kJ/mol
# GULP energy per Si atom -5581.564035 kJ/mol
# Density = 1.825711 g / cm^3
# Si number density = 18.298760 Si / 1000 Ang^3
#
#
#
# Elastic Constant Matrix: (Units=GPa)
#
#
# Indices 1 2 3 4 5 6 
#
# 1 47.4272 71.7427 65.9149 0.0000 0.0000 0.0000
# 2 71.7427 182.8688 111.7209 0.0000 0.0000 0.0000
# 3 65.9149 111.7209 173.1709 0.0000 0.0000 0.0000
# 4 0.0000 0.0000 0.0000 33.6337 0.0000 0.0000
# 5 0.0000 0.0000 0.0000 0.0000 41.3760 0.0000
# 6 0.0000 0.0000 0.0000 0.0000 0.0000 27.6155
#
#
#
# Elastic Compliance Matrix: (Units=1/GPa)
#
#
# Indices 1 2 3 4 5 6 
#
# 1 0.068341 -0.018023 -0.014386 0.000000 0.000000 0.000000
# 2 -0.018023 0.013779 -0.002029 0.000000 0.000000 0.000000
# 3 -0.014386 -0.002029 0.012560 0.000000 0.000000 0.000000
# 4 0.000000 0.000000 0.000000 0.029732 0.000000 0.000000
# 5 0.000000 0.000000 0.000000 0.000000 0.024169 0.000000
# 6 0.000000 0.000000 0.000000 0.000000 0.000000 0.036212
#
#
# Mechanical properties :
#
#
# Convention : Reuss Voigt Hill
#
# Bulk Modulus (GPa) = 38.75357 100.24710 69.50033
# Shear Modulus (GPa) = 19.06442 30.79761 24.93101
#
# Velocity S-wave (km/s) = 3.23126 4.10694 3.69513
# Velocity P-wave (km/s) = 5.92837 8.79726 7.50125
#
# Compressibility (1/GPa) = 0.02580408
#
# Stress axis : x y z
#
# Youngs Moduli (GPa) = 14.63245 72.57509 79.62092
#
# Poissons Ratio (x) = 1.30801 1.14540
# Poissons Ratio (y) = 0.26372 0.16157
# Poissons Ratio (z) = 0.21050 0.14728
#
# Static dielectric constant tensor:
#      x y z
#    x 1.612650 0.000000 0.000000 
#    y 0.000000 1.568300 0.000000 
#    z 0.000000 0.000000 1.599330 
# 
# From -- ./inp_files/37185.got.cif
#   From: 2010.05.17/outbox.cif.g08.bks.cpg/sg51_19_cif.got.tgz:37185.got - 2010.06.03 11:52:47.
