data_PCOD9406140
_publ_section_title
;
Structure prediction by ZEFSAII (Michael W. Deem and Ramdas Pophale) SiO2 
 PCOD9406140
Probable space group: P M M A
;
_chemical_formula_sum "Si O2"
_cell_formula_units_Z 48
_cell_length_a 9.492554
_cell_length_b 28.308600
_cell_length_c 9.772326
_cell_angle_alpha 90.000000
_cell_angle_beta 90.000000
_cell_angle_gamma 90.000000
_cell_volume 2626.028376
_symmetry_space_group_name_H-M "P M M A"
_symmetry_group_IT_number 51
_symmetry_cell_setting 'orthorhombic'
loop_
_space_group_symop_operation_xyz
x,y,z
1/2-x,-y,z
1/2+x,-y,-z
-x,y,-z
-x,-y,-z
1/2+x,y,-z
1/2-x,y,z
x,-y,z
loop_
_atom_site_type_symbol
_atom_site_label
_atom_site_fract_x
_atom_site_fract_y
_atom_site_fract_z
Si Si1 0.919836 0.207140 0.639849
Si Si2 0.011493 0.096116 0.338748
Si Si3 0.250000 0.055518 0.147169
Si Si4 0.250000 0.057901 0.828501
Si Si5 0.583335 0.729516 0.142593
Si Si6 0.916376 0.555589 0.642258
Si Si7 0.583601 0.619176 0.142751
O O1 0.750000 0.213953 0.633879
O O2 0.951954 0.151689 0.663276
O O3 0.000000 0.219959 0.500000
O O4 0.996635 0.237806 0.754710
O O5 0.124135 0.070716 0.243973
O O6 0.000000 0.082593 0.500000
O O7 0.875488 0.080817 0.256195
O O8 0.250000 0.000000 0.130443
O O9 0.250000 0.073061 0.989276
O O10 0.250000 0.000000 0.821547
O O11 0.750000 0.742357 0.131435
O O12 0.577961 0.674363 0.185119
O O13 0.500000 0.732958 0.000000
O O14 0.750000 0.568336 0.630747
O O15 0.922275 0.500000 0.679625
O O16 0.000000 0.561011 0.500000
O O17 0.000013 0.586827 0.751139
O O18 0.750000 0.606591 0.129747
O O19 0.500000 0.615185 0.000000
#
# Coordination Sequence:
#
# PCOD9406140 Si02
#       7
#     8   8   4   4   8   8   8
#     4  11  24  42  64  90 121 158 200 251 307 361
#     4  11  24  41  64  91 122 161 205 250 305 367
#     4  11  23  43  63  89 127 159 201 253 302 363
#     4  11  25  41  63  93 125 163 201 251 308 365
#     4  10  22  40  63  91 123 159 202 250 301 362
#     4  10  21  37  58  85 118 158 204 254 307 365
#     4  10  21  38  60  87 120 159 202 251 304 359
#
# _framework density 18.278554
#
# number of rings (size 3 to 8) (size 9 to 14) (size 15 to 20)
#    0.000    1.500    0.833    3.500    4.667    8.667 
#    0.000    0.000    0.000    0.000    0.000    0.000 
#    0.000    0.000    0.000    0.000    0.000    0.000 
#
# Total GULP energy -267640.430844 kJ/mol
# GULP energy per Si atom -5575.842309 kJ/mol
# Density = 1.823695 g / cm^3
# Si number density = 18.278554 Si / 1000 Ang^3
#
#
#
# Elastic Constant Matrix: (Units=GPa)
#
#
# Indices 1 2 3 4 5 6 
#
# 1 224.0122 58.7810 88.2278 0.0000 0.0000 0.0000
# 2 58.7810 52.7966 69.3367 0.0000 0.0000 0.0000
# 3 88.2278 69.3367 152.8002 0.0000 0.0000 0.0000
# 4 0.0000 0.0000 0.0000 47.7794 0.0000 0.0000
# 5 0.0000 0.0000 0.0000 0.0000 35.5974 0.0000
# 6 0.0000 0.0000 0.0000 0.0000 0.0000 33.6110
#
#
#
# Elastic Compliance Matrix: (Units=1/GPa)
#
#
# Indices 1 2 3 4 5 6 
#
# 1 0.006386 -0.005611 -0.001141 0.000000 0.000000 0.000000
# 2 -0.005611 0.051805 -0.020268 0.000000 0.000000 0.000000
# 3 -0.001141 -0.020268 0.016400 0.000000 0.000000 0.000000
# 4 0.000000 0.000000 0.000000 0.020930 0.000000 0.000000
# 5 0.000000 0.000000 0.000000 0.000000 0.028092 0.000000
# 6 0.000000 0.000000 0.000000 0.000000 0.000000 0.029752
#
#
# Mechanical properties :
#
#
# Convention : Reuss Voigt Hill
#
# Bulk Modulus (GPa) = 48.65895 95.81112 72.23504
# Shear Modulus (GPa) = 23.33661 37.61511 30.47586
#
# Velocity S-wave (km/s) = 3.57700 4.54131 4.08769
# Velocity P-wave (km/s) = 6.61351 8.94589 7.86662
#
# Compressibility (1/GPa) = 0.02055120
#
# Stress axis : x y z
#
# Youngs Moduli (GPa) = 156.59730 19.30308 60.97430
#
# Poissons Ratio (x) = 0.10831 0.06957
# Poissons Ratio (y) = 0.87869 1.23582
# Poissons Ratio (z) = 0.17868 0.39123
#
# Static dielectric constant tensor:
#      x y z
#    x 1.560270 0.000000 0.000000 
#    y 0.000000 1.628770 0.000000 
#    z 0.000000 0.000000 1.631810 
# 
# From -- ./inp_files/6246.got.cif
#   From: 2010.05.17/outbox.cif.g08.bks.cpg/sg51_4_cif.got.tgz:6246.got - 2010.06.03 11:52:47.
