data_PCOD9406751
_publ_section_title
;
Structure prediction by ZEFSAII (Michael W. Deem and Ramdas Pophale) SiO2 
 PCOD9406751
Probable space group: P M M A
;
_chemical_formula_sum "Si O2"
_cell_formula_units_Z 64
_cell_length_a 15.166142
_cell_length_b 21.919650
_cell_length_c 9.368693
_cell_angle_alpha 90.000000
_cell_angle_beta 90.000000
_cell_angle_gamma 90.000000
_cell_volume 3114.495740
_symmetry_space_group_name_H-M "P M M A"
_symmetry_group_IT_number 51
_symmetry_cell_setting 'orthorhombic'
loop_
_space_group_symop_operation_xyz
x,y,z
1/2-x,-y,z
1/2+x,-y,-z
-x,y,-z
-x,-y,-z
1/2+x,y,-z
1/2-x,y,z
x,-y,z
loop_
_atom_site_type_symbol
_atom_site_label
_atom_site_fract_x
_atom_site_fract_y
_atom_site_fract_z
Si Si1 0.854120 0.343181 0.343230
Si Si2 0.917798 0.167073 0.609520
Si Si3 0.900860 0.165779 0.049710
Si Si4 0.647778 0.431635 0.610387
Si Si5 0.853160 0.929205 0.824831
Si Si6 0.153794 0.200756 0.659955
Si Si7 0.352416 0.265790 0.163216
Si Si8 0.520020 0.382214 0.842934
O O1 0.750000 0.351102 0.302587
O O2 0.867620 0.381024 0.489023
O O3 0.869982 0.271229 0.367032
O O4 0.926781 0.365351 0.230421
O O5 0.910553 0.108228 0.709922
O O6 0.843854 0.165905 0.487929
O O7 0.894858 0.224215 0.711449
O O8 0.000000 0.174338 0.500000
O O9 0.903710 0.169584 0.219123
O O10 0.863814 0.105021 0.976487
O O11 0.852710 0.223514 0.977717
O O12 0.000000 0.171767 0.000000
O O13 0.750000 0.425079 0.659429
O O14 0.639251 0.500000 0.549088
O O15 0.577786 0.423342 0.736425
O O16 0.750000 0.923701 0.784669
O O17 0.876956 0.000000 0.832904
O O18 0.250000 0.200877 0.727455
O O19 0.250000 0.281452 0.197449
O O20 0.417243 0.322498 0.140368
O O21 0.500000 0.407459 0.000000
#
# Coordination Sequence:
#
# PCOD9406751 Si02
#       8
#     8   8   8   8   8   8   8   8
#     4  10  22  39  61  90 125 165 207 255 310 374
#     4  11  21  35  57  84 114 147 192 249 303 355
#     4  11  21  36  58  85 116 150 190 240 297 362
#     4  10  23  45  68  88 117 164 217 261 306 368
#     4  10  22  41  59  76 108 158 206 241 292 375
#     4  11  20  33  55  85 116 142 182 240 298 345
#     4  11  22  39  60  85 123 167 202 234 294 377
#     4  12  24  37  60  94 129 161 203 257 314 370
#
# _framework density 20.549073
#
# number of rings (size 3 to 8) (size 9 to 14) (size 15 to 20)
#    0.000    1.250    0.000    8.625    0.000    4.750 
#    0.000    0.625    0.000    3.750    0.000    0.000 
#    0.000    0.000    0.000    0.000    0.000    0.000 
#
# Total GULP energy -357360.902448 kJ/mol
# GULP energy per Si atom -5583.764101 kJ/mol
# Density = 2.050230 g / cm^3
# Si number density = 20.549073 Si / 1000 Ang^3
#
#
#
# Elastic Constant Matrix: (Units=GPa)
#
#
# Indices 1 2 3 4 5 6 
#
# 1 106.6212 21.6644 21.9860 0.0000 0.0000 0.0000
# 2 21.6644 73.6518 28.4488 0.0000 0.0000 0.0000
# 3 21.9860 28.4488 95.6073 0.0000 0.0000 0.0000
# 4 0.0000 0.0000 0.0000 4.7979 0.0000 0.0000
# 5 0.0000 0.0000 0.0000 0.0000 34.8757 0.0000
# 6 0.0000 0.0000 0.0000 0.0000 0.0000 13.8035
#
#
#
# Elastic Compliance Matrix: (Units=1/GPa)
#
#
# Indices 1 2 3 4 5 6 
#
# 1 0.010198 -0.002366 -0.001641 0.000000 0.000000 0.000000
# 2 -0.002366 0.015889 -0.004184 0.000000 0.000000 0.000000
# 3 -0.001641 -0.004184 0.012082 0.000000 0.000000 0.000000
# 4 0.000000 0.000000 0.000000 0.208423 0.000000 0.000000
# 5 0.000000 0.000000 0.000000 0.000000 0.028673 0.000000
# 6 0.000000 0.000000 0.000000 0.000000 0.000000 0.072445
#
#
# Mechanical properties :
#
#
# Convention : Reuss Voigt Hill
#
# Bulk Modulus (GPa) = 45.89815 46.67542 46.28679
# Shear Modulus (GPa) = 13.46419 24.28085 18.87252
#
# Velocity S-wave (km/s) = 2.56251 3.44117 3.03382
# Velocity P-wave (km/s) = 5.58029 6.20905 5.90305
#
# Compressibility (1/GPa) = 0.02178737
#
# Stress axis : x y z
#
# Youngs Moduli (GPa) = 98.05718 62.93498 82.76880
#
# Poissons Ratio (x) = 0.14889 0.13584
# Poissons Ratio (y) = 0.23198 0.34630
# Poissons Ratio (z) = 0.16093 0.26332
#
# Static dielectric constant tensor:
#      x y z
#    x 1.910740 0.000000 0.000000 
#    y 0.000000 1.703840 0.000000 
#    z 0.000000 0.000000 1.735310 
# 
# From -- ./inp_files/8726.got.cif
#   From: 2010.05.17/outbox.cif.g08.bks.cpg/sg51_5_cif.got.tgz:8726.got - 2010.06.03 11:52:47.
