data_PCOD9406639
_publ_section_title
;
Structure prediction by ZEFSAII (Michael W. Deem and Ramdas Pophale) SiO2 
 PCOD9406639
Probable space group: P M M A
;
_chemical_formula_sum "Si O2"
_cell_formula_units_Z 40
_cell_length_a 8.602183
_cell_length_b 26.795048
_cell_length_c 9.353155
_cell_angle_alpha 90.000000
_cell_angle_beta 90.000000
_cell_angle_gamma 90.000000
_cell_volume 2155.863939
_symmetry_space_group_name_H-M "P M M A"
_symmetry_group_IT_number 51
_symmetry_cell_setting 'orthorhombic'
loop_
_space_group_symop_operation_xyz
x,y,z
1/2-x,-y,z
1/2+x,-y,-z
-x,y,-z
-x,-y,-z
1/2+x,y,-z
1/2-x,y,z
x,-y,z
loop_
_atom_site_type_symbol
_atom_site_label
_atom_site_fract_x
_atom_site_fract_y
_atom_site_fract_z
Si Si1 0.063473 0.554453 0.662641
Si Si2 0.435372 0.658413 0.337815
Si Si3 0.062395 0.848971 0.659436
Si Si4 0.437792 0.056357 0.840641
Si Si5 0.436882 0.248443 0.839577
O O1 0.250000 0.558891 0.659134
O O2 0.023675 0.500000 0.727059
O O3 0.000000 0.553173 0.500000
O O4 0.991739 0.605008 0.724293
O O5 0.500000 0.662878 0.500000
O O6 0.250000 0.659237 0.343710
O O7 0.498749 0.703761 0.244390
O O8 0.250000 0.849514 0.654765
O O9 0.009377 0.900396 0.733773
O O10 0.015077 0.801683 0.755318
O O11 0.000000 0.844183 0.500000
O O12 0.250000 0.057452 0.845491
O O13 0.485752 0.000000 0.799083
O O14 0.500000 0.065945 0.000000
O O15 0.250000 0.250567 0.841722
O O16 0.500000 0.247284 0.000000
#
# Coordination Sequence:
#
# PCOD9406639 Si02
#       5
#     8   8   8   8   8
#     4   9  16  27  46  74 107 141 177 218 264 314
#     4  11  21  34  54  80 110 143 180 223 270 318
#     4  10  22  37  55  80 109 141 177 221 269 318
#     4   9  18  34  55  80 110 143 180 220 263 314
#     4  11  23  39  57  78 105 138 179 223 271 327
#
# _framework density 18.554048000000002
#
# number of rings (size 3 to 8) (size 9 to 14) (size 15 to 20)
#    0.000    2.000    0.000    5.400    0.000    5.600 
#    0.000    0.000    0.000    0.600    0.000    0.000 
#    0.000    0.000    0.000    0.000    0.000    0.000 
#
# Total GULP energy -223273.975651 kJ/mol
# GULP energy per Si atom -5581.849391 kJ/mol
# Density = 1.851182 g / cm^3
# Si number density = 18.554048 Si / 1000 Ang^3
#
#
#
# Elastic Constant Matrix: (Units=GPa)
#
#
# Indices 1 2 3 4 5 6 
#
# 1 68.0321 56.1858 36.1414 0.0000 0.0000 0.0000
# 2 56.1858 201.8501 104.8332 0.0000 0.0000 0.0000
# 3 36.1414 104.8332 113.5729 0.0000 0.0000 0.0000
# 4 0.0000 0.0000 0.0000 -31.7592 0.0000 0.0000
# 5 0.0000 0.0000 0.0000 0.0000 29.7842 0.0000
# 6 0.0000 0.0000 0.0000 0.0000 0.0000 100.3615
#
#
#
# Elastic Compliance Matrix: (Units=1/GPa)
#
#
# Indices 1 2 3 4 5 6 
#
# 1 0.019390 -0.004212 -0.002283 0.000000 0.000000 0.000000
# 2 -0.004212 0.010431 -0.008288 0.000000 0.000000 0.000000
# 3 -0.002283 -0.008288 0.017182 0.000000 0.000000 0.000000
# 4 0.000000 0.000000 0.000000 -0.031487 0.000000 0.000000
# 5 0.000000 0.000000 0.000000 0.000000 0.033575 0.000000
# 6 0.000000 0.000000 0.000000 0.000000 0.000000 0.009964
#
#
# Mechanical properties :
#
#
# Convention : Reuss Voigt Hill
#
# Bulk Modulus (GPa) = 57.34734 86.41955 71.88344
# Shear Modulus (GPa) = 52.94820 32.09695 42.52258
#
# Velocity S-wave (km/s) = 5.34782 4.16374 4.79249
# Velocity P-wave (km/s) = 8.31310 8.35428 8.33371
#
# Compressibility (1/GPa) = 0.01743760
#
# Stress axis : x y z
#
# Youngs Moduli (GPa) = 51.57313 95.86783 58.20182
#
# Poissons Ratio (x) = 0.40377 0.13286
# Poissons Ratio (y) = 0.21721 0.48238
# Poissons Ratio (z) = 0.11773 0.79456
#
# Static dielectric constant tensor:
#      x y z
#    x 1.621760 0.000000 0.000000 
#    y 0.000000 1.677590 0.000000 
#    z 0.000000 0.000000 1.600640 
# 
# From -- ./inp_files/5220.got.cif
#   From: 2010.05.17/outbox.cif.g08.bks.cpg/sg51_3_cif.got.tgz:5220.got - 2010.06.03 11:52:47.
