data_PCOD9406732
_publ_section_title
;
Structure prediction by ZEFSAII (Michael W. Deem and Ramdas Pophale) SiO2 
 PCOD9406732
Probable space group: P M M A
;
_chemical_formula_sum "Si O2"
_cell_formula_units_Z 40
_cell_length_a 10.249841
_cell_length_b 15.587024
_cell_length_c 13.994955
_cell_angle_alpha 90.000000
_cell_angle_beta 90.000000
_cell_angle_gamma 90.000000
_cell_volume 2235.897235
_symmetry_space_group_name_H-M "P M M A"
_symmetry_group_IT_number 51
_symmetry_cell_setting 'orthorhombic'
loop_
_space_group_symop_operation_xyz
x,y,z
1/2-x,-y,z
1/2+x,-y,-z
-x,y,-z
-x,-y,-z
1/2+x,y,-z
1/2-x,y,z
x,-y,z
loop_
_atom_site_type_symbol
_atom_site_label
_atom_site_fract_x
_atom_site_fract_y
_atom_site_fract_z
Si Si1 0.250000 0.398454 0.364679
Si Si2 0.600770 0.000000 0.585795
Si Si3 0.594708 0.000000 0.908944
Si Si4 0.482983 0.324041 0.717483
Si Si5 0.397742 0.396443 0.921041
Si Si6 0.750000 0.396514 0.407637
Si Si7 0.902900 0.857806 0.748127
O O1 0.250000 0.500000 0.348417
O O2 0.378958 0.359602 0.318275
O O3 0.250000 0.383929 0.478673
O O4 0.500000 0.000000 0.500000
O O5 0.584557 0.081533 0.655451
O O6 0.750000 0.000000 0.550155
O O7 0.571240 0.917202 0.840716
O O8 0.750000 0.000000 0.933816
O O9 0.500000 0.000000 0.000000
O O10 0.440233 0.366130 0.816990
O O11 0.375388 0.352283 0.640282
O O12 0.503809 0.223233 0.735891
O O13 0.250000 0.367945 0.941814
O O14 0.398598 0.500000 0.922125
O O15 0.500000 0.365461 0.000000
O O16 0.750000 0.500000 0.388649
O O17 0.750000 0.830841 0.753802
#
# Coordination Sequence:
#
# PCOD9406732 Si02
#       7
#     4   4   4   8   8   4   8
#     4  11  24  38  61  88 117 166 217 258 312 381
#     4   9  19  39  62  84 116 155 191 237 296 357
#     4   9  19  41  68  90 122 159 191 241 304 369
#     4  12  22  40  62  88 125 163 207 261 309 362
#     4  10  22  39  59  84 115 155 201 248 302 360
#     4  11  24  42  59  86 125 166 213 270 320 357
#     4   9  20  40  60  87 122 156 198 241 296 366
#
# _framework density 17.889908999999999
#
# number of rings (size 3 to 8) (size 9 to 14) (size 15 to 20)
#    0.000    1.800    2.000    3.600    1.400    4.000 
#    3.600    3.000    0.000    0.000    0.000    0.000 
#    0.000    0.000    0.000    0.000    0.000    0.000 
#
# Total GULP energy -223330.192061 kJ/mol
# GULP energy per Si atom -5583.254802 kJ/mol
# Density = 1.784919 g / cm^3
# Si number density = 17.889909 Si / 1000 Ang^3
#
#
#
# Elastic Constant Matrix: (Units=GPa)
#
#
# Indices 1 2 3 4 5 6 
#
# 1 159.4957 56.3015 78.4174 0.0000 0.0000 0.0000
# 2 56.3015 72.1846 39.4425 0.0000 0.0000 0.0000
# 3 78.4174 39.4425 103.4748 0.0000 0.0000 0.0000
# 4 0.0000 0.0000 0.0000 49.4239 0.0000 0.0000
# 5 0.0000 0.0000 0.0000 0.0000 162.6636 0.0000
# 6 0.0000 0.0000 0.0000 0.0000 0.0000 26.2016
#
#
#
# Elastic Compliance Matrix: (Units=1/GPa)
#
#
# Indices 1 2 3 4 5 6 
#
# 1 0.011381 -0.005260 -0.006620 0.000000 0.000000 0.000000
# 2 -0.005260 0.019928 -0.003610 0.000000 0.000000 0.000000
# 3 -0.006620 -0.003610 0.016058 0.000000 0.000000 0.000000
# 4 0.000000 0.000000 0.000000 0.020233 0.000000 0.000000
# 5 0.000000 0.000000 0.000000 0.000000 0.006148 0.000000
# 6 0.000000 0.000000 0.000000 0.000000 0.000000 0.038166
#
#
# Mechanical properties :
#
#
# Convention : Reuss Voigt Hill
#
# Bulk Modulus (GPa) = 61.02537 75.94200 68.48368
# Shear Modulus (GPa) = 33.70255 58.39073 46.04664
#
# Velocity S-wave (km/s) = 4.34508 5.71925 5.07885
# Velocity P-wave (km/s) = 7.70446 9.28196 8.52976
#
# Compressibility (1/GPa) = 0.01638663
#
# Stress axis : x y z
#
# Youngs Moduli (GPa) = 87.86303 50.17957 62.27579
#
# Poissons Ratio (x) = 0.26392 0.41229
# Poissons Ratio (y) = 0.46212 0.22484
# Poissons Ratio (z) = 0.58169 0.18117
#
# Static dielectric constant tensor:
#      x y z
#    x 1.603770 0.000000 0.000000 
#    y 0.000000 1.607030 0.000000 
#    z 0.000000 0.000000 1.578870 
# 
# From -- ./inp_files/20631.got.cif
#   From: 2010.05.17/outbox.cif.g08.bks.cpg/sg51_11_cif.got.tgz:20631.got - 2010.06.03 11:52:47.
