data_PCOD9406202
_publ_section_title
;
Structure prediction by ZEFSAII (Michael W. Deem and Ramdas Pophale) SiO2 
 PCOD9406202
Probable space group: P M M A
;
_chemical_formula_sum "Si O2"
_cell_formula_units_Z 64
_cell_length_a 8.790217
_cell_length_b 23.553441
_cell_length_c 14.943398
_cell_angle_alpha 90.000000
_cell_angle_beta 90.000000
_cell_angle_gamma 90.000000
_cell_volume 3093.878992
_symmetry_space_group_name_H-M "P M M A"
_symmetry_group_IT_number 51
_symmetry_cell_setting 'orthorhombic'
loop_
_space_group_symop_operation_xyz
x,y,z
1/2-x,-y,z
1/2+x,-y,-z
-x,y,-z
-x,-y,-z
1/2+x,y,-z
1/2-x,y,z
x,-y,z
loop_
_atom_site_type_symbol
_atom_site_label
_atom_site_fract_x
_atom_site_fract_y
_atom_site_fract_z
Si Si1 0.074583 0.672071 0.090307
Si Si2 0.425819 0.930751 0.406555
Si Si3 0.929798 0.437714 0.347354
Si Si4 0.934549 0.312679 0.404855
Si Si5 0.422299 0.435182 0.868382
Si Si6 0.926877 0.068084 0.218718
Si Si7 0.429672 0.843080 0.098150
Si Si8 0.930019 0.250520 0.228630
O O1 0.250000 0.688221 0.098546
O O2 0.050916 0.604748 0.091880
O O3 0.972815 0.694115 0.171322
O O4 0.000000 0.695304 0.000000
O O5 0.500000 0.911635 0.500000
O O6 0.250000 0.913622 0.401843
O O7 0.512667 0.913010 0.316466
O O8 0.430356 0.000000 0.407687
O O9 0.750000 0.438841 0.370014
O O10 0.994135 0.500000 0.375379
O O11 0.989995 0.377538 0.383932
O O12 0.938130 0.435169 0.239536
O O13 0.750000 0.314085 0.404787
O O14 0.979965 0.267573 0.328299
O O15 0.000000 0.295823 0.500000
O O16 0.250000 0.414292 0.889507
O O17 0.433910 0.500000 0.897575
O O18 0.750000 0.083707 0.209927
O O19 0.020505 0.096690 0.139420
O O20 0.939559 0.000000 0.215431
O O21 0.250000 0.838512 0.090661
O O22 0.489270 0.799006 0.173077
O O23 0.500000 0.834057 0.000000
O O24 0.750000 0.240213 0.228439
#
# Coordination Sequence:
#
# PCOD9406202 Si02
#       8
#     8   8   8   8   8   8   8   8
#     4  12  24  37  57  84 114 149 194 247 301 363
#     4   9  16  28  50  83 124 170 216 259 303 354
#     4   8  14  29  54  82 114 155 199 242 298 364
#     4  10  21  37  61  90 122 160 201 249 306 366
#     4   9  17  33  56  79 109 150 195 243 298 360
#     4  10  21  39  64  96 134 174 215 260 310 366
#     4  12  26  45  69  97 127 162 205 254 311 373
#     4  11  23  44  67  88 118 156 201 252 306 360
#
# _framework density 20.686007
#
# number of rings (size 3 to 8) (size 9 to 14) (size 15 to 20)
#    0.000    1.875    1.250    4.500    0.000    4.250 
#    0.000    0.625    0.000    1.500    0.000    0.000 
#    0.000    0.000    0.000    0.000    0.000    0.000 
#
# Total GULP energy -357327.121581 kJ/mol
# GULP energy per Si atom -5583.236275 kJ/mol
# Density = 2.063892 g / cm^3
# Si number density = 20.686007 Si / 1000 Ang^3
#
#
#
# Elastic Constant Matrix: (Units=GPa)
#
#
# Indices 1 2 3 4 5 6 
#
# 1 88.7504 33.5282 49.5436 0.0000 0.0000 0.0000
# 2 33.5282 44.5985 37.1871 0.0000 0.0000 0.0000
# 3 49.5436 37.1871 144.0758 0.0000 0.0000 0.0000
# 4 0.0000 0.0000 0.0000 -0.1486 0.0000 0.0000
# 5 0.0000 0.0000 0.0000 0.0000 32.7499 0.0000
# 6 0.0000 0.0000 0.0000 0.0000 0.0000 25.5718
#
#
#
# Elastic Compliance Matrix: (Units=1/GPa)
#
#
# Indices 1 2 3 4 5 6 
#
# 1 0.016828 -0.009972 -0.003213 0.000000 0.000000 0.000000
# 2 -0.009972 0.034481 -0.005471 0.000000 0.000000 0.000000
# 3 -0.003213 -0.005471 0.009458 0.000000 0.000000 0.000000
# 4 0.000000 0.000000 0.000000 -6.727902 0.000000 0.000000
# 5 0.000000 0.000000 0.000000 0.000000 0.030534 0.000000
# 6 0.000000 0.000000 0.000000 0.000000 0.000000 0.039106
#
#
# Mechanical properties :
#
#
# Convention : Reuss Voigt Hill
#
# Bulk Modulus (GPa) = 42.63438 57.54917 50.09177
# Shear Modulus (GPa) = -0.76308 22.11233 10.67462
#
# Velocity S-wave (km/s) = -0.60802 3.27303 2.27410
# Velocity P-wave (km/s) = 4.49022 6.49341 5.58240
#
# Compressibility (1/GPa) = 0.02345525
#
# Stress axis : x y z
#
# Youngs Moduli (GPa) = 59.42311 29.00177 105.73502
#
# Poissons Ratio (x) = 0.28921 0.33972
# Poissons Ratio (y) = 0.59259 0.57843
# Poissons Ratio (z) = 0.19092 0.15865
#
# Static dielectric constant tensor:
#      x y z
#    x 1.704430 0.000000 0.000000 
#    y 0.000000 1.820970 0.000000 
#    z 0.000000 0.000000 1.762890 
# 
# From -- ./inp_files/22379.got.cif
#   From: 2010.05.17/outbox.cif.g08.bks.cpg/sg51_12_cif.got.tgz:22379.got - 2010.06.03 11:52:47.
