data_PCOD9406180
_publ_section_title
;
Structure prediction by ZEFSAII (Michael W. Deem and Ramdas Pophale) SiO2 
 PCOD9406180
Probable space group: P M M A
;
_chemical_formula_sum "Si O2"
_cell_formula_units_Z 48
_cell_length_a 10.508575
_cell_length_b 8.694891
_cell_length_c 28.688731
_cell_angle_alpha 90.000000
_cell_angle_beta 90.000000
_cell_angle_gamma 90.000000
_cell_volume 2621.315578
_symmetry_space_group_name_H-M "P M M A"
_symmetry_group_IT_number 51
_symmetry_cell_setting 'orthorhombic'
loop_
_space_group_symop_operation_xyz
x,y,z
1/2-x,-y,z
1/2+x,-y,-z
-x,y,-z
-x,-y,-z
1/2+x,y,-z
1/2-x,y,z
x,-y,z
loop_
_atom_site_type_symbol
_atom_site_label
_atom_site_fract_x
_atom_site_fract_y
_atom_site_fract_z
Si Si1 0.498752 0.182778 0.236488
Si Si2 0.750000 0.317018 0.712916
Si Si3 0.604559 0.312430 0.962939
Si Si4 0.750000 0.315966 0.393038
Si Si5 0.250000 0.814950 0.390246
Si Si6 0.493851 0.814652 0.553849
Si Si7 0.750000 0.315181 0.284644
Si Si8 0.900400 0.684252 0.856227
O O1 0.375477 0.248785 0.263026
O O2 0.624778 0.252766 0.259252
O O3 0.482182 0.231937 0.182731
O O4 0.500845 0.000000 0.240768
O O5 0.750000 0.500000 0.718619
O O6 0.750000 0.270099 0.658900
O O7 0.750000 0.263471 0.973195
O O8 0.605339 0.500000 0.963867
O O9 0.572635 0.269718 0.909617
O O10 0.500000 0.259251 0.000000
O O11 0.750000 0.500000 0.393894
O O12 0.874483 0.255062 0.419286
O O13 0.750000 0.266238 0.338920
O O14 0.375667 0.776214 0.419660
O O15 0.250000 0.000000 0.382217
O O16 0.500000 0.764523 0.500000
O O17 0.480658 0.000000 0.554039
O O18 0.750000 0.500000 0.283092
O O19 0.750000 0.714509 0.847857
O O20 0.918307 0.500000 0.852114
#
# Coordination Sequence:
#
# PCOD9406180 Si02
#       8
#     8   4   8   4   4   8   4   8
#     4  12  24  39  60  87 116 151 196 243 292 348
#     4  12  24  39  61  86 116 152 193 241 290 344
#     4   8  14  26  46  74 108 145 189 237 282 333
#     4  11  24  40  60  87 117 152 190 231 286 345
#     4  10  21  37  59  89 117 144 190 243 286 333
#     4  10  21  39  63  88 116 152 191 231 278 336
#     4  11  25  44  62  84 118 156 193 237 296 358
#     4   9  17  32  55  81 113 154 195 238 291 344
#
# _framework density 18.311415
#
# number of rings (size 3 to 8) (size 9 to 14) (size 15 to 20)
#    0.000    1.833    0.833    5.250    0.000    6.333 
#    1.500    0.833    0.000    0.500    0.000    0.000 
#    0.000    0.000    0.000    0.000    0.000    0.000 
#
# Total GULP energy -268176.556972 kJ/mol
# GULP energy per Si atom -5587.011604 kJ/mol
# Density = 1.826974 g / cm^3
# Si number density = 18.311415 Si / 1000 Ang^3
#
#
#
# Elastic Constant Matrix: (Units=GPa)
#
#
# Indices 1 2 3 4 5 6 
#
# 1 177.3976 56.6028 113.2397 0.0000 0.0000 0.0000
# 2 56.6028 56.6872 55.6469 0.0000 0.0000 0.0000
# 3 113.2397 55.6469 180.4968 0.0000 0.0000 0.0000
# 4 0.0000 0.0000 0.0000 -462.0961 0.0000 0.0000
# 5 0.0000 0.0000 0.0000 0.0000 38.8776 0.0000
# 6 0.0000 0.0000 0.0000 0.0000 0.0000 20.7716
#
#
#
# Elastic Compliance Matrix: (Units=1/GPa)
#
#
# Indices 1 2 3 4 5 6 
#
# 1 0.010587 -0.005809 -0.004851 0.000000 0.000000 0.000000
# 2 -0.005809 0.028484 -0.005137 0.000000 0.000000 0.000000
# 3 -0.004851 -0.005137 0.010168 0.000000 0.000000 0.000000
# 4 0.000000 0.000000 0.000000 -0.002164 0.000000 0.000000
# 5 0.000000 0.000000 0.000000 0.000000 0.025722 0.000000
# 6 0.000000 0.000000 0.000000 0.000000 0.000000 0.048143
#
#
# Mechanical properties :
#
#
# Convention : Reuss Voigt Hill
#
# Bulk Modulus (GPa) = 56.67698 96.17337 76.42518
# Shear Modulus (GPa) = 31.56250 -67.88323 -18.16036
#
# Velocity S-wave (km/s) = 4.15619 -6.09525 -3.15262
# Velocity P-wave (km/s) = 7.35193 1.76040 5.34555
#
# Compressibility (1/GPa) = 0.01764385
#
# Stress axis : x y z
#
# Youngs Moduli (GPa) = 94.45152 35.10736 98.35200
#
# Poissons Ratio (x) = 0.20395 0.47713
# Poissons Ratio (y) = 0.54871 0.50523
# Poissons Ratio (z) = 0.45821 0.18034
#
# Static dielectric constant tensor:
#      x y z
#    x 1.593220 0.000000 0.000000 
#    y 0.000000 1.616650 0.000000 
#    z 0.000000 0.000000 1.624270 
# 
# From -- ./inp_files/37240.got.cif
#   From: 2010.05.17/outbox.cif.g08.bks.cpg/sg51_19_cif.got.tgz:37240.got - 2010.06.03 11:52:47.
