data_PCOD9406524
_publ_section_title
;
Structure prediction by ZEFSAII (Michael W. Deem and Ramdas Pophale) SiO2 
 PCOD9406524
Probable space group: P M M A
;
_chemical_formula_sum "Si O2"
_cell_formula_units_Z 48
_cell_length_a 8.588353
_cell_length_b 31.382302
_cell_length_c 9.615339
_cell_angle_alpha 90.000000
_cell_angle_beta 90.000000
_cell_angle_gamma 90.000000
_cell_volume 2591.548163
_symmetry_space_group_name_H-M "P M M A"
_symmetry_group_IT_number 51
_symmetry_cell_setting 'orthorhombic'
loop_
_space_group_symop_operation_xyz
x,y,z
1/2-x,-y,z
1/2+x,-y,-z
-x,y,-z
-x,-y,-z
1/2+x,y,-z
1/2-x,y,z
x,-y,z
loop_
_atom_site_type_symbol
_atom_site_label
_atom_site_fract_x
_atom_site_fract_y
_atom_site_fract_z
Si Si1 0.435509 0.377256 0.156122
Si Si2 0.438157 0.124999 0.845293
Si Si3 0.061946 0.952807 0.656026
Si Si4 0.437819 0.778881 0.844555
Si Si5 0.436184 0.550100 0.652305
Si Si6 0.937245 0.699746 0.343534
O O1 0.250000 0.374690 0.152784
O O2 0.488650 0.420954 0.229551
O O3 0.502131 0.339441 0.251637
O O4 0.500000 0.374101 0.000000
O O5 0.250000 0.124226 0.846971
O O6 0.493624 0.086926 0.746992
O O7 0.486280 0.173039 0.803510
O O8 0.500000 0.118053 0.000000
O O9 0.250000 0.951640 0.653048
O O10 0.000000 0.948992 0.500000
O O11 0.015774 0.000000 0.709394
O O12 0.250000 0.778007 0.851233
O O13 0.487581 0.743097 0.735204
O O14 0.500000 0.770158 0.000000
O O15 0.500000 0.562704 0.500000
O O16 0.250000 0.555446 0.653741
O O17 0.472004 0.500000 0.671815
O O18 0.750000 0.698405 0.347097
O O19 0.000000 0.697748 0.500000
#
# Coordination Sequence:
#
# PCOD9406524 Si02
#       6
#     8   8   8   8   8   8
#     4  12  25  41  61  85 115 150 188 230 277 327
#     4   9  18  33  51  74 103 134 171 214 262 315
#     4   9  18  32  49  70  99 134 171 213 260 311
#     4   9  19  35  55  77 104 138 174 216 265 319
#     4  10  21  39  63  90 120 154 191 231 276 325
#     4  11  23  39  58  82 111 143 182 225 272 324
#
# _framework density 18.521747999999999
#
# number of rings (size 3 to 8) (size 9 to 14) (size 15 to 20)
#    0.000    2.000    0.000    3.500    0.000    5.667 
#    0.000    0.000    0.000    0.000    0.000    0.000 
#    0.000    0.000    0.000    0.000    0.000    0.000 
#
# Total GULP energy -268048.309842 kJ/mol
# GULP energy per Si atom -5584.339788 kJ/mol
# Density = 1.847959 g / cm^3
# Si number density = 18.521748 Si / 1000 Ang^3
#
#
#
# Elastic Constant Matrix: (Units=GPa)
#
#
# Indices 1 2 3 4 5 6 
#
# 1 49.5431 48.3502 43.1049 0.0000 0.0000 0.0000
# 2 48.3502 135.9978 107.5693 0.0000 0.0000 0.0000
# 3 43.1049 107.5693 147.9341 0.0000 0.0000 0.0000
# 4 0.0000 0.0000 0.0000 39.9920 0.0000 0.0000
# 5 0.0000 0.0000 0.0000 0.0000 36.3327 0.0000
# 6 0.0000 0.0000 0.0000 0.0000 0.0000 -50.0133
#
#
#
# Elastic Compliance Matrix: (Units=1/GPa)
#
#
# Indices 1 2 3 4 5 6 
#
# 1 0.031272 -0.009205 -0.002419 0.000000 0.000000 0.000000
# 2 -0.009205 0.020016 -0.011873 0.000000 0.000000 0.000000
# 3 -0.002419 -0.011873 0.016098 0.000000 0.000000 0.000000
# 4 0.000000 0.000000 0.000000 0.025005 0.000000 0.000000
# 5 0.000000 0.000000 0.000000 0.000000 0.027523 0.000000
# 6 0.000000 0.000000 0.000000 0.000000 0.000000 -0.019995
#
#
# Mechanical properties :
#
#
# Convention : Reuss Voigt Hill
#
# Bulk Modulus (GPa) = 49.03496 81.28042 65.15769
# Shear Modulus (GPa) = 32.52864 14.22564 23.37714
#
# Velocity S-wave (km/s) = 4.19530 2.77438 3.55652
# Velocity P-wave (km/s) = 7.07100 7.36491 7.21945
#
# Compressibility (1/GPa) = 0.02039361
#
# Stress axis : x y z
#
# Youngs Moduli (GPa) = 31.97746 49.95888 62.12011
#
# Poissons Ratio (x) = 0.45985 0.15027
# Poissons Ratio (y) = 0.29434 0.73754
# Poissons Ratio (z) = 0.07735 0.59315
#
# Static dielectric constant tensor:
#      x y z
#    x 1.623090 0.000000 0.000000 
#    y 0.000000 1.662270 0.000000 
#    z 0.000000 0.000000 1.589610 
# 
# From -- ./inp_files/5947.got.cif
#   From: 2010.05.17/outbox.cif.g08.bks.cpg/sg51_3_cif.got.tgz:5947.got - 2010.06.03 11:52:47.
