data_PCOD9406655
_publ_section_title
;
Structure prediction by ZEFSAII (Michael W. Deem and Ramdas Pophale) SiO2 
 PCOD9406655
Probable space group: P M M A
;
_chemical_formula_sum "Si O2"
_cell_formula_units_Z 52
_cell_length_a 9.240318
_cell_length_b 23.540273
_cell_length_c 15.416303
_cell_angle_alpha 90.000000
_cell_angle_beta 90.000000
_cell_angle_gamma 90.000000
_cell_volume 3353.348190
_symmetry_space_group_name_H-M "P M M A"
_symmetry_group_IT_number 51
_symmetry_cell_setting 'orthorhombic'
loop_
_space_group_symop_operation_xyz
x,y,z
1/2-x,-y,z
1/2+x,-y,-z
-x,y,-z
-x,-y,-z
1/2+x,y,-z
1/2-x,y,z
x,-y,z
loop_
_atom_site_type_symbol
_atom_site_label
_atom_site_fract_x
_atom_site_fract_y
_atom_site_fract_z
Si Si1 0.577111 0.909065 0.263202
Si Si2 0.924163 0.686044 0.406780
Si Si3 0.576740 0.775745 0.261541
Si Si4 0.916675 0.086286 0.913390
Si Si5 0.083731 0.775395 0.085761
Si Si6 0.423657 0.561038 0.593681
Si Si7 0.576357 0.000000 0.407374
O O1 0.750000 0.915002 0.248928
O O2 0.545414 0.842387 0.277622
O O3 0.495982 0.929024 0.176187
O O4 0.538307 0.945951 0.347154
O O5 0.750000 0.688983 0.418493
O O6 0.966818 0.735709 0.341026
O O7 0.959816 0.623104 0.368670
O O8 0.000000 0.691743 0.500000
O O9 0.750000 0.770835 0.249593
O O10 0.497045 0.758335 0.173461
O O11 0.750000 0.068115 0.914165
O O12 0.917896 0.155450 0.915381
O O13 0.000000 0.067378 0.000000
O O14 0.250000 0.757210 0.084929
O O15 0.000000 0.756141 0.000000
O O16 0.500000 0.560790 0.500000
O O17 0.250000 0.560927 0.582327
O O18 0.462131 0.500000 0.636328
O O19 0.500000 0.000000 0.500000
O O20 0.750000 0.000000 0.419845
#
# Coordination Sequence:
#
# PCOD9406655 Si02
#       7
#     8   8   8   8   8   8   4
#     4   9  18  33  49  64  84 110 140 175 213 251
#     4   9  17  27  39  58  84 113 143 174 208 245
#     4   9  17  29  44  62  86 113 139 171 211 251
#     4   9  16  27  46  71  94 114 135 162 201 251
#     4   9  16  26  42  64  88 113 140 169 204 248
#     4   8  13  22  36  53  75 105 139 171 202 239
#     4  10  22  38  53  66  81 106 143 184 220 252
#
# _framework density 15.506888999999999
#
# number of rings (size 3 to 8) (size 9 to 14) (size 15 to 20)
#    0.000    3.077    0.000    0.923    0.000    5.538 
#    0.000    0.385    0.000    0.000    0.000    0.000 
#    0.000    0.615    0.000    1.077    0.000    1.846 
#
# Total GULP energy -289495.080334 kJ/mol
# GULP energy per Si atom -5567.213083 kJ/mol
# Density = 1.547159 g / cm^3
# Si number density = 15.506889 Si / 1000 Ang^3
#
#
#
# Elastic Constant Matrix: (Units=GPa)
#
#
# Indices 1 2 3 4 5 6 
#
# 1 45.0689 36.1680 56.7377 0.0000 0.0000 0.0000
# 2 36.1680 87.2101 63.7824 0.0000 0.0000 0.0000
# 3 56.7377 63.7824 136.3924 0.0000 0.0000 0.0000
# 4 0.0000 0.0000 0.0000 -5.6401 0.0000 0.0000
# 5 0.0000 0.0000 0.0000 0.0000 29.2131 0.0000
# 6 0.0000 0.0000 0.0000 0.0000 0.0000 4.5121
#
#
#
# Elastic Compliance Matrix: (Units=1/GPa)
#
#
# Indices 1 2 3 4 5 6 
#
# 1 0.050381 -0.008460 -0.017002 0.000000 0.000000 0.000000
# 2 -0.008460 0.018847 -0.005295 0.000000 0.000000 0.000000
# 3 -0.017002 -0.005295 0.016880 0.000000 0.000000 0.000000
# 4 0.000000 0.000000 0.000000 -0.177303 0.000000 0.000000
# 5 0.000000 0.000000 0.000000 0.000000 0.034231 0.000000
# 6 0.000000 0.000000 0.000000 0.000000 0.000000 0.221625
#
#
# Mechanical properties :
#
#
# Convention : Reuss Voigt Hill
#
# Bulk Modulus (GPa) = 40.65637 64.67196 52.66417
# Shear Modulus (GPa) = 21.33355 13.08259 17.20807
#
# Velocity S-wave (km/s) = 3.71313 2.90774 3.33484
# Velocity P-wave (km/s) = 6.68269 7.28485 6.99026
#
# Compressibility (1/GPa) = 0.02459639
#
# Stress axis : x y z
#
# Youngs Moduli (GPa) = 19.84883 53.05814 59.24054
#
# Poissons Ratio (x) = 0.44885 1.00720
# Poissons Ratio (y) = 0.16791 0.31366
# Poissons Ratio (z) = 0.33747 0.28092
#
# Static dielectric constant tensor:
#      x y z
#    x 1.516120 0.000000 0.000000 
#    y 0.000000 1.554810 0.000000 
#    z 0.000000 0.000000 1.479720 
# 
# From -- ./inp_files/22034.got.cif
#   From: 2010.05.17/outbox.cif.g08.bks.cpg/sg51_12_cif.got.tgz:22034.got - 2010.06.03 11:52:47.
