data_PCOD9406230
_publ_section_title
;
Structure prediction by ZEFSAII (Michael W. Deem and Ramdas Pophale) SiO2 
 PCOD9406230
Probable space group: P M M A
;
_chemical_formula_sum "Si O2"
_cell_formula_units_Z 32
_cell_length_a 8.616569
_cell_length_b 22.077086
_cell_length_c 9.440052
_cell_angle_alpha 90.000000
_cell_angle_beta 90.000000
_cell_angle_gamma 90.000000
_cell_volume 1795.769149
_symmetry_space_group_name_H-M "P M M A"
_symmetry_group_IT_number 51
_symmetry_cell_setting 'orthorhombic'
loop_
_space_group_symop_operation_xyz
x,y,z
1/2-x,-y,z
1/2+x,-y,-z
-x,y,-z
-x,-y,-z
1/2+x,y,-z
1/2-x,y,z
x,-y,z
loop_
_atom_site_type_symbol
_atom_site_label
_atom_site_fract_x
_atom_site_fract_y
_atom_site_fract_z
Si Si1 0.937424 0.565151 0.161249
Si Si2 0.936000 0.068314 0.340930
Si Si3 0.565423 0.178413 0.840495
Si Si4 0.563422 0.303767 0.161538
O O1 0.750000 0.565401 0.155881
O O2 0.986479 0.500000 0.225274
O O3 0.983075 0.630527 0.224928
O O4 0.000000 0.564988 0.000000
O O5 0.750000 0.073814 0.342336
O O6 0.000000 0.073944 0.500000
O O7 0.007558 0.120769 0.246043
O O8 0.975436 0.000000 0.290616
O O9 0.750000 0.180213 0.846103
O O10 0.504349 0.241989 0.775609
O O11 0.500000 0.174186 0.000000
O O12 0.750000 0.299503 0.158863
O O13 0.500000 0.304923 0.000000
#
# Coordination Sequence:
#
# PCOD9406230 Si02
#       4
#     8   8   8   8
#     4   8  13  20  31  49  75 110 150 189 230 277
#     4  10  21  38  58  78 100 126 157 194 238 288
#     4  11  21  33  50  72 100 132 166 203 243 287
#     4   9  15  24  38  57  85 119 155 195 238 283
#
# _framework density 17.819662999999998
#
# number of rings (size 3 to 8) (size 9 to 14) (size 15 to 20)
#    0.000    2.500    0.000    5.250    0.000    3.000 
#    0.000    0.000    0.000    0.000    0.000    0.000 
#    0.000    1.000    0.000    2.750    0.000   12.750 
#
# Total GULP energy -178154.457787 kJ/mol
# GULP energy per Si atom -5567.326806 kJ/mol
# Density = 1.777910 g / cm^3
# Si number density = 17.819663 Si / 1000 Ang^3
#
#
#
# Elastic Constant Matrix: (Units=GPa)
#
#
# Indices 1 2 3 4 5 6 
#
# 1 85.9052 70.8529 15.0315 0.0000 0.0000 0.0000
# 2 70.8529 242.8178 49.1548 0.0000 0.0000 0.0000
# 3 15.0315 49.1548 17.3870 0.0000 0.0000 0.0000
# 4 0.0000 0.0000 0.0000 -9.2801 0.0000 0.0000
# 5 0.0000 0.0000 0.0000 0.0000 18.0334 0.0000
# 6 0.0000 0.0000 0.0000 0.0000 0.0000 100.5656
#
#
#
# Elastic Compliance Matrix: (Units=1/GPa)
#
#
# Indices 1 2 3 4 5 6 
#
# 1 0.015345 -0.004190 -0.001421 0.000000 0.000000 0.000000
# 2 -0.004190 0.010773 -0.026834 0.000000 0.000000 0.000000
# 3 -0.001421 -0.026834 0.134606 0.000000 0.000000 0.000000
# 4 0.000000 0.000000 0.000000 -0.107758 0.000000 0.000000
# 5 0.000000 0.000000 0.000000 0.000000 0.055453 0.000000
# 6 0.000000 0.000000 0.000000 0.000000 0.000000 0.009944
#
#
# Mechanical properties :
#
#
# Convention : Reuss Voigt Hill
#
# Bulk Modulus (GPa) = 10.43466 68.46537 39.45002
# Shear Modulus (GPa) = 23.23440 35.93518 29.58479
#
# Velocity S-wave (km/s) = 3.61482 4.49553 4.07902
# Velocity P-wave (km/s) = 4.82607 8.09018 6.66116
#
# Compressibility (1/GPa) = 0.09583446
#
# Stress axis : x y z
#
# Youngs Moduli (GPa) = 65.16694 92.82302 7.42908
#
# Poissons Ratio (x) = 0.38894 0.01055
# Poissons Ratio (y) = 0.27305 0.19936
# Poissons Ratio (z) = 0.09257 2.49086
#
# Static dielectric constant tensor:
#      x y z
#    x 1.591010 0.000000 0.000000 
#    y 0.000000 1.705220 0.000000 
#    z 0.000000 0.000000 1.563030 
# 
# From -- ./inp_files/4836.got.cif
#   From: 2010.05.17/outbox.cif.g08.bks.cpg/sg51_3_cif.got.tgz:4836.got - 2010.06.03 11:52:47.
