data_PCOD9406587
_publ_section_title
;
Structure prediction by ZEFSAII (Michael W. Deem and Ramdas Pophale) SiO2 
 PCOD9406587
Probable space group: P M M A
;
_chemical_formula_sum "Si O2"
_cell_formula_units_Z 56
_cell_length_a 22.014715
_cell_length_b 8.759411
_cell_length_c 14.982451
_cell_angle_alpha 90.000000
_cell_angle_beta 90.000000
_cell_angle_gamma 90.000000
_cell_volume 2889.154973
_symmetry_space_group_name_H-M "P M M A"
_symmetry_group_IT_number 51
_symmetry_cell_setting 'orthorhombic'
loop_
_space_group_symop_operation_xyz
x,y,z
1/2-x,-y,z
1/2+x,-y,-z
-x,y,-z
-x,-y,-z
1/2+x,y,-z
1/2-x,y,z
x,-y,z
loop_
_atom_site_type_symbol
_atom_site_label
_atom_site_fract_x
_atom_site_fract_y
_atom_site_fract_z
Si Si1 0.085513 0.183084 0.235333
Si Si2 0.750000 0.182371 0.376887
Si Si3 0.876732 0.184768 0.460793
Si Si4 0.250000 0.178916 0.831707
Si Si5 0.376950 0.677702 0.859519
Si Si6 0.930061 0.829341 0.973424
Si Si7 0.678283 0.316472 0.636605
Si Si8 0.539750 0.315403 0.308336
O O1 0.077519 0.213937 0.129765
O O2 0.147364 0.256245 0.272914
O O3 0.027171 0.252097 0.286805
O O4 0.086342 0.000000 0.247580
O O5 0.813139 0.238900 0.416143
O O6 0.750000 0.212062 0.273257
O O7 0.750000 0.000000 0.392366
O O8 0.865554 0.244862 0.560539
O O9 0.930689 0.251891 0.399914
O O10 0.880948 0.000000 0.460220
O O11 0.188297 0.247367 0.866047
O O12 0.250000 0.000000 0.845704
O O13 0.370053 0.500000 0.843072
O O14 0.417371 0.736199 0.775596
O O15 0.405998 0.710946 0.954799
O O16 0.902544 0.000000 0.985988
O O17 0.000000 0.842547 0.000000
O O18 0.750000 0.271219 0.626537
O O19 0.675926 0.500000 0.631805
O O20 0.538150 0.500000 0.311394
#
# Coordination Sequence:
#
# PCOD9406587 Si02
#       8
#     8   4   8   4   8   8   8   8
#     4  11  24  43  68  94 121 160 211 262 308 365
#     4   9  18  31  55  88 119 158 203 251 298 352
#     4  11  21  38  64  94 125 162 211 255 301 363
#     4  11  21  37  59  86 125 168 209 255 312 372
#     4  11  23  37  58  91 129 167 207 255 315 379
#     4  10  21  40  66  92 120 159 207 257 311 372
#     4  11  25  45  67  92 125 166 207 254 314 371
#     4  11  23  38  60  95 134 167 201 252 315 374
#
# _framework density 19.382829000000001
#
# number of rings (size 3 to 8) (size 9 to 14) (size 15 to 20)
#    0.000    1.286    3.571    2.357    0.000    4.000 
#    1.286    2.857    0.000    0.000    0.000    0.000 
#    0.000    0.000    0.000    0.000    0.000    0.000 
#
# Total GULP energy -312561.019672 kJ/mol
# GULP energy per Si atom -5581.446780 kJ/mol
# Density = 1.933871 g / cm^3
# Si number density = 19.382829 Si / 1000 Ang^3
#
#
#
# Elastic Constant Matrix: (Units=GPa)
#
#
# Indices 1 2 3 4 5 6 
#
# 1 84.2506 33.6920 34.0592 0.0000 0.0000 0.0000
# 2 33.6920 68.7803 30.4201 0.0000 0.0000 0.0000
# 3 34.0592 30.4201 100.1850 0.0000 0.0000 0.0000
# 4 0.0000 0.0000 0.0000 27.7819 0.0000 0.0000
# 5 0.0000 0.0000 0.0000 0.0000 120.2987 0.0000
# 6 0.0000 0.0000 0.0000 0.0000 0.0000 37.4088
#
#
#
# Elastic Compliance Matrix: (Units=1/GPa)
#
#
# Indices 1 2 3 4 5 6 
#
# 1 0.015744 -0.006174 -0.003478 0.000000 0.000000 0.000000
# 2 -0.006174 0.019216 -0.003736 0.000000 0.000000 0.000000
# 3 -0.003478 -0.003736 0.012298 0.000000 0.000000 0.000000
# 4 0.000000 0.000000 0.000000 0.035995 0.000000 0.000000
# 5 0.000000 0.000000 0.000000 0.000000 0.008313 0.000000
# 6 0.000000 0.000000 0.000000 0.000000 0.000000 0.026732
#
#
# Mechanical properties :
#
#
# Convention : Reuss Voigt Hill
#
# Bulk Modulus (GPa) = 48.82112 49.95094 49.38603
# Shear Modulus (GPa) = 32.91637 47.43417 40.17527
#
# Velocity S-wave (km/s) = 4.12542 4.95231 4.55766
# Velocity P-wave (km/s) = 6.92348 7.65031 7.29595
#
# Compressibility (1/GPa) = 0.02048294
#
# Stress axis : x y z
#
# Youngs Moduli (GPa) = 63.51477 52.04087 81.31314
#
# Poissons Ratio (x) = 0.32131 0.28279
# Poissons Ratio (y) = 0.39215 0.30375
# Poissons Ratio (z) = 0.22089 0.19440
#
# Static dielectric constant tensor:
#      x y z
#    x 1.617080 0.000000 0.000000 
#    y 0.000000 1.677500 0.000000 
#    z 0.000000 0.000000 1.699720 
# 
# From -- ./inp_files/25897.got.cif
#   From: 2010.05.17/outbox.cif.g08.bks.cpg/sg51_13_cif.got.tgz:25897.got - 2010.06.03 11:52:47.
