data_PCOD9406040
_publ_section_title
;
Structure prediction by ZEFSAII (Michael W. Deem and Ramdas Pophale) SiO2 
 PCOD9406040
Probable space group: P M M A
;
_chemical_formula_sum "Si O2"
_cell_formula_units_Z 32
_cell_length_a 8.967654
_cell_length_b 9.292938
_cell_length_c 21.077687
_cell_angle_alpha 90.000000
_cell_angle_beta 90.000000
_cell_angle_gamma 90.000000
_cell_volume 1756.527018
_symmetry_space_group_name_H-M "P M M A"
_symmetry_group_IT_number 51
_symmetry_cell_setting 'orthorhombic'
loop_
_space_group_symop_operation_xyz
x,y,z
1/2-x,-y,z
1/2+x,-y,-z
-x,y,-z
-x,-y,-z
1/2+x,y,-z
1/2-x,y,z
x,-y,z
loop_
_atom_site_type_symbol
_atom_site_label
_atom_site_fract_x
_atom_site_fract_y
_atom_site_fract_z
Si Si1 0.570909 0.831999 0.566427
Si Si2 0.071852 0.169596 0.813496
Si Si3 0.072587 0.670665 0.067707
Si Si4 0.429686 0.669060 0.305696
O O1 0.500000 0.784547 0.500000
O O2 0.750000 0.824511 0.561014
O O3 0.525624 0.738736 0.627092
O O4 0.529992 0.000000 0.576625
O O5 0.250000 0.187298 0.815833
O O6 0.999491 0.239529 0.875775
O O7 0.006661 0.248642 0.751939
O O8 0.037637 0.000000 0.810461
O O9 0.250000 0.693572 0.065432
O O10 0.046240 0.500000 0.078922
O O11 0.000000 0.707459 0.000000
O O12 0.250000 0.684607 0.299665
O O13 0.464720 0.500000 0.303927
#
# Coordination Sequence:
#
# PCOD9406040 Si02
#       4
#     8   8   8   8
#     4   9  18  33  53  77 107 143 181 222 269 322
#     4  11  24  39  56  81 112 146 185 228 274 325
#     4  10  21  38  61  87 114 146 183 223 270 324
#     4  10  21  37  57  81 109 143 184 228 275 328
#
# _framework density 18.217766000000001
#
# number of rings (size 3 to 8) (size 9 to 14) (size 15 to 20)
#    0.000    2.000    0.000    3.000    0.000   10.000 
#    0.000    2.500    0.000    0.000    0.000    0.000 
#    0.000    0.000    0.000    0.000    0.000    0.000 
#
# Total GULP energy -178788.987783 kJ/mol
# GULP energy per Si atom -5587.155868 kJ/mol
# Density = 1.817630 g / cm^3
# Si number density = 18.217766 Si / 1000 Ang^3
#
#
#
# Elastic Constant Matrix: (Units=GPa)
#
#
# Indices 1 2 3 4 5 6 
#
# 1 53.0171 76.7832 83.9341 0.0000 0.0000 0.0000
# 2 76.7832 130.0451 133.9820 0.0000 0.0000 0.0000
# 3 83.9341 133.9820 222.7335 0.0000 0.0000 0.0000
# 4 0.0000 0.0000 0.0000 42.7486 0.0000 0.0000
# 5 0.0000 0.0000 0.0000 0.0000 41.3717 0.0000
# 6 0.0000 0.0000 0.0000 0.0000 0.0000 27.8650
#
#
#
# Elastic Compliance Matrix: (Units=1/GPa)
#
#
# Indices 1 2 3 4 5 6 
#
# 1 0.135016 -0.071792 -0.007694 0.000000 0.000000 0.000000
# 2 -0.071792 0.058396 -0.008073 0.000000 0.000000 0.000000
# 3 -0.007694 -0.008073 0.012245 0.000000 0.000000 0.000000
# 4 0.000000 0.000000 0.000000 0.023393 0.000000 0.000000
# 5 0.000000 0.000000 0.000000 0.000000 0.024171 0.000000
# 6 0.000000 0.000000 0.000000 0.000000 0.000000 0.035887
#
#
# Mechanical properties :
#
#
# Convention : Reuss Voigt Hill
#
# Bulk Modulus (GPa) = 32.74422 110.57713 71.66068
# Shear Modulus (GPa) = 10.53949 29.80349 20.17149
#
# Velocity S-wave (km/s) = 2.40787 4.04908 3.33114
# Velocity P-wave (km/s) = 5.07378 9.09337 7.36317
#
# Compressibility (1/GPa) = 0.03053974
#
# Stress axis : x y z
#
# Youngs Moduli (GPa) = 7.40651 17.12454 81.66301
#
# Poissons Ratio (x) = 1.22940 0.62831
# Poissons Ratio (y) = 0.53173 0.65930
# Poissons Ratio (z) = 0.05699 0.13825
#
# Static dielectric constant tensor:
#      x y z
#    x 1.608770 0.000000 0.000000 
#    y 0.000000 1.610650 0.000000 
#    z 0.000000 0.000000 1.586860 
# 
# From -- ./inp_files/31074.got.cif
#   From: 2010.05.17/outbox.cif.g08.bks.cpg/sg51_16_cif.got.tgz:31074.got - 2010.06.03 11:52:47.
