data_PCOD9406260
_publ_section_title
;
Structure prediction by ZEFSAII (Michael W. Deem and Ramdas Pophale) SiO2 
 PCOD9406260
Probable space group: P M M A
;
_chemical_formula_sum "Si O2"
_cell_formula_units_Z 64
_cell_length_a 9.018912
_cell_length_b 14.398760
_cell_length_c 31.712676
_cell_angle_alpha 90.000000
_cell_angle_beta 90.000000
_cell_angle_gamma 90.000000
_cell_volume 4118.244554
_symmetry_space_group_name_H-M "P M M A"
_symmetry_group_IT_number 51
_symmetry_cell_setting 'orthorhombic'
loop_
_space_group_symop_operation_xyz
x,y,z
1/2-x,-y,z
1/2+x,-y,-z
-x,y,-z
-x,-y,-z
1/2+x,y,-z
1/2-x,y,z
x,-y,z
loop_
_atom_site_type_symbol
_atom_site_label
_atom_site_fract_x
_atom_site_fract_y
_atom_site_fract_z
Si Si1 0.575022 0.888777 0.795727
Si Si2 0.427877 0.108462 0.629727
Si Si3 0.425929 0.607159 0.154254
Si Si4 0.074169 0.110504 0.045078
Si Si5 0.426905 0.789229 0.875854
Si Si6 0.921053 0.886974 0.542852
Si Si7 0.073726 0.606609 0.254859
Si Si8 0.572371 0.210511 0.284123
O O1 0.750000 0.865427 0.797549
O O2 0.493890 0.844456 0.835875
O O3 0.504666 0.846936 0.753399
O O4 0.559856 0.000000 0.796246
O O5 0.250000 0.111960 0.625148
O O6 0.500544 0.141639 0.586206
O O7 0.469683 0.167102 0.670786
O O8 0.468884 0.000000 0.636437
O O9 0.250000 0.622351 0.147118
O O10 0.459646 0.500000 0.143618
O O11 0.520479 0.683165 0.129966
O O12 0.451451 0.618575 0.204559
O O13 0.250000 0.129553 0.044026
O O14 0.995948 0.166868 0.082145
O O15 0.055180 0.000000 0.053037
O O16 0.000000 0.131005 0.000000
O O17 0.250000 0.796267 0.876076
O O18 0.750000 0.859517 0.542766
O O19 0.000000 0.855034 0.500000
O O20 0.927494 0.000000 0.542469
O O21 0.250000 0.619467 0.261815
O O22 0.036286 0.500000 0.265514
O O23 0.981950 0.684024 0.279120
O O24 0.750000 0.204351 0.279594
#
# Coordination Sequence:
#
# PCOD9406260 Si02
#       8
#     8   8   8   8   8   8   8   8
#     4  11  23  36  49  67  96 135 173 206 240 284
#     4   9  18  31  44  61  92 131 165 198 240 290
#     4   9  18  34  55  76 100 131 166 205 249 295
#     4  10  21  38  59  81 106 136 169 205 245 290
#     4  12  23  34  53  80 106 132 165 206 248 293
#     4   9  16  26  42  63  86 116 158 204 246 286
#     4   9  18  33  52  71  94 127 165 205 248 294
#     4  11  21  32  48  71  98 129 163 204 250 294
#
# _framework density 15.540603000000001
#
# number of rings (size 3 to 8) (size 9 to 14) (size 15 to 20)
#    0.000    2.000    1.250    4.125    0.000    6.750 
#    0.000    2.500    0.000    0.375    0.000    0.000 
#    0.000    0.500    0.000    1.625    0.000    2.375 
#
# Total GULP energy -357225.450028 kJ/mol
# GULP energy per Si atom -5581.647657 kJ/mol
# Density = 1.550523 g / cm^3
# Si number density = 15.540603 Si / 1000 Ang^3
#
#
#
# Elastic Constant Matrix: (Units=GPa)
#
#
# Indices 1 2 3 4 5 6 
#
# 1 100.7429 64.2523 81.6942 0.0000 0.0000 0.0000
# 2 64.2523 83.9385 70.0177 0.0000 0.0000 0.0000
# 3 81.6942 70.0177 143.5299 0.0000 0.0000 0.0000
# 4 0.0000 0.0000 0.0000 6.2369 0.0000 0.0000
# 5 0.0000 0.0000 0.0000 0.0000 29.4679 0.0000
# 6 0.0000 0.0000 0.0000 0.0000 0.0000 20.8113
#
#
#
# Elastic Compliance Matrix: (Units=1/GPa)
#
#
# Indices 1 2 3 4 5 6 
#
# 1 0.023649 -0.011591 -0.007806 0.000000 0.000000 0.000000
# 2 -0.011591 0.025769 -0.005973 0.000000 0.000000 0.000000
# 3 -0.007806 -0.005973 0.014324 0.000000 0.000000 0.000000
# 4 0.000000 0.000000 0.000000 0.160337 0.000000 0.000000
# 5 0.000000 0.000000 0.000000 0.000000 0.033935 0.000000
# 6 0.000000 0.000000 0.000000 0.000000 0.000000 0.048051
#
#
# Mechanical properties :
#
#
# Convention : Reuss Voigt Hill
#
# Bulk Modulus (GPa) = 76.91698 84.45995 80.68846
# Shear Modulus (GPa) = 13.84507 18.78636 16.31572
#
# Velocity S-wave (km/s) = 2.98803 3.48063 3.24370
# Velocity P-wave (km/s) = 7.84258 8.40351 8.12789
#
# Compressibility (1/GPa) = 0.01300103
#
# Stress axis : x y z
#
# Youngs Moduli (GPa) = 42.28530 38.80675 69.81220
#
# Poissons Ratio (x) = 0.44981 0.54496
# Poissons Ratio (y) = 0.49013 0.41701
# Poissons Ratio (z) = 0.33008 0.23180
#
# Static dielectric constant tensor:
#      x y z
#    x 1.516750 0.000000 0.000000 
#    y 0.000000 1.510970 0.000000 
#    z 0.000000 0.000000 1.493590 
# 
# From -- ./inp_files/37565.got.cif
#   From: 2010.05.17/outbox.cif.g08.bks.cpg/sg51_19_cif.got.tgz:37565.got - 2010.06.03 11:52:47.
