data_PCOD9406624
_publ_section_title
;
Structure prediction by ZEFSAII (Michael W. Deem and Ramdas Pophale) SiO2 
 PCOD9406624
Probable space group: P M M A
;
_chemical_formula_sum "Si O2"
_cell_formula_units_Z 56
_cell_length_a 21.953464
_cell_length_b 14.553009
_cell_length_c 7.282376
_cell_angle_alpha 90.000000
_cell_angle_beta 90.000000
_cell_angle_gamma 90.000000
_cell_volume 2326.638729
_symmetry_space_group_name_H-M "P M M A"
_symmetry_group_IT_number 51
_symmetry_cell_setting 'orthorhombic'
loop_
_space_group_symop_operation_xyz
x,y,z
1/2-x,-y,z
1/2+x,-y,-z
-x,y,-z
-x,-y,-z
1/2+x,y,-z
1/2-x,y,z
x,-y,z
loop_
_atom_site_type_symbol
_atom_site_label
_atom_site_fract_x
_atom_site_fract_y
_atom_site_fract_z
Si Si1 0.641617 0.397955 0.407471
Si Si2 0.813572 0.205501 0.396261
Si Si3 0.180689 0.781876 0.039588
Si Si4 0.486527 0.611638 0.708318
Si Si5 0.068444 0.895299 0.550508
Si Si6 0.433289 0.894966 0.989645
Si Si7 0.111318 0.395355 0.160114
O O1 0.662326 0.500000 0.354422
O O2 0.687033 0.314822 0.413361
O O3 0.585143 0.367713 0.274679
O O4 0.620539 0.403918 0.619552
O O5 0.750000 0.163737 0.463306
O O6 0.815475 0.194819 0.176745
O O7 0.873679 0.167751 0.495636
O O8 0.250000 0.795628 0.111961
O O9 0.122094 0.844352 0.090197
O O10 0.158802 0.677793 0.080965
O O11 0.500000 0.643788 0.500000
O O12 0.488890 0.500000 0.707410
O O13 0.540962 0.638806 0.843600
O O14 0.074329 0.899630 0.770565
O O15 0.000000 0.863402 0.500000
O O16 0.074501 0.000000 0.481242
O O17 0.437211 0.000000 0.058645
O O18 0.500000 0.850068 0.000000
O O19 0.116317 0.500000 0.085899
#
# Coordination Sequence:
#
# PCOD9406624 Si02
#       7
#     8   8   8   8   8   8   8
#     4   9  18  33  53  77 107 145 189 233 277 328
#     4  10  22  37  53  79 114 150 186 225 277 339
#     4  10  22  37  53  79 114 150 188 229 276 332
#     4   7  12  26  48  73  98 127 170 223 274 320
#     4   9  19  37  61  86 109 137 177 225 276 331
#     4   9  19  37  60  84 110 141 178 222 275 335
#     4   9  18  33  54  79 108 145 189 234 277 323
#
# _framework density 24.069057999999998
#
# number of rings (size 3 to 8) (size 9 to 14) (size 15 to 20)
#    0.000    3.000    0.000    1.714    0.000    7.429 
#    0.000    5.714    0.000    3.000    0.000    6.000 
#    0.000    0.000    0.000    0.000    0.000    0.000 
#
# Total GULP energy -312222.007262 kJ/mol
# GULP energy per Si atom -5575.392987 kJ/mol
# Density = 2.401428 g / cm^3
# Si number density = 24.069058 Si / 1000 Ang^3
#
#
#
# Elastic Constant Matrix: (Units=GPa)
#
#
# Indices 1 2 3 4 5 6 
#
# 1 230.6349 92.5964 21.3774 0.0000 0.0000 0.0000
# 2 92.5964 93.5224 -2.8941 0.0000 0.0000 0.0000
# 3 21.3774 -2.8941 79.8283 0.0000 0.0000 0.0000
# 4 0.0000 0.0000 0.0000 -43.0108 0.0000 0.0000
# 5 0.0000 0.0000 0.0000 0.0000 8.4941 0.0000
# 6 0.0000 0.0000 0.0000 0.0000 0.0000 -50.2335
#
#
#
# Elastic Compliance Matrix: (Units=1/GPa)
#
#
# Indices 1 2 3 4 5 6 
#
# 1 0.007600 -0.007596 -0.002311 0.000000 0.000000 0.000000
# 2 -0.007596 0.018297 0.002697 0.000000 0.000000 0.000000
# 3 -0.002311 0.002697 0.013243 0.000000 0.000000 0.000000
# 4 0.000000 0.000000 0.000000 -0.023250 0.000000 0.000000
# 5 0.000000 0.000000 0.000000 0.000000 0.117729 0.000000
# 6 0.000000 0.000000 0.000000 0.000000 0.000000 -0.019907
#
#
# Mechanical properties :
#
#
# Convention : Reuss Voigt Hill
#
# Bulk Modulus (GPa) = 40.44988 69.57168 55.01078
# Shear Modulus (GPa) = 36.66474 2.57701 19.62088
#
# Velocity S-wave (km/s) = 3.90720 1.03586 2.85825
# Velocity P-wave (km/s) = 6.09895 5.51348 5.81359
#
# Compressibility (1/GPa) = 0.02472195
#
# Stress axis : x y z
#
# Youngs Moduli (GPa) = 131.58485 54.65436 75.50923
#
# Poissons Ratio (x) = 0.41515 0.17447
# Poissons Ratio (y) = 0.99951 -0.20368
# Poissons Ratio (z) = 0.30403 -0.14743
#
# Static dielectric constant tensor:
#      x y z
#    x 1.994960 0.000000 0.000000 
#    y 0.000000 1.912500 0.000000 
#    z 0.000000 0.000000 2.022590 
# 
# From -- ./inp_files/10968.got.cif
#   From: 2010.05.17/outbox.cif.g08.bks.cpg/sg51_6_cif.got.tgz:10968.got - 2010.06.03 11:52:47.
