data_PCOD9406300
_publ_section_title
;
Structure prediction by ZEFSAII (Michael W. Deem and Ramdas Pophale) SiO2 
 PCOD9406300
Probable space group: P M M A
;
_chemical_formula_sum "Si O2"
_cell_formula_units_Z 56
_cell_length_a 8.705017
_cell_length_b 19.691733
_cell_length_c 16.247795
_cell_angle_alpha 90.000000
_cell_angle_beta 90.000000
_cell_angle_gamma 90.000000
_cell_volume 2785.146172
_symmetry_space_group_name_H-M "P M M A"
_symmetry_group_IT_number 51
_symmetry_cell_setting 'orthorhombic'
loop_
_space_group_symop_operation_xyz
x,y,z
1/2-x,-y,z
1/2+x,-y,-z
-x,y,-z
-x,-y,-z
1/2+x,y,-z
1/2-x,y,z
x,-y,z
loop_
_atom_site_type_symbol
_atom_site_label
_atom_site_fract_x
_atom_site_fract_y
_atom_site_fract_z
Si Si1 0.932408 0.213459 0.841464
Si Si2 0.066754 0.419623 0.243887
Si Si3 0.932268 0.344561 0.085180
Si Si4 0.935135 0.074277 0.407927
Si Si5 0.565141 0.782496 0.335162
Si Si6 0.934495 0.346443 0.585515
Si Si7 0.934187 0.923985 0.092446
O O1 0.750000 0.214977 0.847950
O O2 0.004505 0.268109 0.903115
O O3 0.987442 0.235236 0.751138
O O4 0.994774 0.138092 0.857969
O O5 0.250000 0.407612 0.234750
O O6 0.039094 0.500000 0.244356
O O7 0.021494 0.388319 0.332390
O O8 0.985341 0.385569 0.165864
O O9 0.750000 0.343327 0.080689
O O10 0.000000 0.372991 0.000000
O O11 0.750000 0.075392 0.411862
O O12 0.981925 0.140831 0.358300
O O13 0.000000 0.079228 0.500000
O O14 0.981468 0.000000 0.374109
O O15 0.750000 0.779120 0.328582
O O16 0.505336 0.728371 0.400924
O O17 0.750000 0.343064 0.581388
O O18 0.000000 0.374908 0.500000
O O19 0.750000 0.917041 0.090653
O O20 0.970249 0.000000 0.124405
O O21 0.000000 0.920079 0.000000
#
# Coordination Sequence:
#
# PCOD9406300 Si02
#       7
#     8   8   8   8   8   8   8
#     4  12  24  39  60  88 124 163 209 264 321 380
#     4  10  23  45  70  98 134 172 212 262 318 377
#     4  12  25  43  69  98 131 171 217 264 318 380
#     4   9  19  35  54  78 111 152 200 253 309 368
#     4  11  22  37  59  87 120 160 209 264 320 378
#     4  11  23  40  65  95 131 172 215 264 317 378
#     4  10  21  38  59  84 117 158 206 261 319 379
#
# _framework density 20.106665
#
# number of rings (size 3 to 8) (size 9 to 14) (size 15 to 20)
#    0.000    1.286    1.429    4.714    0.000    5.143 
#    0.000    1.429    0.000    0.000    0.000    0.000 
#    0.000    0.000    0.000    0.000    0.000    0.000 
#
# Total GULP energy -313078.532184 kJ/mol
# GULP energy per Si atom -5590.688075 kJ/mol
# Density = 2.006090 g / cm^3
# Si number density = 20.106665 Si / 1000 Ang^3
#
#
#
# Elastic Constant Matrix: (Units=GPa)
#
#
# Indices 1 2 3 4 5 6 
#
# 1 98.0675 59.8501 54.9202 0.0000 0.0000 0.0000
# 2 59.8501 80.2829 47.2427 0.0000 0.0000 0.0000
# 3 54.9202 47.2427 130.8276 0.0000 0.0000 0.0000
# 4 0.0000 0.0000 0.0000 19.8472 0.0000 0.0000
# 5 0.0000 0.0000 0.0000 0.0000 35.4374 0.0000
# 6 0.0000 0.0000 0.0000 0.0000 0.0000 18.9206
#
#
#
# Elastic Compliance Matrix: (Units=1/GPa)
#
#
# Indices 1 2 3 4 5 6 
#
# 1 0.020128 -0.012740 -0.003849 0.000000 0.000000 0.000000
# 2 -0.012740 0.023881 -0.003275 0.000000 0.000000 0.000000
# 3 -0.003849 -0.003275 0.010442 0.000000 0.000000 0.000000
# 4 0.000000 0.000000 0.000000 0.050385 0.000000 0.000000
# 5 0.000000 0.000000 0.000000 0.000000 0.028219 0.000000
# 6 0.000000 0.000000 0.000000 0.000000 0.000000 0.052853
#
#
# Mechanical properties :
#
#
# Convention : Reuss Voigt Hill
#
# Bulk Modulus (GPa) = 67.92535 70.35600 69.14068
# Shear Modulus (GPa) = 21.68788 24.65204 23.16996
#
# Velocity S-wave (km/s) = 3.28783 3.50532 3.39831
# Velocity P-wave (km/s) = 6.94759 7.17289 7.06114
#
# Compressibility (1/GPa) = 0.01472204
#
# Stress axis : x y z
#
# Youngs Moduli (GPa) = 49.68247 41.87418 95.76572
#
# Poissons Ratio (x) = 0.53349 0.36859
# Poissons Ratio (y) = 0.63296 0.31367
# Poissons Ratio (z) = 0.19122 0.13715
#
# Static dielectric constant tensor:
#      x y z
#    x 1.666820 0.000000 0.000000 
#    y 0.000000 1.717710 0.000000 
#    z 0.000000 0.000000 1.739790 
# 
# From -- ./inp_files/21715.got.cif
#   From: 2010.05.17/outbox.cif.g08.bks.cpg/sg51_11_cif.got.tgz:21715.got - 2010.06.03 11:52:47.
