data_PCOD9406898
_publ_section_title
;
Structure prediction by ZEFSAII (Michael W. Deem and Ramdas Pophale) SiO2 
 PCOD9406898
Probable space group: P M M A
;
_chemical_formula_sum "Si O2"
_cell_formula_units_Z 48
_cell_length_a 18.939038
_cell_length_b 8.991948
_cell_length_c 15.061063
_cell_angle_alpha 90.000000
_cell_angle_beta 90.000000
_cell_angle_gamma 90.000000
_cell_volume 2564.881631
_symmetry_space_group_name_H-M "P M M A"
_symmetry_group_IT_number 51
_symmetry_cell_setting 'orthorhombic'
loop_
_space_group_symop_operation_xyz
x,y,z
1/2-x,-y,z
1/2+x,-y,-z
-x,y,-z
-x,-y,-z
1/2+x,y,-z
1/2-x,y,z
x,-y,z
loop_
_atom_site_type_symbol
_atom_site_label
_atom_site_fract_x
_atom_site_fract_y
_atom_site_fract_z
Si Si1 0.573256 0.176756 0.818922
Si Si2 0.056059 0.323948 0.370125
Si Si3 0.104912 0.324198 0.561933
Si Si4 0.831665 0.174045 0.276797
Si Si5 0.427391 0.322458 0.870466
Si Si6 0.831540 0.678388 0.959886
O O1 0.573007 0.232741 0.717495
O O2 0.502843 0.244030 0.864360
O O3 0.639301 0.240376 0.873258
O O4 0.571187 0.000000 0.822415
O O5 0.065429 0.500000 0.352213
O O6 0.100821 0.285080 0.457985
O O7 0.974218 0.303928 0.398556
O O8 0.121521 0.500000 0.569181
O O9 0.155699 0.227781 0.622806
O O10 0.750000 0.194873 0.252091
O O11 0.881588 0.270555 0.213691
O O12 0.849668 0.000000 0.267863
O O13 0.437707 0.500000 0.868403
O O14 0.382371 0.283035 0.957678
O O15 0.750000 0.715563 0.979045
O O16 0.836090 0.500000 0.947517
#
# Coordination Sequence:
#
# PCOD9406898 Si02
#       6
#     8   8   8   8   8   8
#     4  12  24  37  59  92 123 154 191 237 296 356
#     4   9  18  35  59  86 113 146 193 244 284 330
#     4   9  18  34  58  84 111 148 195 240 284 337
#     4  11  23  36  53  84 125 160 191 237 299 358
#     4  11  22  39  63  88 114 151 201 248 288 342
#     4  10  23  43  64  85 112 152 200 246 292 343
#
# _framework density 18.714314000000002
#
# number of rings (size 3 to 8) (size 9 to 14) (size 15 to 20)
#    0.000    1.667    1.667    4.500    0.000    6.333 
#    0.000    2.500    0.000    1.000    0.000    0.000 
#    0.000    0.000    0.000    0.000    0.000    0.000 
#
# Total GULP energy -268216.724685 kJ/mol
# GULP energy per Si atom -5587.848431 kJ/mol
# Density = 1.867172 g / cm^3
# Si number density = 18.714314 Si / 1000 Ang^3
#
#
#
# Elastic Constant Matrix: (Units=GPa)
#
#
# Indices 1 2 3 4 5 6 
#
# 1 29.9525 12.0179 23.9088 0.0000 0.0000 0.0000
# 2 12.0179 29.8548 35.9493 0.0000 0.0000 0.0000
# 3 23.9088 35.9493 104.4406 0.0000 0.0000 0.0000
# 4 0.0000 0.0000 0.0000 -39.3569 0.0000 0.0000
# 5 0.0000 0.0000 0.0000 0.0000 15.0086 0.0000
# 6 0.0000 0.0000 0.0000 0.0000 0.0000 17.3823
#
#
#
# Elastic Compliance Matrix: (Units=1/GPa)
#
#
# Indices 1 2 3 4 5 6 
#
# 1 0.042268 -0.009160 -0.006523 0.000000 0.000000 0.000000
# 2 -0.009160 0.059191 -0.018277 0.000000 0.000000 0.000000
# 3 -0.006523 -0.018277 0.017359 0.000000 0.000000 0.000000
# 4 0.000000 0.000000 0.000000 -0.025409 0.000000 0.000000
# 5 0.000000 0.000000 0.000000 0.000000 0.066629 0.000000
# 6 0.000000 0.000000 0.000000 0.000000 0.000000 0.057530
#
#
# Mechanical properties :
#
#
# Convention : Reuss Voigt Hill
#
# Bulk Modulus (GPa) = 19.64718 34.22222 26.93470
# Shear Modulus (GPa) = 16.53137 4.76493 10.64815
#
# Velocity S-wave (km/s) = 2.97535 1.59739 2.38793
# Velocity P-wave (km/s) = 4.72492 4.66139 4.69327
#
# Compressibility (1/GPa) = 0.05089789
#
# Stress axis : x y z
#
# Youngs Moduli (GPa) = 23.65830 16.89447 57.60621
#
# Poissons Ratio (x) = 0.15476 0.37578
# Poissons Ratio (y) = 0.21671 1.05287
# Poissons Ratio (z) = 0.15433 0.30878
#
# Static dielectric constant tensor:
#      x y z
#    x 1.636810 0.000000 0.000000 
#    y 0.000000 1.619470 0.000000 
#    z 0.000000 0.000000 1.651270 
# 
# From -- ./inp_files/24754.got.cif
#   From: 2010.05.17/outbox.cif.g08.bks.cpg/sg51_13_cif.got.tgz:24754.got - 2010.06.03 11:52:47.
