data_PCOD9406268
_publ_section_title
;
Structure prediction by ZEFSAII (Michael W. Deem and Ramdas Pophale) SiO2 
 PCOD9406268
Probable space group: P M M A
;
_chemical_formula_sum "Si O2"
_cell_formula_units_Z 40
_cell_length_a 9.017954
_cell_length_b 7.434005
_cell_length_c 31.019877
_cell_angle_alpha 90.000000
_cell_angle_beta 90.000000
_cell_angle_gamma 90.000000
_cell_volume 2079.557513
_symmetry_space_group_name_H-M "P M M A"
_symmetry_group_IT_number 51
_symmetry_cell_setting 'orthorhombic'
loop_
_space_group_symop_operation_xyz
x,y,z
1/2-x,-y,z
1/2+x,-y,-z
-x,y,-z
-x,-y,-z
1/2+x,y,-z
1/2-x,y,z
x,-y,z
loop_
_atom_site_type_symbol
_atom_site_label
_atom_site_fract_x
_atom_site_fract_y
_atom_site_fract_z
Si Si1 0.071382 0.500000 0.694922
Si Si2 0.069443 0.500000 0.794328
Si Si3 0.420586 0.219119 0.543763
Si Si4 0.068745 0.206685 0.862281
Si Si5 0.074202 0.785440 0.366662
Si Si6 0.420746 0.219579 0.956595
O O1 0.250000 0.500000 0.692950
O O2 0.022855 0.500000 0.744841
O O3 0.007668 0.672590 0.669968
O O4 0.250000 0.500000 0.793838
O O5 0.021860 0.328688 0.822528
O O6 0.500000 0.279760 0.500000
O O7 0.250000 0.277795 0.545600
O O8 0.508215 0.269536 0.586877
O O9 0.420331 0.000000 0.542698
O O10 0.250000 0.210048 0.863981
O O11 0.018645 0.273476 0.909608
O O12 0.023917 0.000000 0.856668
O O13 0.250000 0.751499 0.365712
O O14 0.050407 0.000000 0.361550
O O15 0.250000 0.274619 0.958984
O O16 0.424469 0.000000 0.956043
O O17 0.500000 0.279851 0.000000
#
# Coordination Sequence:
#
# PCOD9406268 Si02
#       6
#     4   4   8   8   8   8
#     4  11  23  37  56  83 110 136 174 230 288 331
#     4   9  18  31  48  71  97 126 162 208 261 311
#     4   9  16  28  50  81 115 148 182 220 263 314
#     4   8  14  26  44  66  93 126 163 201 243 296
#     4  10  21  38  59  81 109 148 188 223 265 321
#     4   8  13  22  39  63  91 123 156 191 234 285
#
# _framework density 19.234862
#
# number of rings (size 3 to 8) (size 9 to 14) (size 15 to 20)
#    0.000    3.000    0.000    2.700    0.000    4.400 
#    0.000    3.000    0.000    2.400    0.000    2.800 
#    0.000    0.000    0.000    0.000    0.000    0.000 
#
# Total GULP energy -223138.914172 kJ/mol
# GULP energy per Si atom -5578.472854 kJ/mol
# Density = 1.919108 g / cm^3
# Si number density = 19.234862 Si / 1000 Ang^3
#
#
#
# Elastic Constant Matrix: (Units=GPa)
#
#
# Indices 1 2 3 4 5 6 
#
# 1 73.6305 32.6923 70.1392 0.0000 0.0000 0.0000
# 2 32.6923 85.6701 74.5613 0.0000 0.0000 0.0000
# 3 70.1392 74.5613 237.5123 0.0000 0.0000 0.0000
# 4 0.0000 0.0000 0.0000 32.7570 0.0000 0.0000
# 5 0.0000 0.0000 0.0000 0.0000 26.6571 0.0000
# 6 0.0000 0.0000 0.0000 0.0000 0.0000 13.3268
#
#
#
# Elastic Compliance Matrix: (Units=1/GPa)
#
#
# Indices 1 2 3 4 5 6 
#
# 1 0.019574 -0.003356 -0.004727 0.000000 0.000000 0.000000
# 2 -0.003356 0.016636 -0.004232 0.000000 0.000000 0.000000
# 3 -0.004727 -0.004232 0.006935 0.000000 0.000000 0.000000
# 4 0.000000 0.000000 0.000000 0.030528 0.000000 0.000000
# 5 0.000000 0.000000 0.000000 0.000000 0.037513 0.000000
# 6 0.000000 0.000000 0.000000 0.000000 0.000000 0.075037
#
#
# Mechanical properties :
#
#
# Convention : Reuss Voigt Hill
#
# Bulk Modulus (GPa) = 54.00579 83.51092 68.75835
# Shear Modulus (GPa) = 23.03900 29.17617 26.10758
#
# Velocity S-wave (km/s) = 3.46464 3.89889 3.68816
# Velocity P-wave (km/s) = 6.64402 7.98618 7.34582
#
# Compressibility (1/GPa) = 0.01851653
#
# Stress axis : x y z
#
# Youngs Moduli (GPa) = 51.08802 60.11039 144.20400
#
# Poissons Ratio (x) = 0.20170 0.68165
# Poissons Ratio (y) = 0.17143 0.61021
# Poissons Ratio (z) = 0.24149 0.25436
#
# Static dielectric constant tensor:
#      x y z
#    x 1.646650 0.000000 0.000000 
#    y 0.000000 1.719960 0.000000 
#    z 0.000000 0.000000 1.652410 
# 
# From -- ./inp_files/36062.got.cif
#   From: 2010.05.17/outbox.cif.g08.bks.cpg/sg51_19_cif.got.tgz:36062.got - 2010.06.03 11:52:47.
