data_PCOD9406505
_publ_section_title
;
Structure prediction by ZEFSAII (Michael W. Deem and Ramdas Pophale) SiO2 
 PCOD9406505
Probable space group: P M M A
;
_chemical_formula_sum "Si O2"
_cell_formula_units_Z 48
_cell_length_a 19.441853
_cell_length_b 8.510586
_cell_length_c 15.465316
_cell_angle_alpha 90.000000
_cell_angle_beta 90.000000
_cell_angle_gamma 90.000000
_cell_volume 2558.915342
_symmetry_space_group_name_H-M "P M M A"
_symmetry_group_IT_number 51
_symmetry_cell_setting 'orthorhombic'
loop_
_space_group_symop_operation_xyz
x,y,z
1/2-x,-y,z
1/2+x,-y,-z
-x,y,-z
-x,-y,-z
1/2+x,y,-z
1/2-x,y,z
x,-y,z
loop_
_atom_site_type_symbol
_atom_site_label
_atom_site_fract_x
_atom_site_fract_y
_atom_site_fract_z
Si Si1 0.076072 0.308621 0.470184
Si Si2 0.079512 0.312059 0.273323
Si Si3 0.929843 0.185668 0.223558
Si Si4 0.924130 0.312708 0.034434
Si Si5 0.329811 0.812426 0.117910
Si Si6 0.170332 0.309605 0.629482
O O1 0.074973 0.500000 0.469229
O O2 0.090650 0.258595 0.372195
O O3 0.131809 0.260422 0.541273
O O4 0.000000 0.257068 0.500000
O O5 0.087676 0.500000 0.269126
O O6 0.131079 0.235215 0.205378
O O7 0.001535 0.270294 0.247057
O O8 0.910926 0.230478 0.125687
O O9 0.871906 0.241779 0.290229
O O10 0.940021 0.000000 0.230862
O O11 0.924206 0.500000 0.047502
O O12 0.869326 0.266598 0.961898
O O13 0.000000 0.266763 0.000000
O O14 0.250000 0.765301 0.120876
O O15 0.333659 0.000000 0.107410
O O16 0.250000 0.262838 0.630207
O O17 0.167116 0.500000 0.633876
#
# Coordination Sequence:
#
# PCOD9406505 Si02
#       6
#     8   8   8   8   8   8
#     4   9  17  33  60  90 119 152 199 255 304 351
#     4  11  21  37  64  93 121 158 208 256 297 352
#     4  12  24  38  61  90 124 162 200 245 305 370
#     4  11  23  40  66  94 118 154 205 254 297 355
#     4  11  25  43  62  90 129 165 197 243 305 366
#     4  10  21  39  62  88 120 159 205 256 306 357
#
# _framework density 18.757947999999999
#
# number of rings (size 3 to 8) (size 9 to 14) (size 15 to 20)
#    0.000    1.333    3.333    3.000    0.000    3.667 
#    0.000    4.167    0.000    0.000    0.000    0.000 
#    0.000    0.000    0.000    0.000    0.000    0.000 
#
# Total GULP energy -268329.011354 kJ/mol
# GULP energy per Si atom -5590.187737 kJ/mol
# Density = 1.871525 g / cm^3
# Si number density = 18.757948 Si / 1000 Ang^3
#
#
#
# Elastic Constant Matrix: (Units=GPa)
#
#
# Indices 1 2 3 4 5 6 
#
# 1 122.8395 3.1422 47.5014 0.0000 0.0000 0.0000
# 2 3.1422 18.2356 -1.9256 0.0000 0.0000 0.0000
# 3 47.5014 -1.9256 138.3229 0.0000 0.0000 0.0000
# 4 0.0000 0.0000 0.0000 -153.6946 0.0000 0.0000
# 5 0.0000 0.0000 0.0000 0.0000 33.9372 0.0000
# 6 0.0000 0.0000 0.0000 0.0000 0.0000 22.1526
#
#
#
# Elastic Compliance Matrix: (Units=1/GPa)
#
#
# Indices 1 2 3 4 5 6 
#
# 1 0.009458 -0.001976 -0.003275 0.000000 0.000000 0.000000
# 2 -0.001976 0.055331 0.001449 0.000000 0.000000 0.000000
# 3 -0.003275 0.001449 0.008374 0.000000 0.000000 0.000000
# 4 0.000000 0.000000 0.000000 -0.006506 0.000000 0.000000
# 5 0.000000 0.000000 0.000000 0.000000 0.029466 0.000000
# 6 0.000000 0.000000 0.000000 0.000000 0.000000 0.045141
#
#
# Mechanical properties :
#
#
# Convention : Reuss Voigt Hill
#
# Bulk Modulus (GPa) = 15.25346 41.87043 28.56194
# Shear Modulus (GPa) = 29.28734 -4.14230 12.57252
#
# Velocity S-wave (km/s) = 3.95565 -1.48764 2.59173
# Velocity P-wave (km/s) = 5.38631 4.40671 4.92095
#
# Compressibility (1/GPa) = 0.06555891
#
# Stress axis : x y z
#
# Youngs Moduli (GPa) = 105.73260 18.07299 119.41107
#
# Poissons Ratio (x) = 0.03570 0.39112
# Poissons Ratio (y) = 0.20888 -0.17299
# Poissons Ratio (z) = 0.34632 -0.02618
#
# Static dielectric constant tensor:
#      x y z
#    x 1.616820 0.000000 0.000000 
#    y 0.000000 1.635010 0.000000 
#    z 0.000000 0.000000 1.628510 
# 
# From -- ./inp_files/24724.got.cif
#   From: 2010.05.17/outbox.cif.g08.bks.cpg/sg51_13_cif.got.tgz:24724.got - 2010.06.03 11:52:47.
