data_PCOD9406455
_publ_section_title
;
Structure prediction by ZEFSAII (Michael W. Deem and Ramdas Pophale) SiO2 
 PCOD9406455
Probable space group: P M M A
;
_chemical_formula_sum "Si O2"
_cell_formula_units_Z 40
_cell_length_a 15.214056
_cell_length_b 13.288885
_cell_length_c 9.316879
_cell_angle_alpha 90.000000
_cell_angle_beta 90.000000
_cell_angle_gamma 90.000000
_cell_volume 1883.666477
_symmetry_space_group_name_H-M "P M M A"
_symmetry_group_IT_number 51
_symmetry_cell_setting 'orthorhombic'
loop_
_space_group_symop_operation_xyz
x,y,z
1/2-x,-y,z
1/2+x,-y,-z
-x,y,-z
-x,-y,-z
1/2+x,y,-z
1/2-x,y,z
x,-y,z
loop_
_atom_site_type_symbol
_atom_site_label
_atom_site_fract_x
_atom_site_fract_y
_atom_site_fract_z
Si Si1 0.914599 0.620593 0.416711
Si Si2 0.250000 0.377408 0.400236
Si Si3 0.471483 0.119989 0.725245
Si Si4 0.419920 0.299078 0.903791
Si Si5 0.250000 0.622719 0.064840
Si Si6 0.353880 0.878187 0.441400
O O1 0.912741 0.500000 0.421308
O O2 0.833679 0.657655 0.510776
O O3 0.914941 0.650132 0.252013
O O4 0.000000 0.655454 0.500000
O O5 0.250000 0.500000 0.404026
O O6 0.250000 0.352698 0.233491
O O7 0.438791 0.183357 0.861313
O O8 0.570835 0.151649 0.676084
O O9 0.402157 0.141607 0.595058
O O10 0.471421 0.000000 0.748005
O O11 0.500000 0.337386 0.000000
O O12 0.333448 0.327543 0.989534
O O13 0.250000 0.500000 0.047698
O O14 0.250000 0.847924 0.427680
O O15 0.351797 0.000000 0.431992
#
# Coordination Sequence:
#
# PCOD9406455 Si02
#       6
#     8   4   8   8   4   8
#     4  10  21  38  63  92 121 160 213 269 327 388
#     4   9  19  41  69  93 118 156 209 274 331 389
#     4   9  20  38  60  94 138 181 230 284 337 400
#     4  12  26  42  63  99 136 179 223 270 342 412
#     4  11  25  47  70  95 132 172 220 282 348 415
#     4   8  15  33  63  94 125 174 234 287 339 383
#
# _framework density 21.235181999999998
#
# number of rings (size 3 to 8) (size 9 to 14) (size 15 to 20)
#    0.000    2.200    0.000    3.600    4.200    4.400 
#    1.800    0.000    0.000    0.000    0.000    1.400 
#    0.000    0.000    0.000    0.000    0.000    0.000 
#
# Total GULP energy -223479.506512 kJ/mol
# GULP energy per Si atom -5586.987663 kJ/mol
# Density = 2.118685 g / cm^3
# Si number density = 21.235182 Si / 1000 Ang^3
#
#
#
# Elastic Constant Matrix: (Units=GPa)
#
#
# Indices 1 2 3 4 5 6 
#
# 1 244.3275 62.2197 116.2134 0.0000 0.0000 0.0000
# 2 62.2197 88.2047 45.0621 0.0000 0.0000 0.0000
# 3 116.2134 45.0621 179.3830 0.0000 0.0000 0.0000
# 4 0.0000 0.0000 0.0000 28.5155 0.0000 0.0000
# 5 0.0000 0.0000 0.0000 0.0000 36.6939 0.0000
# 6 0.0000 0.0000 0.0000 0.0000 0.0000 33.5943
#
#
#
# Elastic Compliance Matrix: (Units=1/GPa)
#
#
# Indices 1 2 3 4 5 6 
#
# 1 0.006458 -0.002774 -0.003487 0.000000 0.000000 0.000000
# 2 -0.002774 0.014198 -0.001770 0.000000 0.000000 0.000000
# 3 -0.003487 -0.001770 0.008278 0.000000 0.000000 0.000000
# 4 0.000000 0.000000 0.000000 0.035069 0.000000 0.000000
# 5 0.000000 0.000000 0.000000 0.000000 0.027252 0.000000
# 6 0.000000 0.000000 0.000000 0.000000 0.000000 0.029767
#
#
# Mechanical properties :
#
#
# Convention : Reuss Voigt Hill
#
# Bulk Modulus (GPa) = 77.68014 106.54506 92.11260
# Shear Modulus (GPa) = 35.36725 38.98875 37.17800
#
# Velocity S-wave (km/s) = 4.08548 4.28956 4.18876
# Velocity P-wave (km/s) = 7.67562 8.64965 8.17715
#
# Compressibility (1/GPa) = 0.01287330
#
# Stress axis : x y z
#
# Youngs Moduli (GPa) = 154.85197 70.43225 120.80026
#
# Poissons Ratio (x) = 0.19538 0.42121
# Poissons Ratio (y) = 0.42955 0.21376
# Poissons Ratio (z) = 0.53994 0.12463
#
# Static dielectric constant tensor:
#      x y z
#    x 1.753140 0.000000 0.000000 
#    y 0.000000 1.855130 0.000000 
#    z 0.000000 0.000000 1.705420 
# 
# From -- ./inp_files/7998.got.cif
#   From: 2010.05.17/outbox.cif.g08.bks.cpg/sg51_4_cif.got.tgz:7998.got - 2010.06.03 11:52:47.
