data_PCOD9406357
_publ_section_title
;
Structure prediction by ZEFSAII (Michael W. Deem and Ramdas Pophale) SiO2 
 PCOD9406357
Probable space group: P M M A
;
_chemical_formula_sum "Si O2"
_cell_formula_units_Z 40
_cell_length_a 15.940716
_cell_length_b 8.649427
_cell_length_c 14.862749
_cell_angle_alpha 90.000000
_cell_angle_beta 90.000000
_cell_angle_gamma 90.000000
_cell_volume 2049.246989
_symmetry_space_group_name_H-M "P M M A"
_symmetry_group_IT_number 51
_symmetry_cell_setting 'orthorhombic'
loop_
_space_group_symop_operation_xyz
x,y,z
1/2-x,-y,z
1/2+x,-y,-z
-x,y,-z
-x,-y,-z
1/2+x,y,-z
1/2-x,y,z
x,-y,z
loop_
_atom_site_type_symbol
_atom_site_label
_atom_site_fract_x
_atom_site_fract_y
_atom_site_fract_z
Si Si1 0.404015 0.315360 0.405139
Si Si2 0.906594 0.184301 0.406153
Si Si3 0.343083 0.686022 0.777912
Si Si4 0.997286 0.313045 0.896123
Si Si5 0.156325 0.815271 0.218760
O O1 0.403712 0.500000 0.408191
O O2 0.371495 0.247917 0.499555
O O3 0.500039 0.255933 0.396387
O O4 0.356038 0.255313 0.317914
O O5 0.855812 0.237543 0.319204
O O6 0.913013 0.000000 0.410263
O O7 0.250000 0.721951 0.813120
O O8 0.349053 0.500000 0.767068
O O9 0.418533 0.735080 0.843162
O O10 0.993573 0.500000 0.893570
O O11 0.916409 0.248929 0.844885
O O12 0.000000 0.264329 0.000000
O O13 0.250000 0.777118 0.185721
O O14 0.148452 0.000000 0.225201
#
# Coordination Sequence:
#
# PCOD9406357 Si02
#       5
#     8   8   8   8   8
#     4  11  21  36  60  88 121 162 205 248 299 358
#     4  11  21  35  58  88 123 162 203 248 299 357
#     4  10  21  38  60  88 123 162 203 248 299 360
#     4  10  22  41  66  93 121 157 202 254 309 364
#     4  11  24  41  62  91 126 163 203 251 306 363
#
# _framework density 19.519365000000001
#
# number of rings (size 3 to 8) (size 9 to 14) (size 15 to 20)
#    0.000    1.400    2.000    5.400    0.000    4.000 
#    0.000    2.000    0.000    0.000    0.000    0.000 
#    0.000    0.000    0.000    0.000    0.000    0.000 
#
# Total GULP energy -223630.518598 kJ/mol
# GULP energy per Si atom -5590.762965 kJ/mol
# Density = 1.947494 g / cm^3
# Si number density = 19.519365 Si / 1000 Ang^3
#
#
#
# Elastic Constant Matrix: (Units=GPa)
#
#
# Indices 1 2 3 4 5 6 
#
# 1 146.1019 49.2482 89.1340 0.0000 0.0000 0.0000
# 2 49.2482 59.7770 45.4896 0.0000 0.0000 0.0000
# 3 89.1340 45.4896 155.5499 0.0000 0.0000 0.0000
# 4 0.0000 0.0000 0.0000 -31.8283 0.0000 0.0000
# 5 0.0000 0.0000 0.0000 0.0000 -4.9332 0.0000
# 6 0.0000 0.0000 0.0000 0.0000 0.0000 35.6261
#
#
#
# Elastic Compliance Matrix: (Units=1/GPa)
#
#
# Indices 1 2 3 4 5 6 
#
# 1 0.011981 -0.005976 -0.005118 0.000000 0.000000 0.000000
# 2 -0.005976 0.024499 -0.003740 0.000000 0.000000 0.000000
# 3 -0.005118 -0.003740 0.010455 0.000000 0.000000 0.000000
# 4 0.000000 0.000000 0.000000 -0.031419 0.000000 0.000000
# 5 0.000000 0.000000 0.000000 0.000000 -0.202707 0.000000
# 6 0.000000 0.000000 0.000000 0.000000 0.000000 0.028069
#
#
# Mechanical properties :
#
#
# Convention : Reuss Voigt Hill
#
# Bulk Modulus (GPa) = 57.91429 81.01916 69.46672
# Shear Modulus (GPa) = -40.42128 11.61003 -14.40562
#
# Velocity S-wave (km/s) = -4.55557 2.44149 -2.71959
# Velocity P-wave (km/s) = 1.43651 7.03882 5.07979
#
# Compressibility (1/GPa) = 0.01726690
#
# Stress axis : x y z
#
# Youngs Moduli (GPa) = 83.46280 40.81877 95.64655
#
# Poissons Ratio (x) = 0.24395 0.48951
# Poissons Ratio (y) = 0.49881 0.35770
# Poissons Ratio (z) = 0.42715 0.15265
#
# Static dielectric constant tensor:
#      x y z
#    x 1.700500 0.000000 0.000000 
#    y 0.000000 1.652990 0.000000 
#    z 0.000000 0.000000 1.660140 
# 
# From -- ./inp_files/23690.got.cif
#   From: 2010.05.17/outbox.cif.g08.bks.cpg/sg51_12_cif.got.tgz:23690.got - 2010.06.03 11:52:47.
