data_PCOD9406512
_publ_section_title
;
Structure prediction by ZEFSAII (Michael W. Deem and Ramdas Pophale) SiO2 
 PCOD9406512
Probable space group: P M M A
;
_chemical_formula_sum "Si O2"
_cell_formula_units_Z 40
_cell_length_a 16.952424
_cell_length_b 7.523822
_cell_length_c 11.761965
_cell_angle_alpha 90.000000
_cell_angle_beta 90.000000
_cell_angle_gamma 90.000000
_cell_volume 1500.203593
_symmetry_space_group_name_H-M "P M M A"
_symmetry_group_IT_number 51
_symmetry_cell_setting 'orthorhombic'
loop_
_space_group_symop_operation_xyz
x,y,z
1/2-x,-y,z
1/2+x,-y,-z
-x,y,-z
-x,-y,-z
1/2+x,y,-z
1/2-x,y,z
x,-y,z
loop_
_atom_site_type_symbol
_atom_site_label
_atom_site_fract_x
_atom_site_fract_y
_atom_site_fract_z
Si Si1 0.581938 0.705950 0.035547
Si Si2 0.609824 0.288610 0.465331
Si Si3 0.750000 0.718107 0.042146
Si Si4 0.750000 0.283823 0.302911
Si Si5 0.661612 0.205597 0.718558
Si Si6 0.991331 0.212208 0.260575
O O1 0.580968 0.500000 0.001376
O O2 0.665842 0.780195 0.995809
O O3 0.572020 0.709643 0.172699
O O4 0.500000 0.794683 0.000000
O O5 0.614622 0.500000 0.482092
O O6 0.674857 0.226040 0.374374
O O7 0.638488 0.208876 0.584485
O O8 0.530861 0.254578 0.390996
O O9 0.750000 0.500000 0.037624
O O10 0.750000 0.774566 0.173507
O O11 0.750000 0.500000 0.300917
O O12 0.750000 0.283661 0.735983
O O13 0.579594 0.281820 0.769029
O O14 0.665982 0.000000 0.752480
O O15 0.991029 0.000000 0.249537
#
# Coordination Sequence:
#
# PCOD9406512 Si02
#       6
#     8   8   4   4   8   8
#     4  10  21  39  63  88 114 146 187 238 294 346
#     4  11  20  34  57  85 114 148 192 240 285 329
#     4   9  16  34  60  83 112 145 179 228 288 346
#     4   9  16  28  52  81 110 143 181 230 278 320
#     4  10  22  39  55  76 113 160 199 230 276 341
#     4  11  23  38  57  82 115 151 190 237 288 342
#
# _framework density 26.663046999999999
#
# number of rings (size 3 to 8) (size 9 to 14) (size 15 to 20)
#    0.000    1.800    3.000    1.800    0.000    4.400 
#    1.800    1.500    0.000    0.000    0.000    0.000 
#    0.000    0.000    0.000    0.000    0.000    0.000 
#
# Total GULP energy -223615.937796 kJ/mol
# GULP energy per Si atom -5590.398445 kJ/mol
# Density = 2.660236 g / cm^3
# Si number density = 26.663047 Si / 1000 Ang^3
#
#
#
# Elastic Constant Matrix: (Units=GPa)
#
#
# Indices 1 2 3 4 5 6 
#
# 1 245.0450 8.4894 14.7768 0.0000 0.0000 0.0000
# 2 8.4894 109.5447 12.7660 0.0000 0.0000 0.0000
# 3 14.7768 12.7660 80.6847 0.0000 0.0000 0.0000
# 4 0.0000 0.0000 0.0000 26.9858 0.0000 0.0000
# 5 0.0000 0.0000 0.0000 0.0000 34.8890 0.0000
# 6 0.0000 0.0000 0.0000 0.0000 0.0000 7.0773
#
#
#
# Elastic Compliance Matrix: (Units=1/GPa)
#
#
# Indices 1 2 3 4 5 6 
#
# 1 0.004132 -0.000236 -0.000719 0.000000 0.000000 0.000000
# 2 -0.000236 0.009314 -0.001430 0.000000 0.000000 0.000000
# 3 -0.000719 -0.001430 0.012752 0.000000 0.000000 0.000000
# 4 0.000000 0.000000 0.000000 0.037057 0.000000 0.000000
# 5 0.000000 0.000000 0.000000 0.000000 0.028662 0.000000
# 6 0.000000 0.000000 0.000000 0.000000 0.000000 0.141296
#
#
# Mechanical properties :
#
#
# Convention : Reuss Voigt Hill
#
# Bulk Modulus (GPa) = 46.67268 56.37099 51.52183
# Shear Modulus (GPa) = 20.39757 40.40657 30.40207
#
# Velocity S-wave (km/s) = 2.76889 3.89710 3.38040
# Velocity P-wave (km/s) = 5.26924 6.43722 5.88229
#
# Compressibility (1/GPa) = 0.02142581
#
# Stress axis : x y z
#
# Youngs Moduli (GPa) = 241.98677 107.36867 78.41918
#
# Poissons Ratio (x) = 0.02538 0.05642
# Poissons Ratio (y) = 0.05721 0.11217
# Poissons Ratio (z) = 0.17409 0.15357
#
# Static dielectric constant tensor:
#      x y z
#    x 2.197320 0.000000 0.000000 
#    y 0.000000 1.950800 0.000000 
#    z 0.000000 0.000000 2.127610 
# 
# From -- ./inp_files/23756.got.cif
#   From: 2010.05.17/outbox.cif.g08.bks.cpg/sg51_12_cif.got.tgz:23756.got - 2010.06.03 11:52:47.
