data_PCOD9406251
_publ_section_title
;
Structure prediction by ZEFSAII (Michael W. Deem and Ramdas Pophale) SiO2 
 PCOD9406251
Probable space group: P M M A
;
_chemical_formula_sum "Si O2"
_cell_formula_units_Z 44
_cell_length_a 8.625429
_cell_length_b 29.092547
_cell_length_c 9.330075
_cell_angle_alpha 90.000000
_cell_angle_beta 90.000000
_cell_angle_gamma 90.000000
_cell_volume 2341.248888
_symmetry_space_group_name_H-M "P M M A"
_symmetry_group_IT_number 51
_symmetry_cell_setting 'orthorhombic'
loop_
_space_group_symop_operation_xyz
x,y,z
1/2-x,-y,z
1/2+x,-y,-z
-x,y,-z
-x,-y,-z
1/2+x,y,-z
1/2-x,y,z
x,-y,z
loop_
_atom_site_type_symbol
_atom_site_label
_atom_site_fract_x
_atom_site_fract_y
_atom_site_fract_z
Si Si1 0.562477 0.500000 0.838683
Si Si2 0.063001 0.410011 0.338932
Si Si3 0.065124 0.135993 0.339886
Si Si4 0.435819 0.948490 0.838912
Si Si5 0.936635 0.680576 0.839160
Si Si6 0.435417 0.233832 0.661869
O O1 0.750000 0.500000 0.844896
O O2 0.512684 0.545295 0.751205
O O3 0.500000 0.500000 0.000000
O O4 0.250000 0.410701 0.345852
O O5 0.016620 0.363972 0.254157
O O6 0.000000 0.410622 0.500000
O O7 0.250000 0.139569 0.343193
O O8 0.000000 0.130514 0.500000
O O9 0.011684 0.092274 0.249936
O O10 0.994864 0.184154 0.285042
O O11 0.250000 0.943356 0.839747
O O12 0.472090 0.000000 0.782762
O O13 0.500000 0.946315 0.000000
O O14 0.750000 0.682743 0.842505
O O15 0.002384 0.725680 0.761711
O O16 0.000000 0.676707 0.000000
O O17 0.500000 0.239968 0.500000
O O18 0.250000 0.234134 0.656857
#
# Coordination Sequence:
#
# PCOD9406251 Si02
#       6
#     4   8   8   8   8   8
#     4  10  21  38  58  86 118 152 191 236 286 338
#     4  10  22  38  59  85 116 151 193 237 283 340
#     4  11  22  38  60  86 116 150 190 236 285 339
#     4  10  21  38  59  84 115 151 191 235 284 339
#     4  11  23  39  58  85 116 150 191 237 287 340
#     4  11  22  39  61  85 114 149 188 233 284 341
#
# _framework density 18.793388
#
# number of rings (size 3 to 8) (size 9 to 14) (size 15 to 20)
#    0.000    1.455    0.000    6.818    0.000    5.818 
#    0.000    3.636    0.000    0.000    0.000    0.000 
#    0.000    0.000    0.000    0.000    0.000    0.000 
#
# Total GULP energy -245988.208766 kJ/mol
# GULP energy per Si atom -5590.641108 kJ/mol
# Density = 1.875061 g / cm^3
# Si number density = 18.793388 Si / 1000 Ang^3
#
#
#
# Elastic Constant Matrix: (Units=GPa)
#
#
# Indices 1 2 3 4 5 6 
#
# 1 110.2107 72.5521 49.1783 0.0000 0.0000 0.0000
# 2 72.5521 211.5876 114.1652 0.0000 0.0000 0.0000
# 3 49.1783 114.1652 135.1101 0.0000 0.0000 0.0000
# 4 0.0000 0.0000 0.0000 49.9271 0.0000 0.0000
# 5 0.0000 0.0000 0.0000 0.0000 39.0044 0.0000
# 6 0.0000 0.0000 0.0000 0.0000 0.0000 34.6241
#
#
#
# Elastic Compliance Matrix: (Units=1/GPa)
#
#
# Indices 1 2 3 4 5 6 
#
# 1 0.011910 -0.003207 -0.001625 0.000000 0.000000 0.000000
# 2 -0.003207 0.009550 -0.006902 0.000000 0.000000 0.000000
# 3 -0.001625 -0.006902 0.013825 0.000000 0.000000 0.000000
# 4 0.000000 0.000000 0.000000 0.020029 0.000000 0.000000
# 5 0.000000 0.000000 0.000000 0.000000 0.025638 0.000000
# 6 0.000000 0.000000 0.000000 0.000000 0.000000 0.028882
#
#
# Mechanical properties :
#
#
# Convention : Reuss Voigt Hill
#
# Bulk Modulus (GPa) = 84.62956 103.18885 93.90921
# Shear Modulus (GPa) = 36.43205 39.44532 37.93868
#
# Velocity S-wave (km/s) = 4.40768 4.58634 4.49790
# Velocity P-wave (km/s) = 8.42810 9.11439 8.77796
#
# Compressibility (1/GPa) = 0.01181620
#
# Stress axis : x y z
#
# Youngs Moduli (GPa) = 83.96404 104.71157 72.33129
#
# Poissons Ratio (x) = 0.33580 0.11756
# Poissons Ratio (y) = 0.26926 0.49925
# Poissons Ratio (z) = 0.13647 0.72275
#
# Static dielectric constant tensor:
#      x y z
#    x 1.632630 0.000000 0.000000 
#    y 0.000000 1.649440 0.000000 
#    z 0.000000 0.000000 1.599750 
# 
# From -- ./inp_files/5893.got.cif
#   From: 2010.05.17/outbox.cif.g08.bks.cpg/sg51_3_cif.got.tgz:5893.got - 2010.06.03 11:52:47.
