data_PCOD9406724
_publ_section_title
;
Structure prediction by ZEFSAII (Michael W. Deem and Ramdas Pophale) SiO2 
 PCOD9406724
Probable space group: P M M A
;
_chemical_formula_sum "Si O2"
_cell_formula_units_Z 64
_cell_length_a 32.082404
_cell_length_b 8.651214
_cell_length_c 12.386619
_cell_angle_alpha 90.000000
_cell_angle_beta 90.000000
_cell_angle_gamma 90.000000
_cell_volume 3437.927689
_symmetry_space_group_name_H-M "P M M A"
_symmetry_group_IT_number 51
_symmetry_cell_setting 'orthorhombic'
loop_
_space_group_symop_operation_xyz
x,y,z
1/2-x,-y,z
1/2+x,-y,-z
-x,y,-z
-x,-y,-z
1/2+x,y,-z
1/2-x,y,z
x,-y,z
loop_
_atom_site_type_symbol
_atom_site_label
_atom_site_fract_x
_atom_site_fract_y
_atom_site_fract_z
Si Si1 0.548379 0.814514 0.018028
Si Si2 0.202495 0.314057 0.986381
Si Si3 0.123088 0.314085 0.123069
Si Si4 0.395056 0.683762 0.365062
Si Si5 0.486457 0.819864 0.375681
Si Si6 0.630362 0.815020 0.411924
Si Si7 0.702263 0.814992 0.249183
Si Si8 0.560688 0.681742 0.253087
O O1 0.563765 0.752025 0.133780
O O2 0.548810 0.000000 0.018948
O O3 0.500000 0.764761 0.000000
O O4 0.581035 0.755877 0.928413
O O5 0.250000 0.258495 0.010518
O O6 0.203447 0.500000 0.993255
O O7 0.192417 0.265618 0.864022
O O8 0.164861 0.258801 0.062144
O O9 0.120285 0.500000 0.109595
O O10 0.125942 0.281619 0.250333
O O11 0.402634 0.500000 0.371178
O O12 0.438803 0.772588 0.366551
O O13 0.370929 0.737242 0.471420
O O14 0.500000 0.798278 0.500000
O O15 0.514666 0.716607 0.298172
O O16 0.492736 0.000000 0.347451
O O17 0.670979 0.771005 0.343548
O O18 0.591503 0.761573 0.338673
O O19 0.628511 0.000000 0.424557
O O20 0.750000 0.778733 0.276788
O O21 0.698755 0.000000 0.233231
O O22 0.569092 0.500000 0.249735
#
# Coordination Sequence:
#
# PCOD9406724 Si02
#       8
#     8   8   8   8   8   8   8   8
#     4  11  24  40  58  82 114 151 191 234 284 341
#     4   9  18  35  60  87 114 145 183 229 283 342
#     4  10  22  39  58  83 115 151 192 237 287 341
#     4  11  23  38  57  82 114 151 192 236 282 335
#     4  11  22  37  57  80 110 147 190 236 280 330
#     4  11  22  37  57  82 112 146 186 230 278 333
#     4   9  19  36  58  84 113 143 178 226 281 334
#     4  12  24  37  58  84 113 146 185 233 282 332
#
# _framework density 18.615864999999999
#
# number of rings (size 3 to 8) (size 9 to 14) (size 15 to 20)
#    0.000    1.500    1.250    4.125    0.000    8.000 
#    0.000    0.625    0.000    0.750    0.000    0.000 
#    0.000    0.000    0.000    0.000    0.000    0.000 
#
# Total GULP energy -357631.679979 kJ/mol
# GULP energy per Si atom -5587.995000 kJ/mol
# Density = 1.857349 g / cm^3
# Si number density = 18.615865 Si / 1000 Ang^3
#
#
#
# Elastic Constant Matrix: (Units=GPa)
#
#
# Indices 1 2 3 4 5 6 
#
# 1 90.3339 11.3683 57.7760 0.0000 0.0000 0.0000
# 2 11.3683 24.4940 26.5520 0.0000 0.0000 0.0000
# 3 57.7760 26.5520 117.8702 0.0000 0.0000 0.0000
# 4 0.0000 0.0000 0.0000 37.6240 0.0000 0.0000
# 5 0.0000 0.0000 0.0000 0.0000 33.6491 0.0000
# 6 0.0000 0.0000 0.0000 0.0000 0.0000 14.6164
#
#
#
# Elastic Compliance Matrix: (Units=1/GPa)
#
#
# Indices 1 2 3 4 5 6 
#
# 1 0.016164 0.001438 -0.008247 0.000000 0.000000 0.000000
# 2 0.001438 0.054145 -0.012902 0.000000 0.000000 0.000000
# 3 -0.008247 -0.012902 0.015432 0.000000 0.000000 0.000000
# 4 0.000000 0.000000 0.000000 0.026579 0.000000 0.000000
# 5 0.000000 0.000000 0.000000 0.000000 0.029719 0.000000
# 6 0.000000 0.000000 0.000000 0.000000 0.000000 0.068416
#
#
# Mechanical properties :
#
#
# Convention : Reuss Voigt Hill
#
# Bulk Modulus (GPa) = 21.58919 47.12117 34.35518
# Shear Modulus (GPa) = 18.84550 26.31135 22.57842
#
# Velocity S-wave (km/s) = 3.18517 3.76358 3.48639
# Velocity P-wave (km/s) = 5.01493 6.65232 5.89079
#
# Compressibility (1/GPa) = 0.04631947
#
# Stress axis : x y z
#
# Youngs Moduli (GPa) = 61.86765 18.46904 64.79872
#
# Poissons Ratio (x) = -0.02655 0.53437
# Poissons Ratio (y) = -0.08894 0.83600
# Poissons Ratio (z) = 0.51020 0.23828
#
# Static dielectric constant tensor:
#      x y z
#    x 1.639360 0.000000 0.000000 
#    y 0.000000 1.631740 0.000000 
#    z 0.000000 0.000000 1.639600 
# 
# From -- ./inp_files/19550.got.cif
#   From: 2010.05.17/outbox.cif.g08.bks.cpg/sg51_10_cif.got.tgz:19550.got - 2010.06.03 11:52:47.
