data_PCOD9406243
_publ_section_title
;
Structure prediction by ZEFSAII (Michael W. Deem and Ramdas Pophale) SiO2 
 PCOD9406243
Probable space group: P M M A
;
_chemical_formula_sum "Si O2"
_cell_formula_units_Z 48
_cell_length_a 18.758620
_cell_length_b 21.447261
_cell_length_c 6.947737
_cell_angle_alpha 90.000000
_cell_angle_beta 90.000000
_cell_angle_gamma 90.000000
_cell_volume 2795.220631
_symmetry_space_group_name_H-M "P M M A"
_symmetry_group_IT_number 51
_symmetry_cell_setting 'orthorhombic'
loop_
_space_group_symop_operation_xyz
x,y,z
1/2-x,-y,z
1/2+x,-y,-z
-x,y,-z
-x,-y,-z
1/2+x,y,-z
1/2-x,y,z
x,-y,z
loop_
_atom_site_type_symbol
_atom_site_label
_atom_site_fract_x
_atom_site_fract_y
_atom_site_fract_z
Si Si1 0.422240 0.740983 0.595812
Si Si2 0.920262 0.161605 0.067524
Si Si3 0.164895 0.500000 0.315004
Si Si4 0.919214 0.594176 0.421553
Si Si5 0.665938 0.073581 0.351460
Si Si6 0.333870 0.171075 0.323889
Si Si7 0.419681 0.500000 0.921154
O O1 0.500000 0.749979 0.500000
O O2 0.422185 0.776334 0.800014
O O3 0.407578 0.667558 0.603377
O O4 0.365403 0.775275 0.460311
O O5 0.883876 0.108349 0.198064
O O6 0.873714 0.171181 0.877721
O O7 0.000000 0.145912 0.000000
O O8 0.250000 0.500000 0.318068
O O9 0.132898 0.559811 0.428366
O O10 0.133858 0.500000 0.099582
O O11 0.910871 0.559185 0.218786
O O12 0.000000 0.584465 0.500000
O O13 0.750000 0.083592 0.302906
O O14 0.653833 0.107111 0.556668
O O15 0.652880 0.000000 0.358922
O O16 0.250000 0.178794 0.296179
O O17 0.500000 0.500000 0.000000
#
# Coordination Sequence:
#
# PCOD9406243 Si02
#       7
#     8   8   4   8   8   8   4
#     4  10  21  38  59  85 114 150 190 234 281 338
#     4  11  21  35  58  88 117 148 189 241 290 337
#     4  11  23  39  57  85 121 149 183 243 294 330
#     4  10  21  38  62  84 111 152 195 230 276 344
#     4   9  20  38  58  81 113 154 195 234 282 345
#     4  10  21  38  58  81 114 152 189 236 290 339
#     4  11  19  36  60  88 109 148 195 231 276 342
#
# _framework density 17.172169
#
# number of rings (size 3 to 8) (size 9 to 14) (size 15 to 20)
#    0.000    1.833    3.333    1.000    0.000    5.667 
#    0.000    2.500    0.000    0.000    0.000    0.000 
#    0.000    0.000    0.000    0.000    0.000    0.000 
#
# Total GULP energy -267946.168828 kJ/mol
# GULP energy per Si atom -5582.211851 kJ/mol
# Density = 1.713308 g / cm^3
# Si number density = 17.172169 Si / 1000 Ang^3
#
#
#
# Elastic Constant Matrix: (Units=GPa)
#
#
# Indices 1 2 3 4 5 6 
#
# 1 133.2456 74.2500 87.7203 0.0000 0.0000 0.0000
# 2 74.2500 150.3579 78.3268 0.0000 0.0000 0.0000
# 3 87.7203 78.3268 156.7795 0.0000 0.0000 0.0000
# 4 0.0000 0.0000 0.0000 9.6325 0.0000 0.0000
# 5 0.0000 0.0000 0.0000 0.0000 36.1815 0.0000
# 6 0.0000 0.0000 0.0000 0.0000 0.0000 13.0549
#
#
#
# Elastic Compliance Matrix: (Units=1/GPa)
#
#
# Indices 1 2 3 4 5 6 
#
# 1 0.013185 -0.003607 -0.005575 0.000000 0.000000 0.000000
# 2 -0.003607 0.009977 -0.002967 0.000000 0.000000 0.000000
# 3 -0.005575 -0.002967 0.010980 0.000000 0.000000 0.000000
# 4 0.000000 0.000000 0.000000 0.103815 0.000000 0.000000
# 5 0.000000 0.000000 0.000000 0.000000 0.027638 0.000000
# 6 0.000000 0.000000 0.000000 0.000000 0.000000 0.076599
#
#
# Mechanical properties :
#
#
# Convention : Reuss Voigt Hill
#
# Bulk Modulus (GPa) = 101.57401 102.33078 101.95240
# Shear Modulus (GPa) = 18.53397 25.11285 21.82341
#
# Velocity S-wave (km/s) = 3.28884 3.82830 3.56878
# Velocity P-wave (km/s) = 8.58491 8.90290 8.74535
#
# Compressibility (1/GPa) = 0.00984504
#
# Stress axis : x y z
#
# Youngs Moduli (GPa) = 75.84231 100.22749 91.07450
#
# Poissons Ratio (x) = 0.36149 0.50778
# Poissons Ratio (y) = 0.27354 0.27018
# Poissons Ratio (z) = 0.42285 0.29734
#
# Static dielectric constant tensor:
#      x y z
#    x 1.568330 0.000000 0.000000 
#    y 0.000000 1.564040 0.000000 
#    z 0.000000 0.000000 1.561030 
# 
# From -- ./inp_files/2547.got.cif
#   From: 2010.05.17/outbox.cif.g08.bks.cpg/sg51_2_cif.got.tgz:2547.got - 2010.06.03 11:52:47.
