data_PCOD9406388
_publ_section_title
;
Structure prediction by ZEFSAII (Michael W. Deem and Ramdas Pophale) SiO2 
 PCOD9406388
Probable space group: P M M A
;
_chemical_formula_sum "Si O2"
_cell_formula_units_Z 48
_cell_length_a 8.769465
_cell_length_b 18.959568
_cell_length_c 15.690127
_cell_angle_alpha 90.000000
_cell_angle_beta 90.000000
_cell_angle_gamma 90.000000
_cell_volume 2608.723170
_symmetry_space_group_name_H-M "P M M A"
_symmetry_group_IT_number 51
_symmetry_cell_setting 'orthorhombic'
loop_
_space_group_symop_operation_xyz
x,y,z
1/2-x,-y,z
1/2+x,-y,-z
-x,y,-z
-x,-y,-z
1/2+x,y,-z
1/2-x,y,z
x,-y,z
loop_
_atom_site_type_symbol
_atom_site_label
_atom_site_fract_x
_atom_site_fract_y
_atom_site_fract_z
Si Si1 0.067922 0.830544 0.249921
Si Si2 0.566442 0.418542 0.408934
Si Si3 0.433569 0.673937 0.753804
Si Si4 0.068200 0.083564 0.907623
Si Si5 0.932079 0.083299 0.407310
Si Si6 0.567638 0.582711 0.906911
O O1 0.250000 0.829301 0.250372
O O2 0.002327 0.751748 0.248110
O O3 0.008164 0.872124 0.167111
O O4 0.006604 0.870861 0.333277
O O5 0.500000 0.396224 0.500000
O O6 0.750000 0.417470 0.413860
O O7 0.518865 0.500000 0.393617
O O8 0.519862 0.369007 0.331092
O O9 0.250000 0.677543 0.756174
O O10 0.493409 0.631219 0.835285
O O11 0.250000 0.094717 0.907431
O O12 0.040019 0.000000 0.893635
O O13 0.000000 0.101981 0.000000
O O14 0.750000 0.093485 0.407607
O O15 0.000000 0.100851 0.500000
O O16 0.962195 0.000000 0.391799
O O17 0.750000 0.591630 0.907913
O O18 0.534144 0.500000 0.889104
O O19 0.500000 0.598953 0.000000
#
# Coordination Sequence:
#
# PCOD9406388 Si02
#       6
#     8   8   8   8   8   8
#     4  12  25  39  57  84 119 156 194 236 287 345
#     4   9  19  36  59  85 111 143 184 230 279 331
#     4  11  23  39  58  82 116 154 193 237 286 340
#     4  10  21  39  63  89 116 148 189 236 285 339
#     4  10  21  39  63  89 116 149 192 240 289 342
#     4  10  21  38  61  88 116 148 189 236 286 342
#
# _framework density 18.399806000000002
#
# number of rings (size 3 to 8) (size 9 to 14) (size 15 to 20)
#    0.000    1.667    0.000    4.500    0.000    8.333 
#    0.000    6.667    0.000    0.000    0.000    0.000 
#    0.000    0.000    0.000    0.000    0.000    0.000 
#
# Total GULP energy -268347.507221 kJ/mol
# GULP energy per Si atom -5590.573067 kJ/mol
# Density = 1.835793 g / cm^3
# Si number density = 18.399806 Si / 1000 Ang^3
#
#
#
# Elastic Constant Matrix: (Units=GPa)
#
#
# Indices 1 2 3 4 5 6 
#
# 1 100.5659 83.5874 93.5045 0.0000 0.0000 0.0000
# 2 83.5874 126.2967 137.7242 0.0000 0.0000 0.0000
# 3 93.5045 137.7242 209.1178 0.0000 0.0000 0.0000
# 4 0.0000 0.0000 0.0000 -19.7834 0.0000 0.0000
# 5 0.0000 0.0000 0.0000 0.0000 40.6199 0.0000
# 6 0.0000 0.0000 0.0000 0.0000 0.0000 24.9560
#
#
#
# Elastic Compliance Matrix: (Units=1/GPa)
#
#
# Indices 1 2 3 4 5 6 
#
# 1 0.022148 -0.013694 -0.000885 0.000000 0.000000 0.000000
# 2 -0.013694 0.036563 -0.017957 0.000000 0.000000 0.000000
# 3 -0.000885 -0.017957 0.017004 0.000000 0.000000 0.000000
# 4 0.000000 0.000000 0.000000 -0.050547 0.000000 0.000000
# 5 0.000000 0.000000 0.000000 0.000000 0.024618 0.000000
# 6 0.000000 0.000000 0.000000 0.000000 0.000000 0.040071
#
#
# Mechanical properties :
#
#
# Convention : Reuss Voigt Hill
#
# Bulk Modulus (GPa) = 93.94985 118.40141 106.17563
# Shear Modulus (GPa) = 31.55075 17.23611 24.39343
#
# Velocity S-wave (km/s) = 4.14543 3.06397 3.64503
# Velocity P-wave (km/s) = 8.60720 8.77531 8.69166
#
# Compressibility (1/GPa) = 0.01064398
#
# Stress axis : x y z
#
# Youngs Moduli (GPa) = 45.15088 27.35038 58.80958
#
# Poissons Ratio (x) = 0.37452 0.05203
# Poissons Ratio (y) = 0.61828 1.05605
# Poissons Ratio (z) = 0.03994 0.49113
#
# Static dielectric constant tensor:
#      x y z
#    x 1.612800 0.000000 0.000000 
#    y 0.000000 1.610940 0.000000 
#    z 0.000000 0.000000 1.597070 
# 
# From -- ./inp_files/21063.got.cif
#   From: 2010.05.17/outbox.cif.g08.bks.cpg/sg51_11_cif.got.tgz:21063.got - 2010.06.03 11:52:47.
