data_PCOD9406685
_publ_section_title
;
Structure prediction by ZEFSAII (Michael W. Deem and Ramdas Pophale) SiO2 
 PCOD9406685
Probable space group: P M M A
;
_chemical_formula_sum "Si O2"
_cell_formula_units_Z 44
_cell_length_a 10.134606
_cell_length_b 7.570806
_cell_length_c 30.528540
_cell_angle_alpha 90.000000
_cell_angle_beta 90.000000
_cell_angle_gamma 90.000000
_cell_volume 2342.367438
_symmetry_space_group_name_H-M "P M M A"
_symmetry_group_IT_number 51
_symmetry_cell_setting 'orthorhombic'
loop_
_space_group_symop_operation_xyz
x,y,z
1/2-x,-y,z
1/2+x,-y,-z
-x,y,-z
-x,-y,-z
1/2+x,y,-z
1/2-x,y,z
x,-y,z
loop_
_atom_site_type_symbol
_atom_site_label
_atom_site_fract_x
_atom_site_fract_y
_atom_site_fract_z
Si Si1 0.399533 0.711127 0.291012
Si Si2 0.404150 0.790075 0.885253
Si Si3 0.899938 0.712040 0.364009
Si Si4 0.094853 0.500000 0.958521
Si Si5 0.099900 0.212097 0.536777
Si Si6 0.400276 0.787924 0.191778
O O1 0.250000 0.781547 0.295475
O O2 0.392356 0.500000 0.296922
O O3 0.500358 0.780840 0.327263
O O4 0.443204 0.742561 0.241065
O O5 0.250000 0.766060 0.873083
O O6 0.428636 0.671095 0.927844
O O7 0.499391 0.730705 0.845876
O O8 0.424402 0.000000 0.893428
O O9 0.750000 0.780231 0.359141
O O10 0.893936 0.500000 0.359372
O O11 0.944070 0.749516 0.413630
O O12 0.250000 0.500000 0.971092
O O13 0.000000 0.500000 0.000000
O O14 0.250000 0.279805 0.531768
O O15 0.000000 0.279971 0.500000
O O16 0.105516 0.000000 0.532330
O O17 0.250000 0.720971 0.185716
O O18 0.395467 0.000000 0.189259
#
# Coordination Sequence:
#
# PCOD9406685 Si02
#       6
#     8   8   8   4   8   8
#     4   9  18  31  46  67  96 128 159 195 240 288
#     4   9  19  36  55  77 108 141 174 217 263 307
#     4   9  18  32  47  65  91 121 154 192 234 284
#     4  10  22  38  56  82 110 140 180 220 261 312
#     4   9  18  32  48  66  88 114 147 188 234 284
#     4   9  18  32  50  74 102 132 169 209 249 297
#
# _framework density 18.784414999999999
#
# number of rings (size 3 to 8) (size 9 to 14) (size 15 to 20)
#    0.000    2.909    0.000    0.000    1.273    3.636 
#    0.000    0.000    0.000    0.000    0.000    0.000 
#    0.000    0.000    0.000    0.000    0.000    0.000 
#
# Total GULP energy -245356.967047 kJ/mol
# GULP energy per Si atom -5576.294706 kJ/mol
# Density = 1.874166 g / cm^3
# Si number density = 18.784415 Si / 1000 Ang^3
#
#
#
# Elastic Constant Matrix: (Units=GPa)
#
#
# Indices 1 2 3 4 5 6 
#
# 1 108.2820 26.0915 130.4560 0.0000 0.0000 0.0000
# 2 26.0915 52.2690 26.6184 0.0000 0.0000 0.0000
# 3 130.4560 26.6184 190.4049 0.0000 0.0000 0.0000
# 4 0.0000 0.0000 0.0000 25.0892 0.0000 0.0000
# 5 0.0000 0.0000 0.0000 0.0000 40.1138 0.0000
# 6 0.0000 0.0000 0.0000 0.0000 0.0000 -12.6348
#
#
#
# Elastic Compliance Matrix: (Units=1/GPa)
#
#
# Indices 1 2 3 4 5 6 
#
# 1 0.056724 -0.009177 -0.037581 0.000000 0.000000 0.000000
# 2 -0.009177 0.022083 0.003200 0.000000 0.000000 0.000000
# 3 -0.037581 0.003200 0.030553 0.000000 0.000000 0.000000
# 4 0.000000 0.000000 0.000000 0.039858 0.000000 0.000000
# 5 0.000000 0.000000 0.000000 0.000000 0.024929 0.000000
# 6 0.000000 0.000000 0.000000 0.000000 0.000000 -0.079146
#
#
# Mechanical properties :
#
#
# Convention : Reuss Voigt Hill
#
# Bulk Modulus (GPa) = 44.95511 79.69863 62.32687
# Shear Modulus (GPa) = 26.38100 21.69965 24.04032
#
# Velocity S-wave (km/s) = 3.75161 3.40250 3.58131
# Velocity P-wave (km/s) = 6.53836 7.61290 7.09600
#
# Compressibility (1/GPa) = 0.02224441
#
# Stress axis : x y z
#
# Youngs Moduli (GPa) = 17.62936 45.28403 32.72957
#
# Poissons Ratio (x) = 0.41555 1.23002
# Poissons Ratio (y) = 0.16178 -0.10474
# Poissons Ratio (z) = 0.66253 -0.14492
#
# Static dielectric constant tensor:
#      x y z
#    x 1.660880 0.000000 0.000000 
#    y 0.000000 1.681450 0.000000 
#    z 0.000000 0.000000 1.609050 
# 
# From -- ./inp_files/36806.got.cif
#   From: 2010.05.17/outbox.cif.g08.bks.cpg/sg51_19_cif.got.tgz:36806.got - 2010.06.03 11:52:47.
