data_PCOD9406743
_publ_section_title
;
Structure prediction by ZEFSAII (Michael W. Deem and Ramdas Pophale) SiO2 
 PCOD9406743
Probable space group: P M M A
;
_chemical_formula_sum "Si O2"
_cell_formula_units_Z 48
_cell_length_a 9.568082
_cell_length_b 17.029513
_cell_length_c 14.297131
_cell_angle_alpha 90.000000
_cell_angle_beta 90.000000
_cell_angle_gamma 90.000000
_cell_volume 2329.571334
_symmetry_space_group_name_H-M "P M M A"
_symmetry_group_IT_number 51
_symmetry_cell_setting 'orthorhombic'
loop_
_space_group_symop_operation_xyz
x,y,z
1/2-x,-y,z
1/2+x,-y,-z
-x,y,-z
-x,-y,-z
1/2+x,y,-z
1/2-x,y,z
x,-y,z
loop_
_atom_site_type_symbol
_atom_site_label
_atom_site_fract_x
_atom_site_fract_y
_atom_site_fract_z
Si Si1 0.494124 0.810903 0.708089
Si Si2 0.250000 0.372946 0.523469
Si Si3 0.250000 0.803670 0.438553
Si Si4 0.750000 0.092622 0.372457
Si Si5 0.946172 0.361008 0.314698
Si Si6 0.250000 0.414383 0.321064
Si Si7 0.417681 0.748439 0.090621
Si Si8 0.093438 0.588710 0.883922
O O1 0.616615 0.813354 0.630074
O O2 0.386515 0.880107 0.685896
O O3 0.409723 0.730108 0.691096
O O4 0.549355 0.797695 0.814284
O O5 0.250000 0.283261 0.484713
O O6 0.116165 0.388882 0.588168
O O7 0.250000 0.422871 0.431609
O O8 0.250000 0.863032 0.526553
O O9 0.750000 0.000000 0.387366
O O10 0.891387 0.408807 0.227799
O O11 0.111631 0.366781 0.301663
O O12 0.250000 0.500000 0.274735
O O13 0.250000 0.744982 0.078671
O O14 0.485771 0.660226 0.098744
O O15 0.500000 0.782012 0.000000
O O16 0.250000 0.603968 0.923578
O O17 0.049871 0.500000 0.908430
#
# Coordination Sequence:
#
# PCOD9406743 Si02
#       8
#     8   4   4   4   8   4   8   8
#     4  11  23  43  71 101 140 184 229 278 340 422
#     4  12  22  36  58  84 121 179 233 284 327 407
#     4  12  22  42  67 104 143 185 231 274 338 423
#     4  12  28  44  73 115 149 183 222 276 343 412
#     4  11  21  38  57  83 122 177 234 275 334 404
#     4  12  26  34  48  81 121 167 230 298 338 368
#     4  11  25  44  72 107 133 177 243 297 349 414
#     4  10  22  39  60  89 134 181 228 294 363 411
#
# _framework density 20.604648999999998
#
# number of rings (size 3 to 8) (size 9 to 14) (size 15 to 20)
#    0.000    0.833    5.000    2.000    8.167    4.000 
#    0.000    0.000    0.000    0.500    0.000    0.000 
#    0.000    0.000    0.000    0.000    0.000    0.000 
#
# Total GULP energy -267921.841971 kJ/mol
# GULP energy per Si atom -5581.705041 kJ/mol
# Density = 2.055775 g / cm^3
# Si number density = 20.604649 Si / 1000 Ang^3
#
#
#
# Elastic Constant Matrix: (Units=GPa)
#
#
# Indices 1 2 3 4 5 6 
#
# 1 160.5190 37.6861 56.9315 0.0000 0.0000 0.0000
# 2 37.6861 119.6339 36.1891 0.0000 0.0000 0.0000
# 3 56.9315 36.1891 151.3739 0.0000 0.0000 0.0000
# 4 0.0000 0.0000 0.0000 33.0062 0.0000 0.0000
# 5 0.0000 0.0000 0.0000 0.0000 14.1373 0.0000
# 6 0.0000 0.0000 0.0000 0.0000 0.0000 5.6021
#
#
#
# Elastic Compliance Matrix: (Units=1/GPa)
#
#
# Indices 1 2 3 4 5 6 
#
# 1 0.007469 -0.001620 -0.002422 0.000000 0.000000 0.000000
# 2 -0.001620 0.009362 -0.001629 0.000000 0.000000 0.000000
# 3 -0.002422 -0.001629 0.007906 0.000000 0.000000 0.000000
# 4 0.000000 0.000000 0.000000 0.030297 0.000000 0.000000
# 5 0.000000 0.000000 0.000000 0.000000 0.070735 0.000000
# 6 0.000000 0.000000 0.000000 0.000000 0.000000 0.178505
#
#
# Mechanical properties :
#
#
# Convention : Reuss Voigt Hill
#
# Bulk Modulus (GPa) = 74.65033 77.01558 75.83296
# Shear Modulus (GPa) = 15.62101 30.59711 23.10906
#
# Velocity S-wave (km/s) = 2.75640 3.85770 3.35258
# Velocity P-wave (km/s) = 6.81461 7.56977 7.20209
#
# Compressibility (1/GPa) = 0.01339579
#
# Stress axis : x y z
#
# Youngs Moduli (GPa) = 133.88441 106.81538 126.48021
#
# Poissons Ratio (x) = 0.17307 0.30631
# Poissons Ratio (y) = 0.21693 0.20601
# Poissons Ratio (z) = 0.32424 0.17398
#
# Static dielectric constant tensor:
#      x y z
#    x 1.775540 0.000000 0.000000 
#    y 0.000000 1.685980 0.000000 
#    z 0.000000 0.000000 1.790820 
# 
# From -- ./inp_files/21263.got.cif
#   From: 2010.05.17/outbox.cif.g08.bks.cpg/sg51_11_cif.got.tgz:21263.got - 2010.06.03 11:52:47.
