data_PCOD9406436
_publ_section_title
;
Structure prediction by ZEFSAII (Michael W. Deem and Ramdas Pophale) SiO2 
 PCOD9406436
Probable space group: P M M A
;
_chemical_formula_sum "Si O2"
_cell_formula_units_Z 40
_cell_length_a 10.370578
_cell_length_b 12.773053
_cell_length_c 15.914665
_cell_angle_alpha 90.000000
_cell_angle_beta 90.000000
_cell_angle_gamma 90.000000
_cell_volume 2108.119268
_symmetry_space_group_name_H-M "P M M A"
_symmetry_group_IT_number 51
_symmetry_cell_setting 'orthorhombic'
loop_
_space_group_symop_operation_xyz
x,y,z
1/2-x,-y,z
1/2+x,-y,-z
-x,y,-z
-x,-y,-z
1/2+x,y,-z
1/2-x,y,z
x,-y,z
loop_
_atom_site_type_symbol
_atom_site_label
_atom_site_fract_x
_atom_site_fract_y
_atom_site_fract_z
Si Si1 0.902497 0.786805 0.077470
Si Si2 0.405015 0.000000 0.631450
Si Si3 0.250000 0.623082 0.654290
Si Si4 0.250000 0.302666 0.465962
Si Si5 0.471321 0.371976 0.778938
Si Si6 0.250000 0.622146 0.279797
Si Si7 0.500000 0.168734 0.500000
Si Si8 0.594674 0.000000 0.176824
O O1 0.750000 0.793214 0.054048
O O2 0.921518 0.687760 0.139113
O O3 0.938423 0.893643 0.127520
O O4 0.000000 0.776722 0.000000
O O5 0.452273 0.098339 0.577419
O O6 0.453554 0.000000 0.727149
O O7 0.250000 0.000000 0.632163
O O8 0.250000 0.500000 0.668371
O O9 0.250000 0.640015 0.555529
O O10 0.122851 0.662029 0.702458
O O11 0.250000 0.367497 0.380421
O O12 0.379661 0.235243 0.468197
O O13 0.467552 0.500000 0.786934
O O14 0.616527 0.336394 0.757813
O O15 0.250000 0.500000 0.258829
O O16 0.750000 0.000000 0.182416
#
# Coordination Sequence:
#
# PCOD9406436 Si02
#       8
#     8   4   4   4   8   4   4   4
#     4  11  24  42  67  96 125 158 203 258 315 378
#     4  10  21  41  59  82 121 162 207 253 307 362
#     4  10  21  38  62  89 123 167 210 251 299 365
#     4  12  23  35  62  92 126 162 210 257 307 356
#     4  10  22  41  65  92 127 167 210 255 305 374
#     4  10  23  40  58  89 133 169 204 253 309 361
#     4  11  24  36  57  90 122 160 209 268 300 357
#     4   9  22  40  68  89 120 163 207 247 307 380
#
# _framework density 18.974259
#
# number of rings (size 3 to 8) (size 9 to 14) (size 15 to 20)
#    0.000    1.600    2.000    1.800    7.000    0.400 
#    0.000    4.000    2.200    0.000    0.000    0.000 
#    0.000    0.000    0.000    0.000    0.000    0.000 
#
# Total GULP energy -223256.274126 kJ/mol
# GULP energy per Si atom -5581.406853 kJ/mol
# Density = 1.893107 g / cm^3
# Si number density = 18.974259 Si / 1000 Ang^3
#
#
#
# Elastic Constant Matrix: (Units=GPa)
#
#
# Indices 1 2 3 4 5 6 
#
# 1 136.3607 23.6746 39.0405 0.0000 0.0000 0.0000
# 2 23.6746 32.4805 13.4809 0.0000 0.0000 0.0000
# 3 39.0405 13.4809 106.9836 0.0000 0.0000 0.0000
# 4 0.0000 0.0000 0.0000 18.4416 0.0000 0.0000
# 5 0.0000 0.0000 0.0000 0.0000 -0.6021 0.0000
# 6 0.0000 0.0000 0.0000 0.0000 0.0000 11.2770
#
#
#
# Elastic Compliance Matrix: (Units=1/GPa)
#
#
# Indices 1 2 3 4 5 6 
#
# 1 0.009035 -0.005505 -0.002603 0.000000 0.000000 0.000000
# 2 -0.005505 0.035841 -0.002507 0.000000 0.000000 0.000000
# 3 -0.002603 -0.002507 0.010613 0.000000 0.000000 0.000000
# 4 0.000000 0.000000 0.000000 0.054225 0.000000 0.000000
# 5 0.000000 0.000000 0.000000 0.000000 -1.660861 0.000000
# 6 0.000000 0.000000 0.000000 0.000000 0.000000 0.088676
#
#
# Mechanical properties :
#
#
# Convention : Reuss Voigt Hill
#
# Bulk Modulus (GPa) = 29.19063 47.57965 38.38514
# Shear Modulus (GPa) = -3.49694 19.13189 7.81748
#
# Velocity S-wave (km/s) = -1.35904 3.17883 2.03199
# Velocity P-wave (km/s) = 3.59932 6.21318 5.07734
#
# Compressibility (1/GPa) = 0.03425757
#
# Stress axis : x y z
#
# Youngs Moduli (GPa) = 110.68669 27.90128 94.22255
#
# Poissons Ratio (x) = 0.15359 0.24528
# Poissons Ratio (y) = 0.60929 0.23626
# Poissons Ratio (z) = 0.28814 0.06996
#
# Static dielectric constant tensor:
#      x y z
#    x 1.663960 0.000000 0.000000 
#    y 0.000000 1.668910 0.000000 
#    z 0.000000 0.000000 1.639550 
# 
# From -- ./inp_files/20647.got.cif
#   From: 2010.05.17/outbox.cif.g08.bks.cpg/sg51_11_cif.got.tgz:20647.got - 2010.06.03 11:52:47.
