data_PCOD9406063
_publ_section_title
;
Structure prediction by ZEFSAII (Michael W. Deem and Ramdas Pophale) SiO2 
 PCOD9406063
Probable space group: P M M A
;
_chemical_formula_sum "Si O2"
_cell_formula_units_Z 48
_cell_length_a 31.291467
_cell_length_b 7.888455
_cell_length_c 9.454016
_cell_angle_alpha 90.000000
_cell_angle_beta 90.000000
_cell_angle_gamma 90.000000
_cell_volume 2333.641877
_symmetry_space_group_name_H-M "P M M A"
_symmetry_group_IT_number 51
_symmetry_cell_setting 'orthorhombic'
loop_
_space_group_symop_operation_xyz
x,y,z
1/2-x,-y,z
1/2+x,-y,-z
-x,y,-z
-x,-y,-z
1/2+x,y,-z
1/2-x,y,z
x,-y,z
loop_
_atom_site_type_symbol
_atom_site_label
_atom_site_fract_x
_atom_site_fract_y
_atom_site_fract_z
Si Si1 0.118404 0.698560 0.414133
Si Si2 0.201529 0.705429 0.903074
Si Si3 0.457552 0.794427 0.916181
Si Si4 0.538389 0.199822 0.404403
Si Si5 0.298653 0.798417 0.579141
Si Si6 0.625000 0.297547 0.903615
O O1 0.107449 0.500000 0.408862
O O2 0.082868 0.781809 0.513508
O O3 0.165206 0.718861 0.481411
O O4 0.118285 0.769885 0.254781
O O5 0.250000 0.760175 0.935482
O O6 0.200791 0.500000 0.902674
O O7 0.191237 0.762761 0.743724
O O8 0.166855 0.768444 0.015104
O O9 0.458713 0.730661 0.754629
O O10 0.456359 0.000000 0.915093
O O11 0.500000 0.741632 0.000000
O O12 0.415885 0.734824 0.999303
O O13 0.500000 0.272678 0.500000
O O14 0.529153 0.000000 0.386930
O O15 0.250000 0.736594 0.553455
O O16 0.299284 0.000000 0.557215
O O17 0.630844 0.500000 0.888945
#
# Coordination Sequence:
#
# PCOD9406063 Si02
#       6
#     8   8   8   8   8   8
#     4  11  23  37  55  81 113 148 185 225 271 324
#     4   9  18  35  58  81 107 141 180 222 269 321
#     4  10  21  37  58  82 107 140 181 223 271 324
#     4  10  21  38  60  84 111 144 182 225 273 325
#     4  10  21  37  57  82 111 143 182 227 274 326
#     4  10  22  37  54  80 111 144 182 223 268 318
#
# _framework density 20.568705999999999
#
# number of rings (size 3 to 8) (size 9 to 14) (size 15 to 20)
#    0.000    2.000    0.000    3.000    0.000    9.000 
#    0.000    1.667    0.000    2.000    0.000    0.000 
#    0.000    0.000    0.000    0.000    0.000    0.000 
#
# Total GULP energy -268183.517671 kJ/mol
# GULP energy per Si atom -5587.156618 kJ/mol
# Density = 2.052189 g / cm^3
# Si number density = 20.568706 Si / 1000 Ang^3
#
#
#
# Elastic Constant Matrix: (Units=GPa)
#
#
# Indices 1 2 3 4 5 6 
#
# 1 100.9622 -17.6236 84.1901 0.0000 0.0000 0.0000
# 2 -17.6236 14.4080 -10.3851 0.0000 0.0000 0.0000
# 3 84.1901 -10.3851 174.6799 0.0000 0.0000 0.0000
# 4 0.0000 0.0000 0.0000 17.3106 0.0000 0.0000
# 5 0.0000 0.0000 0.0000 0.0000 41.6012 0.0000
# 6 0.0000 0.0000 0.0000 0.0000 0.0000 123.2247
#
#
#
# Elastic Compliance Matrix: (Units=1/GPa)
#
#
# Indices 1 2 3 4 5 6 
#
# 1 0.020475 0.018735 -0.008755 0.000000 0.000000 0.000000
# 2 0.018735 0.089656 -0.003699 0.000000 0.000000 0.000000
# 3 -0.008755 -0.003699 0.009724 0.000000 0.000000 0.000000
# 4 0.000000 0.000000 0.000000 0.057768 0.000000 0.000000
# 5 0.000000 0.000000 0.000000 0.000000 0.024038 0.000000
# 6 0.000000 0.000000 0.000000 0.000000 0.000000 0.008115
#
#
# Mechanical properties :
#
#
# Convention : Reuss Voigt Hill
#
# Bulk Modulus (GPa) = 7.55191 44.71255 26.13223
# Shear Modulus (GPa) = 20.71650 52.01853 36.36751
#
# Velocity S-wave (km/s) = 3.17706 5.03439 4.20944
# Velocity P-wave (km/s) = 4.13978 7.45511 6.02978
#
# Compressibility (1/GPa) = 0.13241675
#
# Stress axis : x y z
#
# Youngs Moduli (GPa) = 48.83951 11.15379 102.83562
#
# Poissons Ratio (x) = -0.20896 0.90028
# Poissons Ratio (y) = -0.91500 0.38043
# Poissons Ratio (z) = 0.42757 0.04126
#
# Static dielectric constant tensor:
#      x y z
#    x 1.695730 0.000000 0.000000 
#    y 0.000000 1.758250 0.000000 
#    z 0.000000 0.000000 1.718870 
# 
# From -- ./inp_files/12735.got.cif
#   From: 2010.05.17/outbox.cif.g08.bks.cpg/sg51_7_cif.got.tgz:12735.got - 2010.06.03 11:52:47.
