data_PCOD9406665
_publ_section_title
;
Structure prediction by ZEFSAII (Michael W. Deem and Ramdas Pophale) SiO2 
 PCOD9406665
Probable space group: P M M A
;
_chemical_formula_sum "Si O2"
_cell_formula_units_Z 44
_cell_length_a 10.226355
_cell_length_b 7.483055
_cell_length_c 30.568156
_cell_angle_alpha 90.000000
_cell_angle_beta 90.000000
_cell_angle_gamma 90.000000
_cell_volume 2339.209091
_symmetry_space_group_name_H-M "P M M A"
_symmetry_group_IT_number 51
_symmetry_cell_setting 'orthorhombic'
loop_
_space_group_symop_operation_xyz
x,y,z
1/2-x,-y,z
1/2+x,-y,-z
-x,y,-z
-x,-y,-z
1/2+x,y,-z
1/2-x,y,z
x,-y,z
loop_
_atom_site_type_symbol
_atom_site_label
_atom_site_fract_x
_atom_site_fract_y
_atom_site_fract_z
Si Si1 0.596635 0.500000 0.459256
Si Si2 0.603150 0.213721 0.789233
Si Si3 0.099738 0.782491 0.308948
Si Si4 0.400603 0.281929 0.962909
Si Si5 0.402198 0.787576 0.615151
Si Si6 0.603107 0.286380 0.135247
O O1 0.750000 0.500000 0.472460
O O2 0.500000 0.500000 0.500000
O O3 0.574420 0.671834 0.428158
O O4 0.750000 0.280186 0.799442
O O5 0.566126 0.277610 0.740418
O O6 0.499766 0.250183 0.826902
O O7 0.611457 0.000000 0.785953
O O8 0.250000 0.729223 0.317949
O O9 0.998300 0.727363 0.346068
O O10 0.097324 0.000000 0.308960
O O11 0.250000 0.230449 0.971331
O O12 0.403895 0.500000 0.963436
O O13 0.435128 0.223252 0.913499
O O14 0.500000 0.219365 0.000000
O O15 0.250000 0.760792 0.627745
O O16 0.421043 0.000000 0.607490
O O17 0.750000 0.219395 0.145185
O O18 0.611756 0.500000 0.131947
#
# Coordination Sequence:
#
# PCOD9406665 Si02
#       6
#     4   8   8   8   8   8
#     4  10  22  38  54  78 110 138 172 216 255 300
#     4   9  18  32  49  70  97 128 162 200 242 291
#     4   8  15  30  51  73  97 126 163 204 242 286
#     4   8  14  25  41  61  85 113 148 191 238 287
#     4   9  18  34  55  77 103 136 172 211 256 303
#     4   9  18  31  45  66  96 124 154 196 242 292
#
# _framework density 18.809775999999999
#
# number of rings (size 3 to 8) (size 9 to 14) (size 15 to 20)
#    0.000    3.273    0.000    2.182    0.000    3.273 
#    1.636    3.636    0.000    0.545    0.000    0.000 
#    0.000    0.000    0.000    0.000    0.000    0.000 
#
# Total GULP energy -245249.374900 kJ/mol
# GULP energy per Si atom -5573.849430 kJ/mol
# Density = 1.876696 g / cm^3
# Si number density = 18.809776 Si / 1000 Ang^3
#
#
#
# Elastic Constant Matrix: (Units=GPa)
#
#
# Indices 1 2 3 4 5 6 
#
# 1 144.8049 26.8153 151.5339 0.0000 0.0000 0.0000
# 2 26.8153 58.2815 31.2889 0.0000 0.0000 0.0000
# 3 151.5339 31.2889 193.4655 0.0000 0.0000 0.0000
# 4 0.0000 0.0000 0.0000 21.6909 0.0000 0.0000
# 5 0.0000 0.0000 0.0000 0.0000 46.8775 0.0000
# 6 0.0000 0.0000 0.0000 0.0000 0.0000 14.7496
#
#
#
# Elastic Compliance Matrix: (Units=1/GPa)
#
#
# Indices 1 2 3 4 5 6 
#
# 1 0.038440 -0.001667 -0.029839 0.000000 0.000000 0.000000
# 2 -0.001667 0.018862 -0.001745 0.000000 0.000000 0.000000
# 3 -0.029839 -0.001745 0.028823 0.000000 0.000000 0.000000
# 4 0.000000 0.000000 0.000000 0.046102 0.000000 0.000000
# 5 0.000000 0.000000 0.000000 0.000000 0.021332 0.000000
# 6 0.000000 0.000000 0.000000 0.000000 0.000000 0.067798
#
#
# Mechanical properties :
#
#
# Convention : Reuss Voigt Hill
#
# Bulk Modulus (GPa) = 50.96033 90.64755 70.80394
# Shear Modulus (GPa) = 16.98363 29.12453 23.05408
#
# Velocity S-wave (km/s) = 3.00811 3.93920 3.50472
# Velocity P-wave (km/s) = 6.26229 8.30579 7.35535
#
# Compressibility (1/GPa) = 0.01962311
#
# Stress axis : x y z
#
# Youngs Moduli (GPa) = 26.01432 53.01719 34.69456
#
# Poissons Ratio (x) = 0.08838 1.03526
# Poissons Ratio (y) = 0.04336 0.06054
# Poissons Ratio (z) = 0.77625 0.09251
#
# Static dielectric constant tensor:
#      x y z
#    x 1.646990 0.000000 0.000000 
#    y 0.000000 1.750590 0.000000 
#    z 0.000000 0.000000 1.627830 
# 
# From -- ./inp_files/36804.got.cif
#   From: 2010.05.17/outbox.cif.g08.bks.cpg/sg51_19_cif.got.tgz:36804.got - 2010.06.03 11:52:47.
