data_PCOD9406664
_publ_section_title
;
Structure prediction by ZEFSAII (Michael W. Deem and Ramdas Pophale) SiO2 
 PCOD9406664
Probable space group: P M M A
;
_chemical_formula_sum "Si O2"
_cell_formula_units_Z 40
_cell_length_a 18.199582
_cell_length_b 7.417984
_cell_length_c 16.267848
_cell_angle_alpha 90.000000
_cell_angle_beta 90.000000
_cell_angle_gamma 90.000000
_cell_volume 2196.227936
_symmetry_space_group_name_H-M "P M M A"
_symmetry_group_IT_number 51
_symmetry_cell_setting 'orthorhombic'
loop_
_space_group_symop_operation_xyz
x,y,z
1/2-x,-y,z
1/2+x,-y,-z
-x,y,-z
-x,-y,-z
1/2+x,y,-z
1/2-x,y,z
x,-y,z
loop_
_atom_site_type_symbol
_atom_site_label
_atom_site_fract_x
_atom_site_fract_y
_atom_site_fract_z
Si Si1 0.584824 0.719982 0.008235
Si Si2 0.959195 0.710493 0.720103
Si Si3 0.484536 0.000000 0.595998
Si Si4 0.886178 0.710330 0.190155
Si Si5 0.831375 0.000000 0.315525
Si Si6 0.833809 0.279961 0.842779
O O1 0.583912 0.500000 0.009072
O O2 0.618166 0.773663 0.096035
O O3 0.500000 0.777482 0.000000
O O4 0.631351 0.777642 0.929511
O O5 0.951231 0.500000 0.698925
O O6 0.887281 0.774090 0.768740
O O7 0.028155 0.724615 0.782866
O O8 0.979747 0.828633 0.641824
O O9 0.500000 0.000000 0.500000
O O10 0.398032 0.000000 0.619612
O O11 0.865347 0.500000 0.194814
O O12 0.842559 0.829667 0.255038
O O13 0.750000 0.000000 0.351667
O O14 0.750000 0.221826 0.833766
O O15 0.834816 0.500000 0.843414
#
# Coordination Sequence:
#
# PCOD9406664 Si02
#       6
#     8   8   4   8   4   8
#     4   9  14  24  45  73 106 145 186 221 251 290
#     4   9  17  33  55  77 104 137 171 210 256 310
#     4  10  22  40  61  83 100 126 170 208 258 332
#     4   9  17  31  53  76 102 143 184 211 247 303
#     4  10  22  38  54  78 109 133 164 217 268 307
#     4   9  16  26  44  73 108 144 181 221 259 292
#
# _framework density 18.213047
#
# number of rings (size 3 to 8) (size 9 to 14) (size 15 to 20)
#    0.000    2.800    2.000    0.000    0.000    1.600 
#    0.000    5.000    0.000    0.000    0.000    0.000 
#    0.000    0.000    0.000    0.000    0.000    0.000 
#
# Total GULP energy -223239.029873 kJ/mol
# GULP energy per Si atom -5580.975747 kJ/mol
# Density = 1.817159 g / cm^3
# Si number density = 18.213047 Si / 1000 Ang^3
#
#
#
# Elastic Constant Matrix: (Units=GPa)
#
#
# Indices 1 2 3 4 5 6 
#
# 1 125.9143 31.9860 67.9649 0.0000 0.0000 0.0000
# 2 31.9860 74.8167 44.0507 0.0000 0.0000 0.0000
# 3 67.9649 44.0507 153.6776 0.0000 0.0000 0.0000
# 4 0.0000 0.0000 0.0000 20.2492 0.0000 0.0000
# 5 0.0000 0.0000 0.0000 0.0000 14.1682 0.0000
# 6 0.0000 0.0000 0.0000 0.0000 0.0000 7.5948
#
#
#
# Elastic Compliance Matrix: (Units=1/GPa)
#
#
# Indices 1 2 3 4 5 6 
#
# 1 0.010713 -0.002154 -0.004121 0.000000 0.000000 0.000000
# 2 -0.002154 0.016513 -0.003781 0.000000 0.000000 0.000000
# 3 -0.004121 -0.003781 0.009413 0.000000 0.000000 0.000000
# 4 0.000000 0.000000 0.000000 0.049385 0.000000 0.000000
# 5 0.000000 0.000000 0.000000 0.000000 0.070580 0.000000
# 6 0.000000 0.000000 0.000000 0.000000 0.000000 0.131669
#
#
# Mechanical properties :
#
#
# Convention : Reuss Voigt Hill
#
# Bulk Modulus (GPa) = 60.50063 71.37908 65.93986
# Shear Modulus (GPa) = 15.92897 22.42959 19.17928
#
# Velocity S-wave (km/s) = 2.96056 3.51310 3.24860
# Velocity P-wave (km/s) = 6.70649 7.46539 7.09609
#
# Compressibility (1/GPa) = 0.01652875
#
# Stress axis : x y z
#
# Youngs Moduli (GPa) = 93.34216 60.55869 106.23410
#
# Poissons Ratio (x) = 0.13045 0.43774
# Poissons Ratio (y) = 0.20107 0.40164
# Poissons Ratio (z) = 0.38462 0.22895
#
# Static dielectric constant tensor:
#      x y z
#    x 1.621920 0.000000 0.000000 
#    y 0.000000 1.680080 0.000000 
#    z 0.000000 0.000000 1.572000 
# 
# From -- ./inp_files/23735.got.cif
#   From: 2010.05.17/outbox.cif.g08.bks.cpg/sg51_12_cif.got.tgz:23735.got - 2010.06.03 11:52:47.
