data_PCOD9406674
_publ_section_title
;
Structure prediction by ZEFSAII (Michael W. Deem and Ramdas Pophale) SiO2 
 PCOD9406674
Probable space group: P M M A
;
_chemical_formula_sum "Si O2"
_cell_formula_units_Z 48
_cell_length_a 16.157452
_cell_length_b 8.963720
_cell_length_c 17.006060
_cell_angle_alpha 90.000000
_cell_angle_beta 90.000000
_cell_angle_gamma 90.000000
_cell_volume 2463.002561
_symmetry_space_group_name_H-M "P M M A"
_symmetry_group_IT_number 51
_symmetry_cell_setting 'orthorhombic'
loop_
_space_group_symop_operation_xyz
x,y,z
1/2-x,-y,z
1/2+x,-y,-z
-x,y,-z
-x,-y,-z
1/2+x,y,-z
1/2-x,y,z
x,-y,z
loop_
_atom_site_type_symbol
_atom_site_label
_atom_site_fract_x
_atom_site_fract_y
_atom_site_fract_z
Si Si1 0.341656 0.678250 0.176846
Si Si2 0.842778 0.321926 0.176661
Si Si3 0.575532 0.675503 0.340103
Si Si4 0.399986 0.822309 0.332357
Si Si5 0.499523 0.175749 0.093681
Si Si6 0.348806 0.173380 0.509474
O O1 0.250000 0.716452 0.145237
O O2 0.350184 0.500000 0.176987
O O3 0.348587 0.739157 0.265572
O O4 0.417918 0.748312 0.129697
O O5 0.750000 0.270707 0.156032
O O6 0.847422 0.500000 0.162449
O O7 0.859600 0.299460 0.269649
O O8 0.917168 0.244296 0.130469
O O9 0.554401 0.500000 0.340643
O O10 0.494378 0.771330 0.321632
O O11 0.610390 0.726568 0.423755
O O12 0.373983 0.783021 0.421190
O O13 0.390753 0.000000 0.323310
O O14 0.496675 0.000000 0.111618
O O15 0.500000 0.196286 0.000000
O O16 0.250000 0.180534 0.516118
O O17 0.374741 0.000000 0.521124
#
# Coordination Sequence:
#
# PCOD9406674 Si02
#       6
#     8   8   8   8   8   8
#     4  11  24  42  66  96 128 166 211 257 311 374
#     4  10  22  41  65  93 127 167 209 255 311 372
#     4  11  22  37  59  88 122 162 209 258 310 366
#     4  11  22  38  61  88 121 164 212 259 311 366
#     4  11  25  44  67  96 128 163 205 255 311 373
#     4  10  22  38  55  81 119 163 211 259 308 365
#
# _framework density 19.488408
#
# number of rings (size 3 to 8) (size 9 to 14) (size 15 to 20)
#    0.000    1.333    1.667    3.500    0.000    9.333 
#    0.000    3.333    0.000    0.000    0.000    0.000 
#    0.000    0.000    0.000    0.000    0.000    0.000 
#
# Total GULP energy -268366.261901 kJ/mol
# GULP energy per Si atom -5590.963790 kJ/mol
# Density = 1.944405 g / cm^3
# Si number density = 19.488408 Si / 1000 Ang^3
#
#
#
# Elastic Constant Matrix: (Units=GPa)
#
#
# Indices 1 2 3 4 5 6 
#
# 1 154.2207 57.4329 57.3663 0.0000 0.0000 0.0000
# 2 57.4329 62.4191 55.6677 0.0000 0.0000 0.0000
# 3 57.3663 55.6677 79.4683 0.0000 0.0000 0.0000
# 4 0.0000 0.0000 0.0000 41.8947 0.0000 0.0000
# 5 0.0000 0.0000 0.0000 0.0000 4.9549 0.0000
# 6 0.0000 0.0000 0.0000 0.0000 0.0000 18.0110
#
#
#
# Elastic Compliance Matrix: (Units=1/GPa)
#
#
# Indices 1 2 3 4 5 6 
#
# 1 0.009989 -0.007355 -0.002058 0.000000 0.000000 0.000000
# 2 -0.007355 0.048108 -0.028390 0.000000 0.000000 0.000000
# 3 -0.002058 -0.028390 0.033957 0.000000 0.000000 0.000000
# 4 0.000000 0.000000 0.000000 0.023869 0.000000 0.000000
# 5 0.000000 0.000000 0.000000 0.000000 0.201822 0.000000
# 6 0.000000 0.000000 0.000000 0.000000 0.000000 0.055521
#
#
# Mechanical properties :
#
#
# Convention : Reuss Voigt Hill
#
# Bulk Modulus (GPa) = 60.80441 70.78243 65.79342
# Shear Modulus (GPa) = 11.00461 21.34820 16.17641
#
# Velocity S-wave (km/s) = 2.37887 3.31332 2.88419
# Velocity P-wave (km/s) = 6.23004 7.14399 6.70261
#
# Compressibility (1/GPa) = 0.01644618
#
# Stress axis : x y z
#
# Youngs Moduli (GPa) = 100.10923 20.78676 29.44929
#
# Poissons Ratio (x) = 0.15289 0.06062
# Poissons Ratio (y) = 0.73633 0.83606
# Poissons Ratio (z) = 0.20607 0.59013
#
# Static dielectric constant tensor:
#      x y z
#    x 1.682250 0.000000 0.000000 
#    y 0.000000 1.653960 0.000000 
#    z 0.000000 0.000000 1.672120 
# 
# From -- ./inp_files/29422.got.cif
#   From: 2010.05.17/outbox.cif.g08.bks.cpg/sg51_15_cif.got.tgz:29422.got - 2010.06.03 11:52:47.
