data_PCOD9406832
_publ_section_title
;
Structure prediction by ZEFSAII (Michael W. Deem and Ramdas Pophale) SiO2 
 PCOD9406832
Probable space group: P M M A
;
_chemical_formula_sum "Si O2"
_cell_formula_units_Z 48
_cell_length_a 14.935677
_cell_length_b 18.909954
_cell_length_c 8.896568
_cell_angle_alpha 90.000000
_cell_angle_beta 90.000000
_cell_angle_gamma 90.000000
_cell_volume 2512.684079
_symmetry_space_group_name_H-M "P M M A"
_symmetry_group_IT_number 51
_symmetry_cell_setting 'orthorhombic'
loop_
_space_group_symop_operation_xyz
x,y,z
1/2-x,-y,z
1/2+x,-y,-z
-x,y,-z
-x,-y,-z
1/2+x,y,-z
1/2-x,y,z
x,-y,z
loop_
_atom_site_type_symbol
_atom_site_label
_atom_site_fract_x
_atom_site_fract_y
_atom_site_fract_z
Si Si1 0.250000 0.583365 0.457631
Si Si2 0.399606 0.671127 0.946656
Si Si3 0.088215 0.328436 0.594824
Si Si4 0.353500 0.192138 0.131395
Si Si5 0.645072 0.083079 0.119434
Si Si6 0.023810 0.173907 0.657700
Si Si7 0.250000 0.420094 0.098819
O O1 0.250000 0.500000 0.506849
O O2 0.333464 0.629443 0.513716
O O3 0.250000 0.582717 0.277836
O O4 0.400994 0.654558 0.770797
O O5 0.500000 0.664673 0.000000
O O6 0.367537 0.748992 0.000602
O O7 0.335893 0.618718 0.034383
O O8 0.081219 0.242797 0.606415
O O9 0.000000 0.348678 0.500000
O O10 0.250000 0.198950 0.186999
O O11 0.433190 0.198882 0.253632
O O12 0.364755 0.117859 0.045441
O O13 0.750000 0.092992 0.161421
O O14 0.580906 0.124852 0.232668
O O15 0.625490 0.000000 0.117577
O O16 0.000000 0.137140 0.500000
O O17 0.250000 0.500000 0.047093
#
# Coordination Sequence:
#
# PCOD9406832 Si02
#       7
#     4   8   8   8   8   8   4
#     4  11  27  47  67  95 135 176 210 265 342 399
#     4  12  21  39  69  93 124 168 221 269 318 381
#     4  11  24  41  65  99 131 171 217 267 326 394
#     4  11  22  40  66  96 127 169 221 274 322 386
#     4  10  22  41  66  96 134 178 220 270 327 382
#     4  11  24  39  62 101 133 174 219 267 329 389
#     4  11  27  45  65  99 131 168 216 269 328 391
#
# _framework density 19.103078
#
# number of rings (size 3 to 8) (size 9 to 14) (size 15 to 20)
#    0.000    1.000    4.167    2.000    3.500    4.333 
#    0.000    0.000    0.000    2.000    0.000    0.000 
#    0.000    0.000    0.000    0.000    0.000    0.000 
#
# Total GULP energy -267841.981588 kJ/mol
# GULP energy per Si atom -5580.041283 kJ/mol
# Density = 1.905960 g / cm^3
# Si number density = 19.103078 Si / 1000 Ang^3
#
#
#
# Elastic Constant Matrix: (Units=GPa)
#
#
# Indices 1 2 3 4 5 6 
#
# 1 119.4827 73.8183 33.7933 0.0000 0.0000 0.0000
# 2 73.8183 113.1155 34.4739 0.0000 0.0000 0.0000
# 3 33.7933 34.4739 89.2470 0.0000 0.0000 0.0000
# 4 0.0000 0.0000 0.0000 13.3234 0.0000 0.0000
# 5 0.0000 0.0000 0.0000 0.0000 30.1357 0.0000
# 6 0.0000 0.0000 0.0000 0.0000 0.0000 -141.5785
#
#
#
# Elastic Compliance Matrix: (Units=1/GPa)
#
#
# Indices 1 2 3 4 5 6 
#
# 1 0.014349 -0.008737 -0.002059 0.000000 0.000000 0.000000
# 2 -0.008737 0.015340 -0.002617 0.000000 0.000000 0.000000
# 3 -0.002059 -0.002617 0.012995 0.000000 0.000000 0.000000
# 4 0.000000 0.000000 0.000000 0.075056 0.000000 0.000000
# 5 0.000000 0.000000 0.000000 0.000000 0.033183 0.000000
# 6 0.000000 0.000000 0.000000 0.000000 0.000000 -0.007063
#
#
# Mechanical properties :
#
#
# Convention : Reuss Voigt Hill
#
# Bulk Modulus (GPa) = 63.05470 67.33510 65.19490
# Shear Modulus (GPa) = 28.41357 -7.63990 10.38684
#
# Velocity S-wave (km/s) = 3.86084 -2.00199 2.33432
# Velocity P-wave (km/s) = 7.27696 5.47548 6.43952
#
# Compressibility (1/GPa) = 0.01585925
#
# Stress axis : x y z
#
# Youngs Moduli (GPa) = 69.68895 65.18975 76.95112
#
# Poissons Ratio (x) = 0.56956 0.15841
# Poissons Ratio (y) = 0.60887 0.20139
# Poissons Ratio (z) = 0.14346 0.17061
#
# Static dielectric constant tensor:
#      x y z
#    x 1.673770 0.000000 0.000000 
#    y 0.000000 1.668140 0.000000 
#    z 0.000000 0.000000 1.553150 
# 
# From -- ./inp_files/8296.got.cif
#   From: 2010.05.17/outbox.cif.g08.bks.cpg/sg51_5_cif.got.tgz:8296.got - 2010.06.03 11:52:47.
