data_PCOD9406434
_publ_section_title
;
Structure prediction by ZEFSAII (Michael W. Deem and Ramdas Pophale) SiO2 
 PCOD9406434
Probable space group: P M M A
;
_chemical_formula_sum "Si O2"
_cell_formula_units_Z 32
_cell_length_a 29.245041
_cell_length_b 8.369392
_cell_length_c 5.093181
_cell_angle_alpha 90.000000
_cell_angle_beta 90.000000
_cell_angle_gamma 90.000000
_cell_volume 1246.623342
_symmetry_space_group_name_H-M "P M M A"
_symmetry_group_IT_number 51
_symmetry_cell_setting 'orthorhombic'
loop_
_space_group_symop_operation_xyz
x,y,z
1/2-x,-y,z
1/2+x,-y,-z
-x,y,-z
-x,-y,-z
1/2+x,y,-z
1/2-x,y,z
x,-y,z
loop_
_atom_site_type_symbol
_atom_site_label
_atom_site_fract_x
_atom_site_fract_y
_atom_site_fract_z
Si Si1 0.402599 0.825113 0.116130
Si Si2 0.326177 0.500000 0.732397
Si Si3 0.112551 0.500000 0.244636
Si Si4 0.200671 0.825779 0.954258
Si Si5 0.031102 0.692269 0.739542
O O1 0.414588 0.664367 0.275052
O O2 0.347057 0.823586 0.111990
O O3 0.423587 0.790188 0.826707
O O4 0.417544 0.000000 0.204631
O O5 0.366301 0.500000 0.952703
O O6 0.300944 0.333328 0.780631
O O7 0.346682 0.500000 0.446561
O O8 0.250000 0.820087 0.098045
O O9 0.199452 0.000000 0.815616
O O10 0.039408 0.500000 0.715881
O O11 0.000000 0.750417 0.500000
O O12 0.000000 0.712970 0.000000
#
# Coordination Sequence:
#
# PCOD9406434 Si02
#       5
#     8   4   4   8   8
#     4  10  21  40  67  98 132 174 219 270 327 387
#     4  10  21  38  62  87 124 166 212 255 310 370
#     4  10  22  40  61  91 124 162 208 261 313 376
#     4   9  19  38  64  96 132 170 214 264 321 385
#     4  10  22  41  65  93 129 171 215 268 330 387
#
# _framework density 25.669339000000001
#
# number of rings (size 3 to 8) (size 9 to 14) (size 15 to 20)
#    0.000    2.250    1.250    0.375    0.000    6.000 
#    0.000   15.000    0.000   12.000    0.000    0.000 
#    0.000    0.000    0.000    0.000    0.000    0.000 
#
# Total GULP energy -178669.867148 kJ/mol
# GULP energy per Si atom -5583.433348 kJ/mol
# Density = 2.561091 g / cm^3
# Si number density = 25.669339 Si / 1000 Ang^3
#
#
#
# Elastic Constant Matrix: (Units=GPa)
#
#
# Indices 1 2 3 4 5 6 
#
# 1 135.9895 9.3601 16.4885 0.0000 0.0000 0.0000
# 2 9.3601 244.8902 20.6230 0.0000 0.0000 0.0000
# 3 16.4885 20.6230 63.8544 0.0000 0.0000 0.0000
# 4 0.0000 0.0000 0.0000 18.6796 0.0000 0.0000
# 5 0.0000 0.0000 0.0000 0.0000 23.7614 0.0000
# 6 0.0000 0.0000 0.0000 0.0000 0.0000 17.7389
#
#
#
# Elastic Compliance Matrix: (Units=1/GPa)
#
#
# Indices 1 2 3 4 5 6 
#
# 1 0.007595 -0.000129 -0.001920 0.000000 0.000000 0.000000
# 2 -0.000129 0.004200 -0.001323 0.000000 0.000000 0.000000
# 3 -0.001920 -0.001323 0.016584 0.000000 0.000000 0.000000
# 4 0.000000 0.000000 0.000000 0.053534 0.000000 0.000000
# 5 0.000000 0.000000 0.000000 0.000000 0.042085 0.000000
# 6 0.000000 0.000000 0.000000 0.000000 0.000000 0.056373
#
#
# Mechanical properties :
#
#
# Convention : Reuss Voigt Hill
#
# Bulk Modulus (GPa) = 46.22010 59.74192 52.98101
# Shear Modulus (GPa) = 25.72997 38.58683 32.15840
#
# Velocity S-wave (km/s) = 3.16944 3.88135 3.54332
# Velocity P-wave (km/s) = 5.60704 6.58868 6.11758
#
# Compressibility (1/GPa) = 0.02163561
#
# Stress axis : x y z
#
# Youngs Moduli (GPa) = 131.66353 238.10599 60.30023
#
# Poissons Ratio (x) = 0.03063 0.11576
# Poissons Ratio (y) = 0.01694 0.07979
# Poissons Ratio (z) = 0.25275 0.31506
#
# Static dielectric constant tensor:
#      x y z
#    x 2.083330 0.000000 0.000000 
#    y 0.000000 2.069000 0.000000 
#    z 0.000000 0.000000 2.052330 
# 
# From -- ./inp_files/3804.got.cif
#   From: 2010.05.17/outbox.cif.g08.bks.cpg/sg51_2_cif.got.tgz:3804.got - 2010.06.03 11:52:47.
