data_PCOD9406948
_publ_section_title
;
Structure prediction by ZEFSAII (Michael W. Deem and Ramdas Pophale) SiO2 
 PCOD9406948
Probable space group: P M M A
;
_chemical_formula_sum "Si O2"
_cell_formula_units_Z 48
_cell_length_a 16.988074
_cell_length_b 7.875137
_cell_length_c 14.617150
_cell_angle_alpha 90.000000
_cell_angle_beta 90.000000
_cell_angle_gamma 90.000000
_cell_volume 1955.532173
_symmetry_space_group_name_H-M "P M M A"
_symmetry_group_IT_number 51
_symmetry_cell_setting 'orthorhombic'
loop_
_space_group_symop_operation_xyz
x,y,z
1/2-x,-y,z
1/2+x,-y,-z
-x,y,-z
-x,-y,-z
1/2+x,y,-z
1/2-x,y,z
x,-y,z
loop_
_atom_site_type_symbol
_atom_site_label
_atom_site_fract_x
_atom_site_fract_y
_atom_site_fract_z
Si Si1 0.250000 0.299163 0.233253
Si Si2 0.250000 0.291808 0.444769
Si Si3 0.098011 0.198998 0.114427
Si Si4 0.840457 0.203101 0.068520
Si Si5 0.080567 0.292143 0.454984
Si Si6 0.335814 0.205582 0.721753
Si Si7 0.495956 0.301209 0.275435
O O1 0.250000 0.500000 0.243333
O O2 0.250000 0.235326 0.338024
O O3 0.172542 0.253341 0.175421
O O4 0.250000 0.500000 0.447381
O O5 0.166706 0.234319 0.486723
O O6 0.020973 0.226145 0.175932
O O7 0.105568 0.000000 0.100860
O O8 0.104770 0.273938 0.012185
O O9 0.750000 0.226137 0.036296
O O10 0.842748 0.267576 0.172253
O O11 0.853247 0.000000 0.078624
O O12 0.079807 0.500000 0.460199
O O13 0.000000 0.230454 0.500000
O O14 0.068393 0.242657 0.348823
O O15 0.250000 0.263357 0.687278
O O16 0.418111 0.267865 0.682296
O O17 0.335952 0.000000 0.719715
O O18 0.485752 0.500000 0.264928
#
# Coordination Sequence:
#
# PCOD9406948 Si02
#       7
#     4   4   8   8   8   8   8
#     4  11  19  31  51  81 116 147 178 224 285 331
#     4   9  16  31  55  79 108 145 178 220 277 329
#     4  11  20  32  54  82 110 145 190 230 268 325
#     4   8  15  30  52  76 102 139 193 237 261 308
#     4   9  18  34  55  81 111 145 186 227 272 335
#     4   9  19  38  60  76 100 146 195 232 271 328
#     4  11  22  36  54  81 115 141 174 232 287 334
#
# _framework density 24.545750000000002
#
# number of rings (size 3 to 8) (size 9 to 14) (size 15 to 20)
#    0.000    2.333    2.500    2.250    0.000    1.000 
#    1.500    5.000    0.000    2.000    0.000    0.000 
#    0.000    0.000    0.000    0.000    0.000    0.000 
#
# Total GULP energy -267985.005110 kJ/mol
# GULP energy per Si atom -5583.020940 kJ/mol
# Density = 2.448988 g / cm^3
# Si number density = 24.545750 Si / 1000 Ang^3
#
#
#
# Elastic Constant Matrix: (Units=GPa)
#
#
# Indices 1 2 3 4 5 6 
#
# 1 155.3859 -10.6539 27.6064 0.0000 0.0000 0.0000
# 2 -10.6539 22.2567 -2.1012 0.0000 0.0000 0.0000
# 3 27.6064 -2.1012 54.4897 0.0000 0.0000 0.0000
# 4 0.0000 0.0000 0.0000 5.5029 0.0000 0.0000
# 5 0.0000 0.0000 0.0000 0.0000 45.2385 0.0000
# 6 0.0000 0.0000 0.0000 0.0000 0.0000 21.6097
#
#
#
# Elastic Compliance Matrix: (Units=1/GPa)
#
#
# Indices 1 2 3 4 5 6 
#
# 1 0.007286 0.003151 -0.003570 0.000000 0.000000 0.000000
# 2 0.003151 0.046457 0.000195 0.000000 0.000000 0.000000
# 3 -0.003570 0.000195 0.020168 0.000000 0.000000 0.000000
# 4 0.000000 0.000000 0.000000 0.181724 0.000000 0.000000
# 5 0.000000 0.000000 0.000000 0.000000 0.022105 0.000000
# 6 0.000000 0.000000 0.000000 0.000000 0.000000 0.046275
#
#
# Mechanical properties :
#
#
# Convention : Reuss Voigt Hill
#
# Bulk Modulus (GPa) = 13.61230 29.09277 21.35253
# Shear Modulus (GPa) = 14.32868 28.95562 21.64215
#
# Velocity S-wave (km/s) = 2.41872 3.43834 2.97258
# Velocity P-wave (km/s) = 3.65486 5.25748 4.52764
#
# Compressibility (1/GPa) = 0.07346299
#
# Stress axis : x y z
#
# Youngs Moduli (GPa) = 137.25284 21.52537 49.58305
#
# Poissons Ratio (x) = -0.06782 0.17700
# Poissons Ratio (y) = -0.43243 -0.00968
# Poissons Ratio (z) = 0.48996 -0.00420
#
# Static dielectric constant tensor:
#      x y z
#    x 1.982330 0.000000 0.000000 
#    y 0.000000 1.870990 0.000000 
#    z 0.000000 0.000000 2.038180 
# 
# From -- ./inp_files/24849.got.cif
#   From: 2010.05.17/outbox.cif.g08.bks.cpg/sg51_13_cif.got.tgz:24849.got - 2010.06.03 11:52:47.
