data_PCOD9406621
_publ_section_title
;
Structure prediction by ZEFSAII (Michael W. Deem and Ramdas Pophale) SiO2 
 PCOD9406621
Probable space group: P M M A
;
_chemical_formula_sum "Si O2"
_cell_formula_units_Z 48
_cell_length_a 8.135850
_cell_length_b 32.501655
_cell_length_c 9.326418
_cell_angle_alpha 90.000000
_cell_angle_beta 90.000000
_cell_angle_gamma 90.000000
_cell_volume 2466.171560
_symmetry_space_group_name_H-M "P M M A"
_symmetry_group_IT_number 51
_symmetry_cell_setting 'orthorhombic'
loop_
_space_group_symop_operation_xyz
x,y,z
1/2-x,-y,z
1/2+x,-y,-z
-x,y,-z
-x,-y,-z
1/2+x,y,-z
1/2-x,y,z
x,-y,z
loop_
_atom_site_type_symbol
_atom_site_label
_atom_site_fract_x
_atom_site_fract_y
_atom_site_fract_z
Si Si1 0.448676 0.546166 0.335986
Si Si2 0.948470 0.044150 0.332793
Si Si3 0.948825 0.866138 0.333808
Si Si4 0.551164 0.214208 0.164711
Si Si5 0.946080 0.375063 0.836464
Si Si6 0.553796 0.705437 0.335504
O O1 0.500000 0.554113 0.500000
O O2 0.250000 0.545970 0.330942
O O3 0.505985 0.500000 0.297037
O O4 0.510366 0.582612 0.234391
O O5 0.750000 0.044036 0.325205
O O6 0.005822 0.088789 0.278186
O O7 0.000000 0.044071 0.500000
O O8 0.006857 0.000000 0.271412
O O9 0.750000 0.866103 0.330352
O O10 0.008095 0.827668 0.240857
O O11 0.000000 0.861598 0.500000
O O12 0.750000 0.214108 0.170787
O O13 0.491101 0.254253 0.251278
O O14 0.500000 0.216160 0.000000
O O15 0.750000 0.376867 0.833269
O O16 0.999055 0.335959 0.743556
O O17 0.000000 0.370648 0.000000
O O18 0.500000 0.705853 0.500000
O O19 0.750000 0.706719 0.331667
#
# Coordination Sequence:
#
# PCOD9406621 Si02
#       6
#     8   8   8   8   8   8
#     4   9  19  36  57  81 109 142 181 223 265 310
#     4   8  13  22  39  64  93 123 155 196 245 293
#     4   9  17  30  48  72  99 127 164 206 249 299
#     4  10  22  37  53  74 101 134 170 209 253 303
#     4  11  23  38  57  82 113 146 180 219 264 313
#     4  11  23  39  59  82 107 136 173 215 261 312
#
# _framework density 19.463367999999999
#
# number of rings (size 3 to 8) (size 9 to 14) (size 15 to 20)
#    0.000    2.333    0.000    2.500    0.000    6.333 
#    0.000    0.000    0.000    0.500    0.000    0.000 
#    0.000    0.000    0.000    0.000    0.000    0.000 
#
# Total GULP energy -267770.013260 kJ/mol
# GULP energy per Si atom -5578.541943 kJ/mol
# Density = 1.941907 g / cm^3
# Si number density = 19.463368 Si / 1000 Ang^3
#
#
#
# Elastic Constant Matrix: (Units=GPa)
#
#
# Indices 1 2 3 4 5 6 
#
# 1 17.8497 21.3190 8.2602 0.0000 0.0000 0.0000
# 2 21.3190 224.1949 117.5965 0.0000 0.0000 0.0000
# 3 8.2602 117.5965 132.8877 0.0000 0.0000 0.0000
# 4 0.0000 0.0000 0.0000 -3.6708 0.0000 0.0000
# 5 0.0000 0.0000 0.0000 0.0000 28.8409 0.0000
# 6 0.0000 0.0000 0.0000 0.0000 0.0000 63.1661
#
#
#
# Elastic Compliance Matrix: (Units=1/GPa)
#
#
# Indices 1 2 3 4 5 6 
#
# 1 0.063684 -0.007427 0.002614 0.000000 0.000000 0.000000
# 2 -0.007427 0.009190 -0.007671 0.000000 0.000000 0.000000
# 3 0.002614 -0.007671 0.014151 0.000000 0.000000 0.000000
# 4 0.000000 0.000000 0.000000 -0.272423 0.000000 0.000000
# 5 0.000000 0.000000 0.000000 0.000000 0.034673 0.000000
# 6 0.000000 0.000000 0.000000 0.000000 0.000000 0.015831
#
#
# Mechanical properties :
#
#
# Convention : Reuss Voigt Hill
#
# Bulk Modulus (GPa) = 16.11418 74.36484 45.23951
# Shear Modulus (GPa) = -56.02935 32.85102 -11.58916
#
# Velocity S-wave (km/s) = -5.37118 4.11279 -2.44280
# Velocity P-wave (km/s) = 5.49262 7.80025 3.91631
#
# Compressibility (1/GPa) = 0.06205713
#
# Stress axis : x y z
#
# Youngs Moduli (GPa) = 15.70247 108.80918 70.66534
#
# Poissons Ratio (x) = 0.80810 -0.18469
# Poissons Ratio (y) = 0.11662 0.54209
# Poissons Ratio (z) = -0.04104 0.83470
#
# Static dielectric constant tensor:
#      x y z
#    x 1.696900 0.000000 0.000000 
#    y 0.000000 1.739240 0.000000 
#    z 0.000000 0.000000 1.620240 
# 
# From -- ./inp_files/6036.got.cif
#   From: 2010.05.17/outbox.cif.g08.bks.cpg/sg51_4_cif.got.tgz:6036.got - 2010.06.03 11:52:47.
