data_PCOD9406186
_publ_section_title
;
Structure prediction by ZEFSAII (Michael W. Deem and Ramdas Pophale) SiO2 
 PCOD9406186
Probable space group: P M M A
;
_chemical_formula_sum "Si O2"
_cell_formula_units_Z 40
_cell_length_a 16.596359
_cell_length_b 7.522055
_cell_length_c 14.782581
_cell_angle_alpha 90.000000
_cell_angle_beta 90.000000
_cell_angle_gamma 90.000000
_cell_volume 1845.438567
_symmetry_space_group_name_H-M "P M M A"
_symmetry_group_IT_number 51
_symmetry_cell_setting 'orthorhombic'
loop_
_space_group_symop_operation_xyz
x,y,z
1/2-x,-y,z
1/2+x,-y,-z
-x,y,-z
-x,-y,-z
1/2+x,y,-z
1/2-x,y,z
x,-y,z
loop_
_atom_site_type_symbol
_atom_site_label
_atom_site_fract_x
_atom_site_fract_y
_atom_site_fract_z
Si Si1 0.250000 0.282203 0.925677
Si Si2 0.397605 0.716833 0.591905
Si Si3 0.340271 0.207962 0.200637
Si Si4 0.250000 0.282868 0.715970
Si Si5 0.581948 0.714487 0.610049
Si Si6 0.086810 0.703813 0.020449
O O1 0.250000 0.500000 0.931084
O O2 0.250000 0.229989 0.820580
O O3 0.332081 0.220463 0.974740
O O4 0.396882 0.500000 0.592728
O O5 0.329167 0.775896 0.661018
O O6 0.488509 0.771917 0.616581
O O7 0.384113 0.771908 0.487587
O O8 0.250000 0.280671 0.190303
O O9 0.368906 0.227236 0.303140
O O10 0.398313 0.295734 0.127687
O O11 0.339141 0.000000 0.178549
O O12 0.250000 0.500000 0.715369
O O13 0.581995 0.500000 0.609417
O O14 0.082452 0.500000 0.986742
O O15 0.000000 0.787286 0.000000
#
# Coordination Sequence:
#
# PCOD9406186 Si02
#       6
#     4   8   8   4   8   8
#     4   9  18  32  50  81 114 136 169 223 278 325
#     4   8  16  30  49  81 116 141 171 220 275 323
#     4  11  24  39  55  79 111 150 188 227 276 329
#     4   9  16  26  47  77 112 140 165 211 274 329
#     4   9  18  33  55  82 110 140 181 227 270 322
#     4  10  21  37  60  86 109 140 183 231 282 333
#
# _framework density 21.675065
#
# number of rings (size 3 to 8) (size 9 to 14) (size 15 to 20)
#    0.000    2.600    1.000    1.800    4.200    1.600 
#    0.000    2.000    0.000    0.000    0.000    0.000 
#    0.000    0.000    0.000    0.000    0.000    0.000 
#
# Total GULP energy -223346.440041 kJ/mol
# GULP energy per Si atom -5583.661001 kJ/mol
# Density = 2.162573 g / cm^3
# Si number density = 21.675065 Si / 1000 Ang^3
#
#
#
# Elastic Constant Matrix: (Units=GPa)
#
#
# Indices 1 2 3 4 5 6 
#
# 1 127.0565 9.8081 61.1156 0.0000 0.0000 0.0000
# 2 9.8081 57.5483 -0.0478 0.0000 0.0000 0.0000
# 3 61.1156 -0.0478 112.4527 0.0000 0.0000 0.0000
# 4 0.0000 0.0000 0.0000 -472.6567 0.0000 0.0000
# 5 0.0000 0.0000 0.0000 0.0000 40.1602 0.0000
# 6 0.0000 0.0000 0.0000 0.0000 0.0000 1.5613
#
#
#
# Elastic Compliance Matrix: (Units=1/GPa)
#
#
# Indices 1 2 3 4 5 6 
#
# 1 0.010851 -0.001854 -0.005898 0.000000 0.000000 0.000000
# 2 -0.001854 0.017694 0.001015 0.000000 0.000000 0.000000
# 3 -0.005898 0.001015 0.012098 0.000000 0.000000 0.000000
# 4 0.000000 0.000000 0.000000 -0.002116 0.000000 0.000000
# 5 0.000000 0.000000 0.000000 0.000000 0.024900 0.000000
# 6 0.000000 0.000000 0.000000 0.000000 0.000000 0.640488
#
#
# Mechanical properties :
#
#
# Convention : Reuss Voigt Hill
#
# Bulk Modulus (GPa) = 36.80673 48.75658 42.78165
# Shear Modulus (GPa) = 6.88283 -71.10826 -32.11271
#
# Velocity S-wave (km/s) = 1.78392 -5.73391 -3.85327
# Velocity P-wave (km/s) = 4.61098 4.61452 0.12774
#
# Compressibility (1/GPa) = 0.02716895
#
# Stress axis : x y z
#
# Youngs Moduli (GPa) = 92.16103 56.51774 82.65553
#
# Poissons Ratio (x) = 0.10479 0.48749
# Poissons Ratio (y) = 0.17088 -0.08391
# Poissons Ratio (z) = 0.54355 -0.05738
#
# Static dielectric constant tensor:
#      x y z
#    x 1.776570 0.000000 0.000000 
#    y 0.000000 1.813900 0.000000 
#    z 0.000000 0.000000 1.737060 
# 
# From -- ./inp_files/23805.got.cif
#   From: 2010.05.17/outbox.cif.g08.bks.cpg/sg51_12_cif.got.tgz:23805.got - 2010.06.03 11:52:47.
