data_PCOD9406381
_publ_section_title
;
Structure prediction by ZEFSAII (Michael W. Deem and Ramdas Pophale) SiO2 
 PCOD9406381
Probable space group: P M M A
;
_chemical_formula_sum "Si O2"
_cell_formula_units_Z 40
_cell_length_a 14.881287
_cell_length_b 15.245252
_cell_length_c 7.845369
_cell_angle_alpha 90.000000
_cell_angle_beta 90.000000
_cell_angle_gamma 90.000000
_cell_volume 1779.870787
_symmetry_space_group_name_H-M "P M M A"
_symmetry_group_IT_number 51
_symmetry_cell_setting 'orthorhombic'
loop_
_space_group_symop_operation_xyz
x,y,z
1/2-x,-y,z
1/2+x,-y,-z
-x,y,-z
-x,-y,-z
1/2+x,y,-z
1/2-x,y,z
x,-y,z
loop_
_atom_site_type_symbol
_atom_site_label
_atom_site_fract_x
_atom_site_fract_y
_atom_site_fract_z
Si Si1 0.144595 0.097968 0.777888
Si Si2 0.641389 0.219496 0.918861
Si Si3 0.140998 0.404728 0.957659
Si Si4 0.395215 0.215694 0.459357
Si Si5 0.396045 0.404267 0.555736
O O1 0.250000 0.088970 0.818319
O O2 0.140397 0.148768 0.599533
O O3 0.105101 0.000000 0.770158
O O4 0.106276 0.159851 0.926697
O O5 0.750000 0.222740 0.930725
O O6 0.608543 0.319656 0.941548
O O7 0.617974 0.185125 0.732868
O O8 0.250000 0.404429 0.959066
O O9 0.110888 0.500000 0.024454
O O10 0.112487 0.396791 0.760270
O O11 0.500000 0.222864 0.500000
O O12 0.356268 0.314383 0.480279
O O13 0.500000 0.406813 0.500000
O O14 0.356918 0.500000 0.507426
#
# Coordination Sequence:
#
# PCOD9406381 Si02
#       5
#     8   8   8   8   8
#     4  10  22  42  65  87 114 150 195 247 301 355
#     4  10  21  38  61  86 115 151 194 240 293 352
#     4   9  17  32  57  86 116 153 199 250 295 338
#     4  11  23  38  59  89 123 157 196 240 291 352
#     4   9  18  34  54  82 121 161 197 232 281 346
#
# _framework density 22.47354
#
# number of rings (size 3 to 8) (size 9 to 14) (size 15 to 20)
#    0.000    2.200    2.000    0.600    0.000    3.600 
#    0.000    3.000    0.000    6.000    0.000    0.000 
#    0.000    0.000    0.000    0.000    0.000    0.000 
#
# Total GULP energy -223457.304402 kJ/mol
# GULP energy per Si atom -5586.432610 kJ/mol
# Density = 2.242239 g / cm^3
# Si number density = 22.473540 Si / 1000 Ang^3
#
#
#
# Elastic Constant Matrix: (Units=GPa)
#
#
# Indices 1 2 3 4 5 6 
#
# 1 49.8253 8.5923 -9.6368 0.0000 0.0000 0.0000
# 2 8.5923 175.6782 83.9040 0.0000 0.0000 0.0000
# 3 -9.6368 83.9040 146.7721 0.0000 0.0000 0.0000
# 4 0.0000 0.0000 0.0000 12.0763 0.0000 0.0000
# 5 0.0000 0.0000 0.0000 0.0000 40.8593 0.0000
# 6 0.0000 0.0000 0.0000 0.0000 0.0000 4.6237
#
#
#
# Elastic Compliance Matrix: (Units=1/GPa)
#
#
# Indices 1 2 3 4 5 6 
#
# 1 0.020993 -0.002318 0.002703 0.000000 0.000000 0.000000
# 2 -0.002318 0.008086 -0.004775 0.000000 0.000000 0.000000
# 3 0.002703 -0.004775 0.009720 0.000000 0.000000 0.000000
# 4 0.000000 0.000000 0.000000 0.082807 0.000000 0.000000
# 5 0.000000 0.000000 0.000000 0.000000 0.024474 0.000000
# 6 0.000000 0.000000 0.000000 0.000000 0.000000 0.216276
#
#
# Mechanical properties :
#
#
# Convention : Reuss Voigt Hill
#
# Bulk Modulus (GPa) = 33.31035 59.77719 46.54377
# Shear Modulus (GPa) = 13.11850 30.80627 21.96238
#
# Velocity S-wave (km/s) = 2.41867 3.70642 3.12950
# Velocity P-wave (km/s) = 4.75964 6.70622 5.81496
#
# Compressibility (1/GPa) = 0.03002070
#
# Stress axis : x y z
#
# Youngs Moduli (GPa) = 47.63556 123.67130 102.87800
#
# Poissons Ratio (x) = 0.28665 -0.27812
# Poissons Ratio (y) = 0.11041 0.49120
# Poissons Ratio (z) = -0.12878 0.59048
#
# Static dielectric constant tensor:
#      x y z
#    x 1.879520 0.000000 0.000000 
#    y 0.000000 1.878340 0.000000 
#    z 0.000000 0.000000 1.787980 
# 
# From -- ./inp_files/1943.got.cif
#   From: 2010.05.17/outbox.cif.g08.bks.cpg/sg51_1_cif.got.tgz:1943.got - 2010.06.03 11:52:47.
