data_PCOD9406877
_publ_section_title
;
Structure prediction by ZEFSAII (Michael W. Deem and Ramdas Pophale) SiO2 
 PCOD9406877
Probable space group: P M M A
;
_chemical_formula_sum "Si O2"
_cell_formula_units_Z 32
_cell_length_a 13.682789
_cell_length_b 11.861276
_cell_length_c 7.687969
_cell_angle_alpha 90.000000
_cell_angle_beta 90.000000
_cell_angle_gamma 90.000000
_cell_volume 1247.721518
_symmetry_space_group_name_H-M "P M M A"
_symmetry_group_IT_number 51
_symmetry_cell_setting 'orthorhombic'
loop_
_space_group_symop_operation_xyz
x,y,z
1/2-x,-y,z
1/2+x,-y,-z
-x,y,-z
-x,-y,-z
1/2+x,y,-z
1/2-x,y,z
x,-y,z
loop_
_atom_site_type_symbol
_atom_site_label
_atom_site_fract_x
_atom_site_fract_y
_atom_site_fract_z
Si Si1 0.637896 0.500000 0.101615
Si Si2 0.360811 0.873043 0.584036
Si Si3 0.002043 0.692105 0.248307
Si Si4 0.138326 0.500000 0.318197
Si Si5 0.861195 0.125620 0.837270
O O1 0.750000 0.500000 0.164518
O O2 0.574483 0.394853 0.166623
O O3 0.641105 0.500000 0.892536
O O4 0.250000 0.848354 0.641404
O O5 0.436820 0.784955 0.656069
O O6 0.359243 0.875073 0.374195
O O7 0.386971 0.000000 0.641104
O O8 0.077267 0.612732 0.359271
O O9 0.072827 0.767167 0.125382
O O10 0.250000 0.500000 0.383059
O O11 0.750000 0.142406 0.898211
O O12 0.892724 0.000000 0.893659
#
# Coordination Sequence:
#
# PCOD9406877 Si02
#       5
#     4   8   8   4   8
#     4  10  23  41  56  71  94 127 171 224 274 312
#     4   9  18  32  51  79 114 145 169 196 236 292
#     4  11  18  31  57  81  97 129 176 215 251 298
#     4  10  23  41  56  71  94 127 171 224 274 312
#     4   9  18  32  51  79 114 145 169 196 236 292
#
# _framework density 25.646747000000001
#
# number of rings (size 3 to 8) (size 9 to 14) (size 15 to 20)
#    0.000    2.250    0.000    6.000    0.000    2.000 
#    0.000   10.000    0.000   30.000    0.000   28.000 
#    0.000    0.000    0.000    0.000    0.000    0.000 
#
# Total GULP energy -179276.602760 kJ/mol
# GULP energy per Si atom -5602.393836 kJ/mol
# Density = 2.558837 g / cm^3
# Si number density = 25.646747 Si / 1000 Ang^3
#
#
#
# Elastic Constant Matrix: (Units=GPa)
#
#
# Indices 1 2 3 4 5 6 
#
# 1 231.8795 144.8503 32.0476 0.0000 0.0000 0.0000
# 2 144.8503 227.1021 20.4285 0.0000 0.0000 0.0000
# 3 32.0476 20.4285 38.3836 0.0000 0.0000 0.0000
# 4 0.0000 0.0000 0.0000 -163.2819 0.0000 0.0000
# 5 0.0000 0.0000 0.0000 0.0000 34.1113 0.0000
# 6 0.0000 0.0000 0.0000 0.0000 0.0000 176.8692
#
#
#
# Elastic Compliance Matrix: (Units=1/GPa)
#
#
# Indices 1 2 3 4 5 6 
#
# 1 0.007716 -0.004560 -0.004015 0.000000 0.000000 0.000000
# 2 -0.004560 0.007320 -0.000088 0.000000 0.000000 0.000000
# 3 -0.004015 -0.000088 0.029452 0.000000 0.000000 0.000000
# 4 0.000000 0.000000 0.000000 -0.006124 0.000000 0.000000
# 5 0.000000 0.000000 0.000000 0.000000 0.029316 0.000000
# 6 0.000000 0.000000 0.000000 0.000000 0.000000 0.005654
#
#
# Mechanical properties :
#
#
# Convention : Reuss Voigt Hill
#
# Bulk Modulus (GPa) = 36.81820 99.11311 67.96566
# Shear Modulus (GPa) = 50.14259 29.54234 39.84246
#
# Velocity S-wave (km/s) = 4.42648 3.39764 3.94573
# Velocity P-wave (km/s) = 6.36490 7.35672 6.87871
#
# Compressibility (1/GPa) = 0.02716048
#
# Stress axis : x y z
#
# Youngs Moduli (GPa) = 129.59460 136.61222 33.95320
#
# Poissons Ratio (x) = 0.62301 0.13634
# Poissons Ratio (y) = 0.59101 0.00299
# Poissons Ratio (z) = 0.52038 0.01205
#
# Static dielectric constant tensor:
#      x y z
#    x 1.992810 0.000000 0.000000 
#    y 0.000000 1.972660 0.000000 
#    z 0.000000 0.000000 2.080550 
# 
# From -- ./inp_files/7651.got.cif
#   From: 2010.05.17/outbox.cif.g08.bks.cpg/sg51_4_cif.got.tgz:7651.got - 2010.06.03 11:52:47.
