data_PCOD9406883
_publ_section_title
;
Structure prediction by ZEFSAII (Michael W. Deem and Ramdas Pophale) SiO2 
 PCOD9406883
Probable space group: P M M A
;
_chemical_formula_sum "Si O2"
_cell_formula_units_Z 26
_cell_length_a 28.142356
_cell_length_b 7.246296
_cell_length_c 5.172155
_cell_angle_alpha 90.000000
_cell_angle_beta 90.000000
_cell_angle_gamma 90.000000
_cell_volume 1054.746406
_symmetry_space_group_name_H-M "P M M A"
_symmetry_group_IT_number 51
_symmetry_cell_setting 'orthorhombic'
loop_
_space_group_symop_operation_xyz
x,y,z
1/2-x,-y,z
1/2+x,-y,-z
-x,y,-z
-x,-y,-z
1/2+x,y,-z
1/2-x,y,z
x,-y,z
loop_
_atom_site_type_symbol
_atom_site_label
_atom_site_fract_x
_atom_site_fract_y
_atom_site_fract_z
Si Si1 0.858790 0.223867 0.361541
Si Si2 0.303694 0.224485 0.135055
Si Si3 0.951505 0.211540 0.665203
Si Si4 0.500000 0.500000 0.000000
O O1 0.841039 0.286152 0.082342
O O2 0.909415 0.279035 0.479242
O O3 0.860606 0.000000 0.349679
O O4 0.820515 0.276753 0.579621
O O5 0.250000 0.283362 0.078370
O O6 0.303736 0.000000 0.129639
O O7 0.962216 0.339996 0.905099
O O8 0.000000 0.219396 0.500000
O O9 0.941736 0.000000 0.743805
#
# Coordination Sequence:
#
# PCOD9406883 Si02
#       4
#     8   8   8   2
#     4   9  18  31  52  82 118 160 203 254 316 375
#     4   9  16  28  49  81 119 155 199 256 314 375
#     4  10  23  41  62  90 129 170 213 266 322 383
#     4  12  24  40  64  92 122 164 220 264 318 378
#
# _framework density 24.650473000000002
#
# number of rings (size 3 to 8) (size 9 to 14) (size 15 to 20)
#    0.000    2.462    0.000    1.846    4.308    3.692 
#    0.000    0.000    0.000    0.000    0.000    6.462 
#    0.000    0.000    0.000    0.000    0.000    0.308 
#
# Total GULP energy -144990.097871 kJ/mol
# GULP energy per Si atom -5576.542226 kJ/mol
# Density = 2.459437 g / cm^3
# Si number density = 24.650473 Si / 1000 Ang^3
#
#
#
# Elastic Constant Matrix: (Units=GPa)
#
#
# Indices 1 2 3 4 5 6 
#
# 1 73.3787 3.0687 -16.3582 0.0000 0.0000 0.0000
# 2 3.0687 121.7826 0.8777 0.0000 0.0000 0.0000
# 3 -16.3582 0.8777 64.5472 0.0000 0.0000 0.0000
# 4 0.0000 0.0000 0.0000 37.7843 0.0000 0.0000
# 5 0.0000 0.0000 0.0000 0.0000 34.8352 0.0000
# 6 0.0000 0.0000 0.0000 0.0000 0.0000 318.1404
#
#
#
# Elastic Compliance Matrix: (Units=1/GPa)
#
#
# Indices 1 2 3 4 5 6 
#
# 1 0.014463 -0.000391 0.003671 0.000000 0.000000 0.000000
# 2 -0.000391 0.008223 -0.000211 0.000000 0.000000 0.000000
# 3 0.003671 -0.000211 0.016426 0.000000 0.000000 0.000000
# 4 0.000000 0.000000 0.000000 0.026466 0.000000 0.000000
# 5 0.000000 0.000000 0.000000 0.000000 0.028707 0.000000
# 6 0.000000 0.000000 0.000000 0.000000 0.000000 0.003143
#
#
# Mechanical properties :
#
#
# Convention : Reuss Voigt Hill
#
# Bulk Modulus (GPa) = 22.10016 26.09831 24.09924
# Shear Modulus (GPa) = 47.00484 96.29333 71.64909
#
# Velocity S-wave (km/s) = 4.37149 6.25686 5.39714
# Velocity P-wave (km/s) = 5.87067 7.92515 6.97398
#
# Compressibility (1/GPa) = 0.04524854
#
# Stress axis : x y z
#
# Youngs Moduli (GPa) = 69.14410 121.61422 60.88045
#
# Poissons Ratio (x) = 0.04754 -0.22347
# Poissons Ratio (y) = 0.02703 0.01284
# Poissons Ratio (z) = -0.25380 0.02564
#
# Static dielectric constant tensor:
#      x y z
#    x 1.925690 0.000000 0.000000 
#    y 0.000000 1.984030 0.000000 
#    z 0.000000 0.000000 1.934520 
# 
# From -- ./inp_files/3283.got.cif
#   From: 2010.05.17/outbox.cif.g08.bks.cpg/sg51_2_cif.got.tgz:3283.got - 2010.06.03 11:52:47.
