data_PCOD9406863
_publ_section_title
;
Structure prediction by ZEFSAII (Michael W. Deem and Ramdas Pophale) SiO2 
 PCOD9406863
Probable space group: P M M A
;
_chemical_formula_sum "Si O2"
_cell_formula_units_Z 40
_cell_length_a 9.051976
_cell_length_b 17.076208
_cell_length_c 14.222503
_cell_angle_alpha 90.000000
_cell_angle_beta 90.000000
_cell_angle_gamma 90.000000
_cell_volume 2198.421001
_symmetry_space_group_name_H-M "P M M A"
_symmetry_group_IT_number 51
_symmetry_cell_setting 'orthorhombic'
loop_
_space_group_symop_operation_xyz
x,y,z
1/2-x,-y,z
1/2+x,-y,-z
-x,y,-z
-x,-y,-z
1/2+x,y,-z
1/2-x,y,z
x,-y,z
loop_
_atom_site_type_symbol
_atom_site_label
_atom_site_fract_x
_atom_site_fract_y
_atom_site_fract_z
Si Si1 0.572927 0.860616 0.100015
Si Si2 0.426782 0.409406 0.098829
Si Si3 0.581976 0.181528 0.399537
Si Si4 0.913927 0.000000 0.799580
Si Si5 0.970805 0.000000 0.389978
Si Si6 0.427677 0.733072 0.224028
O O1 0.750000 0.860159 0.096623
O O2 0.505433 0.781555 0.140970
O O3 0.509046 0.926739 0.168013
O O4 0.500000 0.876791 0.000000
O O5 0.250000 0.405995 0.085044
O O6 0.470444 0.500000 0.113808
O O7 0.458067 0.355803 0.190160
O O8 0.500000 0.383001 0.000000
O O9 0.500000 0.187741 0.500000
O O10 0.750000 0.210401 0.406449
O O11 0.496242 0.231293 0.319763
O O12 0.592448 0.088102 0.375405
O O13 0.750000 0.000000 0.841827
O O14 0.902330 0.000000 0.687488
O O15 0.000000 0.000000 0.500000
O O16 0.250000 0.745437 0.225272
#
# Coordination Sequence:
#
# PCOD9406863 Si02
#       6
#     8   8   8   4   4   8
#     4  12  25  40  57  79 112 151 194 238 286 342
#     4   9  19  36  59  88 120 153 189 233 284 343
#     4  11  23  39  60  85 117 152 196 243 295 347
#     4  12  24  40  60  81 110 150 194 240 289 342
#     4  10  23  38  60  85 115 148 193 241 293 342
#     4  11  22  37  59  86 117 151 191 236 289 346
#
# _framework density 18.194877000000002
#
# number of rings (size 3 to 8) (size 9 to 14) (size 15 to 20)
#    0.000    1.200    2.000    4.500    0.000    7.200 
#    0.000    0.000    0.000    0.600    0.000    0.000 
#    0.000    0.000    0.000    0.000    0.000    0.000 
#
# Total GULP energy -222881.020876 kJ/mol
# GULP energy per Si atom -5572.025522 kJ/mol
# Density = 1.815347 g / cm^3
# Si number density = 18.194877 Si / 1000 Ang^3
#
#
#
# Elastic Constant Matrix: (Units=GPa)
#
#
# Indices 1 2 3 4 5 6 
#
# 1 140.7570 42.5740 58.3030 0.0000 0.0000 0.0000
# 2 42.5740 96.8536 49.4736 0.0000 0.0000 0.0000
# 3 58.3030 49.4736 133.3823 0.0000 0.0000 0.0000
# 4 0.0000 0.0000 0.0000 31.4413 0.0000 0.0000
# 5 0.0000 0.0000 0.0000 0.0000 28.1488 0.0000
# 6 0.0000 0.0000 0.0000 0.0000 0.0000-6204.2569
#
#
#
# Elastic Compliance Matrix: (Units=1/GPa)
#
#
# Indices 1 2 3 4 5 6 
#
# 1 0.009117 -0.002433 -0.003083 0.000000 0.000000 0.000000
# 2 -0.002433 0.013388 -0.003902 0.000000 0.000000 0.000000
# 3 -0.003083 -0.003902 0.010292 0.000000 0.000000 0.000000
# 4 0.000000 0.000000 0.000000 0.031805 0.000000 0.000000
# 5 0.000000 0.000000 0.000000 0.000000 0.035525 0.000000
# 6 0.000000 0.000000 0.000000 0.000000 0.000000 -0.000161
#
#
# Mechanical properties :
#
#
# Convention : Reuss Voigt Hill
#
# Bulk Modulus (GPa) = 71.62782 74.63270 73.13026
# Shear Modulus (GPa) = 40.50014 -1214.22389 -586.86187
#
# Velocity S-wave (km/s) = 4.72307 -25.86102 -17.97895
# Velocity P-wave (km/s) = 8.31840 29.16532 19.76639
#
# Compressibility (1/GPa) = 0.01396106
#
# Stress axis : x y z
#
# Youngs Moduli (GPa) = 109.68195 74.69599 97.16111
#
# Poissons Ratio (x) = 0.18173 0.29953
# Poissons Ratio (y) = 0.26685 0.37914
# Poissons Ratio (z) = 0.33813 0.29148
#
# Static dielectric constant tensor:
#      x y z
#    x 1.626610 0.000000 0.000000 
#    y 0.000000 3.503160 0.000000 
#    z 0.000000 0.000000 1.675710 
# 
# From -- ./inp_files/20537.got.cif
#   From: 2010.05.17/outbox.cif.g08.bks.cpg/sg51_11_cif.got.tgz:20537.got - 2010.06.03 11:52:47.
