data_PCOD9406871
_publ_section_title
;
Structure prediction by ZEFSAII (Michael W. Deem and Ramdas Pophale) SiO2 
 PCOD9406871
Probable space group: P M M A
;
_chemical_formula_sum "Si O2"
_cell_formula_units_Z 32
_cell_length_a 13.771718
_cell_length_b 9.854918
_cell_length_c 11.851593
_cell_angle_alpha 90.000000
_cell_angle_beta 90.000000
_cell_angle_gamma 90.000000
_cell_volume 1608.488147
_symmetry_space_group_name_H-M "P M M A"
_symmetry_group_IT_number 51
_symmetry_cell_setting 'orthorhombic'
loop_
_space_group_symop_operation_xyz
x,y,z
1/2-x,-y,z
1/2+x,-y,-z
-x,y,-z
-x,-y,-z
1/2+x,y,-z
1/2-x,y,z
x,-y,z
loop_
_atom_site_type_symbol
_atom_site_label
_atom_site_fract_x
_atom_site_fract_y
_atom_site_fract_z
Si Si1 0.860916 0.246817 0.302666
Si Si2 0.887050 0.000000 0.475946
Si Si3 0.141738 0.000000 0.258572
Si Si4 0.369225 0.500000 0.170716
Si Si5 0.481430 0.780330 0.127046
Si Si6 0.507477 0.500000 0.368590
O O1 0.750000 0.288263 0.286442
O O2 0.929906 0.369173 0.338397
O O3 0.913050 0.208339 0.186165
O O4 0.862895 0.129756 0.398150
O O5 0.850672 0.000000 0.605154
O O6 0.000000 0.000000 0.500000
O O7 0.085128 0.871452 0.208774
O O8 0.250000 0.000000 0.212329
O O9 0.250000 0.500000 0.158696
O O10 0.425346 0.633857 0.122560
O O11 0.405472 0.500000 0.301705
O O12 0.500000 0.827088 0.000000
O O13 0.500000 0.500000 0.500000
#
# Coordination Sequence:
#
# PCOD9406871 Si02
#       6
#     8   4   4   4   8   4
#     4  11  23  40  64  93 126 167 209 255 316 374
#     4  12  22  43  64  92 129 168 206 260 316 375
#     4  12  25  41  66  95 127 166 210 259 316 375
#     4  10  23  42  66  94 126 167 209 255 314 370
#     4  11  24  44  65  93 128 165 212 263 309 367
#     4  10  23  40  60  94 132 162 204 259 310 373
#
# _framework density 19.894458
#
# number of rings (size 3 to 8) (size 9 to 14) (size 15 to 20)
#    0.000    1.000    2.500    3.750    3.500    3.000 
#    0.000    0.000    0.000    0.000    0.000    0.000 
#    0.000    0.000    0.000    0.000    0.000    0.000 
#
# Total GULP energy -178387.879872 kJ/mol
# GULP energy per Si atom -5574.621246 kJ/mol
# Density = 1.984918 g / cm^3
# Si number density = 19.894458 Si / 1000 Ang^3
#
#
#
# Elastic Constant Matrix: (Units=GPa)
#
#
# Indices 1 2 3 4 5 6 
#
# 1 115.8630 -13.5231 15.8518 0.0000 0.0000 0.0000
# 2 -13.5231 88.1341 13.4496 0.0000 0.0000 0.0000
# 3 15.8518 13.4496 152.3856 0.0000 0.0000 0.0000
# 4 0.0000 0.0000 0.0000 17.6815 0.0000 0.0000
# 5 0.0000 0.0000 0.0000 0.0000 -3.7291 0.0000
# 6 0.0000 0.0000 0.0000 0.0000 0.0000 8.5718
#
#
#
# Elastic Compliance Matrix: (Units=1/GPa)
#
#
# Indices 1 2 3 4 5 6 
#
# 1 0.008956 0.001537 -0.001067 0.000000 0.000000 0.000000
# 2 0.001537 0.011765 -0.001198 0.000000 0.000000 0.000000
# 3 -0.001067 -0.001198 0.006779 0.000000 0.000000 0.000000
# 4 0.000000 0.000000 0.000000 0.056556 0.000000 0.000000
# 5 0.000000 0.000000 0.000000 0.000000 -0.268161 0.000000
# 6 0.000000 0.000000 0.000000 0.000000 0.000000 0.116662
#
#
# Mechanical properties :
#
#
# Convention : Reuss Voigt Hill
#
# Bulk Modulus (GPa) = 38.39738 43.10438 40.75088
# Shear Modulus (GPa) = -87.25374 27.21179 -30.02097
#
# Velocity S-wave (km/s) = -6.62975 3.70240 -3.88881
# Velocity P-wave (km/s) = 6.26596 6.32381 0.60346
#
# Compressibility (1/GPa) = 0.02604344
#
# Stress axis : x y z
#
# Youngs Moduli (GPa) = 111.65298 84.99746 147.51239
#
# Poissons Ratio (x) = -0.13065 0.15745
# Poissons Ratio (y) = -0.17162 0.17676
# Poissons Ratio (z) = 0.11917 0.10185
#
# Static dielectric constant tensor:
#      x y z
#    x 1.687790 0.000000 0.000000 
#    y 0.000000 1.775800 0.000000 
#    z 0.000000 0.000000 1.987470 
# 
# From -- ./inp_files/15994.got.cif
#   From: 2010.05.17/outbox.cif.g08.bks.cpg/sg51_8_cif.got.tgz:15994.got - 2010.06.03 11:52:47.
