data_PCOD9406067
_publ_section_title
;
Structure prediction by ZEFSAII (Michael W. Deem and Ramdas Pophale) SiO2 
 PCOD9406067
Probable space group: P M M A
;
_chemical_formula_sum "Si O2"
_cell_formula_units_Z 40
_cell_length_a 8.964395
_cell_length_b 9.193420
_cell_length_c 26.344802
_cell_angle_alpha 90.000000
_cell_angle_beta 90.000000
_cell_angle_gamma 90.000000
_cell_volume 2171.165977
_symmetry_space_group_name_H-M "P M M A"
_symmetry_group_IT_number 51
_symmetry_cell_setting 'orthorhombic'
loop_
_space_group_symop_operation_xyz
x,y,z
1/2-x,-y,z
1/2+x,-y,-z
-x,y,-z
-x,-y,-z
1/2+x,y,-z
1/2-x,y,z
x,-y,z
loop_
_atom_site_type_symbol
_atom_site_label
_atom_site_fract_x
_atom_site_fract_y
_atom_site_fract_z
Si Si1 0.572742 0.173015 0.445886
Si Si2 0.571697 0.171680 0.252719
Si Si3 0.927956 0.672262 0.650361
Si Si4 0.429100 0.170011 0.053015
Si Si5 0.570449 0.671188 0.843620
O O1 0.500000 0.210667 0.500000
O O2 0.750000 0.198188 0.447404
O O3 0.498793 0.261473 0.400427
O O4 0.548289 0.000000 0.437441
O O5 0.750000 0.189042 0.255052
O O6 0.498046 0.248180 0.301173
O O7 0.508364 0.244545 0.201897
O O8 0.537419 0.000000 0.253010
O O9 0.750000 0.694234 0.649887
O O10 0.957370 0.500000 0.653410
O O11 0.250000 0.177864 0.048690
O O12 0.474332 0.262411 0.101998
O O13 0.469923 0.000000 0.060721
O O14 0.500000 0.219170 0.000000
O O15 0.750000 0.689070 0.838701
O O16 0.537286 0.500000 0.841185
#
# Coordination Sequence:
#
# PCOD9406067 Si02
#       5
#     8   8   8   8   8
#     4  10  21  38  61  88 117 151 192 235 279 329
#     4  11  24  40  59  84 112 144 185 231 279 333
#     4  11  24  40  59  85 116 150 188 230 279 334
#     4   9  18  33  53  77 107 144 185 228 273 323
#     4  10  21  37  57  82 112 146 185 228 276 332
#
# _framework density 18.423280999999999
#
# number of rings (size 3 to 8) (size 9 to 14) (size 15 to 20)
#    0.000    1.800    0.000    3.600    0.000   12.000 
#    0.000    2.000    0.000    0.000    0.000    0.000 
#    0.000    0.000    0.000    0.000    0.000    0.000 
#
# Total GULP energy -223577.644051 kJ/mol
# GULP energy per Si atom -5589.441101 kJ/mol
# Density = 1.838135 g / cm^3
# Si number density = 18.423281 Si / 1000 Ang^3
#
#
#
# Elastic Constant Matrix: (Units=GPa)
#
#
# Indices 1 2 3 4 5 6 
#
# 1 71.5989 91.5053 92.6400 0.0000 0.0000 0.0000
# 2 91.5053 135.5416 129.3231 0.0000 0.0000 0.0000
# 3 92.6400 129.3231 220.6338 0.0000 0.0000 0.0000
# 4 0.0000 0.0000 0.000027908.1750 0.0000 0.0000
# 5 0.0000 0.0000 0.0000 0.0000 42.2648 0.0000
# 6 0.0000 0.0000 0.0000 0.0000 0.0000 27.9396
#
#
#
# Elastic Compliance Matrix: (Units=1/GPa)
#
#
# Indices 1 2 3 4 5 6 
#
# 1 0.104926 -0.065346 -0.005754 0.000000 0.000000 0.000000
# 2 -0.065346 0.057436 -0.006228 0.000000 0.000000 0.000000
# 3 -0.005754 -0.006228 0.010599 0.000000 0.000000 0.000000
# 4 0.000000 0.000000 0.000000 0.000036 0.000000 0.000000
# 5 0.000000 0.000000 0.000000 0.000000 0.023660 0.000000
# 6 0.000000 0.000000 0.000000 0.000000 0.000000 0.035791
#
#
# Mechanical properties :
#
#
# Convention : Reuss Voigt Hill
#
# Bulk Modulus (GPa) = 54.63282 117.19013 85.91147
# Shear Modulus (GPa) = 12.71595 5603.29627 2808.00611
#
# Velocity S-wave (km/s) = 2.63004 55.20891 39.08287
# Velocity P-wave (km/s) = 6.24030 64.24780 45.64385
#
# Compressibility (1/GPa) = 0.01830402
#
# Stress axis : x y z
#
# Youngs Moduli (GPa) = 9.53052 17.41070 94.34870
#
# Poissons Ratio (x) = 1.13773 0.54290
# Poissons Ratio (y) = 0.62278 0.58761
# Poissons Ratio (z) = 0.05484 0.10843
#
# Static dielectric constant tensor:
#      x y z
#    x 1.615940 0.000000 0.000000 
#    y 0.000000 1.616220 0.000000 
#    z 0.000000 0.000000 1.594030 
# 
# From -- ./inp_files/34284.got.cif
#   From: 2010.05.17/outbox.cif.g08.bks.cpg/sg51_18_cif.got.tgz:34284.got - 2010.06.03 11:52:47.
