data_PCOD9406720
_publ_section_title
;
Structure prediction by ZEFSAII (Michael W. Deem and Ramdas Pophale) SiO2 
 PCOD9406720
Probable space group: P M M A
;
_chemical_formula_sum "Si O2"
_cell_formula_units_Z 32
_cell_length_a 16.142062
_cell_length_b 7.613227
_cell_length_c 12.276869
_cell_angle_alpha 90.000000
_cell_angle_beta 90.000000
_cell_angle_gamma 90.000000
_cell_volume 1508.743500
_symmetry_space_group_name_H-M "P M M A"
_symmetry_group_IT_number 51
_symmetry_cell_setting 'orthorhombic'
loop_
_space_group_symop_operation_xyz
x,y,z
1/2-x,-y,z
1/2+x,-y,-z
-x,y,-z
-x,-y,-z
1/2+x,y,-z
1/2-x,y,z
x,-y,z
loop_
_atom_site_type_symbol
_atom_site_label
_atom_site_fract_x
_atom_site_fract_y
_atom_site_fract_z
Si Si1 0.407530 0.787003 0.531473
Si Si2 0.585706 0.500000 0.067554
Si Si3 0.849208 0.210379 0.228400
Si Si4 0.653596 0.500000 0.839589
Si Si5 0.347074 0.805785 0.302107
O O1 0.500000 0.730618 0.500000
O O2 0.375883 0.731838 0.649477
O O3 0.354489 0.738157 0.425571
O O4 0.405856 0.000000 0.536223
O O5 0.750000 0.500000 0.806280
O O6 0.602218 0.670390 0.141938
O O7 0.649901 0.500000 0.967924
O O8 0.750000 0.236871 0.216469
O O9 0.864848 0.000000 0.216318
O O10 0.614946 0.671469 0.783646
O O11 0.500000 0.500000 0.000000
O O12 0.250000 0.825049 0.277925
O O13 0.386122 0.000000 0.296083
#
# Coordination Sequence:
#
# PCOD9406720 Si02
#       5
#     8   4   8   4   8
#     4   9  18  33  59  93 127 156 192 248 310 376
#     4  12  28  43  61  90 125 166 216 275 319 365
#     4  10  22  43  69  93 124 170 217 262 318 386
#     4  10  22  39  57  81 114 154 204 250 293 363
#     4   9  18  34  58  86 117 152 188 237 304 370
#
# _framework density 21.209702
#
# number of rings (size 3 to 8) (size 9 to 14) (size 15 to 20)
#    0.000    2.250    0.000    1.875    3.500    5.500 
#    0.000    6.250    0.000    0.000    0.000    0.000 
#    0.000    0.000    0.000    0.000    0.000    0.000 
#
# Total GULP energy -178525.777465 kJ/mol
# GULP energy per Si atom -5578.930546 kJ/mol
# Density = 2.116143 g / cm^3
# Si number density = 21.209702 Si / 1000 Ang^3
#
#
#
# Elastic Constant Matrix: (Units=GPa)
#
#
# Indices 1 2 3 4 5 6 
#
# 1 57.7171 20.9232 9.2968 0.0000 0.0000 0.0000
# 2 20.9232 90.2412 65.0114 0.0000 0.0000 0.0000
# 3 9.2968 65.0114 141.7657 0.0000 0.0000 0.0000
# 4 0.0000 0.0000 0.0000 6.1701 0.0000 0.0000
# 5 0.0000 0.0000 0.0000 0.0000 37.5298 0.0000
# 6 0.0000 0.0000 0.0000 0.0000 0.0000 10.7416
#
#
#
# Elastic Compliance Matrix: (Units=1/GPa)
#
#
# Indices 1 2 3 4 5 6 
#
# 1 0.019042 -0.005250 0.001159 0.000000 0.000000 0.000000
# 2 -0.005250 0.017996 -0.007908 0.000000 0.000000 0.000000
# 3 0.001159 -0.007908 0.010605 0.000000 0.000000 0.000000
# 4 0.000000 0.000000 0.000000 0.162073 0.000000 0.000000
# 5 0.000000 0.000000 0.000000 0.000000 0.026646 0.000000
# 6 0.000000 0.000000 0.000000 0.000000 0.000000 0.093096
#
#
# Mechanical properties :
#
#
# Convention : Reuss Voigt Hill
#
# Bulk Modulus (GPa) = 42.29429 53.35408 47.82419
# Shear Modulus (GPa) = 13.83749 23.85448 18.84598
#
# Velocity S-wave (km/s) = 2.55701 3.35729 2.98410
# Velocity P-wave (km/s) = 5.35743 6.34339 5.87114
#
# Compressibility (1/GPa) = 0.02364385
#
# Stress axis : x y z
#
# Youngs Moduli (GPa) = 52.51429 55.56793 94.29918
#
# Poissons Ratio (x) = 0.29173 -0.10927
# Poissons Ratio (y) = 0.27570 0.74575
# Poissons Ratio (z) = -0.06085 0.43945
#
# Static dielectric constant tensor:
#      x y z
#    x 2.288500 0.000000 0.000000 
#    y 0.000000 1.808260 0.000000 
#    z 0.000000 0.000000 1.719560 
# 
# From -- ./inp_files/15961.got.cif
#   From: 2010.05.17/outbox.cif.g08.bks.cpg/sg51_8_cif.got.tgz:15961.got - 2010.06.03 11:52:47.
