data_PCOD9406036
_publ_section_title
;
Structure prediction by ZEFSAII (Michael W. Deem and Ramdas Pophale) SiO2 
 PCOD9406036
Probable space group: P M M A
;
_chemical_formula_sum "Si O2"
_cell_formula_units_Z 64
_cell_length_a 16.444246
_cell_length_b 9.172858
_cell_length_c 22.758082
_cell_angle_alpha 90.000000
_cell_angle_beta 90.000000
_cell_angle_gamma 90.000000
_cell_volume 3432.845781
_symmetry_space_group_name_H-M "P M M A"
_symmetry_group_IT_number 51
_symmetry_cell_setting 'orthorhombic'
loop_
_space_group_symop_operation_xyz
x,y,z
1/2-x,-y,z
1/2+x,-y,-z
-x,y,-z
-x,-y,-z
1/2+x,y,-z
1/2-x,y,z
x,-y,z
loop_
_atom_site_type_symbol
_atom_site_label
_atom_site_fract_x
_atom_site_fract_y
_atom_site_fract_z
Si Si1 0.845516 0.324403 0.645410
Si Si2 0.655445 0.324217 0.354317
Si Si3 0.154190 0.169531 0.767503
Si Si4 0.112733 0.670700 0.117828
Si Si5 0.346172 0.162305 0.236296
Si Si6 0.054579 0.172663 0.885993
Si Si7 0.342232 0.835271 0.002464
Si Si8 0.999704 0.677536 0.432410
O O1 0.750000 0.284301 0.632410
O O2 0.846438 0.500000 0.650115
O O3 0.872620 0.255130 0.707451
O O4 0.915198 0.280347 0.598947
O O5 0.750000 0.278192 0.367833
O O6 0.655761 0.500000 0.354233
O O7 0.634689 0.266506 0.289145
O O8 0.582852 0.276325 0.398183
O O9 0.250000 0.186880 0.779585
O O10 0.106312 0.200511 0.827275
O O11 0.139539 0.000000 0.752158
O O12 0.126077 0.500000 0.124636
O O13 0.142668 0.755802 0.175168
O O14 0.150461 0.729168 0.057412
O O15 0.019337 0.716987 0.113628
O O16 0.250000 0.147296 0.244240
O O17 0.383365 0.000000 0.234739
O O18 0.030674 0.000000 0.884768
O O19 0.102283 0.195756 0.946686
O O20 0.250000 0.834922 0.980903
O O21 0.361680 0.000000 0.023680
O O22 0.998440 0.500000 0.432089
O O23 0.000000 0.725953 0.500000
#
# Coordination Sequence:
#
# PCOD9406036 Si02
#       8
#     8   8   8   8   8   8   8   8
#     4   9  18  33  54  81 112 145 184 233 283 329
#     4   9  18  32  51  77 110 145 182 226 275 326
#     4   9  18  34  56  81 107 137 177 224 273 324
#     4  12  25  37  53  80 113 145 179 224 276 329
#     4  10  21  38  59  81 106 140 183 229 279 334
#     4  10  21  37  57  81 108 141 181 224 271 327
#     4  10  21  39  61  80 103 140 185 230 274 325
#     4   9  18  32  52  80 112 146 186 228 271 327
#
# _framework density 18.643424
#
# number of rings (size 3 to 8) (size 9 to 14) (size 15 to 20)
#    0.000    2.250    0.000    2.625    1.750    7.000 
#    0.000    2.500    0.000    3.750    0.000    3.500 
#    0.000    0.000    0.000    0.000    0.000    0.000 
#
# Total GULP energy -356860.861857 kJ/mol
# GULP energy per Si atom -5575.950967 kJ/mol
# Density = 1.860099 g / cm^3
# Si number density = 18.643424 Si / 1000 Ang^3
#
#
#
# Elastic Constant Matrix: (Units=GPa)
#
#
# Indices 1 2 3 4 5 6 
#
# 1 65.0946 20.1428 40.2880 0.0000 0.0000 0.0000
# 2 20.1428 37.4675 29.4686 0.0000 0.0000 0.0000
# 3 40.2880 29.4686 98.2585 0.0000 0.0000 0.0000
# 4 0.0000 0.0000 0.0000 45.3705 0.0000 0.0000
# 5 0.0000 0.0000 0.0000 0.0000 25.2127 0.0000
# 6 0.0000 0.0000 0.0000 0.0000 0.0000 13.6499
#
#
#
# Elastic Compliance Matrix: (Units=1/GPa)
#
#
# Indices 1 2 3 4 5 6 
#
# 1 0.021595 -0.006080 -0.007031 0.000000 0.000000 0.000000
# 2 -0.006080 0.036641 -0.008496 0.000000 0.000000 0.000000
# 3 -0.007031 -0.008496 0.015608 0.000000 0.000000 0.000000
# 4 0.000000 0.000000 0.000000 0.022041 0.000000 0.000000
# 5 0.000000 0.000000 0.000000 0.000000 0.039662 0.000000
# 6 0.000000 0.000000 0.000000 0.000000 0.000000 0.073261
#
#
# Mechanical properties :
#
#
# Convention : Reuss Voigt Hill
#
# Bulk Modulus (GPa) = 32.64750 42.29105 37.46927
# Shear Modulus (GPa) = 19.06712 24.24137 21.65424
#
# Velocity S-wave (km/s) = 3.20148 3.60983 3.41177
# Velocity P-wave (km/s) = 5.58708 6.33308 5.97174
#
# Compressibility (1/GPa) = 0.03063022
#
# Stress axis : x y z
#
# Youngs Moduli (GPa) = 46.30659 27.29216 64.06896
#
# Poissons Ratio (x) = 0.16593 0.45048
# Poissons Ratio (y) = 0.28153 0.54433
# Poissons Ratio (z) = 0.32559 0.23188
#
# Static dielectric constant tensor:
#      x y z
#    x 1.684970 0.000000 0.000000 
#    y 0.000000 1.644120 0.000000 
#    z 0.000000 0.000000 1.638200 
# 
# From -- ./inp_files/35753.got.cif
#   From: 2010.05.17/outbox.cif.g08.bks.cpg/sg51_18_cif.got.tgz:35753.got - 2010.06.03 11:52:47.
