data_PCOD9406678
_publ_section_title
;
Structure prediction by ZEFSAII (Michael W. Deem and Ramdas Pophale) SiO2 
 PCOD9406678
Probable space group: P M M A
;
_chemical_formula_sum "Si O2"
_cell_formula_units_Z 44
_cell_length_a 7.413575
_cell_length_b 8.852095
_cell_length_c 30.596371
_cell_angle_alpha 90.000000
_cell_angle_beta 90.000000
_cell_angle_gamma 90.000000
_cell_volume 2007.907352
_symmetry_space_group_name_H-M "P M M A"
_symmetry_group_IT_number 51
_symmetry_cell_setting 'orthorhombic'
loop_
_space_group_symop_operation_xyz
x,y,z
1/2-x,-y,z
1/2+x,-y,-z
-x,y,-z
-x,-y,-z
1/2+x,y,-z
1/2-x,y,z
x,-y,z
loop_
_atom_site_type_symbol
_atom_site_label
_atom_site_fract_x
_atom_site_fract_y
_atom_site_fract_z
Si Si1 0.965654 0.328927 0.547352
Si Si2 0.965313 0.500000 0.051445
Si Si3 0.461020 0.176093 0.186639
Si Si4 0.456068 0.173848 0.913536
Si Si5 0.530546 0.674270 0.725321
Si Si6 0.470354 0.826898 0.364149
O O1 0.750000 0.336144 0.551459
O O2 0.037146 0.500000 0.545564
O O3 0.033154 0.251603 0.591339
O O4 0.000000 0.255479 0.500000
O O5 0.750000 0.500000 0.061220
O O6 0.033841 0.665468 0.068768
O O7 0.000000 0.500000 0.000000
O O8 0.250000 0.216379 0.180848
O O9 0.545086 0.193023 0.138963
O O10 0.535007 0.265364 0.228039
O O11 0.471292 0.000000 0.198501
O O12 0.250000 0.167573 0.929936
O O13 0.531176 0.000000 0.921616
O O14 0.750000 0.691025 0.726569
O O15 0.487471 0.500000 0.721044
O O16 0.468185 0.756736 0.681563
O O17 0.250000 0.817569 0.363916
O O18 0.521319 0.000000 0.365526
#
# Coordination Sequence:
#
# PCOD9406678 Si02
#       6
#     8   4   8   8   8   8
#     4   9  17  29  45  64  85 111 144 183 228 278
#     4  10  22  38  56  80 106 136 174 214 253 296
#     4   9  17  29  47  73 101 128 162 203 244 286
#     4   9  19  36  55  75 104 140 172 205 249 300
#     4   9  16  25  40  65  95 124 153 191 238 283
#     4   9  16  26  41  61  87 118 150 186 229 278
#
# _framework density 21.913360999999998
#
# number of rings (size 3 to 8) (size 9 to 14) (size 15 to 20)
#    0.000    2.909    0.000    1.091    1.273    5.818 
#    0.000    0.000    0.000    1.091    0.000    0.000 
#    0.000    0.000    0.000    0.000    0.000    0.000 
#
# Total GULP energy -245242.891870 kJ/mol
# GULP energy per Si atom -5573.702088 kJ/mol
# Density = 2.186349 g / cm^3
# Si number density = 21.913361 Si / 1000 Ang^3
#
#
#
# Elastic Constant Matrix: (Units=GPa)
#
#
# Indices 1 2 3 4 5 6 
#
# 1 66.9304 15.1554 -3.9726 0.0000 0.0000 0.0000
# 2 15.1554 136.0028 95.6847 0.0000 0.0000 0.0000
# 3 -3.9726 95.6847 128.2169 0.0000 0.0000 0.0000
# 4 0.0000 0.0000 0.0000 61.6604 0.0000 0.0000
# 5 0.0000 0.0000 0.0000 0.0000 10.6087 0.0000
# 6 0.0000 0.0000 0.0000 0.0000 0.0000 -13.0439
#
#
#
# Elastic Compliance Matrix: (Units=1/GPa)
#
#
# Indices 1 2 3 4 5 6 
#
# 1 0.016201 -0.004545 0.003893 0.000000 0.000000 0.000000
# 2 -0.004545 0.016756 -0.012645 0.000000 0.000000 0.000000
# 3 0.003893 -0.012645 0.017357 0.000000 0.000000 0.000000
# 4 0.000000 0.000000 0.000000 0.016218 0.000000 0.000000
# 5 0.000000 0.000000 0.000000 0.000000 0.094262 0.000000
# 6 0.000000 0.000000 0.000000 0.000000 0.000000 -0.076664
#
#
# Mechanical properties :
#
#
# Convention : Reuss Voigt Hill
#
# Bulk Modulus (GPa) = 42.15697 60.54280 51.34988
# Shear Modulus (GPa) = 42.14834 26.79721 34.47278
#
# Velocity S-wave (km/s) = 4.39043 3.50075 3.97059
# Velocity P-wave (km/s) = 6.70678 6.63540 6.67119
#
# Compressibility (1/GPa) = 0.02372087
#
# Stress axis : x y z
#
# Youngs Moduli (GPa) = 61.72437 59.68129 57.61493
#
# Poissons Ratio (x) = 0.27123 -0.22432
# Poissons Ratio (y) = 0.28051 0.72855
# Poissons Ratio (z) = -0.24032 0.75468
#
# Static dielectric constant tensor:
#      x y z
#    x 1.936290 0.000000 0.000000 
#    y 0.000000 1.792890 0.000000 
#    z 0.000000 0.000000 1.791630 
# 
# From -- ./inp_files/36767.got.cif
#   From: 2010.05.17/outbox.cif.g08.bks.cpg/sg51_19_cif.got.tgz:36767.got - 2010.06.03 11:52:47.
