data_PCOD9406080
_publ_section_title
;
Structure prediction by ZEFSAII (Michael W. Deem and Ramdas Pophale) SiO2 
 PCOD9406080
Probable space group: P M M A
;
_chemical_formula_sum "Si O2"
_cell_formula_units_Z 64
_cell_length_a 8.715916
_cell_length_b 14.948910
_cell_length_c 25.714213
_cell_angle_alpha 90.000000
_cell_angle_beta 90.000000
_cell_angle_gamma 90.000000
_cell_volume 3350.393368
_symmetry_space_group_name_H-M "P M M A"
_symmetry_group_IT_number 51
_symmetry_cell_setting 'orthorhombic'
loop_
_space_group_symop_operation_xyz
x,y,z
1/2-x,-y,z
1/2+x,-y,-z
-x,y,-z
-x,-y,-z
1/2+x,y,-z
1/2-x,y,z
x,-y,z
loop_
_atom_site_type_symbol
_atom_site_label
_atom_site_fract_x
_atom_site_fract_y
_atom_site_fract_z
Si Si1 0.567571 0.210453 0.446156
Si Si2 0.067708 0.772175 0.750174
Si Si3 0.428285 0.600001 0.298180
Si Si4 0.070280 0.893829 0.056438
Si Si5 0.570605 0.400630 0.576469
Si Si6 0.566398 0.604544 0.943486
Si Si7 0.937626 0.896428 0.343068
Si Si8 0.566631 0.247994 0.132318
O O1 0.500000 0.173802 0.500000
O O2 0.750000 0.203630 0.447845
O O3 0.520616 0.314587 0.442263
O O4 0.512621 0.158377 0.394421
O O5 0.250000 0.786524 0.753755
O O6 0.008377 0.846483 0.709440
O O7 0.007766 0.767906 0.809007
O O8 0.032799 0.676639 0.724744
O O9 0.250000 0.615554 0.283768
O O10 0.471508 0.500000 0.280961
O O11 0.435431 0.601684 0.360728
O O12 0.250000 0.869469 0.057222
O O13 0.979480 0.837735 0.098659
O O14 0.057067 0.000000 0.065458
O O15 0.000000 0.874561 0.000000
O O16 0.750000 0.392335 0.561347
O O17 0.515502 0.500000 0.560686
O O18 0.750000 0.611426 0.945468
O O19 0.524807 0.500000 0.935431
O O20 0.503567 0.667072 0.897764
O O21 0.500000 0.631854 0.000000
O O22 0.750000 0.894266 0.342910
O O23 0.984218 0.000000 0.344987
O O24 0.750000 0.258870 0.133690
#
# Coordination Sequence:
#
# PCOD9406080 Si02
#       8
#     8   8   8   8   8   8   8   8
#     4  11  22  36  58  85 114 147 184 231 282 334
#     4  10  21  37  57  83 111 146 190 232 276 328
#     4   9  18  33  55  81 110 145 180 220 272 325
#     4  10  21  38  60  84 112 146 185 231 282 338
#     4   9  18  34  56  82 113 148 183 220 268 325
#     4  10  21  38  60  84 114 155 200 244 290 340
#     4   9  19  38  61  82 107 142 185 232 282 336
#     4  11  23  36  55  84 118 152 189 235 284 338
#
# _framework density 19.102235
#
# number of rings (size 3 to 8) (size 9 to 14) (size 15 to 20)
#    0.000    2.125    1.250    2.625    0.000    4.500 
#    0.000    5.000    0.000    3.000    0.000    0.000 
#    0.000    0.000    0.000    0.000    0.000    0.000 
#
# Total GULP energy -357249.929275 kJ/mol
# GULP energy per Si atom -5582.030145 kJ/mol
# Density = 1.905876 g / cm^3
# Si number density = 19.102235 Si / 1000 Ang^3
#
#
#
# Elastic Constant Matrix: (Units=GPa)
#
#
# Indices 1 2 3 4 5 6 
#
# 1 25.0793 17.9396 29.1658 0.0000 0.0000 0.0000
# 2 17.9396 99.4163 75.4734 0.0000 0.0000 0.0000
# 3 29.1658 75.4734 150.5899 0.0000 0.0000 0.0000
# 4 0.0000 0.0000 0.0000 -4.3744 0.0000 0.0000
# 5 0.0000 0.0000 0.0000 0.0000 25.1145 0.0000
# 6 0.0000 0.0000 0.0000 0.0000 0.0000 -104.3913
#
#
#
# Elastic Compliance Matrix: (Units=1/GPa)
#
#
# Indices 1 2 3 4 5 6 
#
# 1 0.051944 -0.002802 -0.008656 0.000000 0.000000 0.000000
# 2 -0.002802 0.016387 -0.007671 0.000000 0.000000 0.000000
# 3 -0.008656 -0.007671 0.012161 0.000000 0.000000 0.000000
# 4 0.000000 0.000000 0.000000 -0.228602 0.000000 0.000000
# 5 0.000000 0.000000 0.000000 0.000000 0.039818 0.000000
# 6 0.000000 0.000000 0.000000 0.000000 0.000000 -0.009579
#
#
# Mechanical properties :
#
#
# Convention : Reuss Voigt Hill
#
# Bulk Modulus (GPa) = 23.67638 57.80478 40.74058
# Shear Modulus (GPa) = -76.29562 -6.56314 -41.42938
#
# Velocity S-wave (km/s) = -6.32672 -1.85560 -4.66212
# Velocity P-wave (km/s) = 6.39909 5.07301 2.75798
#
# Compressibility (1/GPa) = 0.04223619
#
# Stress axis : x y z
#
# Youngs Moduli (GPa) = 19.25135 61.02217 82.22740
#
# Poissons Ratio (x) = 0.17098 0.71177
# Poissons Ratio (y) = 0.05394 0.63073
# Poissons Ratio (z) = 0.16664 0.46807
#
# Static dielectric constant tensor:
#      x y z
#    x 1.658880 0.000000 0.000000 
#    y 0.000000 1.653120 0.000000 
#    z 0.000000 0.000000 1.669600 
# 
# From -- ./inp_files/34942.got.cif
#   From: 2010.05.17/outbox.cif.g08.bks.cpg/sg51_18_cif.got.tgz:34942.got - 2010.06.03 11:52:47.
