data_PCOD9406928
_publ_section_title
;
Structure prediction by ZEFSAII (Michael W. Deem and Ramdas Pophale) SiO2 
 PCOD9406928
Probable space group: P M M A
;
_chemical_formula_sum "Si O2"
_cell_formula_units_Z 26
_cell_length_a 10.142534
_cell_length_b 16.783674
_cell_length_c 7.782143
_cell_angle_alpha 90.000000
_cell_angle_beta 90.000000
_cell_angle_gamma 90.000000
_cell_volume 1324.746298
_symmetry_space_group_name_H-M "P M M A"
_symmetry_group_IT_number 51
_symmetry_cell_setting 'orthorhombic'
loop_
_space_group_symop_operation_xyz
x,y,z
1/2-x,-y,z
1/2+x,-y,-z
-x,y,-z
-x,-y,-z
1/2+x,y,-z
1/2-x,y,z
x,-y,z
loop_
_atom_site_type_symbol
_atom_site_label
_atom_site_fract_x
_atom_site_fract_y
_atom_site_fract_z
Si Si1 0.595325 0.500000 0.336388
Si Si2 0.750000 0.782162 0.327250
Si Si3 0.250000 0.881985 0.002513
Si Si4 0.250000 0.252468 0.294068
Si Si5 0.500000 0.000000 0.000000
Si Si6 0.515981 0.670093 0.202035
O O1 0.750000 0.500000 0.382729
O O2 0.500000 0.500000 0.500000
O O3 0.562277 0.580106 0.232713
O O4 0.750000 0.855933 0.197835
O O5 0.750000 0.798114 0.530131
O O6 0.623672 0.729106 0.280351
O O7 0.250000 0.805771 0.129411
O O8 0.384071 0.931338 0.030058
O O9 0.377389 0.308794 0.288916
O O10 0.500000 0.684744 0.000000
#
# Coordination Sequence:
#
# PCOD9406928 Si02
#       6
#     4   4   4   4   2   8
#     4  12  27  44  64  96 140 183 236 289 343 398
#     4  12  23  44  70 101 134 178 228 283 333 402
#     4  11  22  46  68 101 140 172 222 267 344 402
#     4  12  25  42  74 101 134 178 228 283 337 402
#     4  10  24  42  74  98 136 186 204 270 338 422
#     4  12  24  44  66  97 134 183 235 283 342 396
#
# _framework density 19.626398999999999
#
# number of rings (size 3 to 8) (size 9 to 14) (size 15 to 20)
#    0.000    0.308    4.615    5.077    2.154    0.000 
#    0.000    4.615    0.000    0.000    0.000    0.000 
#    0.000    0.000    0.000    0.000    0.000    0.000 
#
# Total GULP energy -144886.662024 kJ/mol
# GULP energy per Si atom -5572.563924 kJ/mol
# Density = 1.958173 g / cm^3
# Si number density = 19.626399 Si / 1000 Ang^3
#
#
#
# Elastic Constant Matrix: (Units=GPa)
#
#
# Indices 1 2 3 4 5 6 
#
# 1 191.1053 31.5602 6.3489 0.0000 0.0000 0.0000
# 2 31.5602 66.8000 -12.4268 0.0000 0.0000 0.0000
# 3 6.3489 -12.4268 98.2489 0.0000 0.0000 0.0000
# 4 0.0000 0.0000 0.0000 -7.4145 0.0000 0.0000
# 5 0.0000 0.0000 0.0000 0.0000 42.0789 0.0000
# 6 0.0000 0.0000 0.0000 0.0000 0.0000 26.3572
#
#
#
# Elastic Compliance Matrix: (Units=1/GPa)
#
#
# Indices 1 2 3 4 5 6 
#
# 1 0.005726 -0.002841 -0.000729 0.000000 0.000000 0.000000
# 2 -0.002841 0.016740 0.002301 0.000000 0.000000 0.000000
# 3 -0.000729 0.002301 0.010516 0.000000 0.000000 0.000000
# 4 0.000000 0.000000 0.000000 -0.134872 0.000000 0.000000
# 5 0.000000 0.000000 0.000000 0.000000 0.023765 0.000000
# 6 0.000000 0.000000 0.000000 0.000000 0.000000 0.037940
#
#
# Mechanical properties :
#
#
# Convention : Reuss Voigt Hill
#
# Bulk Modulus (GPa) = 32.84718 45.23540 39.04129
# Shear Modulus (GPa) = -181.83942 34.24913 -73.79514
#
# Velocity S-wave (km/s) = -9.63595 4.18192 -6.13853
# Velocity P-wave (km/s) = 10.34551 6.81294 5.50515
#
# Compressibility (1/GPa) = 0.03044401
#
# Stress axis : x y z
#
# Youngs Moduli (GPa) = 174.63790 59.73579 95.08967
#
# Poissons Ratio (x) = 0.16971 0.06936
# Poissons Ratio (y) = 0.49615 -0.21880
# Poissons Ratio (z) = 0.12737 -0.13745
#
# Static dielectric constant tensor:
#      x y z
#    x 1.686040 0.000000 0.000000 
#    y 0.000000 1.648350 0.000000 
#    z 0.000000 0.000000 1.693810 
# 
# From -- ./inp_files/4747.got.cif
#   From: 2010.05.17/outbox.cif.g08.bks.cpg/sg51_3_cif.got.tgz:4747.got - 2010.06.03 11:52:47.
