data_PCOD9406163
_publ_section_title
;
Structure prediction by ZEFSAII (Michael W. Deem and Ramdas Pophale) SiO2 
 PCOD9406163
Probable space group: P M M A
;
_chemical_formula_sum "Si O2"
_cell_formula_units_Z 48
_cell_length_a 9.415870
_cell_length_b 30.609737
_cell_length_c 8.938806
_cell_angle_alpha 90.000000
_cell_angle_beta 90.000000
_cell_angle_gamma 90.000000
_cell_volume 2576.318569
_symmetry_space_group_name_H-M "P M M A"
_symmetry_group_IT_number 51
_symmetry_cell_setting 'orthorhombic'
loop_
_space_group_symop_operation_xyz
x,y,z
1/2-x,-y,z
1/2+x,-y,-z
-x,y,-z
-x,-y,-z
1/2+x,y,-z
1/2-x,y,z
x,-y,z
loop_
_atom_site_type_symbol
_atom_site_label
_atom_site_fract_x
_atom_site_fract_y
_atom_site_fract_z
Si Si1 0.250000 0.551011 0.176308
Si Si2 0.993990 0.394416 0.677865
Si Si3 0.420602 0.951527 0.337962
Si Si4 0.580938 0.130069 0.339910
Si Si5 0.750000 0.447276 0.181224
Si Si6 0.079413 0.771012 0.660987
Si Si7 0.077461 0.695482 0.158574
O O1 0.250000 0.500000 0.201414
O O2 0.376119 0.574098 0.258440
O O3 0.250000 0.557885 0.998151
O O4 0.125016 0.419709 0.747336
O O5 0.000000 0.392487 0.500000
O O6 0.963148 0.346321 0.741089
O O7 0.500000 0.953919 0.500000
O O8 0.250000 0.944458 0.353905
O O9 0.499068 0.910278 0.261858
O O10 0.439621 0.000000 0.269645
O O11 0.500000 0.133253 0.500000
O O12 0.750000 0.120928 0.356467
O O13 0.567998 0.179173 0.278070
O O14 0.750000 0.500000 0.211921
O O15 0.250000 0.761446 0.646713
O O16 0.000000 0.768922 0.500000
O O17 0.995750 0.737572 0.765995
O O18 0.250000 0.699024 0.146504
O O19 0.000000 0.689020 0.000000
#
# Coordination Sequence:
#
# PCOD9406163 Si02
#       7
#     4   8   8   8   4   8   8
#     4  11  23  45  67  93 131 169 211 251 302 365
#     4  12  26  42  66  97 128 163 208 256 308 364
#     4   9  15  21  32  54  88 133 183 232 285 347
#     4   9  16  26  42  66  97 138 184 233 291 349
#     4  11  25  43  69  97 129 173 209 251 304 365
#     4  10  21  37  59  86 118 154 197 249 303 364
#     4  12  26  44  66  90 119 157 201 250 312 378
#
# _framework density 18.631236000000001
#
# number of rings (size 3 to 8) (size 9 to 14) (size 15 to 20)
#    0.000    1.500    0.833    6.000    2.333    6.333 
#    0.000    0.000    0.000    0.000    0.000    0.000 
#    0.000    0.667    0.000    2.167    0.000    9.333 
#
# Total GULP energy -267334.609747 kJ/mol
# GULP energy per Si atom -5569.471036 kJ/mol
# Density = 1.858883 g / cm^3
# Si number density = 18.631236 Si / 1000 Ang^3
#
#
#
# Elastic Constant Matrix: (Units=GPa)
#
#
# Indices 1 2 3 4 5 6 
#
# 1 204.9351 98.1970 46.4040 0.0000 0.0000 0.0000
# 2 98.1970 181.3744 81.9156 0.0000 0.0000 0.0000
# 3 46.4040 81.9156 70.2081 0.0000 0.0000 0.0000
# 4 0.0000 0.0000 0.0000 748.0367 0.0000 0.0000
# 5 0.0000 0.0000 0.0000 0.0000 29.1002 0.0000
# 6 0.0000 0.0000 0.0000 0.0000 0.0000 39.4524
#
#
#
# Elastic Compliance Matrix: (Units=1/GPa)
#
#
# Indices 1 2 3 4 5 6 
#
# 1 0.006594 -0.003386 -0.000408 0.000000 0.000000 0.000000
# 2 -0.003386 0.013394 -0.013389 0.000000 0.000000 0.000000
# 3 -0.000408 -0.013389 0.030135 0.000000 0.000000 0.000000
# 4 0.000000 0.000000 0.000000 0.001337 0.000000 0.000000
# 5 0.000000 0.000000 0.000000 0.000000 0.034364 0.000000
# 6 0.000000 0.000000 0.000000 0.000000 0.000000 0.025347
#
#
# Mechanical properties :
#
#
# Convention : Reuss Voigt Hill
#
# Bulk Modulus (GPa) = 63.46494 101.06121 82.26307
# Shear Modulus (GPa) = 33.15882 178.65126 105.90504
#
# Velocity S-wave (km/s) = 4.22328 9.80287 7.54759
# Velocity P-wave (km/s) = 7.61046 13.50885 10.96376
#
# Compressibility (1/GPa) = 0.01575673
#
# Stress axis : x y z
#
# Youngs Moduli (GPa) = 151.64370 74.66180 33.18413
#
# Poissons Ratio (x) = 0.25280 0.01354
# Poissons Ratio (y) = 0.51347 0.44431
# Poissons Ratio (z) = 0.06186 0.99966
#
# Static dielectric constant tensor:
#      x y z
#    x 1.602930 0.000000 0.000000 
#    y 0.000000 1.674620 0.000000 
#    z 0.000000 0.000000 1.616320 
# 
# From -- ./inp_files/6302.got.cif
#   From: 2010.05.17/outbox.cif.g08.bks.cpg/sg51_4_cif.got.tgz:6302.got - 2010.06.03 11:52:47.
