data_PCOD9406096
_publ_section_title
;
Structure prediction by ZEFSAII (Michael W. Deem and Ramdas Pophale) SiO2 
 PCOD9406096
Probable space group: P M M A
;
_chemical_formula_sum "Si O2"
_cell_formula_units_Z 56
_cell_length_a 8.916412
_cell_length_b 14.124642
_cell_length_c 21.654746
_cell_angle_alpha 90.000000
_cell_angle_beta 90.000000
_cell_angle_gamma 90.000000
_cell_volume 2727.223125
_symmetry_space_group_name_H-M "P M M A"
_symmetry_group_IT_number 51
_symmetry_cell_setting 'orthorhombic'
loop_
_space_group_symop_operation_xyz
x,y,z
1/2-x,-y,z
1/2+x,-y,-z
-x,y,-z
-x,-y,-z
1/2+x,y,-z
1/2-x,y,z
x,-y,z
loop_
_atom_site_type_symbol
_atom_site_label
_atom_site_fract_x
_atom_site_fract_y
_atom_site_fract_z
Si Si1 0.932587 0.607124 0.120494
Si Si2 0.571220 0.202686 0.062841
Si Si3 0.426875 0.211304 0.562682
Si Si4 0.924660 0.114252 0.817549
Si Si5 0.572630 0.113757 0.680447
Si Si6 0.078740 0.385118 0.741908
Si Si7 0.926673 0.388633 0.614358
O O1 0.750000 0.604244 0.122090
O O2 0.985298 0.500000 0.108299
O O3 0.977768 0.687809 0.073008
O O4 0.977285 0.639632 0.189675
O O5 0.750000 0.198818 0.058440
O O6 0.517792 0.150345 0.124550
O O7 0.500000 0.164559 0.000000
O O8 0.500000 0.172843 0.500000
O O9 0.250000 0.205003 0.558585
O O10 0.486270 0.158680 0.623525
O O11 0.479116 0.319862 0.571288
O O12 0.750000 0.142981 0.824165
O O13 0.978647 0.144992 0.749141
O O14 0.927624 0.000000 0.817322
O O15 0.750000 0.136071 0.675408
O O16 0.558218 0.000000 0.677748
O O17 0.250000 0.350332 0.731982
O O18 0.087531 0.500000 0.743685
O O19 0.973281 0.362362 0.684586
O O20 0.750000 0.373531 0.605284
O O21 0.959576 0.500000 0.605441
#
# Coordination Sequence:
#
# PCOD9406096 Si02
#       7
#     8   8   8   8   8   8   8
#     4   8  16  32  53  78 112 153 197 244 293 347
#     4  11  23  37  56  85 120 159 204 248 298 354
#     4  12  26  42  62  89 124 164 207 250 298 355
#     4   9  20  41  67  92 119 152 190 239 300 359
#     4   9  20  42  70  97 125 156 192 241 303 365
#     4   8  14  28  51  78 107 142 188 241 296 350
#     4  10  21  37  57  84 120 160 203 251 302 357
#
# _framework density 20.533705999999999
#
# number of rings (size 3 to 8) (size 9 to 14) (size 15 to 20)
#    0.000    2.429    0.000    3.857    2.000    3.143 
#    0.000    2.143    0.000    2.143    0.000    0.000 
#    0.000    0.000    0.000    0.000    0.000    0.000 
#
# Total GULP energy -312737.996479 kJ/mol
# GULP energy per Si atom -5584.607080 kJ/mol
# Density = 2.048697 g / cm^3
# Si number density = 20.533706 Si / 1000 Ang^3
#
#
#
# Elastic Constant Matrix: (Units=GPa)
#
#
# Indices 1 2 3 4 5 6 
#
# 1 88.3279 29.2739 70.9769 0.0000 0.0000 0.0000
# 2 29.2739 48.3031 41.7662 0.0000 0.0000 0.0000
# 3 70.9769 41.7662 164.7880 0.0000 0.0000 0.0000
# 4 0.0000 0.0000 0.0000 16.1484 0.0000 0.0000
# 5 0.0000 0.0000 0.0000 0.0000 27.6086 0.0000
# 6 0.0000 0.0000 0.0000 0.0000 0.0000 24.1513
#
#
#
# Elastic Compliance Matrix: (Units=1/GPa)
#
#
# Indices 1 2 3 4 5 6 
#
# 1 0.018389 -0.005502 -0.006526 0.000000 0.000000 0.000000
# 2 -0.005502 0.028159 -0.004767 0.000000 0.000000 0.000000
# 3 -0.006526 -0.004767 0.010088 0.000000 0.000000 0.000000
# 4 0.000000 0.000000 0.000000 0.061926 0.000000 0.000000
# 5 0.000000 0.000000 0.000000 0.000000 0.036221 0.000000
# 6 0.000000 0.000000 0.000000 0.000000 0.000000 0.041406
#
#
# Mechanical properties :
#
#
# Convention : Reuss Voigt Hill
#
# Bulk Modulus (GPa) = 43.39258 65.05034 54.22146
# Shear Modulus (GPa) = 21.05625 24.20847 22.63236
#
# Velocity S-wave (km/s) = 3.20574 3.43733 3.32355
# Velocity P-wave (km/s) = 5.90598 6.89218 6.41805
#
# Compressibility (1/GPa) = 0.02304542
#
# Stress axis : x y z
#
# Youngs Moduli (GPa) = 54.38080 35.51257 99.13224
#
# Poissons Ratio (x) = 0.19538 0.64693
# Poissons Ratio (y) = 0.29919 0.47260
# Poissons Ratio (z) = 0.35489 0.16930
#
# Static dielectric constant tensor:
#      x y z
#    x 1.674230 0.000000 0.000000 
#    y 0.000000 1.767100 0.000000 
#    z 0.000000 0.000000 1.733840 
# 
# From -- ./inp_files/31951.got.cif
#   From: 2010.05.17/outbox.cif.g08.bks.cpg/sg51_16_cif.got.tgz:31951.got - 2010.06.03 11:52:47.
