data_PCOD9406028
_publ_section_title
;
Structure prediction by ZEFSAII (Michael W. Deem and Ramdas Pophale) SiO2 
 PCOD9406028
Probable space group: P M M A
;
_chemical_formula_sum "Si O2"
_cell_formula_units_Z 64
_cell_length_a 20.400896
_cell_length_b 8.836789
_cell_length_c 20.391703
_cell_angle_alpha 90.000000
_cell_angle_beta 90.000000
_cell_angle_gamma 90.000000
_cell_volume 3676.183863
_symmetry_space_group_name_H-M "P M M A"
_symmetry_group_IT_number 51
_symmetry_cell_setting 'orthorhombic'
loop_
_space_group_symop_operation_xyz
x,y,z
1/2-x,-y,z
1/2+x,-y,-z
-x,y,-z
-x,-y,-z
1/2+x,y,-z
1/2-x,y,z
x,-y,z
loop_
_atom_site_type_symbol
_atom_site_label
_atom_site_fract_x
_atom_site_fract_y
_atom_site_fract_z
Si Si1 0.565006 0.182320 0.684238
Si Si2 0.826235 0.181163 0.445175
Si Si3 0.421637 0.319772 0.663325
Si Si4 0.070070 0.319479 0.029590
Si Si5 0.048418 0.178162 0.167091
Si Si6 0.395775 0.179187 0.800537
Si Si7 0.673894 0.318858 0.589452
Si Si8 0.324694 0.817487 0.931778
O O1 0.494753 0.249032 0.662225
O O2 0.574451 0.223289 0.761077
O O3 0.623077 0.246249 0.639962
O O4 0.561705 0.000000 0.680449
O O5 0.750000 0.213274 0.427493
O O6 0.876197 0.252713 0.393630
O O7 0.837491 0.250164 0.517246
O O8 0.834362 0.000000 0.447224
O O9 0.425862 0.500000 0.658197
O O10 0.391486 0.270925 0.733455
O O11 0.072230 0.500000 0.025833
O O12 0.074383 0.267632 0.104808
O O13 0.126816 0.250766 0.985058
O O14 0.000000 0.267614 0.000000
O O15 0.969737 0.197501 0.172215
O O16 0.061513 0.000000 0.157501
O O17 0.347481 0.226346 0.858546
O O18 0.386802 0.000000 0.786156
O O19 0.750000 0.286450 0.606894
O O20 0.665592 0.500000 0.587455
O O21 0.250000 0.772608 0.943568
O O22 0.329432 0.000000 0.934514
#
# Coordination Sequence:
#
# PCOD9406028 Si02
#       8
#     8   8   8   8   8   8   8   8
#     4  10  21  38  59  85 114 146 189 234 277 330
#     4  10  21  38  59  81 109 149 194 235 275 329
#     4  11  22  35  55  84 118 150 184 230 283 333
#     4  11  22  34  54  83 111 143 183 226 278 334
#     4   9  18  34  57  81 106 141 184 229 270 319
#     4   9  18  34  54  78 108 143 184 225 271 328
#     4  10  21  38  60  86 115 146 183 230 287 344
#     4  10  21  37  57  80 108 145 188 231 275 327
#
# _framework density 17.409358000000001
#
# number of rings (size 3 to 8) (size 9 to 14) (size 15 to 20)
#    0.000    2.000    1.250    3.375    0.000    6.250 
#    0.000    4.375    0.000    0.750    0.000    0.000 
#    0.000    0.000    0.000    0.000    0.000    0.000 
#
# Total GULP energy -357331.036042 kJ/mol
# GULP energy per Si atom -5583.297438 kJ/mol
# Density = 1.736973 g / cm^3
# Si number density = 17.409358 Si / 1000 Ang^3
#
#
#
# Elastic Constant Matrix: (Units=GPa)
#
#
# Indices 1 2 3 4 5 6 
#
# 1 128.1992 64.3199 109.6622 0.0000 0.0000 0.0000
# 2 64.3199 75.2948 68.4281 0.0000 0.0000 0.0000
# 3 109.6622 68.4281 146.9242 0.0000 0.0000 0.0000
# 4 0.0000 0.0000 0.0000 -32.8626 0.0000 0.0000
# 5 0.0000 0.0000 0.0000 0.0000 31.2882 0.0000
# 6 0.0000 0.0000 0.0000 0.0000 0.0000 24.2585
#
#
#
# Elastic Compliance Matrix: (Units=1/GPa)
#
#
# Indices 1 2 3 4 5 6 
#
# 1 0.023636 -0.007210 -0.014284 0.000000 0.000000 0.000000
# 2 -0.007210 0.025227 -0.006368 0.000000 0.000000 0.000000
# 3 -0.014284 -0.006368 0.020433 0.000000 0.000000 0.000000
# 4 0.000000 0.000000 0.000000 -0.030430 0.000000 0.000000
# 5 0.000000 0.000000 0.000000 0.000000 0.031961 0.000000
# 6 0.000000 0.000000 0.000000 0.000000 0.000000 0.041223
#
#
# Mechanical properties :
#
#
# Convention : Reuss Voigt Hill
#
# Bulk Modulus (GPa) = 73.67302 92.80429 83.23865
# Shear Modulus (GPa) = 29.01952 11.73735 20.37844
#
# Velocity S-wave (km/s) = 4.08719 2.59935 3.42503
# Velocity P-wave (km/s) = 8.04260 7.90137 7.97230
#
# Compressibility (1/GPa) = 0.01357349
#
# Stress axis : x y z
#
# Youngs Moduli (GPa) = 42.30837 39.63971 48.93986
#
# Poissons Ratio (x) = 0.28579 0.69904
# Poissons Ratio (y) = 0.30503 0.31165
# Poissons Ratio (z) = 0.60432 0.25243
#
# Static dielectric constant tensor:
#      x y z
#    x 1.572690 0.000000 0.000000 
#    y 0.000000 1.581800 0.000000 
#    z 0.000000 0.000000 1.570290 
# 
# From -- ./inp_files/30506.got.cif
#   From: 2010.05.17/outbox.cif.g08.bks.cpg/sg51_16_cif.got.tgz:30506.got - 2010.06.03 11:52:47.
