data_PCOD9406475
_publ_section_title
;
Structure prediction by ZEFSAII (Michael W. Deem and Ramdas Pophale) SiO2 
 PCOD9406475
Probable space group: P M M A
;
_chemical_formula_sum "Si O2"
_cell_formula_units_Z 64
_cell_length_a 19.178333
_cell_length_b 9.219880
_cell_length_c 20.956431
_cell_angle_alpha 90.000000
_cell_angle_beta 90.000000
_cell_angle_gamma 90.000000
_cell_volume 3705.556551
_symmetry_space_group_name_H-M "P M M A"
_symmetry_group_IT_number 51
_symmetry_cell_setting 'orthorhombic'
loop_
_space_group_symop_operation_xyz
x,y,z
1/2-x,-y,z
1/2+x,-y,-z
-x,y,-z
-x,-y,-z
1/2+x,y,-z
1/2-x,y,z
x,-y,z
loop_
_atom_site_type_symbol
_atom_site_label
_atom_site_fract_x
_atom_site_fract_y
_atom_site_fract_z
Si Si1 0.064250 0.674056 0.822797
Si Si2 0.834815 0.167703 0.416617
Si Si3 0.417149 0.174350 0.202505
Si Si4 0.666903 0.174218 0.274188
Si Si5 0.666888 0.674727 0.684675
Si Si6 0.830442 0.173710 0.925606
Si Si7 0.665176 0.332547 0.542003
Si Si8 0.424287 0.326576 0.972314
O O1 0.058897 0.500000 0.815925
O O2 0.124349 0.739279 0.778380
O O3 0.078686 0.706418 0.897321
O O4 0.992063 0.750526 0.803640
O O5 0.750000 0.173458 0.417014
O O6 0.855257 0.220599 0.346063
O O7 0.860102 0.249938 0.479347
O O8 0.854758 0.000000 0.421474
O O9 0.375721 0.240246 0.262241
O O10 0.373761 0.208677 0.138173
O O11 0.423485 0.000000 0.207739
O O12 0.750000 0.197641 0.267948
O O13 0.655318 0.000000 0.269020
O O14 0.750000 0.701027 0.691912
O O15 0.656822 0.500000 0.689842
O O16 0.645365 0.720313 0.612684
O O17 0.750000 0.217505 0.918220
O O18 0.832897 0.000000 0.933660
O O19 0.865993 0.248649 0.985966
O O20 0.750000 0.327555 0.541384
O O21 0.644778 0.500000 0.537035
O O22 0.417782 0.500000 0.980209
O O23 0.500000 0.283447 0.000000
#
# Coordination Sequence:
#
# PCOD9406475 Si02
#       8
#     8   8   8   8   8   8   8   8
#     4  11  23  38  58  81 107 140 181 222 265 322
#     4   8  14  26  46  72 102 136 173 214 261 315
#     4  11  22  36  55  78 108 144 183 224 267 317
#     4   9  19  36  56  80 111 143 176 218 270 324
#     4   9  18  32  50  75 109 146 182 222 269 318
#     4  10  22  38  57  84 113 140 176 221 267 317
#     4   8  14  25  43  70 103 138 176 217 262 313
#     4  10  21  39  59  79 106 139 178 220 264 318
#
# _framework density 17.271360000000001
#
# number of rings (size 3 to 8) (size 9 to 14) (size 15 to 20)
#    0.000    2.500    1.250    2.625    0.000    4.500 
#    0.000    5.000    0.000    0.750    0.000    5.250 
#    0.000    0.000    0.000    0.000    0.000    0.000 
#
# Total GULP energy -356850.555378 kJ/mol
# GULP energy per Si atom -5575.789928 kJ/mol
# Density = 1.723205 g / cm^3
# Si number density = 17.271360 Si / 1000 Ang^3
#
#
#
# Elastic Constant Matrix: (Units=GPa)
#
#
# Indices 1 2 3 4 5 6 
#
# 1 70.6646 42.0815 66.1966 0.0000 0.0000 0.0000
# 2 42.0815 52.2637 78.1348 0.0000 0.0000 0.0000
# 3 66.1966 78.1348 184.9849 0.0000 0.0000 0.0000
# 4 0.0000 0.0000 0.0000 37.1663 0.0000 0.0000
# 5 0.0000 0.0000 0.0000 0.0000 4.8980 0.0000
# 6 0.0000 0.0000 0.0000 0.0000 0.0000 27.0070
#
#
#
# Elastic Compliance Matrix: (Units=1/GPa)
#
#
# Indices 1 2 3 4 5 6 
#
# 1 0.027305 -0.020019 -0.001315 0.000000 0.000000 0.000000
# 2 -0.020019 0.066596 -0.020965 0.000000 0.000000 0.000000
# 3 -0.001315 -0.020965 0.014732 0.000000 0.000000 0.000000
# 4 0.000000 0.000000 0.000000 0.026906 0.000000 0.000000
# 5 0.000000 0.000000 0.000000 0.000000 0.204163 0.000000
# 6 0.000000 0.000000 0.000000 0.000000 0.000000 0.037027
#
#
# Mechanical properties :
#
#
# Convention : Reuss Voigt Hill
#
# Bulk Modulus (GPa) = 41.60813 75.63767 58.62290
# Shear Modulus (GPa) = 10.65324 21.91429 16.28376
#
# Velocity S-wave (km/s) = 2.48627 3.56592 3.07387
# Velocity P-wave (km/s) = 5.69080 7.80020 6.82746
#
# Compressibility (1/GPa) = 0.02403376
#
# Stress axis : x y z
#
# Youngs Moduli (GPa) = 36.62327 15.01589 67.87909
#
# Poissons Ratio (x) = 0.30060 0.08929
# Poissons Ratio (y) = 0.73316 1.42312
# Poissons Ratio (z) = 0.04817 0.31482
#
# Static dielectric constant tensor:
#      x y z
#    x 1.570040 0.000000 0.000000 
#    y 0.000000 1.575900 0.000000 
#    z 0.000000 0.000000 1.586830 
# 
# From -- ./inp_files/33779.got.cif
#   From: 2010.05.17/outbox.cif.g08.bks.cpg/sg51_17_cif.got.tgz:33779.got - 2010.06.03 11:52:47.
