data_PCOD9406156
_publ_section_title
;
Structure prediction by ZEFSAII (Michael W. Deem and Ramdas Pophale) SiO2 
 PCOD9406156
Probable space group: P M M A
;
_chemical_formula_sum "Si O2"
_cell_formula_units_Z 48
_cell_length_a 14.193712
_cell_length_b 10.884129
_cell_length_c 14.939901
_cell_angle_alpha 90.000000
_cell_angle_beta 90.000000
_cell_angle_gamma 90.000000
_cell_volume 2308.008420
_symmetry_space_group_name_H-M "P M M A"
_symmetry_group_IT_number 51
_symmetry_cell_setting 'orthorhombic'
loop_
_space_group_symop_operation_xyz
x,y,z
1/2-x,-y,z
1/2+x,-y,-z
-x,y,-z
-x,-y,-z
1/2+x,y,-z
1/2-x,y,z
x,-y,z
loop_
_atom_site_type_symbol
_atom_site_label
_atom_site_fract_x
_atom_site_fract_y
_atom_site_fract_z
Si Si1 0.146806 0.777367 0.712668
Si Si2 0.974446 0.500000 0.103662
Si Si3 0.636268 0.855996 0.904367
Si Si4 0.123564 0.000000 0.584019
Si Si5 0.858443 0.255130 0.094418
Si Si6 0.098965 0.000000 0.383389
Si Si7 0.070305 0.751095 0.279716
Si Si8 0.644101 0.500000 0.756200
O O1 0.250000 0.709109 0.710696
O O2 0.139826 0.826172 0.815371
O O3 0.040298 0.726458 0.698021
O O4 0.154373 0.881405 0.638534
O O5 0.066521 0.500000 0.165184
O O6 0.913552 0.378324 0.118603
O O7 0.000000 0.500000 0.000000
O O8 0.750000 0.841886 0.893709
O O9 0.585081 0.783115 0.825350
O O10 0.614470 0.000000 0.896775
O O11 0.609522 0.808111 0.002950
O O12 0.147764 0.000000 0.479756
O O13 0.011398 0.000000 0.594762
O O14 0.750000 0.288996 0.077750
O O15 0.111415 0.127343 0.329043
O O16 0.126064 0.625584 0.297632
O O17 0.750000 0.500000 0.792527
#
# Coordination Sequence:
#
# PCOD9406156 Si02
#       8
#     8   4   8   4   8   4   8   4
#     4  10  21  37  60  93 129 166 209 262 323 383
#     4  12  23  39  60  84 118 170 223 258 319 380
#     4  10  21  37  58  90 129 170 219 273 320 374
#     4   9  19  38  65 100 133 161 206 266 322 383
#     4  10  22  38  59  87 123 167 217 266 314 378
#     4   9  20  40  71 100 128 166 210 260 324 390
#     4  11  21  42  67  95 129 174 217 267 325 388
#     4  12  26  43  64  91 128 171 217 271 326 382
#
# _framework density 20.797150999999999
#
# number of rings (size 3 to 8) (size 9 to 14) (size 15 to 20)
#    0.000    1.667    2.500    2.000    1.167    2.000 
#    0.000    4.583    0.000    9.000    0.000    0.000 
#    0.000    0.000    0.000    0.000    0.000    0.000 
#
# Total GULP energy -267644.082165 kJ/mol
# GULP energy per Si atom -5575.918378 kJ/mol
# Density = 2.074982 g / cm^3
# Si number density = 20.797151 Si / 1000 Ang^3
#
#
#
# Elastic Constant Matrix: (Units=GPa)
#
#
# Indices 1 2 3 4 5 6 
#
# 1 125.6839 38.0513 12.4692 0.0000 0.0000 0.0000
# 2 38.0513 123.9704 47.3216 0.0000 0.0000 0.0000
# 3 12.4692 47.3216 117.4289 0.0000 0.0000 0.0000
# 4 0.0000 0.0000 0.0000 -27.9309 0.0000 0.0000
# 5 0.0000 0.0000 0.0000 0.0000 8.5755 0.0000
# 6 0.0000 0.0000 0.0000 0.0000 0.0000 26.4211
#
#
#
# Elastic Compliance Matrix: (Units=1/GPa)
#
#
# Indices 1 2 3 4 5 6 
#
# 1 0.008775 -0.002763 0.000182 0.000000 0.000000 0.000000
# 2 -0.002763 0.010403 -0.003899 0.000000 0.000000 0.000000
# 3 0.000182 -0.003899 0.010068 0.000000 0.000000 0.000000
# 4 0.000000 0.000000 0.000000 -0.035803 0.000000 0.000000
# 5 0.000000 0.000000 0.000000 0.000000 0.116611 0.000000
# 6 0.000000 0.000000 0.000000 0.000000 0.000000 0.037849
#
#
# Mechanical properties :
#
#
# Convention : Reuss Voigt Hill
#
# Bulk Modulus (GPa) = 61.40443 62.52970 61.96707
# Shear Modulus (GPa) = 30.06790 19.36253 24.71522
#
# Velocity S-wave (km/s) = 3.80645 3.05457 3.45105
# Velocity P-wave (km/s) = 6.99345 6.52474 6.76316
#
# Compressibility (1/GPa) = 0.01628547
#
# Stress axis : x y z
#
# Youngs Moduli (GPa) = 113.96192 96.12981 99.32840
#
# Poissons Ratio (x) = 0.26557 -0.01803
# Poissons Ratio (y) = 0.31484 0.38725
# Poissons Ratio (z) = -0.02069 0.37478
#
# Static dielectric constant tensor:
#      x y z
#    x 1.842820 0.000000 0.000000 
#    y 0.000000 1.762670 0.000000 
#    z 0.000000 0.000000 1.747850 
# 
# From -- ./inp_files/24143.got.cif
#   From: 2010.05.17/outbox.cif.g08.bks.cpg/sg51_13_cif.got.tgz:24143.got - 2010.06.03 11:52:47.
