data_PCOD9406926
_publ_section_title
;
Structure prediction by ZEFSAII (Michael W. Deem and Ramdas Pophale) SiO2 
 PCOD9406926
Probable space group: P M M A
;
_chemical_formula_sum "Si O2"
_cell_formula_units_Z 30
_cell_length_a 38.815251
_cell_length_b 7.698830
_cell_length_c 5.149970
_cell_angle_alpha 90.000000
_cell_angle_beta 90.000000
_cell_angle_gamma 90.000000
_cell_volume 1538.975932
_symmetry_space_group_name_H-M "P M M A"
_symmetry_group_IT_number 51
_symmetry_cell_setting 'orthorhombic'
loop_
_space_group_symop_operation_xyz
x,y,z
1/2-x,-y,z
1/2+x,-y,-z
-x,y,-z
-x,-y,-z
1/2+x,y,-z
1/2-x,y,z
x,-y,z
loop_
_atom_site_type_symbol
_atom_site_label
_atom_site_fract_x
_atom_site_fract_y
_atom_site_fract_z
Si Si1 0.399915 0.790264 0.188729
Si Si2 0.750000 0.000000 0.755256
Si Si3 0.478681 0.212283 0.251155
Si Si4 0.801810 0.000000 0.254957
Si Si5 0.143149 0.696021 0.693771
O O1 0.439037 0.732051 0.240725
O O2 0.375047 0.730195 0.419045
O O3 0.399537 0.000000 0.181300
O O4 0.385356 0.723322 0.916768
O O5 0.779585 0.000000 0.520246
O O6 0.779675 0.000000 0.989983
O O7 0.500000 0.270564 0.500000
O O8 0.477998 0.000000 0.255421
O O9 0.500000 0.265928 0.000000
O O10 0.826539 0.832410 0.259556
O O11 0.156420 0.500000 0.704244
#
# Coordination Sequence:
#
# PCOD9406926 Si02
#       5
#     8   2   8   4   8
#     4  11  20  37  61  90 124 166 214 267 314 368
#     4  10  24  42  74  94 128 166 196 244 290 366
#     4   9  17  29  50  81 115 157 211 262 314 371
#     4  11  22  46  66  98 128 163 200 241 304 364
#     4  12  24  40  66  96 130 163 206 259 307 363
#
# _framework density 19.493485
#
# number of rings (size 3 to 8) (size 9 to 14) (size 15 to 20)
#    0.000    1.333    2.667    4.000    0.000    4.267 
#    0.000    4.000    0.000   16.000    0.000    0.000 
#    0.000    0.000    0.000    0.000    0.000    0.000 
#
# Total GULP energy -167185.085899 kJ/mol
# GULP energy per Si atom -5572.836197 kJ/mol
# Density = 1.944912 g / cm^3
# Si number density = 19.493485 Si / 1000 Ang^3
#
#
#
# Elastic Constant Matrix: (Units=GPa)
#
#
# Indices 1 2 3 4 5 6 
#
# 1 97.0336 27.7409 1.9694 0.0000 0.0000 0.0000
# 2 27.7409 104.5158 -1.3948 0.0000 0.0000 0.0000
# 3 1.9694 -1.3948 103.6609 0.0000 0.0000 0.0000
# 4 0.0000 0.0000 0.0000 17.6205 0.0000 0.0000
# 5 0.0000 0.0000 0.0000 0.0000 36.1255 0.0000
# 6 0.0000 0.0000 0.0000 0.0000 0.0000 -5.6384
#
#
#
# Elastic Compliance Matrix: (Units=1/GPa)
#
#
# Indices 1 2 3 4 5 6 
#
# 1 0.011159 -0.002965 -0.000252 0.000000 0.000000 0.000000
# 2 -0.002965 0.010358 0.000196 0.000000 0.000000 0.000000
# 3 -0.000252 0.000196 0.009654 0.000000 0.000000 0.000000
# 4 0.000000 0.000000 0.000000 0.056752 0.000000 0.000000
# 5 0.000000 0.000000 0.000000 0.000000 0.027681 0.000000
# 6 0.000000 0.000000 0.000000 0.000000 0.000000 -0.177356
#
#
# Mechanical properties :
#
#
# Convention : Reuss Voigt Hill
#
# Bulk Modulus (GPa) = 39.79664 40.20459 40.00062
# Shear Modulus (GPa) = -105.63312 28.08119 -38.77596
#
# Velocity S-wave (km/s) = -7.36930 3.79957 -4.46486
# Velocity P-wave (km/s) = 7.20757 6.31810 2.45263
#
# Compressibility (1/GPa) = 0.02512775
#
# Stress axis : x y z
#
# Youngs Moduli (GPa) = 89.61777 96.54801 103.58127
#
# Poissons Ratio (x) = 0.28627 0.02609
# Poissons Ratio (y) = 0.26572 -0.02027
# Poissons Ratio (z) = 0.02257 -0.01889
#
# Static dielectric constant tensor:
#      x y z
#    x 1.650100 0.000000 0.000000 
#    y 0.000000 1.687520 0.000000 
#    z 0.000000 0.000000 1.635270 
# 
# From -- ./inp_files/3760.got.cif
#   From: 2010.05.17/outbox.cif.g08.bks.cpg/sg51_2_cif.got.tgz:3760.got - 2010.06.03 11:52:47.
