data_PCOD9406284
_publ_section_title
;
Structure prediction by ZEFSAII (Michael W. Deem and Ramdas Pophale) SiO2 
 PCOD9406284
Probable space group: P M M A
;
_chemical_formula_sum "Si O2"
_cell_formula_units_Z 48
_cell_length_a 8.741604
_cell_length_b 31.040038
_cell_length_c 9.509121
_cell_angle_alpha 90.000000
_cell_angle_beta 90.000000
_cell_angle_gamma 90.000000
_cell_volume 2580.202233
_symmetry_space_group_name_H-M "P M M A"
_symmetry_group_IT_number 51
_symmetry_cell_setting 'orthorhombic'
loop_
_space_group_symop_operation_xyz
x,y,z
1/2-x,-y,z
1/2+x,-y,-z
-x,y,-z
-x,-y,-z
1/2+x,y,-z
1/2-x,y,z
x,-y,z
loop_
_atom_site_type_symbol
_atom_site_label
_atom_site_fract_x
_atom_site_fract_y
_atom_site_fract_z
Si Si1 0.432127 0.449014 0.152904
Si Si2 0.567338 0.124652 0.343800
Si Si3 0.433213 0.299404 0.156609
Si Si4 0.433010 0.215938 0.344249
Si Si5 0.432589 0.376448 0.656043
Si Si6 0.933099 0.048734 0.843282
O O1 0.250000 0.441483 0.152791
O O2 0.459293 0.500000 0.173909
O O3 0.510703 0.420507 0.271797
O O4 0.500000 0.437261 0.000000
O O5 0.500000 0.119409 0.500000
O O6 0.750000 0.125446 0.348396
O O7 0.505005 0.170986 0.293033
O O8 0.507998 0.085521 0.250235
O O9 0.250000 0.304906 0.150828
O O10 0.466568 0.255059 0.239422
O O11 0.505255 0.338140 0.245874
O O12 0.500000 0.298674 0.000000
O O13 0.500000 0.224784 0.500000
O O14 0.250000 0.211072 0.356361
O O15 0.500000 0.372123 0.500000
O O16 0.250000 0.375170 0.650330
O O17 0.750000 0.054042 0.846715
O O18 0.966230 0.000000 0.791303
O O19 0.000000 0.051808 0.000000
#
# Coordination Sequence:
#
# PCOD9406284 Si02
#       6
#     8   8   8   8   8   8
#     4  10  21  39  63  90 121 157 197 241 290 344
#     4  11  22  37  59  85 116 152 191 236 285 340
#     4  11  24  41  62  88 118 153 194 239 287 341
#     4  10  21  38  60  85 115 150 190 236 287 343
#     4  12  25  41  62  87 119 156 196 242 291 346
#     4  10  21  38  59  83 113 149 190 236 286 341
#
# _framework density 18.603193999999998
#
# number of rings (size 3 to 8) (size 9 to 14) (size 15 to 20)
#    0.000    1.333    0.000    7.000    0.000    7.333 
#    0.000    1.667    0.000    0.000    0.000    0.000 
#    0.000    0.000    0.000    0.000    0.000    0.000 
#
# Total GULP energy -268438.377238 kJ/mol
# GULP energy per Si atom -5592.466192 kJ/mol
# Density = 1.856085 g / cm^3
# Si number density = 18.603194 Si / 1000 Ang^3
#
#
#
# Elastic Constant Matrix: (Units=GPa)
#
#
# Indices 1 2 3 4 5 6 
#
# 1 139.9067 89.2757 75.2200 0.0000 0.0000 0.0000
# 2 89.2757 125.7343 92.5034 0.0000 0.0000 0.0000
# 3 75.2200 92.5034 127.0246 0.0000 0.0000 0.0000
# 4 0.0000 0.0000 0.0000 37.5384 0.0000 0.0000
# 5 0.0000 0.0000 0.0000 0.0000 38.8420 0.0000
# 6 0.0000 0.0000 0.0000 0.0000 0.0000 45.6725
#
#
#
# Elastic Compliance Matrix: (Units=1/GPa)
#
#
# Indices 1 2 3 4 5 6 
#
# 1 0.013338 -0.007883 -0.002158 0.000000 0.000000 0.000000
# 2 -0.007883 0.021791 -0.011201 0.000000 0.000000 0.000000
# 3 -0.002158 -0.011201 0.017307 0.000000 0.000000 0.000000
# 4 0.000000 0.000000 0.000000 0.026639 0.000000 0.000000
# 5 0.000000 0.000000 0.000000 0.000000 0.025745 0.000000
# 6 0.000000 0.000000 0.000000 0.000000 0.000000 0.021895
#
#
# Mechanical properties :
#
#
# Convention : Reuss Voigt Hill
#
# Bulk Modulus (GPa) = 100.47284 100.74043 100.60663
# Shear Modulus (GPa) = 28.98281 33.45502 31.21892
#
# Velocity S-wave (km/s) = 3.95137 4.24529 4.10096
# Velocity P-wave (km/s) = 8.65698 8.84872 8.75338
#
# Compressibility (1/GPa) = 0.00995294
#
# Stress axis : x y z
#
# Youngs Moduli (GPa) = 74.97468 45.89054 57.78007
#
# Poissons Ratio (x) = 0.36175 0.12467
# Poissons Ratio (y) = 0.59102 0.64719
# Poissons Ratio (z) = 0.16177 0.51401
#
# Static dielectric constant tensor:
#      x y z
#    x 1.618220 0.000000 0.000000 
#    y 0.000000 1.640190 0.000000 
#    z 0.000000 0.000000 1.632820 
# 
# From -- ./inp_files/6088.got.cif
#   From: 2010.05.17/outbox.cif.g08.bks.cpg/sg51_4_cif.got.tgz:6088.got - 2010.06.03 11:52:47.
