data_PCOD9406288
_publ_section_title
;
Structure prediction by ZEFSAII (Michael W. Deem and Ramdas Pophale) SiO2 
 PCOD9406288
Probable space group: P M M A
;
_chemical_formula_sum "Si O2"
_cell_formula_units_Z 56
_cell_length_a 8.728951
_cell_length_b 16.185253
_cell_length_c 19.903224
_cell_angle_alpha 90.000000
_cell_angle_beta 90.000000
_cell_angle_gamma 90.000000
_cell_volume 2811.933067
_symmetry_space_group_name_H-M "P M M A"
_symmetry_group_IT_number 51
_symmetry_cell_setting 'orthorhombic'
loop_
_space_group_symop_operation_xyz
x,y,z
1/2-x,-y,z
1/2+x,-y,-z
-x,y,-z
-x,-y,-z
1/2+x,y,-z
1/2-x,y,z
x,-y,z
loop_
_atom_site_type_symbol
_atom_site_label
_atom_site_fract_x
_atom_site_fract_y
_atom_site_fract_z
Si Si1 0.933790 0.909031 0.661637
Si Si2 0.066697 0.340282 0.214004
Si Si3 0.066022 0.250618 0.425321
Si Si4 0.433687 0.596708 0.069116
Si Si5 0.072424 0.900005 0.071214
Si Si6 0.931446 0.162077 0.209240
Si Si7 0.433264 0.407632 0.653192
O O1 0.750000 0.902945 0.671721
O O2 0.981530 0.831815 0.615579
O O3 0.014913 0.901082 0.733575
O O4 0.966093 0.000000 0.632353
O O5 0.250000 0.349957 0.218538
O O6 0.016759 0.361352 0.138192
O O7 0.018306 0.246627 0.227183
O O8 0.988111 0.396293 0.270089
O O9 0.250000 0.252339 0.427119
O O10 0.000000 0.247598 0.500000
O O11 0.007500 0.333207 0.388506
O O12 0.250000 0.601116 0.065780
O O13 0.477989 0.500000 0.072938
O O14 0.500000 0.631973 0.000000
O O15 0.250000 0.873913 0.074967
O O16 0.982897 0.865943 0.135335
O O17 0.067379 0.000000 0.073671
O O18 0.000000 0.874426 0.000000
O O19 0.750000 0.174193 0.211588
O O20 0.250000 0.400099 0.649945
O O21 0.476426 0.500000 0.629686
#
# Coordination Sequence:
#
# PCOD9406288 Si02
#       7
#     8   8   8   8   8   8   8
#     4  10  22  42  67  95 128 169 214 259 312 373
#     4  11  22  38  60  86 120 162 209 262 317 374
#     4  11  24  43  69  98 133 172 209 257 310 370
#     4   9  19  35  55  80 111 150 198 251 307 368
#     4  10  21  38  59  83 115 156 205 262 321 382
#     4  12  24  37  58  88 123 162 209 262 316 375
#     4  11  24  42  66  97 131 167 211 263 317 378
#
# _framework density 19.915123999999999
#
# number of rings (size 3 to 8) (size 9 to 14) (size 15 to 20)
#    0.000    1.429    1.429    3.857    0.000    7.429 
#    0.000    2.857    0.000    0.000    0.000    0.000 
#    0.000    0.000    0.000    0.000    0.000    0.000 
#
# Total GULP energy -313043.443830 kJ/mol
# GULP energy per Si atom -5590.061497 kJ/mol
# Density = 1.986980 g / cm^3
# Si number density = 19.915124 Si / 1000 Ang^3
#
#
#
# Elastic Constant Matrix: (Units=GPa)
#
#
# Indices 1 2 3 4 5 6 
#
# 1 39.3645 25.8884 27.8102 0.0000 0.0000 0.0000
# 2 25.8884 114.3064 53.8214 0.0000 0.0000 0.0000
# 3 27.8102 53.8214 129.4597 0.0000 0.0000 0.0000
# 4 0.0000 0.0000 0.0000 12.2565 0.0000 0.0000
# 5 0.0000 0.0000 0.0000 0.0000 36.9921 0.0000
# 6 0.0000 0.0000 0.0000 0.0000 0.0000 16.3329
#
#
#
# Elastic Compliance Matrix: (Units=1/GPa)
#
#
# Indices 1 2 3 4 5 6 
#
# 1 0.032095 -0.005002 -0.004815 0.000000 0.000000 0.000000
# 2 -0.005002 0.011657 -0.003772 0.000000 0.000000 0.000000
# 3 -0.004815 -0.003772 0.010327 0.000000 0.000000 0.000000
# 4 0.000000 0.000000 0.000000 0.081590 0.000000 0.000000
# 5 0.000000 0.000000 0.000000 0.000000 0.027033 0.000000
# 6 0.000000 0.000000 0.000000 0.000000 0.000000 0.061226
#
#
# Mechanical properties :
#
#
# Convention : Reuss Voigt Hill
#
# Bulk Modulus (GPa) = 37.17268 55.35231 46.26249
# Shear Modulus (GPa) = 19.22543 24.82367 22.02455
#
# Velocity S-wave (km/s) = 3.11041 3.53437 3.32915
# Velocity P-wave (km/s) = 5.62189 6.67159 6.16911
#
# Compressibility (1/GPa) = 0.02690148
#
# Stress axis : x y z
#
# Youngs Moduli (GPa) = 31.15767 85.78372 96.83434
#
# Poissons Ratio (x) = 0.42906 0.46627
# Poissons Ratio (y) = 0.15584 0.36525
# Poissons Ratio (z) = 0.15003 0.32357
#
# Static dielectric constant tensor:
#      x y z
#    x 1.666890 0.000000 0.000000 
#    y 0.000000 1.733550 0.000000 
#    z 0.000000 0.000000 1.679930 
# 
# From -- ./inp_files/31927.got.cif
#   From: 2010.05.17/outbox.cif.g08.bks.cpg/sg51_16_cif.got.tgz:31927.got - 2010.06.03 11:52:47.
