data_PCOD9406390
_publ_section_title
;
Structure prediction by ZEFSAII (Michael W. Deem and Ramdas Pophale) SiO2 
 PCOD9406390
Probable space group: P M M A
;
_chemical_formula_sum "Si O2"
_cell_formula_units_Z 40
_cell_length_a 9.339033
_cell_length_b 8.387727
_cell_length_c 26.646149
_cell_angle_alpha 90.000000
_cell_angle_beta 90.000000
_cell_angle_gamma 90.000000
_cell_volume 2087.279698
_symmetry_space_group_name_H-M "P M M A"
_symmetry_group_IT_number 51
_symmetry_cell_setting 'orthorhombic'
loop_
_space_group_symop_operation_xyz
x,y,z
1/2-x,-y,z
1/2+x,-y,-z
-x,y,-z
-x,-y,-z
1/2+x,y,-z
1/2-x,y,z
x,-y,z
loop_
_atom_site_type_symbol
_atom_site_label
_atom_site_fract_x
_atom_site_fract_y
_atom_site_fract_z
Si Si1 0.581470 0.807344 0.160381
Si Si2 0.585296 0.692632 0.549381
Si Si3 0.585272 0.690412 0.742936
Si Si4 0.085496 0.190621 0.646376
Si Si5 0.083747 0.805777 0.951308
O O1 0.750000 0.765436 0.166406
O O2 0.487016 0.736732 0.204524
O O3 0.534160 0.756238 0.104308
O O4 0.573290 0.000000 0.162760
O O5 0.500000 0.748173 0.500000
O O6 0.750000 0.748712 0.549336
O O7 0.587964 0.500000 0.548185
O O8 0.502571 0.744163 0.599188
O O9 0.750000 0.746937 0.740560
O O10 0.585498 0.500000 0.737884
O O11 0.492694 0.760566 0.697560
O O12 0.250000 0.249083 0.645637
O O13 0.088006 0.000000 0.643366
O O14 0.250000 0.762702 0.955713
O O15 0.076248 0.000000 0.951538
O O16 0.000000 0.747102 0.000000
#
# Coordination Sequence:
#
# PCOD9406390 Si02
#       5
#     8   8   8   8   8
#     4   9  18  33  53  78 107 138 175 219 265 316
#     4  10  21  38  61  88 117 150 187 224 264 313
#     4  11  24  39  55  78 107 139 178 223 270 322
#     4  11  24  40  59  84 112 143 181 224 270 320
#     4   8  14  25  43  70 103 135 168 209 257 310
#
# _framework density 19.163698
#
# number of rings (size 3 to 8) (size 9 to 14) (size 15 to 20)
#    0.000    2.200    0.000    4.200    0.000   10.800 
#    0.000    2.000    0.000    0.600    0.000    0.000 
#    0.000    0.000    0.000    0.000    0.000    0.000 
#
# Total GULP energy -223344.648102 kJ/mol
# GULP energy per Si atom -5583.616203 kJ/mol
# Density = 1.912008 g / cm^3
# Si number density = 19.163698 Si / 1000 Ang^3
#
#
#
# Elastic Constant Matrix: (Units=GPa)
#
#
# Indices 1 2 3 4 5 6 
#
# 1 158.1237 20.4535 107.1862 0.0000 0.0000 0.0000
# 2 20.4535 9.6147 11.1333 0.0000 0.0000 0.0000
# 3 107.1862 11.1333 188.8226 0.0000 0.0000 0.0000
# 4 0.0000 0.0000 0.0000 36.6934 0.0000 0.0000
# 5 0.0000 0.0000 0.0000 0.0000 42.5546 0.0000
# 6 0.0000 0.0000 0.0000 0.0000 0.0000 23.6107
#
#
#
# Elastic Compliance Matrix: (Units=1/GPa)
#
#
# Indices 1 2 3 4 5 6 
#
# 1 0.013337 -0.021042 -0.006330 0.000000 0.000000 0.000000
# 2 -0.021042 0.144827 0.003405 0.000000 0.000000 0.000000
# 3 -0.006330 0.003405 0.008689 0.000000 0.000000 0.000000
# 4 0.000000 0.000000 0.000000 0.027253 0.000000 0.000000
# 5 0.000000 0.000000 0.000000 0.000000 0.023499 0.000000
# 6 0.000000 0.000000 0.000000 0.000000 0.000000 0.042354
#
#
# Mechanical properties :
#
#
# Convention : Reuss Voigt Hill
#
# Bulk Modulus (GPa) = 8.40908 70.45635 39.43271
# Shear Modulus (GPa) = 14.38719 35.09096 24.73907
#
# Velocity S-wave (km/s) = 2.74296 4.28380 3.59685
# Velocity P-wave (km/s) = 3.79859 7.83028 6.15396
#
# Compressibility (1/GPa) = 0.11891910
#
# Stress axis : x y z
#
# Youngs Moduli (GPa) = 74.97989 6.90478 115.09460
#
# Poissons Ratio (x) = 0.14529 0.72856
# Poissons Ratio (y) = 1.57772 -0.39193
# Poissons Ratio (z) = 0.47463 -0.02351
#
# Static dielectric constant tensor:
#      x y z
#    x 1.654920 0.000000 0.000000 
#    y 0.000000 1.668750 0.000000 
#    z 0.000000 0.000000 1.644660 
# 
# From -- ./inp_files/34305.got.cif
#   From: 2010.05.17/outbox.cif.g08.bks.cpg/sg51_18_cif.got.tgz:34305.got - 2010.06.03 11:52:47.
