data_PCOD9406460
_publ_section_title
;
Structure prediction by ZEFSAII (Michael W. Deem and Ramdas Pophale) SiO2 
 PCOD9406460
Probable space group: P M M A
;
_chemical_formula_sum "Si O2"
_cell_formula_units_Z 64
_cell_length_a 15.502371
_cell_length_b 8.653414
_cell_length_c 24.421667
_cell_angle_alpha 90.000000
_cell_angle_beta 90.000000
_cell_angle_gamma 90.000000
_cell_volume 3276.128390
_symmetry_space_group_name_H-M "P M M A"
_symmetry_group_IT_number 51
_symmetry_cell_setting 'orthorhombic'
loop_
_space_group_symop_operation_xyz
x,y,z
1/2-x,-y,z
1/2+x,-y,-z
-x,y,-z
-x,-y,-z
1/2+x,y,-z
1/2-x,y,z
x,-y,z
loop_
_atom_site_type_symbol
_atom_site_label
_atom_site_fract_x
_atom_site_fract_y
_atom_site_fract_z
Si Si1 0.435808 0.680920 0.606324
Si Si2 0.146496 0.686743 0.004892
Si Si3 0.994045 0.187226 0.079441
Si Si4 0.154490 0.318585 0.264496
Si Si5 0.617363 0.180666 0.620154
Si Si6 0.344020 0.684613 0.716959
Si Si7 0.150470 0.820254 0.503467
Si Si8 0.491277 0.817200 0.794300
O O1 0.460664 0.500000 0.610140
O O2 0.515540 0.789769 0.620563
O O3 0.365355 0.712234 0.653117
O O4 0.403502 0.720537 0.545846
O O5 0.250000 0.730565 0.005983
O O6 0.143941 0.500000 0.005130
O O7 0.084322 0.749548 0.053884
O O8 0.089907 0.749033 0.953234
O O9 0.987410 0.234832 0.142761
O O10 0.994785 0.000000 0.074746
O O11 0.250000 0.288214 0.242472
O O12 0.135525 0.500000 0.260229
O O13 0.153143 0.271881 0.328262
O O14 0.082149 0.226570 0.232464
O O15 0.645694 0.231839 0.559576
O O16 0.639009 0.000000 0.625865
O O17 0.250000 0.748213 0.730805
O O18 0.343045 0.500000 0.723468
O O19 0.417666 0.747702 0.755962
O O20 0.250000 0.815926 0.520571
O O21 0.120956 0.000000 0.504949
O O22 0.481290 0.000000 0.794235
#
# Coordination Sequence:
#
# PCOD9406460 Si02
#       8
#     8   8   8   8   8   8   8   8
#     4  11  22  37  58  84 113 148 193 242 299 363
#     4  10  21  38  63  95 128 165 207 248 296 351
#     4  10  22  39  61  91 126 165 207 251 299 349
#     4  11  24  41  62  88 118 156 201 249 304 363
#     4  11  22  38  60  84 112 149 194 242 299 364
#     4  10  22  40  61  85 117 158 201 248 304 361
#     4  10  22  38  55  79 111 147 189 239 297 362
#     4  11  24  41  62  90 123 161 206 252 298 352
#
# _framework density 19.535254999999999
#
# number of rings (size 3 to 8) (size 9 to 14) (size 15 to 20)
#    0.000    1.500    1.250    4.125    0.000    9.500 
#    0.000    5.000    0.000    0.000    0.000    0.000 
#    0.000    0.000    0.000    0.000    0.000    0.000 
#
# Total GULP energy -357373.375057 kJ/mol
# GULP energy per Si atom -5583.958985 kJ/mol
# Density = 1.949079 g / cm^3
# Si number density = 19.535255 Si / 1000 Ang^3
#
#
#
# Elastic Constant Matrix: (Units=GPa)
#
#
# Indices 1 2 3 4 5 6 
#
# 1 66.6536 23.9442 20.1442 0.0000 0.0000 0.0000
# 2 23.9442 26.7086 16.6568 0.0000 0.0000 0.0000
# 3 20.1442 16.6568 95.2078 0.0000 0.0000 0.0000
# 4 0.0000 0.0000 0.0000 40.6644 0.0000 0.0000
# 5 0.0000 0.0000 0.0000 0.0000 10.2448 0.0000
# 6 0.0000 0.0000 0.0000 0.0000 0.0000 -15.1086
#
#
#
# Elastic Compliance Matrix: (Units=1/GPa)
#
#
# Indices 1 2 3 4 5 6 
#
# 1 0.022288 -0.019127 -0.001369 0.000000 0.000000 0.000000
# 2 -0.019127 0.058441 -0.006177 0.000000 0.000000 0.000000
# 3 -0.001369 -0.006177 0.011874 0.000000 0.000000 0.000000
# 4 0.000000 0.000000 0.000000 0.024592 0.000000 0.000000
# 5 0.000000 0.000000 0.000000 0.000000 0.097611 0.000000
# 6 0.000000 0.000000 0.000000 0.000000 0.000000 -0.066188
#
#
# Mechanical properties :
#
#
# Convention : Reuss Voigt Hill
#
# Bulk Modulus (GPa) = 25.47446 34.45116 29.96281
# Shear Modulus (GPa) = 23.25040 15.68176 19.46608
#
# Velocity S-wave (km/s) = 3.45364 2.83634 3.16010
# Velocity P-wave (km/s) = 5.38257 5.32918 5.35594
#
# Compressibility (1/GPa) = 0.03925501
#
# Stress axis : x y z
#
# Youngs Moduli (GPa) = 44.86748 17.11129 84.21875
#
# Poissons Ratio (x) = 0.32729 0.11533
# Poissons Ratio (y) = 0.85818 0.52026
# Poissons Ratio (z) = 0.06144 0.10570
#
# Static dielectric constant tensor:
#      x y z
#    x 1.701000 0.000000 0.000000 
#    y 0.000000 1.662610 0.000000 
#    z 0.000000 0.000000 1.683650 
# 
# From -- ./inp_files/35851.got.cif
#   From: 2010.05.17/outbox.cif.g08.bks.cpg/sg51_18_cif.got.tgz:35851.got - 2010.06.03 11:52:47.
