data_PCOD9406635
_publ_section_title
;
Structure prediction by ZEFSAII (Michael W. Deem and Ramdas Pophale) SiO2 
 PCOD9406635
Probable space group: P M M A
;
_chemical_formula_sum "Si O2"
_cell_formula_units_Z 56
_cell_length_a 9.306438
_cell_length_b 13.831551
_cell_length_c 21.463300
_cell_angle_alpha 90.000000
_cell_angle_beta 90.000000
_cell_angle_gamma 90.000000
_cell_volume 2762.809030
_symmetry_space_group_name_H-M "P M M A"
_symmetry_group_IT_number 51
_symmetry_cell_setting 'orthorhombic'
loop_
_space_group_symop_operation_xyz
x,y,z
1/2-x,-y,z
1/2+x,-y,-z
-x,y,-z
-x,-y,-z
1/2+x,y,-z
1/2-x,y,z
x,-y,z
loop_
_atom_site_type_symbol
_atom_site_label
_atom_site_fract_x
_atom_site_fract_y
_atom_site_fract_z
Si Si1 0.078171 0.610230 0.123209
Si Si2 0.421411 0.195930 0.061325
Si Si3 0.919425 0.194700 0.562502
Si Si4 0.915035 0.116446 0.803967
Si Si5 0.085523 0.116670 0.681993
Si Si6 0.086561 0.382514 0.751240
Si Si7 0.918639 0.388919 0.626735
O O1 0.250000 0.610609 0.132287
O O2 0.034080 0.500000 0.108218
O O3 0.044722 0.690548 0.071959
O O4 0.004540 0.641888 0.187692
O O5 0.250000 0.184401 0.054280
O O6 0.462329 0.146593 0.126844
O O7 0.500000 0.159012 0.000000
O O8 0.750000 0.173367 0.559259
O O9 0.937770 0.310177 0.573098
O O10 0.000000 0.163863 0.500000
O O11 0.989760 0.147433 0.623427
O O12 0.750000 0.151191 0.794924
O O13 0.015133 0.149859 0.747242
O O14 0.912115 0.000000 0.801897
O O15 0.250000 0.150151 0.675015
O O16 0.087605 0.000000 0.683759
O O17 0.250000 0.348111 0.755565
O O18 0.089428 0.500000 0.750829
O O19 0.011467 0.357263 0.686290
O O20 0.750000 0.386963 0.644697
O O21 0.954489 0.500000 0.610039
#
# Coordination Sequence:
#
# PCOD9406635 Si02
#       7
#     8   8   8   8   8   8   8
#     4   9  18  33  51  72 105 148 189 230 278 335
#     4  10  22  37  54  80 112 148 190 232 282 340
#     4  11  24  40  60  87 120 158 198 239 288 343
#     4   9  19  38  62  86 113 146 185 231 284 343
#     4  10  22  41  65  92 119 149 189 238 292 349
#     4   9  17  29  48  77 107 137 181 236 287 330
#     4   9  19  36  56  79 112 155 197 235 281 339
#
# _framework density 20.269227000000001
#
# number of rings (size 3 to 8) (size 9 to 14) (size 15 to 20)
#    0.000    2.429    0.000    1.286    2.000    6.000 
#    0.000    0.000    0.000    0.000    0.000    0.000 
#    0.000    0.000    0.000    0.000    0.000    0.000 
#
# Total GULP energy -312725.350985 kJ/mol
# GULP energy per Si atom -5584.381268 kJ/mol
# Density = 2.022309 g / cm^3
# Si number density = 20.269227 Si / 1000 Ang^3
#
#
#
# Elastic Constant Matrix: (Units=GPa)
#
#
# Indices 1 2 3 4 5 6 
#
# 1 82.2386 17.8954 78.3148 0.0000 0.0000 0.0000
# 2 17.8954 38.1627 16.1972 0.0000 0.0000 0.0000
# 3 78.3148 16.1972 153.6692 0.0000 0.0000 0.0000
# 4 0.0000 0.0000 0.0000 16.8870 0.0000 0.0000
# 5 0.0000 0.0000 0.0000 0.0000 34.6641 0.0000
# 6 0.0000 0.0000 0.0000 0.0000 0.0000 19.0311
#
#
#
# Elastic Compliance Matrix: (Units=1/GPa)
#
#
# Indices 1 2 3 4 5 6 
#
# 1 0.025140 -0.006648 -0.012111 0.000000 0.000000 0.000000
# 2 -0.006648 0.029189 0.000312 0.000000 0.000000 0.000000
# 3 -0.012111 0.000312 0.012647 0.000000 0.000000 0.000000
# 4 0.000000 0.000000 0.000000 0.059217 0.000000 0.000000
# 5 0.000000 0.000000 0.000000 0.000000 0.028848 0.000000
# 6 0.000000 0.000000 0.000000 0.000000 0.000000 0.052546
#
#
# Mechanical properties :
#
#
# Convention : Reuss Voigt Hill
#
# Bulk Modulus (GPa) = 33.24509 55.43170 44.33839
# Shear Modulus (GPa) = 19.64562 24.89398 22.26980
#
# Velocity S-wave (km/s) = 3.11663 3.50832 3.31826
# Velocity P-wave (km/s) = 5.42112 6.61953 6.05007
#
# Compressibility (1/GPa) = 0.03007963
#
# Stress axis : x y z
#
# Youngs Moduli (GPa) = 39.77720 34.25955 79.07003
#
# Poissons Ratio (x) = 0.22777 0.95765
# Poissons Ratio (y) = 0.26445 -0.02464
# Poissons Ratio (z) = 0.48176 -0.01068
#
# Static dielectric constant tensor:
#      x y z
#    x 1.689270 0.000000 0.000000 
#    y 0.000000 1.783030 0.000000 
#    z 0.000000 0.000000 1.667710 
# 
# From -- ./inp_files/31862.got.cif
#   From: 2010.05.17/outbox.cif.g08.bks.cpg/sg51_16_cif.got.tgz:31862.got - 2010.06.03 11:52:47.
