data_PCOD9406330
_publ_section_title
;
Structure prediction by ZEFSAII (Michael W. Deem and Ramdas Pophale) SiO2 
 PCOD9406330
Probable space group: P M M A
;
_chemical_formula_sum "Si O2"
_cell_formula_units_Z 40
_cell_length_a 8.341326
_cell_length_b 26.942880
_cell_length_c 9.443559
_cell_angle_alpha 90.000000
_cell_angle_beta 90.000000
_cell_angle_gamma 90.000000
_cell_volume 2122.339268
_symmetry_space_group_name_H-M "P M M A"
_symmetry_group_IT_number 51
_symmetry_cell_setting 'orthorhombic'
loop_
_space_group_symop_operation_xyz
x,y,z
1/2-x,-y,z
1/2+x,-y,-z
-x,y,-z
-x,-y,-z
1/2+x,y,-z
1/2-x,y,z
x,-y,z
loop_
_atom_site_type_symbol
_atom_site_label
_atom_site_fract_x
_atom_site_fract_y
_atom_site_fract_z
Si Si1 0.555975 0.161714 0.837457
Si Si2 0.558465 0.352281 0.839886
Si Si3 0.056307 0.946738 0.163443
Si Si4 0.941890 0.443474 0.341915
Si Si5 0.055994 0.257105 0.338940
O O1 0.750000 0.162224 0.838539
O O2 0.502890 0.107200 0.781416
O O3 0.500236 0.207441 0.742014
O O4 0.500000 0.167346 0.000000
O O5 0.750000 0.351109 0.839482
O O6 0.503251 0.403410 0.768829
O O7 0.499855 0.305792 0.746014
O O8 0.500000 0.347867 0.000000
O O9 0.250000 0.946857 0.166690
O O10 0.001541 0.000000 0.225848
O O11 0.000000 0.946891 0.000000
O O12 0.750000 0.443192 0.341117
O O13 0.997229 0.500000 0.312115
O O14 0.000000 0.430376 0.500000
O O15 0.250000 0.257094 0.337262
O O16 0.000000 0.258208 0.500000
#
# Coordination Sequence:
#
# PCOD9406330 Si02
#       5
#     8   8   8   8   8
#     4   9  17  30  48  72 100 128 163 206 251 299
#     4  11  23  38  57  81 108 138 174 216 262 310
#     4   8  13  22  39  64  93 124 157 196 243 293
#     4  10  21  38  60  85 113 145 179 214 254 302
#     4  10  22  37  53  74 100 133 171 210 254 306
#
# _framework density 18.847128000000001
#
# number of rings (size 3 to 8) (size 9 to 14) (size 15 to 20)
#    0.000    2.400    0.000    2.400    0.000    5.600 
#    0.000    0.000    0.000    0.600    0.000    0.000 
#    0.000    0.000    0.000    0.000    0.000    0.000 
#
# Total GULP energy -223061.931236 kJ/mol
# GULP energy per Si atom -5576.548281 kJ/mol
# Density = 1.880423 g / cm^3
# Si number density = 18.847128 Si / 1000 Ang^3
#
#
#
# Elastic Constant Matrix: (Units=GPa)
#
#
# Indices 1 2 3 4 5 6 
#
# 1 17.6296 22.1053 14.0994 0.0000 0.0000 0.0000
# 2 22.1053 168.1427 102.9925 0.0000 0.0000 0.0000
# 3 14.0994 102.9925 122.8182 0.0000 0.0000 0.0000
# 4 0.0000 0.0000 0.0000 -11.6775 0.0000 0.0000
# 5 0.0000 0.0000 0.0000 0.0000 29.8529 0.0000
# 6 0.0000 0.0000 0.0000 0.0000 0.0000 -103.2227
#
#
#
# Elastic Compliance Matrix: (Units=1/GPa)
#
#
# Indices 1 2 3 4 5 6 
#
# 1 0.067943 -0.008543 -0.000636 0.000000 0.000000 0.000000
# 2 -0.008543 0.013303 -0.010175 0.000000 0.000000 0.000000
# 3 -0.000636 -0.010175 0.016747 0.000000 0.000000 0.000000
# 4 0.000000 0.000000 0.000000 -0.085635 0.000000 0.000000
# 5 0.000000 0.000000 0.000000 0.000000 0.033498 0.000000
# 6 0.000000 0.000000 0.000000 0.000000 0.000000 -0.009688
#
#
# Mechanical properties :
#
#
# Convention : Reuss Voigt Hill
#
# Bulk Modulus (GPa) = 16.86740 65.22055 41.04397
# Shear Modulus (GPa) = 52.83387 -5.71657 23.55865
#
# Velocity S-wave (km/s) = 5.30035 -1.74348 3.53935
# Velocity P-wave (km/s) = 6.81376 5.53419 6.20703
#
# Compressibility (1/GPa) = 0.05928596
#
# Stress axis : x y z
#
# Youngs Moduli (GPa) = 14.71830 75.17293 59.71095
#
# Poissons Ratio (x) = 0.64217 0.03799
# Poissons Ratio (y) = 0.12573 0.60754
# Poissons Ratio (z) = 0.00936 0.76486
#
# Static dielectric constant tensor:
#      x y z
#    x 1.651690 0.000000 0.000000 
#    y 0.000000 1.712010 0.000000 
#    z 0.000000 0.000000 1.597130 
# 
# From -- ./inp_files/5196.got.cif
#   From: 2010.05.17/outbox.cif.g08.bks.cpg/sg51_3_cif.got.tgz:5196.got - 2010.06.03 11:52:47.
