data_PCOD9406699
_publ_section_title
;
Structure prediction by ZEFSAII (Michael W. Deem and Ramdas Pophale) SiO2 
 PCOD9406699
Probable space group: P M M A
;
_chemical_formula_sum "Si O2"
_cell_formula_units_Z 40
_cell_length_a 18.199206
_cell_length_b 12.979849
_cell_length_c 9.123967
_cell_angle_alpha 90.000000
_cell_angle_beta 90.000000
_cell_angle_gamma 90.000000
_cell_volume 2155.290362
_symmetry_space_group_name_H-M "P M M A"
_symmetry_group_IT_number 51
_symmetry_cell_setting 'orthorhombic'
loop_
_space_group_symop_operation_xyz
x,y,z
1/2-x,-y,z
1/2+x,-y,-z
-x,y,-z
-x,-y,-z
1/2+x,y,-z
1/2-x,y,z
x,-y,z
loop_
_atom_site_type_symbol
_atom_site_label
_atom_site_fract_x
_atom_site_fract_y
_atom_site_fract_z
Si Si1 0.476535 0.879751 0.828829
Si Si2 0.556680 0.287462 0.630107
Si Si3 0.663052 0.616890 0.430548
Si Si4 0.920435 0.614572 0.926775
Si Si5 0.836548 0.745452 0.143850
O O1 0.527840 0.812366 0.719665
O O2 0.393368 0.836693 0.819336
O O3 0.480796 0.000000 0.791925
O O4 0.500000 0.867853 0.000000
O O5 0.500000 0.310339 0.500000
O O6 0.632389 0.297141 0.541728
O O7 0.564596 0.371786 0.756098
O O8 0.750000 0.611364 0.448646
O O9 0.633405 0.500000 0.451372
O O10 0.648737 0.657805 0.266496
O O11 0.894169 0.500000 0.960924
O O12 0.863340 0.696697 0.990631
O O13 0.000000 0.630512 0.000000
O O14 0.750000 0.771099 0.144633
#
# Coordination Sequence:
#
# PCOD9406699 Si02
#       5
#     8   8   8   8   8
#     4  11  23  44  66  86 113 150 203 259 309 350
#     4  12  21  38  61  90 119 158 200 244 299 357
#     4  10  22  38  57  87 129 168 197 236 296 361
#     4  11  21  35  57  87 121 155 200 242 283 346
#     4  11  21  40  63  87 121 158 204 248 295 358
#
# _framework density 18.558985
#
# number of rings (size 3 to 8) (size 9 to 14) (size 15 to 20)
#    0.000    1.000    6.000    1.200    0.000    6.000 
#    0.000    0.000    0.000    0.600    0.000    0.000 
#    0.000    0.000    0.000    0.000    0.000    0.000 
#
# Total GULP energy -222973.700857 kJ/mol
# GULP energy per Si atom -5574.342521 kJ/mol
# Density = 1.851674 g / cm^3
# Si number density = 18.558985 Si / 1000 Ang^3
#
#
#
# Elastic Constant Matrix: (Units=GPa)
#
#
# Indices 1 2 3 4 5 6 
#
# 1 71.8629 47.3563 33.8949 0.0000 0.0000 0.0000
# 2 47.3563 95.4327 16.9554 0.0000 0.0000 0.0000
# 3 33.8949 16.9554 103.4191 0.0000 0.0000 0.0000
# 4 0.0000 0.0000 0.0000 9.6343 0.0000 0.0000
# 5 0.0000 0.0000 0.0000 0.0000 27.4573 0.0000
# 6 0.0000 0.0000 0.0000 0.0000 0.0000 11.9753
#
#
#
# Elastic Compliance Matrix: (Units=1/GPa)
#
#
# Indices 1 2 3 4 5 6 
#
# 1 0.023868 -0.010768 -0.006057 0.000000 0.000000 0.000000
# 2 -0.010768 0.015651 0.000963 0.000000 0.000000 0.000000
# 3 -0.006057 0.000963 0.011497 0.000000 0.000000 0.000000
# 4 0.000000 0.000000 0.000000 0.103795 0.000000 0.000000
# 5 0.000000 0.000000 0.000000 0.000000 0.036420 0.000000
# 6 0.000000 0.000000 0.000000 0.000000 0.000000 0.083505
#
#
# Mechanical properties :
#
#
# Convention : Reuss Voigt Hill
#
# Bulk Modulus (GPa) = 51.83559 51.90311 51.86935
# Shear Modulus (GPa) = 15.98003 21.31395 18.64699
#
# Velocity S-wave (km/s) = 2.93753 3.39255 3.17320
# Velocity P-wave (km/s) = 6.28461 6.58583 6.43698
#
# Compressibility (1/GPa) = 0.01929177
#
# Stress axis : x y z
#
# Youngs Moduli (GPa) = 41.89681 63.89465 86.98149
#
# Poissons Ratio (x) = 0.68801 0.52687
# Poissons Ratio (y) = 0.45114 -0.08378
# Poissons Ratio (z) = 0.25378 -0.06154
#
# Static dielectric constant tensor:
#      x y z
#    x 1.674470 0.000000 0.000000 
#    y 0.000000 1.636920 0.000000 
#    z 0.000000 0.000000 1.694860 
# 
# From -- ./inp_files/7965.got.cif
#   From: 2010.05.17/outbox.cif.g08.bks.cpg/sg51_4_cif.got.tgz:7965.got - 2010.06.03 11:52:47.
