data_PCOD9406121
_publ_section_title
;
Structure prediction by ZEFSAII (Michael W. Deem and Ramdas Pophale) SiO2 
 PCOD9406121
Probable space group: P M M A
;
_chemical_formula_sum "Si O2"
_cell_formula_units_Z 52
_cell_length_a 7.811813
_cell_length_b 20.232393
_cell_length_c 15.978907
_cell_angle_alpha 90.000000
_cell_angle_beta 90.000000
_cell_angle_gamma 90.000000
_cell_volume 2525.492947
_symmetry_space_group_name_H-M "P M M A"
_symmetry_group_IT_number 51
_symmetry_cell_setting 'orthorhombic'
loop_
_space_group_symop_operation_xyz
x,y,z
1/2-x,-y,z
1/2+x,-y,-z
-x,y,-z
-x,-y,-z
1/2+x,y,-z
1/2-x,y,z
x,-y,z
loop_
_atom_site_type_symbol
_atom_site_label
_atom_site_fract_x
_atom_site_fract_y
_atom_site_fract_z
Si Si1 0.040555 0.424634 0.141911
Si Si2 0.454126 0.500000 0.594893
Si Si3 0.053192 0.766943 0.597829
Si Si4 0.456405 0.075655 0.905085
Si Si5 0.946888 0.367816 0.680228
Si Si6 0.954296 0.182739 0.227385
Si Si7 0.546220 0.287040 0.911121
O O1 0.250000 0.427902 0.140821
O O2 0.980645 0.500000 0.126498
O O3 0.986086 0.395512 0.231713
O O4 0.982352 0.362992 0.086292
O O5 0.250000 0.500000 0.611765
O O6 0.500000 0.500000 0.500000
O O7 0.540356 0.565876 0.628181
O O8 0.250000 0.786109 0.595807
O O9 0.975122 0.807392 0.677940
O O10 0.000000 0.772025 0.500000
O O11 0.036282 0.691655 0.631381
O O12 0.250000 0.075602 0.899811
O O13 0.522345 0.123654 0.831672
O O14 0.517194 0.000000 0.894921
O O15 0.500000 0.096614 0.000000
O O16 0.750000 0.346697 0.692599
O O17 0.750000 0.173332 0.235286
O O18 0.979835 0.247820 0.169750
O O19 0.750000 0.287915 0.903525
O O20 0.500000 0.255047 0.000000
#
# Coordination Sequence:
#
# PCOD9406121 Si02
#       7
#     8   4   8   8   8   8   8
#     4   9  18  34  55  75  98 133 178 224 275 330
#     4  12  24  36  50  74 101 132 173 224 285 345
#     4  11  23  38  56  80 110 142 183 230 279 333
#     4   9  18  34  57  87 121 154 186 222 269 324
#     4  11  20  36  57  76 100 134 177 228 284 339
#     4  10  21  37  58  84 114 147 186 232 275 326
#     4  11  22  36  56  81 109 144 183 228 279 333
#
# _framework density 20.590039999999998
#
# number of rings (size 3 to 8) (size 9 to 14) (size 15 to 20)
#    0.000    1.692    2.308    3.000    0.000    2.769 
#    0.000    0.000    0.000    0.462    0.000    0.000 
#    0.000    0.000    0.000    0.000    0.000    0.154 
#
# Total GULP energy -289785.883919 kJ/mol
# GULP energy per Si atom -5572.805460 kJ/mol
# Density = 2.054318 g / cm^3
# Si number density = 20.590040 Si / 1000 Ang^3
#
#
#
# Elastic Constant Matrix: (Units=GPa)
#
#
# Indices 1 2 3 4 5 6 
#
# 1 34.1728 -1.3202 -1.7652 0.0000 0.0000 0.0000
# 2 -1.3202 125.7702 66.5409 0.0000 0.0000 0.0000
# 3 -1.7652 66.5409 174.7329 0.0000 0.0000 0.0000
# 4 0.0000 0.0000 0.0000 36.1095 0.0000 0.0000
# 5 0.0000 0.0000 0.0000 0.0000 -0.6575 0.0000
# 6 0.0000 0.0000 0.0000 0.0000 0.0000 -10.4436
#
#
#
# Elastic Compliance Matrix: (Units=1/GPa)
#
#
# Indices 1 2 3 4 5 6 
#
# 1 0.029282 0.000189 0.000224 0.000000 0.000000 0.000000
# 2 0.000189 0.009958 -0.003790 0.000000 0.000000 0.000000
# 3 0.000224 -0.003790 0.007169 0.000000 0.000000 0.000000
# 4 0.000000 0.000000 0.000000 0.027694 0.000000 0.000000
# 5 0.000000 0.000000 0.000000 0.000000 -1.521013 0.000000
# 6 0.000000 0.000000 0.000000 0.000000 0.000000 -0.095753
#
#
# Mechanical properties :
#
#
# Convention : Reuss Voigt Hill
#
# Bulk Modulus (GPa) = 25.21828 51.28745 38.25287
# Shear Modulus (GPa) = -3.28366 23.08306 9.89970
#
# Velocity S-wave (km/s) = -1.26422 3.35188 2.19509
# Velocity P-wave (km/s) = 3.18487 6.32006 5.00432
#
# Compressibility (1/GPa) = 0.03965377
#
# Stress axis : x y z
#
# Youngs Moduli (GPa) = 34.15081 100.41810 139.49498
#
# Poissons Ratio (x) = -0.01897 -0.03123
# Poissons Ratio (y) = -0.00645 0.52874
# Poissons Ratio (z) = -0.00765 0.38062
#
# Static dielectric constant tensor:
#      x y z
#    x 1.787120 0.000000 0.000000 
#    y 0.000000 1.743670 0.000000 
#    z 0.000000 0.000000 1.783620 
# 
# From -- ./inp_files/21631.got.cif
#   From: 2010.05.17/outbox.cif.g08.bks.cpg/sg51_11_cif.got.tgz:21631.got - 2010.06.03 11:52:47.
