data_PCOD9406627
_publ_section_title
;
Structure prediction by ZEFSAII (Michael W. Deem and Ramdas Pophale) SiO2 
 PCOD9406627
Probable space group: P M M A
;
_chemical_formula_sum "Si O2"
_cell_formula_units_Z 44
_cell_length_a 8.076395
_cell_length_b 30.359005
_cell_length_c 9.174346
_cell_angle_alpha 90.000000
_cell_angle_beta 90.000000
_cell_angle_gamma 90.000000
_cell_volume 2249.469971
_symmetry_space_group_name_H-M "P M M A"
_symmetry_group_IT_number 51
_symmetry_cell_setting 'orthorhombic'
loop_
_space_group_symop_operation_xyz
x,y,z
1/2-x,-y,z
1/2+x,-y,-z
-x,y,-z
-x,-y,-z
1/2+x,y,-z
1/2-x,y,z
x,-y,z
loop_
_atom_site_type_symbol
_atom_site_label
_atom_site_fract_x
_atom_site_fract_y
_atom_site_fract_z
Si Si1 0.450193 0.952632 0.670987
Si Si2 0.550133 0.857994 0.329512
Si Si3 0.450363 0.325175 0.832450
Si Si4 0.445631 0.500000 0.167326
Si Si5 0.950189 0.762175 0.330683
Si Si6 0.946744 0.588009 0.332959
O O1 0.500000 0.952607 0.500000
O O2 0.250000 0.952657 0.678583
O O3 0.509212 0.905279 0.732091
O O4 0.509100 0.000000 0.731940
O O5 0.500000 0.857971 0.500000
O O6 0.750000 0.858164 0.320701
O O7 0.491634 0.810290 0.273580
O O8 0.250000 0.324970 0.824324
O O9 0.510822 0.279771 0.759535
O O10 0.513413 0.367992 0.745383
O O11 0.500000 0.327922 0.000000
O O12 0.250000 0.500000 0.172706
O O13 0.505639 0.456076 0.247829
O O14 0.500000 0.500000 0.000000
O O15 0.750000 0.762268 0.325214
O O16 0.000000 0.757827 0.500000
O O17 0.750000 0.591125 0.329930
O O18 0.000000 0.585676 0.500000
#
# Coordination Sequence:
#
# PCOD9406627 Si02
#       6
#     8   8   8   4   8   8
#     4   8  12  17  26  43  69 103 140 176 218 270
#     4   8  13  21  34  52  78 110 144 184 228 276
#     4  10  22  37  54  76 103 133 167 207 252 300
#     4  12  25  42  63  88 118 150 182 218 257 298
#     4   9  17  30  47  69  94 123 159 198 242 292
#     4  11  23  40  61  86 113 143 178 215 256 302
#
# _framework density 19.560164
#
# number of rings (size 3 to 8) (size 9 to 14) (size 15 to 20)
#    0.000    2.545    0.000    2.727    0.000    3.636 
#    0.000    0.000    0.000    0.000    0.000    0.000 
#    0.000    0.727    0.000    0.545    0.000   10.909 
#
# Total GULP energy -245171.868557 kJ/mol
# GULP energy per Si atom -5572.087922 kJ/mol
# Density = 1.951564 g / cm^3
# Si number density = 19.560164 Si / 1000 Ang^3
#
#
#
# Elastic Constant Matrix: (Units=GPa)
#
#
# Indices 1 2 3 4 5 6 
#
# 1 23.3177 18.6716 5.4654 0.0000 0.0000 0.0000
# 2 18.6716 267.2593 91.7208 0.0000 0.0000 0.0000
# 3 5.4654 91.7208 93.8212 0.0000 0.0000 0.0000
# 4 0.0000 0.0000 0.0000 -7.6916 0.0000 0.0000
# 5 0.0000 0.0000 0.0000 0.0000 22.9966 0.0000
# 6 0.0000 0.0000 0.0000 0.0000 0.0000 -11.9131
#
#
#
# Elastic Compliance Matrix: (Units=1/GPa)
#
#
# Indices 1 2 3 4 5 6 
#
# 1 0.045457 -0.003412 0.000687 0.000000 0.000000 0.000000
# 2 -0.003412 0.005887 -0.005556 0.000000 0.000000 0.000000
# 3 0.000687 -0.005556 0.016051 0.000000 0.000000 0.000000
# 4 0.000000 0.000000 0.000000 -0.130013 0.000000 0.000000
# 5 0.000000 0.000000 0.000000 0.000000 0.043485 0.000000
# 6 0.000000 0.000000 0.000000 0.000000 0.000000 -0.083941
#
#
# Mechanical properties :
#
#
# Convention : Reuss Voigt Hill
#
# Bulk Modulus (GPa) = 19.67247 68.45709 44.06478
# Shear Modulus (GPa) = -71.87091 18.58108 -26.64491
#
# Velocity S-wave (km/s) = -6.06822 3.08546 -3.69481
# Velocity P-wave (km/s) = 6.24648 6.91141 2.09155
#
# Compressibility (1/GPa) = 0.05083247
#
# Stress axis : x y z
#
# Youngs Moduli (GPa) = 21.99904 169.86769 62.30314
#
# Poissons Ratio (x) = 0.57952 -0.04282
# Poissons Ratio (y) = 0.07505 0.34618
# Poissons Ratio (z) = -0.01512 0.94385
#
# Static dielectric constant tensor:
#      x y z
#    x 1.680420 0.000000 0.000000 
#    y 0.000000 2.502080 0.000000 
#    z 0.000000 0.000000 1.617050 
# 
# From -- ./inp_files/5835.got.cif
#   From: 2010.05.17/outbox.cif.g08.bks.cpg/sg51_3_cif.got.tgz:5835.got - 2010.06.03 11:52:47.
