data_PCOD9406892
_publ_section_title
;
Structure prediction by ZEFSAII (Michael W. Deem and Ramdas Pophale) SiO2 
 PCOD9406892
Probable space group: P M M A
;
_chemical_formula_sum "Si O2"
_cell_formula_units_Z 40
_cell_length_a 15.767675
_cell_length_b 8.798469
_cell_length_c 15.653041
_cell_angle_alpha 90.000000
_cell_angle_beta 90.000000
_cell_angle_gamma 90.000000
_cell_volume 2171.568287
_symmetry_space_group_name_H-M "P M M A"
_symmetry_group_IT_number 51
_symmetry_cell_setting 'orthorhombic'
loop_
_space_group_symop_operation_xyz
x,y,z
1/2-x,-y,z
1/2+x,-y,-z
-x,y,-z
-x,-y,-z
1/2+x,y,-z
1/2-x,y,z
x,-y,z
loop_
_atom_site_type_symbol
_atom_site_label
_atom_site_fract_x
_atom_site_fract_y
_atom_site_fract_z
Si Si1 0.750000 0.000000 0.798750
Si Si2 0.750000 0.320068 0.905693
Si Si3 0.850492 0.819924 0.211536
Si Si4 0.957291 0.241217 0.365393
Si Si5 0.848280 0.000000 0.468049
Si Si6 0.907505 0.678379 0.035766
Si Si7 0.900727 0.000000 0.663797
Si Si8 0.500000 0.500000 0.500000
O O1 0.750000 0.164282 0.848637
O O2 0.832283 0.000000 0.737927
O O3 0.750000 0.500000 0.871183
O O4 0.666019 0.308575 0.964682
O O5 0.750000 0.793367 0.216894
O O6 0.900664 0.724375 0.282561
O O7 0.882287 0.776316 0.117775
O O8 0.865655 0.000000 0.228613
O O9 0.896629 0.141210 0.426577
O O10 0.036916 0.143603 0.333092
O O11 0.990565 0.371353 0.425309
O O12 0.858341 0.000000 0.569938
O O13 0.750000 0.000000 0.444068
O O14 0.911239 0.500000 0.060736
O O15 0.000000 0.721214 0.000000
#
# Coordination Sequence:
#
# PCOD9406892 Si02
#       8
#     2   4   8   8   4   8   4   2
#     4  12  28  42  68 100 124 186 240 272 342 408
#     4  10  24  48  66  91 141 180 223 285 340 410
#     4  11  23  39  65 101 128 162 219 285 335 393
#     4  11  23  41  65  93 130 171 216 271 336 404
#     4  11  19  42  69  85 123 170 207 270 339 390
#     4  10  23  42  64  93 134 180 214 270 344 404
#     4  11  22  44  64  90 125 168 221 278 319 395
#     4  12  24  42  62 100 130 178 220 264 350 420
#
# _framework density 18.419865999999999
#
# number of rings (size 3 to 8) (size 9 to 14) (size 15 to 20)
#    0.000    1.200    5.500    1.200    5.600    0.400 
#    1.800    1.500    4.400    0.000    0.000    0.000 
#    0.000    0.000    0.000    0.000    0.000    0.000 
#
# Total GULP energy -222671.164714 kJ/mol
# GULP energy per Si atom -5566.779118 kJ/mol
# Density = 1.837794 g / cm^3
# Si number density = 18.419866 Si / 1000 Ang^3
#
#
#
# Elastic Constant Matrix: (Units=GPa)
#
#
# Indices 1 2 3 4 5 6 
#
# 1 135.3152 50.3735 55.3213 0.0000 0.0000 0.0000
# 2 50.3735 89.2818 57.1483 0.0000 0.0000 0.0000
# 3 55.3213 57.1483 115.3662 0.0000 0.0000 0.0000
# 4 0.0000 0.0000 0.0000 78.8234 0.0000 0.0000
# 5 0.0000 0.0000 0.0000 0.0000 36.4732 0.0000
# 6 0.0000 0.0000 0.0000 0.0000 0.0000 7.3227
#
#
#
# Elastic Compliance Matrix: (Units=1/GPa)
#
#
# Indices 1 2 3 4 5 6 
#
# 1 0.009987 -0.003762 -0.002925 0.000000 0.000000 0.000000
# 2 -0.003762 0.017818 -0.007022 0.000000 0.000000 0.000000
# 3 -0.002925 -0.007022 0.013549 0.000000 0.000000 0.000000
# 4 0.000000 0.000000 0.000000 0.012687 0.000000 0.000000
# 5 0.000000 0.000000 0.000000 0.000000 0.027417 0.000000
# 6 0.000000 0.000000 0.000000 0.000000 0.000000 0.136562
#
#
# Mechanical properties :
#
#
# Convention : Reuss Voigt Hill
#
# Bulk Modulus (GPa) = 71.76379 73.96104 72.86241
# Shear Modulus (GPa) = 19.99327 36.33188 28.16258
#
# Velocity S-wave (km/s) = 3.29814 4.44602 3.91439
# Velocity P-wave (km/s) = 7.31767 8.16065 7.75063
#
# Compressibility (1/GPa) = 0.01393460
#
# Stress axis : x y z
#
# Youngs Moduli (GPa) = 100.13423 56.12288 73.80388
#
# Poissons Ratio (x) = 0.21114 0.21589
# Poissons Ratio (y) = 0.37672 0.51828
# Poissons Ratio (z) = 0.29292 0.39412
#
# Static dielectric constant tensor:
#      x y z
#    x 1.621990 0.000000 0.000000 
#    y 0.000000 1.657680 0.000000 
#    z 0.000000 0.000000 1.618880 
# 
# From -- ./inp_files/23898.got.cif
#   From: 2010.05.17/outbox.cif.g08.bks.cpg/sg51_12_cif.got.tgz:23898.got - 2010.06.03 11:52:47.
