data_PCOD9406340
_publ_section_title
;
Structure prediction by ZEFSAII (Michael W. Deem and Ramdas Pophale) SiO2 
 PCOD9406340
Probable space group: P M M A
;
_chemical_formula_sum "Si O2"
_cell_formula_units_Z 48
_cell_length_a 8.686832
_cell_length_b 30.618939
_cell_length_c 9.777432
_cell_angle_alpha 90.000000
_cell_angle_beta 90.000000
_cell_angle_gamma 90.000000
_cell_volume 2600.616803
_symmetry_space_group_name_H-M "P M M A"
_symmetry_group_IT_number 51
_symmetry_cell_setting 'orthorhombic'
loop_
_space_group_symop_operation_xyz
x,y,z
1/2-x,-y,z
1/2+x,-y,-z
-x,y,-z
-x,-y,-z
1/2+x,y,-z
1/2-x,y,z
x,-y,z
loop_
_atom_site_type_symbol
_atom_site_label
_atom_site_fract_x
_atom_site_fract_y
_atom_site_fract_z
Si Si1 0.064616 0.549998 0.851571
Si Si2 0.435368 0.372172 0.652634
Si Si3 0.434164 0.949084 0.148617
Si Si4 0.434336 0.298555 0.149722
Si Si5 0.565872 0.123089 0.348034
Si Si6 0.935011 0.202054 0.147738
O O1 0.250000 0.550438 0.859305
O O2 0.015007 0.500000 0.823691
O O3 0.018057 0.584143 0.735579
O O4 0.000000 0.562791 0.000000
O O5 0.500000 0.372674 0.500000
O O6 0.250000 0.369815 0.649829
O O7 0.501232 0.331491 0.737697
O O8 0.250000 0.945518 0.145560
O O9 0.501209 0.918046 0.264567
O O10 0.475203 0.000000 0.171853
O O11 0.500000 0.936453 0.000000
O O12 0.250000 0.299505 0.145991
O O13 0.492898 0.249390 0.177331
O O14 0.500000 0.310832 0.000000
O O15 0.500000 0.124779 0.500000
O O16 0.750000 0.120217 0.353309
O O17 0.525090 0.166485 0.261843
O O18 0.750000 0.206104 0.138945
O O19 0.000000 0.187937 0.000000
#
# Coordination Sequence:
#
# PCOD9406340 Si02
#       6
#     8   8   8   8   8   8
#     4   9  19  36  58  83 110 143 185 231 278 330
#     4  11  23  38  56  81 115 151 188 231 281 336
#     4  10  21  38  61  87 115 149 190 235 281 332
#     4  11  22  38  61  86 113 147 188 233 280 331
#     4  11  24  39  58  84 116 153 190 232 282 337
#     4  10  21  38  60  86 113 145 188 234 282 334
#
# _framework density 18.457159000000001
#
# number of rings (size 3 to 8) (size 9 to 14) (size 15 to 20)
#    0.000    1.667    0.000    5.500    0.000    9.000 
#    0.000    1.667    0.000    0.000    0.000    0.000 
#    0.000    0.000    0.000    0.000    0.000    0.000 
#
# Total GULP energy -268314.015663 kJ/mol
# GULP energy per Si atom -5589.875326 kJ/mol
# Density = 1.841515 g / cm^3
# Si number density = 18.457159 Si / 1000 Ang^3
#
#
#
# Elastic Constant Matrix: (Units=GPa)
#
#
# Indices 1 2 3 4 5 6 
#
# 1 78.4855 57.4420 69.3842 0.0000 0.0000 0.0000
# 2 57.4420 118.8535 127.5009 0.0000 0.0000 0.0000
# 3 69.3842 127.5009 204.7602 0.0000 0.0000 0.0000
# 4 0.0000 0.0000 0.0000 -18.2911 0.0000 0.0000
# 5 0.0000 0.0000 0.0000 0.0000 36.8178 0.0000
# 6 0.0000 0.0000 0.0000 0.0000 0.0000 16.2596
#
#
#
# Elastic Compliance Matrix: (Units=1/GPa)
#
#
# Indices 1 2 3 4 5 6 
#
# 1 0.020065 -0.007240 -0.002291 0.000000 0.000000 0.000000
# 2 -0.007240 0.027954 -0.014953 0.000000 0.000000 0.000000
# 3 -0.002291 -0.014953 0.014971 0.000000 0.000000 0.000000
# 4 0.000000 0.000000 0.000000 -0.054671 0.000000 0.000000
# 5 0.000000 0.000000 0.000000 0.000000 0.027161 0.000000
# 6 0.000000 0.000000 0.000000 0.000000 0.000000 0.061502
#
#
# Mechanical properties :
#
#
# Convention : Reuss Voigt Hill
#
# Bulk Modulus (GPa) = 71.31528 101.19482 86.25505
# Shear Modulus (GPa) = 33.19522 16.80872 25.00197
#
# Velocity S-wave (km/s) = 4.24547 3.02104 3.68447
# Velocity P-wave (km/s) = 7.92176 8.19236 8.05819
#
# Compressibility (1/GPa) = 0.01402224
#
# Stress axis : x y z
#
# Youngs Moduli (GPa) = 49.83728 35.77338 66.79460
#
# Poissons Ratio (x) = 0.25899 0.15304
# Poissons Ratio (y) = 0.36080 0.99879
# Poissons Ratio (z) = 0.11419 0.53493
#
# Static dielectric constant tensor:
#      x y z
#    x 1.618470 0.000000 0.000000 
#    y 0.000000 1.635130 0.000000 
#    z 0.000000 0.000000 1.594230 
# 
# From -- ./inp_files/6008.got.cif
#   From: 2010.05.17/outbox.cif.g08.bks.cpg/sg51_4_cif.got.tgz:6008.got - 2010.06.03 11:52:47.
