data_PCOD9406491
_publ_section_title
;
Structure prediction by ZEFSAII (Michael W. Deem and Ramdas Pophale) SiO2 
 PCOD9406491
Probable space group: P M M A
;
_chemical_formula_sum "Si O2"
_cell_formula_units_Z 64
_cell_length_a 24.409032
_cell_length_b 8.923829
_cell_length_c 15.128988
_cell_angle_alpha 90.000000
_cell_angle_beta 90.000000
_cell_angle_gamma 90.000000
_cell_volume 3295.426842
_symmetry_space_group_name_H-M "P M M A"
_symmetry_group_IT_number 51
_symmetry_cell_setting 'orthorhombic'
loop_
_space_group_symop_operation_xyz
x,y,z
1/2-x,-y,z
1/2+x,-y,-z
-x,y,-z
-x,-y,-z
1/2+x,y,-z
1/2-x,y,z
x,-y,z
loop_
_atom_site_type_symbol
_atom_site_label
_atom_site_fract_x
_atom_site_fract_y
_atom_site_fract_z
Si Si1 0.812050 0.321448 0.709957
Si Si2 0.610095 0.178584 0.851887
Si Si3 0.002893 0.679951 0.896723
Si Si4 0.186744 0.819207 0.983255
Si Si5 0.989154 0.669190 0.605650
Si Si6 0.899919 0.822613 0.357261
Si Si7 0.377205 0.320275 0.823499
Si Si8 0.873855 0.320820 0.543823
O O1 0.750000 0.285945 0.734740
O O2 0.821405 0.500000 0.722151
O O3 0.853508 0.231555 0.770375
O O4 0.822503 0.291331 0.606266
O O5 0.549961 0.250140 0.850376
O O6 0.605022 0.000000 0.853627
O O7 0.644410 0.226579 0.939443
O O8 0.998881 0.500000 0.891617
O O9 0.061624 0.723723 0.856994
O O10 0.000000 0.723787 0.000000
O O11 0.250000 0.778142 0.003068
O O12 0.165921 0.746381 0.892631
O O13 0.184440 0.000000 0.976233
O O14 0.994511 0.500000 0.642209
O O15 0.926438 0.719226 0.605435
O O16 0.000000 0.661450 0.500000
O O17 0.036057 0.772492 0.644991
O O18 0.870867 0.744340 0.274654
O O19 0.877400 0.763439 0.451267
O O20 0.895456 0.000000 0.351977
O O21 0.374081 0.500000 0.822657
O O22 0.878441 0.500000 0.526492
#
# Coordination Sequence:
#
# PCOD9406491 Si02
#       8
#     8   8   8   8   8   8   8   8
#     4  10  22  40  62  88 118 156 204 253 297 351
#     4  11  23  38  61  91 125 160 196 240 299 366
#     4  10  21  39  61  88 122 159 201 249 300 354
#     4  10  22  41  62  85 118 157 195 241 295 350
#     4   8  15  30  51  75 105 144 185 227 280 341
#     4  11  22  35  55  84 118 152 191 240 297 357
#     4  11  23  39  61  87 120 160 203 249 295 350
#     4   9  19  37  58  80 110 150 196 243 295 346
#
# _framework density 19.420853000000001
#
# number of rings (size 3 to 8) (size 9 to 14) (size 15 to 20)
#    0.000    2.000    1.250    3.000    1.750    5.500 
#    0.000    0.625    0.000    2.250    0.000    0.000 
#    0.000    0.000    0.000    0.000    0.000    0.000 
#
# Total GULP energy -357433.077780 kJ/mol
# GULP energy per Si atom -5584.891840 kJ/mol
# Density = 1.937665 g / cm^3
# Si number density = 19.420853 Si / 1000 Ang^3
#
#
#
# Elastic Constant Matrix: (Units=GPa)
#
#
# Indices 1 2 3 4 5 6 
#
# 1 55.8087 11.8033 -0.9498 0.0000 0.0000 0.0000
# 2 11.8033 25.0582 16.3684 0.0000 0.0000 0.0000
# 3 -0.9498 16.3684 70.0181 0.0000 0.0000 0.0000
# 4 0.0000 0.0000 0.0000 24.4564 0.0000 0.0000
# 5 0.0000 0.0000 0.0000 0.0000 26.8352 0.0000
# 6 0.0000 0.0000 0.0000 0.0000 0.0000 15.8216
#
#
#
# Elastic Compliance Matrix: (Units=1/GPa)
#
#
# Indices 1 2 3 4 5 6 
#
# 1 0.020414 -0.011562 0.002980 0.000000 0.000000 0.000000
# 2 -0.011562 0.053648 -0.012698 0.000000 0.000000 0.000000
# 3 0.002980 -0.012698 0.017291 0.000000 0.000000 0.000000
# 4 0.000000 0.000000 0.000000 0.040889 0.000000 0.000000
# 5 0.000000 0.000000 0.000000 0.000000 0.037265 0.000000
# 6 0.000000 0.000000 0.000000 0.000000 0.000000 0.063205
#
#
# Mechanical properties :
#
#
# Convention : Reuss Voigt Hill
#
# Bulk Modulus (GPa) = 20.49525 22.81431 21.65478
# Shear Modulus (GPa) = 17.15043 21.66683 19.40863
#
# Velocity S-wave (km/s) = 2.97491 3.34375 3.16471
# Velocity P-wave (km/s) = 4.73036 5.16531 4.95261
#
# Compressibility (1/GPa) = 0.04879179
#
# Stress axis : x y z
#
# Youngs Moduli (GPa) = 48.98485 18.63999 57.83355
#
# Poissons Ratio (x) = 0.21552 -0.17234
# Poissons Ratio (y) = 0.56638 0.73439
# Poissons Ratio (z) = -0.14597 0.23670
#
# Static dielectric constant tensor:
#      x y z
#    x 1.687040 0.000000 0.000000 
#    y 0.000000 1.646670 0.000000 
#    z 0.000000 0.000000 1.685610 
# 
# From -- ./inp_files/26216.got.cif
#   From: 2010.05.17/outbox.cif.g08.bks.cpg/sg51_14_cif.got.tgz:26216.got - 2010.06.03 11:52:47.
