data_PCOD9406798
_publ_section_title
;
Structure prediction by ZEFSAII (Michael W. Deem and Ramdas Pophale) SiO2 
 PCOD9406798
Probable space group: P M M A
;
_chemical_formula_sum "Si O2"
_cell_formula_units_Z 20
_cell_length_a 10.984395
_cell_length_b 8.278216
_cell_length_c 9.392284
_cell_angle_alpha 90.000000
_cell_angle_beta 90.000000
_cell_angle_gamma 90.000000
_cell_volume 854.051603
_symmetry_space_group_name_H-M "P M M A"
_symmetry_group_IT_number 51
_symmetry_cell_setting 'orthorhombic'
loop_
_space_group_symop_operation_xyz
x,y,z
1/2-x,-y,z
1/2+x,-y,-z
-x,y,-z
-x,-y,-z
1/2+x,y,-z
1/2-x,y,z
x,-y,z
loop_
_atom_site_type_symbol
_atom_site_label
_atom_site_fract_x
_atom_site_fract_y
_atom_site_fract_z
Si Si1 0.616039 0.805804 0.404342
Si Si2 0.028947 0.675428 0.167652
Si Si3 0.119847 0.000000 0.098831
O O1 0.500000 0.760286 0.500000
O O2 0.750000 0.766908 0.461691
O O3 0.592209 0.715143 0.256075
O O4 0.610983 0.000000 0.382478
O O5 0.078643 0.500000 0.209638
O O6 0.110224 0.835382 0.188430
O O7 0.000000 0.668338 0.000000
O O8 0.250000 0.000000 0.021246
O O9 0.000000 0.000000 0.000000
#
# Coordination Sequence:
#
# PCOD9406798 Si02
#       3
#     8   8   4
#     4  10  22  42  68 100 138 182 231 284 344 410
#     4  10  22  41  66  99 135 176 225 279 337 401
#     4  10  22  40  63  94 133 176 220 272 334 398
#
# _framework density 23.417786
#
# number of rings (size 3 to 8) (size 9 to 14) (size 15 to 20)
#    0.000    2.000    2.000    0.000    0.000   10.400 
#    0.000    8.000    0.000    0.000    0.000    0.000 
#    0.000    0.000    0.000    0.000    0.000    0.000 
#
# Total GULP energy -111565.968912 kJ/mol
# GULP energy per Si atom -5578.298446 kJ/mol
# Density = 2.336449 g / cm^3
# Si number density = 23.417786 Si / 1000 Ang^3
#
#
#
# Elastic Constant Matrix: (Units=GPa)
#
#
# Indices 1 2 3 4 5 6 
#
# 1 190.0543 45.9564 54.7201 0.0000 0.0000 0.0000
# 2 45.9564 177.7851 -0.7058 0.0000 0.0000 0.0000
# 3 54.7201 -0.7058 78.3415 0.0000 0.0000 0.0000
# 4 0.0000 0.0000 0.0000 -150.9767 0.0000 0.0000
# 5 0.0000 0.0000 0.0000 0.0000 31.7148 0.0000
# 6 0.0000 0.0000 0.0000 0.0000 0.0000 -9.2715
#
#
#
# Elastic Compliance Matrix: (Units=1/GPa)
#
#
# Indices 1 2 3 4 5 6 
#
# 1 0.007158 -0.001870 -0.005017 0.000000 0.000000 0.000000
# 2 -0.001870 0.006114 0.001361 0.000000 0.000000 0.000000
# 3 -0.005017 0.001361 0.016281 0.000000 0.000000 0.000000
# 4 0.000000 0.000000 0.000000 -0.006624 0.000000 0.000000
# 5 0.000000 0.000000 0.000000 0.000000 0.031531 0.000000
# 6 0.000000 0.000000 0.000000 0.000000 0.000000 -0.107858
#
#
# Mechanical properties :
#
#
# Convention : Reuss Voigt Hill
#
# Bulk Modulus (GPa) = 54.04914 71.79138 62.92026
# Shear Modulus (GPa) = -138.20350 -2.62599 -70.41475
#
# Velocity S-wave (km/s) = -7.69055 -1.06010 -5.48946
# Velocity P-wave (km/s) = 7.46518 5.40601 3.64033
#
# Compressibility (1/GPa) = 0.01850168
#
# Stress axis : x y z
#
# Youngs Moduli (GPa) = 139.69712 163.56874 61.42109
#
# Poissons Ratio (x) = 0.30592 0.30814
# Poissons Ratio (y) = 0.26128 -0.08362
# Poissons Ratio (z) = 0.70084 -0.22269
#
# Static dielectric constant tensor:
#      x y z
#    x 1.875290 0.000000 0.000000 
#    y 0.000000 1.940260 0.000000 
#    z 0.000000 0.000000 2.019150 
# 
# From -- ./inp_files/6447.got.cif
#   From: 2010.05.17/outbox.cif.g08.bks.cpg/sg51_4_cif.got.tgz:6447.got - 2010.06.03 11:52:47.
