data_PCOD9406414
_publ_section_title
;
Structure prediction by ZEFSAII (Michael W. Deem and Ramdas Pophale) SiO2 
 PCOD9406414
Probable space group: P M M A
;
_chemical_formula_sum "Si O2"
_cell_formula_units_Z 58
_cell_length_a 23.990112
_cell_length_b 13.624419
_cell_length_c 9.553759
_cell_angle_alpha 90.000000
_cell_angle_beta 90.000000
_cell_angle_gamma 90.000000
_cell_volume 3122.658910
_symmetry_space_group_name_H-M "P M M A"
_symmetry_group_IT_number 51
_symmetry_cell_setting 'orthorhombic'
loop_
_space_group_symop_operation_xyz
x,y,z
1/2-x,-y,z
1/2+x,-y,-z
-x,y,-z
-x,-y,-z
1/2+x,y,-z
1/2-x,y,z
x,-y,z
loop_
_atom_site_type_symbol
_atom_site_label
_atom_site_fract_x
_atom_site_fract_y
_atom_site_fract_z
Si Si1 0.188512 0.786076 0.729697
Si Si2 0.334286 0.687809 0.445910
Si Si3 0.315009 0.386282 0.948448
Si Si4 0.006458 0.725537 0.848415
Si Si5 0.121880 0.252225 0.159509
Si Si6 0.250000 0.500000 0.429065
Si Si7 0.944248 0.388389 0.407299
Si Si8 0.597886 0.885032 0.090282
O O1 0.250000 0.823032 0.769271
O O2 0.187457 0.759627 0.567168
O O3 0.140890 0.857343 0.786146
O O4 0.180295 0.682554 0.812434
O O5 0.341223 0.742883 0.298218
O O6 0.298073 0.588586 0.431308
O O7 0.394954 0.657851 0.503397
O O8 0.250000 0.378652 0.997015
O O9 0.325615 0.500000 0.917714
O O10 0.356488 0.342975 0.064187
O O11 0.042082 0.667534 0.735571
O O12 0.041180 0.824693 0.879889
O O13 0.943135 0.739982 0.799151
O O14 0.000000 0.674425 0.000000
O O15 0.123881 0.160350 0.052855
O O16 0.929453 0.500000 0.374112
O O17 0.000000 0.386861 0.500000
O O18 0.588541 0.000000 0.079786
#
# Coordination Sequence:
#
# PCOD9406414 Si02
#       8
#     8   8   8   8   8   2   8   8
#     4  10  21  38  61  90 120 159 204 262 308 366
#     4  12  23  38  59  90 132 167 211 247 298 359
#     4   9  20  34  55  82 122 164 209 250 299 361
#     4  10  21  39  61  90 121 158 204 262 308 368
#     4  10  23  37  57  90 125 161 199 255 310 368
#     4  12  28  36  62  98 126 184 220 232 288 372
#     4  11  22  37  59  87 127 174 203 237 299 372
#     4  10  22  44  70  91 114 156 209 263 329 382
#
# _framework density 18.573913999999998
#
# number of rings (size 3 to 8) (size 9 to 14) (size 15 to 20)
#    0.000    1.655    4.138    0.000    2.897    3.586 
#    0.000    0.690    0.000    1.241    0.000    0.000 
#    0.000    0.000    0.000    0.000    0.000    0.000 
#
# Total GULP energy -323062.519978 kJ/mol
# GULP energy per Si atom -5570.043448 kJ/mol
# Density = 1.853164 g / cm^3
# Si number density = 18.573914 Si / 1000 Ang^3
#
#
#
# Elastic Constant Matrix: (Units=GPa)
#
#
# Indices 1 2 3 4 5 6 
#
# 1 78.9676 0.3570 20.6619 0.0000 0.0000 0.0000
# 2 0.3570 61.7591 31.3785 0.0000 0.0000 0.0000
# 3 20.6619 31.3785 103.9626 0.0000 0.0000 0.0000
# 4 0.0000 0.0000 0.0000 7.0404 0.0000 0.0000
# 5 0.0000 0.0000 0.0000 0.0000 17.7351 0.0000
# 6 0.0000 0.0000 0.0000 0.0000 0.0000 16.5206
#
#
#
# Elastic Compliance Matrix: (Units=1/GPa)
#
#
# Indices 1 2 3 4 5 6 
#
# 1 0.013477 0.001515 -0.003136 0.000000 0.000000 0.000000
# 2 0.001515 0.019295 -0.006125 0.000000 0.000000 0.000000
# 3 -0.003136 -0.006125 0.012091 0.000000 0.000000 0.000000
# 4 0.000000 0.000000 0.000000 0.142037 0.000000 0.000000
# 5 0.000000 0.000000 0.000000 0.000000 0.056385 0.000000
# 6 0.000000 0.000000 0.000000 0.000000 0.000000 0.060531
#
#
# Mechanical properties :
#
#
# Convention : Reuss Voigt Hill
#
# Bulk Modulus (GPa) = 34.04591 38.83156 36.43874
# Shear Modulus (GPa) = 15.19309 21.07867 18.13588
#
# Velocity S-wave (km/s) = 2.86314 3.37241 3.12816
# Velocity P-wave (km/s) = 5.41293 6.00967 5.71909
#
# Compressibility (1/GPa) = 0.02937210
#
# Stress axis : x y z
#
# Youngs Moduli (GPa) = 74.20006 51.82655 82.70798
#
# Poissons Ratio (x) = -0.07854 0.25936
# Poissons Ratio (y) = -0.11244 0.50658
# Poissons Ratio (z) = 0.23268 0.31743
#
# Static dielectric constant tensor:
#      x y z
#    x 1.676520 0.000000 0.000000 
#    y 0.000000 1.598100 0.000000 
#    z 0.000000 0.000000 1.675910 
# 
# From -- ./inp_files/11816.got.cif
#   From: 2010.05.17/outbox.cif.g08.bks.cpg/sg51_6_cif.got.tgz:11816.got - 2010.06.03 11:52:47.
