data_PCOD9406645
_publ_section_title
;
Structure prediction by ZEFSAII (Michael W. Deem and Ramdas Pophale) SiO2 
 PCOD9406645
Probable space group: P M M A
;
_chemical_formula_sum "Si O2"
_cell_formula_units_Z 48
_cell_length_a 31.222482
_cell_length_b 7.570544
_cell_length_c 10.382890
_cell_angle_alpha 90.000000
_cell_angle_beta 90.000000
_cell_angle_gamma 90.000000
_cell_volume 2454.215896
_symmetry_space_group_name_H-M "P M M A"
_symmetry_group_IT_number 51
_symmetry_cell_setting 'orthorhombic'
loop_
_space_group_symop_operation_xyz
x,y,z
1/2-x,-y,z
1/2+x,-y,-z
-x,y,-z
-x,-y,-z
1/2+x,y,-z
1/2-x,y,z
x,-y,z
loop_
_atom_site_type_symbol
_atom_site_label
_atom_site_fract_x
_atom_site_fract_y
_atom_site_fract_z
Si Si1 0.298325 0.789242 0.958447
Si Si2 0.368475 0.215027 0.165809
Si Si3 0.798543 0.709786 0.332871
Si Si4 0.130244 0.792224 0.457015
Si Si5 0.564519 0.500000 0.916993
Si Si6 0.042294 0.788524 0.586831
Si Si7 0.469547 0.500000 0.801877
O O1 0.250000 0.716656 0.971148
O O2 0.313010 0.754329 0.812266
O O3 0.295660 0.000000 0.972660
O O4 0.330985 0.729371 0.067549
O O5 0.358551 0.268506 0.313255
O O6 0.410106 0.324763 0.125685
O O7 0.373761 0.000000 0.157427
O O8 0.750000 0.781943 0.349826
O O9 0.795973 0.500000 0.341062
O O10 0.832041 0.766935 0.440513
O O11 0.084899 0.725185 0.511246
O O12 0.123335 0.000000 0.443014
O O13 0.518282 0.500000 0.850879
O O14 0.559297 0.500000 0.070822
O O15 0.038497 0.672020 0.714508
O O16 0.000000 0.761188 0.500000
O O17 0.045542 0.000000 0.613120
#
# Coordination Sequence:
#
# PCOD9406645 Si02
#       7
#     8   8   8   8   4   8   4
#     4   9  19  37  60  85 116 158 201 241 296 361
#     4  10  23  41  62  89 123 161 200 250 303 361
#     4  10  22  37  57  89 124 158 200 253 305 359
#     4  10  22  38  61  90 118 158 204 250 307 361
#     4  11  26  42  61  90 121 160 203 250 308 364
#     4  10  22  40  64  93 124 160 207 257 308 367
#     4  11  25  42  62  90 120 161 207 247 309 368
#
# _framework density 19.558183
#
# number of rings (size 3 to 8) (size 9 to 14) (size 15 to 20)
#    0.000    2.000    0.000    1.750    5.833    4.333 
#    0.000    3.333    0.000    0.000    0.000    0.000 
#    0.000    0.000    0.000    0.000    0.000    0.000 
#
# Total GULP energy -267956.187765 kJ/mol
# GULP energy per Si atom -5582.420578 kJ/mol
# Density = 1.951367 g / cm^3
# Si number density = 19.558183 Si / 1000 Ang^3
#
#
#
# Elastic Constant Matrix: (Units=GPa)
#
#
# Indices 1 2 3 4 5 6 
#
# 1 102.8947 11.3240 95.3018 0.0000 0.0000 0.0000
# 2 11.3240 56.9298 28.8809 0.0000 0.0000 0.0000
# 3 95.3018 28.8809 195.6026 0.0000 0.0000 0.0000
# 4 0.0000 0.0000 0.0000 20.3182 0.0000 0.0000
# 5 0.0000 0.0000 0.0000 0.0000 29.6934 0.0000
# 6 0.0000 0.0000 0.0000 0.0000 0.0000 21.1364
#
#
#
# Elastic Compliance Matrix: (Units=1/GPa)
#
#
# Indices 1 2 3 4 5 6 
#
# 1 0.017756 0.000926 -0.008788 0.000000 0.000000 0.000000
# 2 0.000926 0.019036 -0.003262 0.000000 0.000000 0.000000
# 3 -0.008788 -0.003262 0.009876 0.000000 0.000000 0.000000
# 4 0.000000 0.000000 0.000000 0.049217 0.000000 0.000000
# 5 0.000000 0.000000 0.000000 0.000000 0.033678 0.000000
# 6 0.000000 0.000000 0.000000 0.000000 0.000000 0.047312
#
#
# Mechanical properties :
#
#
# Convention : Reuss Voigt Hill
#
# Bulk Modulus (GPa) = 40.94895 69.60452 55.27673
# Shear Modulus (GPa) = 24.12406 28.89094 26.50750
#
# Velocity S-wave (km/s) = 3.51586 3.84758 3.68545
# Velocity P-wave (km/s) = 6.12080 7.44340 6.81426
#
# Compressibility (1/GPa) = 0.02442065
#
# Stress axis : x y z
#
# Youngs Moduli (GPa) = 56.31829 52.53178 101.25825
#
# Poissons Ratio (x) = -0.04866 0.88986
# Poissons Ratio (y) = -0.05217 0.33030
# Poissons Ratio (z) = 0.49492 0.17136
#
# Static dielectric constant tensor:
#      x y z
#    x 1.685430 0.000000 0.000000 
#    y 0.000000 1.705200 0.000000 
#    z 0.000000 0.000000 1.679460 
# 
# From -- ./inp_files/12938.got.cif
#   From: 2010.05.17/outbox.cif.g08.bks.cpg/sg51_7_cif.got.tgz:12938.got - 2010.06.03 11:52:47.
