data_PCOD9406845
_publ_section_title
;
Structure prediction by ZEFSAII (Michael W. Deem and Ramdas Pophale) SiO2 
 PCOD9406845
Probable space group: P M M A
;
_chemical_formula_sum "Si O2"
_cell_formula_units_Z 38
_cell_length_a 12.695870
_cell_length_b 7.765391
_cell_length_c 20.404572
_cell_angle_alpha 90.000000
_cell_angle_beta 90.000000
_cell_angle_gamma 90.000000
_cell_volume 2011.653997
_symmetry_space_group_name_H-M "P M M A"
_symmetry_group_IT_number 51
_symmetry_cell_setting 'orthorhombic'
loop_
_space_group_symop_operation_xyz
x,y,z
1/2-x,-y,z
1/2+x,-y,-z
-x,y,-z
-x,-y,-z
1/2+x,y,-z
1/2-x,y,z
x,-y,z
loop_
_atom_site_type_symbol
_atom_site_label
_atom_site_fract_x
_atom_site_fract_y
_atom_site_fract_z
Si Si1 0.476238 0.706574 0.257135
Si Si2 0.366479 0.196709 0.627084
Si Si3 0.750000 0.500000 0.602890
Si Si4 0.750000 0.191175 0.704590
Si Si5 0.385223 0.500000 0.523282
Si Si6 0.377912 0.000000 0.968106
Si Si7 0.370141 0.702333 0.861795
O O1 0.466777 0.500000 0.260000
O O2 0.541528 0.763981 0.321267
O O3 0.358830 0.782590 0.256162
O O4 0.546207 0.751463 0.194003
O O5 0.250000 0.211677 0.659289
O O6 0.365336 0.333558 0.568311
O O7 0.377838 0.000000 0.603691
O O8 0.750000 0.334773 0.648663
O O9 0.838820 0.500000 0.549143
O O10 0.750000 0.000000 0.676327
O O11 0.500000 0.500000 0.500000
O O12 0.379211 0.829284 0.923070
O O13 0.250000 0.000000 0.996202
O O14 0.500000 0.000000 0.000000
O O15 0.250000 0.718411 0.836209
O O16 0.386027 0.500000 0.878547
#
# Coordination Sequence:
#
# PCOD9406845 Si02
#       7
#     8   8   2   4   4   4   8
#     4  11  21  40  65  90 128 161 206 263 330 382
#     4  11  23  39  61  91 117 147 198 259 315 378
#     4  12  24  44  60  80 120 164 208 248 326 380
#     4  12  26  42  60  88 122 170 208 261 322 398
#     4  12  24  40  62  80 112 156 202 254 306 387
#     4  10  22  42  66  98 142 184 227 263 318 378
#     4   9  20  38  64  98 130 170 215 269 318 372
#
# _framework density 18.889928999999999
#
# number of rings (size 3 to 8) (size 9 to 14) (size 15 to 20)
#    0.000    1.263    3.158    2.526    2.947    2.526 
#    1.895    0.000    0.000    0.000    0.000    0.000 
#    0.000    0.000    0.000    0.000    0.000    0.000 
#
# Total GULP energy -211574.850798 kJ/mol
# GULP energy per Si atom -5567.759232 kJ/mol
# Density = 1.884694 g / cm^3
# Si number density = 18.889929 Si / 1000 Ang^3
#
#
#
# Elastic Constant Matrix: (Units=GPa)
#
#
# Indices 1 2 3 4 5 6 
#
# 1 183.5295 42.3430 50.2013 0.0000 0.0000 0.0000
# 2 42.3430 115.4542 39.2924 0.0000 0.0000 0.0000
# 3 50.2013 39.2924 56.3160 0.0000 0.0000 0.0000
# 4 0.0000 0.0000 0.0000 466.8990 0.0000 0.0000
# 5 0.0000 0.0000 0.0000 0.0000 45.1816 0.0000
# 6 0.0000 0.0000 0.0000 0.0000 0.0000 30.9018
#
#
#
# Elastic Compliance Matrix: (Units=1/GPa)
#
#
# Indices 1 2 3 4 5 6 
#
# 1 0.007237 -0.000601 -0.006032 0.000000 0.000000 0.000000
# 2 -0.000601 0.011409 -0.007424 0.000000 0.000000 0.000000
# 3 -0.006032 -0.007424 0.028314 0.000000 0.000000 0.000000
# 4 0.000000 0.000000 0.000000 0.002142 0.000000 0.000000
# 5 0.000000 0.000000 0.000000 0.000000 0.022133 0.000000
# 6 0.000000 0.000000 0.000000 0.000000 0.000000 0.032361
#
#
# Mechanical properties :
#
#
# Convention : Reuss Voigt Hill
#
# Bulk Modulus (GPa) = 53.06372 68.77478 60.91925
# Shear Modulus (GPa) = 36.23430 123.49400 79.86415
#
# Velocity S-wave (km/s) = 4.38446 8.09429 6.50926
# Velocity P-wave (km/s) = 7.33371 11.12852 9.42410
#
# Compressibility (1/GPa) = 0.01884527
#
# Stress axis : x y z
#
# Youngs Moduli (GPa) = 138.17085 87.65361 35.31880
#
# Poissons Ratio (x) = 0.05272 0.21304
# Poissons Ratio (y) = 0.08311 0.26220
# Poissons Ratio (z) = 0.83343 0.65071
#
# Static dielectric constant tensor:
#      x y z
#    x 1.721910 0.000000 0.000000 
#    y 0.000000 1.649840 0.000000 
#    z 0.000000 0.000000 1.611270 
# 
# From -- ./inp_files/28867.got.cif
#   From: 2010.05.17/outbox.cif.g08.bks.cpg/sg51_15_cif.got.tgz:28867.got - 2010.06.03 11:52:47.
