data_PCOD9406160
_publ_section_title
;
Structure prediction by ZEFSAII (Michael W. Deem and Ramdas Pophale) SiO2 
 PCOD9406160
Probable space group: P M M A
;
_chemical_formula_sum "Si O2"
_cell_formula_units_Z 56
_cell_length_a 14.266912
_cell_length_b 9.402225
_cell_length_c 21.518404
_cell_angle_alpha 90.000000
_cell_angle_beta 90.000000
_cell_angle_gamma 90.000000
_cell_volume 2886.494134
_symmetry_space_group_name_H-M "P M M A"
_symmetry_group_IT_number 51
_symmetry_cell_setting 'orthorhombic'
loop_
_space_group_symop_operation_xyz
x,y,z
1/2-x,-y,z
1/2+x,-y,-z
-x,y,-z
-x,-y,-z
1/2+x,y,-z
1/2-x,y,z
x,-y,z
loop_
_atom_site_type_symbol
_atom_site_label
_atom_site_fract_x
_atom_site_fract_y
_atom_site_fract_z
Si Si1 0.364279 0.337382 0.526658
Si Si2 0.638663 0.663494 0.968674
Si Si3 0.357606 0.831097 0.650798
Si Si4 0.478590 0.331373 0.155960
Si Si5 0.861339 0.832504 0.093162
Si Si6 0.636902 0.835581 0.593683
Si Si7 0.460128 0.169001 0.276728
O O1 0.250000 0.336987 0.524577
O O2 0.395343 0.500000 0.530403
O O3 0.387824 0.250640 0.588633
O O4 0.395770 0.261369 0.463408
O O5 0.750000 0.672340 0.957424
O O6 0.617417 0.500000 0.988016
O O7 0.584288 0.693326 0.905319
O O8 0.616026 0.768417 0.025116
O O9 0.250000 0.793139 0.665939
O O10 0.431454 0.803514 0.705052
O O11 0.360473 0.000000 0.637823
O O12 0.489694 0.500000 0.163942
O O13 0.576710 0.254160 0.141731
O O14 0.434717 0.260012 0.216870
O O15 0.750000 0.813413 0.103054
O O16 0.882459 0.000000 0.096133
O O17 0.750000 0.830332 0.595756
O O18 0.597206 0.794799 0.660916
O O19 0.609222 0.000000 0.582167
O O20 0.448352 0.000000 0.264950
#
# Coordination Sequence:
#
# PCOD9406160 Si02
#       7
#     8   8   8   8   8   8   8
#     4   9  17  30  51  78 103 128 163 211 265 315
#     4   9  19  37  59  83 112 144 178 217 264 318
#     4   9  18  34  54  73  97 131 169 211 260 312
#     4  11  23  37  55  80 111 147 182 218 265 318
#     4  10  21  37  59  86 112 140 177 221 267 313
#     4   9  18  34  54  74 100 135 173 215 264 315
#     4  10  22  37  52  74 103 138 181 220 256 308
#
# _framework density 19.400697999999998
#
# number of rings (size 3 to 8) (size 9 to 14) (size 15 to 20)
#    0.000    2.429    0.000    1.714    0.000    8.286 
#    0.000    4.286    0.000    0.000    0.000    0.000 
#    0.000    0.000    0.000    0.000    0.000    0.000 
#
# Total GULP energy -312786.395823 kJ/mol
# GULP energy per Si atom -5585.471354 kJ/mol
# Density = 1.935654 g / cm^3
# Si number density = 19.400698 Si / 1000 Ang^3
#
#
#
# Elastic Constant Matrix: (Units=GPa)
#
#
# Indices 1 2 3 4 5 6 
#
# 1 33.1644 9.6552 2.6148 0.0000 0.0000 0.0000
# 2 9.6552 52.9383 39.7288 0.0000 0.0000 0.0000
# 3 2.6148 39.7288 69.4841 0.0000 0.0000 0.0000
# 4 0.0000 0.0000 0.0000 51.6873 0.0000 0.0000
# 5 0.0000 0.0000 0.0000 0.0000 19.1673 0.0000
# 6 0.0000 0.0000 0.0000 0.0000 0.0000 15.0913
#
#
#
# Elastic Compliance Matrix: (Units=1/GPa)
#
#
# Indices 1 2 3 4 5 6 
#
# 1 0.032402 -0.008748 0.003783 0.000000 0.000000 0.000000
# 2 -0.008748 0.035450 -0.019940 0.000000 0.000000 0.000000
# 3 0.003783 -0.019940 0.025650 0.000000 0.000000 0.000000
# 4 0.000000 0.000000 0.000000 0.019347 0.000000 0.000000
# 5 0.000000 0.000000 0.000000 0.000000 0.052172 0.000000
# 6 0.000000 0.000000 0.000000 0.000000 0.000000 0.066263
#
#
# Mechanical properties :
#
#
# Convention : Reuss Voigt Hill
#
# Bulk Modulus (GPa) = 22.88816 28.84270 25.86543
# Shear Modulus (GPa) = 16.91136 24.09505 20.50320
#
# Velocity S-wave (km/s) = 2.95564 3.52798 3.25442
# Velocity P-wave (km/s) = 4.84468 5.61201 5.24240
#
# Compressibility (1/GPa) = 0.04369070
#
# Stress axis : x y z
#
# Youngs Moduli (GPa) = 30.86272 28.20878 38.98562
#
# Poissons Ratio (x) = 0.24678 -0.14747
# Poissons Ratio (y) = 0.27000 0.77737
# Poissons Ratio (z) = -0.11675 0.56248
#
# Static dielectric constant tensor:
#      x y z
#    x 1.716970 0.000000 0.000000 
#    y 0.000000 1.651840 0.000000 
#    z 0.000000 0.000000 1.640960 
# 
# From -- ./inp_files/33309.got.cif
#   From: 2010.05.17/outbox.cif.g08.bks.cpg/sg51_17_cif.got.tgz:33309.got - 2010.06.03 11:52:47.
