data_PCOD9406501
_publ_section_title
;
Structure prediction by ZEFSAII (Michael W. Deem and Ramdas Pophale) SiO2 
 PCOD9406501
Probable space group: P M M A
;
_chemical_formula_sum "Si O2"
_cell_formula_units_Z 48
_cell_length_a 16.784068
_cell_length_b 18.160863
_cell_length_c 7.778639
_cell_angle_alpha 90.000000
_cell_angle_beta 90.000000
_cell_angle_gamma 90.000000
_cell_volume 2371.031530
_symmetry_space_group_name_H-M "P M M A"
_symmetry_group_IT_number 51
_symmetry_cell_setting 'orthorhombic'
loop_
_space_group_symop_operation_xyz
x,y,z
1/2-x,-y,z
1/2+x,-y,-z
-x,y,-z
-x,-y,-z
1/2+x,y,-z
1/2-x,y,z
x,-y,z
loop_
_atom_site_type_symbol
_atom_site_label
_atom_site_fract_x
_atom_site_fract_y
_atom_site_fract_z
Si Si1 0.907195 0.192147 0.964358
Si Si2 0.155177 0.084420 0.747066
Si Si3 0.912898 0.653266 0.577009
Si Si4 0.093703 0.813254 0.448354
Si Si5 0.155807 0.500000 0.526937
Si Si6 0.844263 0.657290 0.931121
Si Si7 0.153793 0.500000 0.903933
O O1 0.895366 0.176065 0.758546
O O2 0.857423 0.264753 0.023896
O O3 0.881873 0.125827 0.088739
O O4 0.000000 0.206512 0.000000
O O5 0.250000 0.084543 0.767605
O O6 0.134156 0.127638 0.571580
O O7 0.126857 0.000000 0.736887
O O8 0.876972 0.729819 0.506455
O O9 0.868047 0.576677 0.555398
O O10 0.908075 0.665699 0.779177
O O11 0.000000 0.644862 0.500000
O O12 0.000000 0.813872 0.500000
O O13 0.250000 0.500000 0.538053
O O14 0.117928 0.500000 0.715089
O O15 0.750000 0.653599 0.879103
O O16 0.864950 0.578914 0.014612
O O17 0.250000 0.500000 0.895866
#
# Coordination Sequence:
#
# PCOD9406501 Si02
#       7
#     8   8   8   8   4   8   4
#     4  11  23  42  69  98 133 172 218 265 323 389
#     4  11  26  45  68 100 134 169 212 269 331 388
#     4  10  22  38  60  87 123 160 210 265 319 374
#     4  10  22  43  67  97 129 171 217 269 323 393
#     4  11  22  35  55  86 123 167 216 260 311 375
#     4  10  21  39  62  87 122 168 214 262 316 376
#     4   9  21  35  52  84 118 157 208 257 307 363
#
# _framework density 20.244351999999999
#
# number of rings (size 3 to 8) (size 9 to 14) (size 15 to 20)
#    0.000    1.667    1.667    1.750    2.333    6.000 
#    0.000    2.917    0.000    0.000    0.000    0.000 
#    0.000    0.000    0.000    0.000    0.000    0.000 
#
# Total GULP energy -267514.396348 kJ/mol
# GULP energy per Si atom -5573.216591 kJ/mol
# Density = 2.019827 g / cm^3
# Si number density = 20.244352 Si / 1000 Ang^3
#
#
#
# Elastic Constant Matrix: (Units=GPa)
#
#
# Indices 1 2 3 4 5 6 
#
# 1 42.7252 27.4872 9.6201 0.0000 0.0000 0.0000
# 2 27.4872 192.6888 63.1858 0.0000 0.0000 0.0000
# 3 9.6201 63.1858 93.6300 0.0000 0.0000 0.0000
# 4 0.0000 0.0000 0.0000 38.5849 0.0000 0.0000
# 5 0.0000 0.0000 0.0000 0.0000 4.7195 0.0000
# 6 0.0000 0.0000 0.0000 0.0000 0.0000 31.6303
#
#
#
# Elastic Compliance Matrix: (Units=1/GPa)
#
#
# Indices 1 2 3 4 5 6 
#
# 1 0.025774 -0.003606 -0.000214 0.000000 0.000000 0.000000
# 2 -0.003606 0.007169 -0.004468 0.000000 0.000000 0.000000
# 3 -0.000214 -0.004468 0.013717 0.000000 0.000000 0.000000
# 4 0.000000 0.000000 0.000000 0.025917 0.000000 0.000000
# 5 0.000000 0.000000 0.000000 0.000000 0.211886 0.000000
# 6 0.000000 0.000000 0.000000 0.000000 0.000000 0.031615
#
#
# Mechanical properties :
#
#
# Convention : Reuss Voigt Hill
#
# Bulk Modulus (GPa) = 33.24072 58.84781 46.04426
# Shear Modulus (GPa) = 14.59076 30.23701 22.41389
#
# Velocity S-wave (km/s) = 2.68756 3.86891 3.33102
# Velocity P-wave (km/s) = 5.10745 7.00641 6.13090
#
# Compressibility (1/GPa) = 0.03008358
#
# Stress axis : x y z
#
# Youngs Moduli (GPa) = 38.79913 139.48680 72.90078
#
# Poissons Ratio (x) = 0.50303 0.01563
# Poissons Ratio (y) = 0.13992 0.32569
# Poissons Ratio (z) = 0.00832 0.62316
#
# Static dielectric constant tensor:
#      x y z
#    x 1.705250 0.000000 0.000000 
#    y 0.000000 2.052590 0.000000 
#    z 0.000000 0.000000 1.761110 
# 
# From -- ./inp_files/8348.got.cif
#   From: 2010.05.17/outbox.cif.g08.bks.cpg/sg51_5_cif.got.tgz:8348.got - 2010.06.03 11:52:47.
