data_PCOD9406559
_publ_section_title
;
Structure prediction by ZEFSAII (Michael W. Deem and Ramdas Pophale) SiO2 
 PCOD9406559
Probable space group: P M M A
;
_chemical_formula_sum "Si O2"
_cell_formula_units_Z 52
_cell_length_a 13.443707
_cell_length_b 21.046823
_cell_length_c 8.827591
_cell_angle_alpha 90.000000
_cell_angle_beta 90.000000
_cell_angle_gamma 90.000000
_cell_volume 2497.743230
_symmetry_space_group_name_H-M "P M M A"
_symmetry_group_IT_number 51
_symmetry_cell_setting 'orthorhombic'
loop_
_space_group_symop_operation_xyz
x,y,z
1/2-x,-y,z
1/2+x,-y,-z
-x,y,-z
-x,-y,-z
1/2+x,y,-z
1/2-x,y,z
x,-y,z
loop_
_atom_site_type_symbol
_atom_site_label
_atom_site_fract_x
_atom_site_fract_y
_atom_site_fract_z
Si Si1 0.868762 0.072121 0.261312
Si Si2 0.370723 0.803453 0.915812
Si Si3 0.134126 0.687336 0.705855
Si Si4 0.000000 0.142416 0.500000
Si Si5 0.134499 0.359809 0.370982
Si Si6 0.867028 0.780993 0.740709
Si Si7 0.529302 0.570935 0.176028
O O1 0.750000 0.073958 0.286721
O O2 0.892547 0.125461 0.137370
O O3 0.926263 0.097470 0.406930
O O4 0.896366 0.000000 0.221962
O O5 0.250000 0.796545 0.918912
O O6 0.405016 0.749822 0.793661
O O7 0.401904 0.795515 0.089119
O O8 0.250000 0.699701 0.686374
O O9 0.102713 0.664374 0.538441
O O10 0.110491 0.625959 0.805831
O O11 0.067246 0.185270 0.387938
O O12 0.250000 0.381772 0.378516
O O13 0.130320 0.294856 0.276060
O O14 0.062203 0.408865 0.286169
O O15 0.750000 0.799916 0.722114
O O16 0.563491 0.500000 0.218018
O O17 0.500000 0.570387 0.000000
#
# Coordination Sequence:
#
# PCOD9406559 Si02
#       7
#     8   8   8   4   8   8   8
#     4  10  22  41  62  87 123 164 207 255 307 364
#     4   9  19  39  64  88 119 161 207 255 306 360
#     4  10  21  39  65  92 121 157 204 256 307 365
#     4  12  23  36  62  92 125 166 202 250 309 370
#     4  10  22  40  62  88 120 159 205 256 311 362
#     4  10  22  39  61  93 125 158 205 258 307 362
#     4  11  25  41  59  88 126 164 204 250 303 364
#
# _framework density 20.818794
#
# number of rings (size 3 to 8) (size 9 to 14) (size 15 to 20)
#    0.000    1.846    0.000    3.000    4.308    6.769 
#    0.000    5.385    0.000    3.692    0.000    0.000 
#    0.000    0.000    0.000    0.000    0.000    0.000 
#
# Total GULP energy -290417.000886 kJ/mol
# GULP energy per Si atom -5584.942325 kJ/mol
# Density = 2.077141 g / cm^3
# Si number density = 20.818794 Si / 1000 Ang^3
#
#
#
# Elastic Constant Matrix: (Units=GPa)
#
#
# Indices 1 2 3 4 5 6 
#
# 1 58.5460 12.9478 22.0478 0.0000 0.0000 0.0000
# 2 12.9478 118.1996 41.5751 0.0000 0.0000 0.0000
# 3 22.0478 41.5751 117.3985 0.0000 0.0000 0.0000
# 4 0.0000 0.0000 0.0000 10.1704 0.0000 0.0000
# 5 0.0000 0.0000 0.0000 0.0000 37.5419 0.0000
# 6 0.0000 0.0000 0.0000 0.0000 0.0000 26.3210
#
#
#
# Elastic Compliance Matrix: (Units=1/GPa)
#
#
# Indices 1 2 3 4 5 6 
#
# 1 0.018467 -0.000917 -0.003143 0.000000 0.000000 0.000000
# 2 -0.000917 0.009710 -0.003266 0.000000 0.000000 0.000000
# 3 -0.003143 -0.003266 0.010265 0.000000 0.000000 0.000000
# 4 0.000000 0.000000 0.000000 0.098325 0.000000 0.000000
# 5 0.000000 0.000000 0.000000 0.000000 0.026637 0.000000
# 6 0.000000 0.000000 0.000000 0.000000 0.000000 0.037992
#
#
# Mechanical properties :
#
#
# Convention : Reuss Voigt Hill
#
# Bulk Modulus (GPa) = 42.03792 49.69837 45.86814
# Shear Modulus (GPa) = 22.32352 29.31156 25.81754
#
# Velocity S-wave (km/s) = 3.27812 3.75632 3.52534
# Velocity P-wave (km/s) = 5.87913 6.53735 6.21696
#
# Compressibility (1/GPa) = 0.02378805
#
# Stress axis : x y z
#
# Youngs Moduli (GPa) = 54.15001 102.99076 97.41812
#
# Poissons Ratio (x) = 0.09447 0.30622
# Poissons Ratio (y) = 0.04967 0.31819
# Poissons Ratio (z) = 0.17021 0.33639
#
# Static dielectric constant tensor:
#      x y z
#    x 1.822970 0.000000 0.000000 
#    y 0.000000 1.708720 0.000000 
#    z 0.000000 0.000000 1.782740 
# 
# From -- ./inp_files/8439.got.cif
#   From: 2010.05.17/outbox.cif.g08.bks.cpg/sg51_5_cif.got.tgz:8439.got - 2010.06.03 11:52:47.
