data_PCOD9406901
_publ_section_title
;
Structure prediction by ZEFSAII (Michael W. Deem and Ramdas Pophale) SiO2 
 PCOD9406901
Probable space group: P M M A
;
_chemical_formula_sum "Si O2"
_cell_formula_units_Z 28
_cell_length_a 10.539226
_cell_length_b 18.994213
_cell_length_c 6.728824
_cell_angle_alpha 90.000000
_cell_angle_beta 90.000000
_cell_angle_gamma 90.000000
_cell_volume 1347.004946
_symmetry_space_group_name_H-M "P M M A"
_symmetry_group_IT_number 51
_symmetry_cell_setting 'orthorhombic'
loop_
_space_group_symop_operation_xyz
x,y,z
1/2-x,-y,z
1/2+x,-y,-z
-x,y,-z
-x,-y,-z
1/2+x,y,-z
1/2-x,y,z
x,-y,z
loop_
_atom_site_type_symbol
_atom_site_label
_atom_site_fract_x
_atom_site_fract_y
_atom_site_fract_z
Si Si1 0.106319 0.578283 0.831706
Si Si2 0.106273 0.918094 0.330945
Si Si3 0.391624 0.271727 0.651560
Si Si4 0.000000 0.182821 0.000000
O O1 0.250000 0.582127 0.917095
O O2 0.093427 0.500000 0.740623
O O3 0.095719 0.644640 0.688081
O O4 0.000000 0.584744 0.000000
O O5 0.250000 0.907439 0.407555
O O6 0.000000 0.907820 0.500000
O O7 0.096653 0.000000 0.267008
O O8 0.079348 0.866929 0.147257
O O9 0.500000 0.249520 0.500000
O O10 0.250000 0.257035 0.577280
O O11 0.414844 0.232357 0.859646
#
# Coordination Sequence:
#
# PCOD9406901 Si02
#       4
#     8   8   8   4
#     4   9  18  36  61  88 118 156 204 255 305 358
#     4  10  23  43  67  95 125 158 201 251 303 362
#     4  11  25  41  60  90 125 164 207 255 306 364
#     4  12  23  40  65  92 122 166 204 252 299 366
#
# _framework density 20.786856
#
# number of rings (size 3 to 8) (size 9 to 14) (size 15 to 20)
#    0.000    1.714    1.429    2.143    0.000    8.571 
#    0.000    2.857    0.000    0.000    0.000    0.000 
#    0.000    0.000    0.000    0.000    0.000    0.000 
#
# Total GULP energy -156416.412470 kJ/mol
# GULP energy per Si atom -5586.300445 kJ/mol
# Density = 2.073954 g / cm^3
# Si number density = 20.786856 Si / 1000 Ang^3
#
#
#
# Elastic Constant Matrix: (Units=GPa)
#
#
# Indices 1 2 3 4 5 6 
#
# 1 172.9503 45.8419 63.3690 0.0000 0.0000 0.0000
# 2 45.8419 141.7147 37.4736 0.0000 0.0000 0.0000
# 3 63.3690 37.4736 76.3530 0.0000 0.0000 0.0000
# 4 0.0000 0.0000 0.0000 20.7008 0.0000 0.0000
# 5 0.0000 0.0000 0.0000 0.0000 32.2936 0.0000
# 6 0.0000 0.0000 0.0000 0.0000 0.0000 152.2530
#
#
#
# Elastic Compliance Matrix: (Units=1/GPa)
#
#
# Indices 1 2 3 4 5 6 
#
# 1 0.008432 -0.001008 -0.006503 0.000000 0.000000 0.000000
# 2 -0.001008 0.008229 -0.003202 0.000000 0.000000 0.000000
# 3 -0.006503 -0.003202 0.020066 0.000000 0.000000 0.000000
# 4 0.000000 0.000000 0.000000 0.048307 0.000000 0.000000
# 5 0.000000 0.000000 0.000000 0.000000 0.030966 0.000000
# 6 0.000000 0.000000 0.000000 0.000000 0.000000 0.006568
#
#
# Mechanical properties :
#
#
# Convention : Reuss Voigt Hill
#
# Bulk Modulus (GPa) = 65.35896 76.04300 70.70098
# Shear Modulus (GPa) = 33.53534 57.33838 45.43686
#
# Velocity S-wave (km/s) = 4.02094 5.25774 4.68037
# Velocity P-wave (km/s) = 7.28478 8.57439 7.95576
#
# Compressibility (1/GPa) = 0.01530012
#
# Stress axis : x y z
#
# Youngs Moduli (GPa) = 118.59534 121.51753 49.83469
#
# Poissons Ratio (x) = 0.12247 0.32410
# Poissons Ratio (y) = 0.11953 0.15959
# Poissons Ratio (z) = 0.77128 0.38915
#
# Static dielectric constant tensor:
#      x y z
#    x 1.734670 0.000000 0.000000 
#    y 0.000000 1.776150 0.000000 
#    z 0.000000 0.000000 1.690060 
# 
# From -- ./inp_files/576.got.cif
#   From: 2010.05.17/outbox.cif.g08.bks.cpg/sg51_1_cif.got.tgz:576.got - 2010.06.03 11:52:47.
