data_PCOD9406259
_publ_section_title
;
Structure prediction by ZEFSAII (Michael W. Deem and Ramdas Pophale) SiO2 
 PCOD9406259
Probable space group: P M M A
;
_chemical_formula_sum "Si O2"
_cell_formula_units_Z 64
_cell_length_a 9.058468
_cell_length_b 14.600478
_cell_length_c 28.747698
_cell_angle_alpha 90.000000
_cell_angle_beta 90.000000
_cell_angle_gamma 90.000000
_cell_volume 3802.111971
_symmetry_space_group_name_H-M "P M M A"
_symmetry_group_IT_number 51
_symmetry_cell_setting 'orthorhombic'
loop_
_space_group_symop_operation_xyz
x,y,z
1/2-x,-y,z
1/2+x,-y,-z
-x,y,-z
-x,-y,-z
1/2+x,y,-z
1/2-x,y,z
x,-y,z
loop_
_atom_site_type_symbol
_atom_site_label
_atom_site_fract_x
_atom_site_fract_y
_atom_site_fract_z
Si Si1 0.572379 0.393621 0.950895
Si Si2 0.073120 0.606976 0.671956
Si Si3 0.074195 0.107225 0.550183
Si Si4 0.927072 0.894503 0.177951
Si Si5 0.577243 0.890391 0.286083
Si Si6 0.574515 0.220177 0.632479
Si Si7 0.077679 0.609444 0.780070
Si Si8 0.426317 0.721739 0.138895
O O1 0.750000 0.388998 0.955010
O O2 0.533352 0.500000 0.940894
O O3 0.525885 0.329496 0.908278
O O4 0.500000 0.368418 0.000000
O O5 0.250000 0.618279 0.666546
O O6 0.038843 0.500000 0.663708
O O7 0.038818 0.627933 0.726259
O O8 0.986647 0.677529 0.640005
O O9 0.250000 0.122339 0.547744
O O10 0.000000 0.121872 0.500000
O O11 0.000885 0.171305 0.588589
O O12 0.050579 0.000000 0.562847
O O13 0.750000 0.888563 0.173289
O O14 0.960228 0.872044 0.232166
O O15 0.005108 0.821837 0.145225
O O16 0.970187 0.000000 0.169663
O O17 0.750000 0.865305 0.293429
O O18 0.477590 0.836488 0.322125
O O19 0.565578 0.000000 0.293050
O O20 0.750000 0.219076 0.628094
O O21 0.250000 0.635044 0.786404
O O22 0.065447 0.500000 0.786799
O O23 0.981168 0.662579 0.817197
O O24 0.250000 0.726591 0.139063
#
# Coordination Sequence:
#
# PCOD9406259 Si02
#       8
#     8   8   8   8   8   8   8   8
#     4   9  19  35  52  72  99 128 158 195 242 296
#     4   9  19  36  54  71  97 136 179 218 251 287
#     4  10  21  38  59  81 106 135 167 206 252 301
#     4   9  19  35  52  70  96 133 175 213 246 287
#     4   9  18  33  51  71  99 136 175 212 248 288
#     4  12  23  32  49  78 108 137 170 208 252 304
#     4   9  18  32  50  73 101 135 174 209 243 293
#     4  11  21  31  48  75 104 131 160 201 254 305
#
# _framework density 16.832750999999998
#
# number of rings (size 3 to 8) (size 9 to 14) (size 15 to 20)
#    0.000    2.250    0.000    4.875    0.000    8.750 
#    0.000    3.750    0.000    0.750    0.000    0.000 
#    0.000    0.000    0.000    0.000    0.000    0.000 
#
# Total GULP energy -357364.939158 kJ/mol
# GULP energy per Si atom -5583.827174 kJ/mol
# Density = 1.679444 g / cm^3
# Si number density = 16.832751 Si / 1000 Ang^3
#
#
#
# Elastic Constant Matrix: (Units=GPa)
#
#
# Indices 1 2 3 4 5 6 
#
# 1 68.6747 63.5151 67.0848 0.0000 0.0000 0.0000
# 2 63.5151 106.0299 92.9885 0.0000 0.0000 0.0000
# 3 67.0848 92.9885 109.3156 0.0000 0.0000 0.0000
# 4 0.0000 0.0000 0.0000 32.8091 0.0000 0.0000
# 5 0.0000 0.0000 0.0000 0.0000 28.3306 0.0000
# 6 0.0000 0.0000 0.0000 0.0000 0.0000 22.3710
#
#
#
# Elastic Compliance Matrix: (Units=1/GPa)
#
#
# Indices 1 2 3 4 5 6 
#
# 1 0.038519 -0.009226 -0.015791 0.000000 0.000000 0.000000
# 2 -0.009226 0.039343 -0.027805 0.000000 0.000000 0.000000
# 3 -0.015791 -0.027805 0.042491 0.000000 0.000000 0.000000
# 4 0.000000 0.000000 0.000000 0.030479 0.000000 0.000000
# 5 0.000000 0.000000 0.000000 0.000000 0.035298 0.000000
# 6 0.000000 0.000000 0.000000 0.000000 0.000000 0.044701
#
#
# Mechanical properties :
#
#
# Convention : Reuss Voigt Hill
#
# Bulk Modulus (GPa) = 67.98316 81.24411 74.61364
# Shear Modulus (GPa) = 14.64661 20.73091 17.68876
#
# Velocity S-wave (km/s) = 2.95299 3.51320 3.24520
# Velocity P-wave (km/s) = 7.21817 8.05152 7.64621
#
# Compressibility (1/GPa) = 0.01470952
#
# Stress axis : x y z
#
# Youngs Moduli (GPa) = 25.96134 25.41750 23.53464
#
# Poissons Ratio (x) = 0.23449 0.37163
# Poissons Ratio (y) = 0.23951 0.65439
# Poissons Ratio (z) = 0.40995 0.70674
#
# Static dielectric constant tensor:
#      x y z
#    x 1.555440 0.000000 0.000000 
#    y 0.000000 1.578190 0.000000 
#    z 0.000000 0.000000 1.543290 
# 
# From -- ./inp_files/34882.got.cif
#   From: 2010.05.17/outbox.cif.g08.bks.cpg/sg51_18_cif.got.tgz:34882.got - 2010.06.03 11:52:47.
