data_PCOD9406113
_publ_section_title
;
Structure prediction by ZEFSAII (Michael W. Deem and Ramdas Pophale) SiO2 
 PCOD9406113
Probable space group: P M M A
;
_chemical_formula_sum "Si O2"
_cell_formula_units_Z 40
_cell_length_a 9.102739
_cell_length_b 9.143024
_cell_length_c 26.248632
_cell_angle_alpha 90.000000
_cell_angle_beta 90.000000
_cell_angle_gamma 90.000000
_cell_volume 2184.583376
_symmetry_space_group_name_H-M "P M M A"
_symmetry_group_IT_number 51
_symmetry_cell_setting 'orthorhombic'
loop_
_space_group_symop_operation_xyz
x,y,z
1/2-x,-y,z
1/2+x,-y,-z
-x,y,-z
-x,-y,-z
1/2+x,y,-z
1/2-x,y,z
x,-y,z
loop_
_atom_site_type_symbol
_atom_site_label
_atom_site_fract_x
_atom_site_fract_y
_atom_site_fract_z
Si Si1 0.574559 0.327532 0.351567
Si Si2 0.575623 0.826230 0.553147
Si Si3 0.425800 0.826941 0.754542
Si Si4 0.923802 0.174681 0.053591
Si Si5 0.424463 0.326307 0.149477
O O1 0.750000 0.307590 0.358828
O O2 0.545415 0.500000 0.346662
O O3 0.491362 0.260352 0.399582
O O4 0.533512 0.245470 0.299378
O O5 0.500000 0.782609 0.500000
O O6 0.750000 0.804083 0.549767
O O7 0.547879 0.000000 0.560419
O O8 0.250000 0.806569 0.761572
O O9 0.509594 0.750866 0.800739
O O10 0.455165 0.000000 0.753618
O O11 0.750000 0.204227 0.051207
O O12 0.997532 0.260059 0.099875
O O13 0.943194 0.000000 0.061703
O O14 0.000000 0.212257 0.000000
O O15 0.250000 0.300534 0.146426
O O16 0.450148 0.500000 0.152342
#
# Coordination Sequence:
#
# PCOD9406113 Si02
#       5
#     8   8   8   8   8
#     4  10  21  37  58  84 114 148 185 227 278 334
#     4  10  21  37  58  83 111 146 188 232 278 329
#     4  10  21  38  61  86 111 144 187 232 279 332
#     4  10  21  38  61  87 114 147 188 232 279 332
#     4  11  24  39  56  82 116 152 189 230 278 331
#
# _framework density 18.310126
#
# number of rings (size 3 to 8) (size 9 to 14) (size 15 to 20)
#    0.000    1.800    0.000    3.600    0.000   10.400 
#    0.000    0.000    0.000    0.000    0.000    0.000 
#    0.000    0.000    0.000    0.000    0.000    0.000 
#
# Total GULP energy -223597.794766 kJ/mol
# GULP energy per Si atom -5589.944869 kJ/mol
# Density = 1.826845 g / cm^3
# Si number density = 18.310126 Si / 1000 Ang^3
#
#
#
# Elastic Constant Matrix: (Units=GPa)
#
#
# Indices 1 2 3 4 5 6 
#
# 1 92.1297 92.1126 107.4475 0.0000 0.0000 0.0000
# 2 92.1126 103.8752 113.9282 0.0000 0.0000 0.0000
# 3 107.4475 113.9282 209.8180 0.0000 0.0000 0.0000
# 4 0.0000 0.0000 0.0000 6681.4045 0.0000 0.0000
# 5 0.0000 0.0000 0.0000 0.0000 42.0180 0.0000
# 6 0.0000 0.0000 0.0000 0.0000 0.0000 30.9962
#
#
#
# Elastic Compliance Matrix: (Units=1/GPa)
#
#
# Indices 1 2 3 4 5 6 
#
# 1 0.100381 -0.080685 -0.007594 0.000000 0.000000 0.000000
# 2 -0.080685 0.088655 -0.006820 0.000000 0.000000 0.000000
# 3 -0.007594 -0.006820 0.012358 0.000000 0.000000 0.000000
# 4 0.000000 0.000000 0.000000 0.000150 0.000000 0.000000
# 5 0.000000 0.000000 0.000000 0.000000 0.023799 0.000000
# 6 0.000000 0.000000 0.000000 0.000000 0.000000 0.032262
#
#
# Mechanical properties :
#
#
# Convention : Reuss Voigt Hill
#
# Bulk Modulus (GPa) = 89.31511 114.75548 102.03529
# Shear Modulus (GPa) = 11.07329 1357.03939 684.05634
#
# Velocity S-wave (km/s) = 2.46186 27.25345 19.34956
# Velocity P-wave (km/s) = 7.54758 32.45217 23.55960
#
# Compressibility (1/GPa) = 0.01119631
#
# Stress axis : x y z
#
# Youngs Moduli (GPa) = 9.96200 11.27962 80.91853
#
# Poissons Ratio (x) = 0.91010 0.61451
# Poissons Ratio (y) = 0.80379 0.55185
# Poissons Ratio (z) = 0.07565 0.07693
#
# Static dielectric constant tensor:
#      x y z
#    x 1.610630 0.000000 0.000000 
#    y 0.000000 1.610020 0.000000 
#    z 0.000000 0.000000 1.583830 
# 
# From -- ./inp_files/34282.got.cif
#   From: 2010.05.17/outbox.cif.g08.bks.cpg/sg51_18_cif.got.tgz:34282.got - 2010.06.03 11:52:47.
