data_PCOD9406596
_publ_section_title
;
Structure prediction by ZEFSAII (Michael W. Deem and Ramdas Pophale) SiO2 
 PCOD9406596
Probable space group: P M M A
;
_chemical_formula_sum "Si O2"
_cell_formula_units_Z 40
_cell_length_a 27.217901
_cell_length_b 13.856296
_cell_length_c 5.305054
_cell_angle_alpha 90.000000
_cell_angle_beta 90.000000
_cell_angle_gamma 90.000000
_cell_volume 2000.744314
_symmetry_space_group_name_H-M "P M M A"
_symmetry_group_IT_number 51
_symmetry_cell_setting 'orthorhombic'
loop_
_space_group_symop_operation_xyz
x,y,z
1/2-x,-y,z
1/2+x,-y,-z
-x,y,-z
-x,-y,-z
1/2+x,y,-z
1/2-x,y,z
x,-y,z
loop_
_atom_site_type_symbol
_atom_site_label
_atom_site_fract_x
_atom_site_fract_y
_atom_site_fract_z
Si Si1 0.136401 0.385563 0.915326
Si Si2 0.968392 0.885939 0.751331
Si Si3 0.864039 0.785973 0.763258
Si Si4 0.807397 0.781487 0.257987
Si Si5 0.971183 0.382968 0.253015
O O1 0.139172 0.500000 0.935937
O O2 0.181604 0.333509 0.777255
O O3 0.085827 0.355626 0.773484
O O4 0.133674 0.329683 0.182681
O O5 0.918281 0.826995 0.745375
O O6 0.000000 0.869972 0.500000
O O7 0.956353 0.000000 0.761764
O O8 0.000000 0.863454 0.000000
O O9 0.832649 0.810197 0.518269
O O10 0.836501 0.823182 0.016278
O O11 0.750000 0.801970 0.251594
O O12 0.971395 0.500000 0.261002
O O13 0.000000 0.349058 0.500000
O O14 0.000000 0.355190 0.000000
#
# Coordination Sequence:
#
# PCOD9406596 Si02
#       5
#     8   8   8   8   8
#     4   9  22  38  56  84 116 160 211 253 301 355
#     4  10  21  40  68  99 128 157 193 239 297 369
#     4  10  22  39  60  90 119 160 195 257 301 365
#     4  10  22  40  59  82 116 161 208 260 308 344
#     4   9  18  31  47  68 102 143 181 227 283 343
#
# _framework density 19.992560000000001
#
# number of rings (size 3 to 8) (size 9 to 14) (size 15 to 20)
#    1.200    1.200    0.000    1.800    2.800    2.000 
#    0.000    0.000    0.000    4.200    0.000    0.000 
#    0.000    0.000    0.000    0.000    0.000    0.000 
#
# Total GULP energy -223160.342441 kJ/mol
# GULP energy per Si atom -5579.008561 kJ/mol
# Density = 1.994706 g / cm^3
# Si number density = 19.992560 Si / 1000 Ang^3
#
#
#
# Elastic Constant Matrix: (Units=GPa)
#
#
# Indices 1 2 3 4 5 6 
#
# 1 126.6210 8.5458 67.4907 0.0000 0.0000 0.0000
# 2 8.5458 40.9878 4.6080 0.0000 0.0000 0.0000
# 3 67.4907 4.6080 168.7457 0.0000 0.0000 0.0000
# 4 0.0000 0.0000 0.0000 60.8651 0.0000 0.0000
# 5 0.0000 0.0000 0.0000 0.0000 28.4686 0.0000
# 6 0.0000 0.0000 0.0000 0.0000 0.0000 4.1886
#
#
#
# Elastic Compliance Matrix: (Units=1/GPa)
#
#
# Indices 1 2 3 4 5 6 
#
# 1 0.010149 -0.001665 -0.004014 0.000000 0.000000 0.000000
# 2 -0.001665 0.024746 -0.000010 0.000000 0.000000 0.000000
# 3 -0.004014 -0.000010 0.007532 0.000000 0.000000 0.000000
# 4 0.000000 0.000000 0.000000 0.016430 0.000000 0.000000
# 5 0.000000 0.000000 0.000000 0.000000 0.035126 0.000000
# 6 0.000000 0.000000 0.000000 0.000000 0.000000 0.238742
#
#
# Mechanical properties :
#
#
# Convention : Reuss Voigt Hill
#
# Bulk Modulus (GPa) = 32.20645 55.29373 43.75009
# Shear Modulus (GPa) = 14.10627 35.75179 24.92903
#
# Velocity S-wave (km/s) = 2.65915 4.23336 3.53500
# Velocity P-wave (km/s) = 5.05691 7.18417 6.21227
#
# Compressibility (1/GPa) = 0.03104968
#
# Stress axis : x y z
#
# Youngs Moduli (GPa) = 98.52823 40.41102 132.77212
#
# Poissons Ratio (x) = 0.06728 0.53293
# Poissons Ratio (y) = 0.16403 0.00131
# Poissons Ratio (z) = 0.39548 0.00040
#
# Static dielectric constant tensor:
#      x y z
#    x 1.661510 0.000000 0.000000 
#    y 0.000000 1.721950 0.000000 
#    z 0.000000 0.000000 1.718560 
# 
# From -- ./inp_files/2998.got.cif
#   From: 2010.05.17/outbox.cif.g08.bks.cpg/sg51_2_cif.got.tgz:2998.got - 2010.06.03 11:52:47.
