data_PCOD9406187
_publ_section_title
;
Structure prediction by ZEFSAII (Michael W. Deem and Ramdas Pophale) SiO2 
 PCOD9406187
Probable space group: P M M A
;
_chemical_formula_sum "Si O2"
_cell_formula_units_Z 48
_cell_length_a 16.979211
_cell_length_b 9.475636
_cell_length_c 16.530779
_cell_angle_alpha 90.000000
_cell_angle_beta 90.000000
_cell_angle_gamma 90.000000
_cell_volume 2659.617577
_symmetry_space_group_name_H-M "P M M A"
_symmetry_group_IT_number 51
_symmetry_cell_setting 'orthorhombic'
loop_
_space_group_symop_operation_xyz
x,y,z
1/2-x,-y,z
1/2+x,-y,-z
-x,y,-z
-x,-y,-z
1/2+x,y,-z
1/2-x,y,z
x,-y,z
loop_
_atom_site_type_symbol
_atom_site_label
_atom_site_fract_x
_atom_site_fract_y
_atom_site_fract_z
Si Si1 0.250000 0.669762 0.529669
Si Si2 0.562104 0.167542 0.719316
Si Si3 0.908019 0.338184 0.023431
Si Si4 0.843100 0.839773 0.875941
Si Si5 0.079631 0.669923 0.448480
Si Si6 0.898119 0.834049 0.188644
Si Si7 0.250000 0.832500 0.697900
O O1 0.250000 0.500000 0.537551
O O2 0.165827 0.707243 0.486803
O O3 0.250000 0.743620 0.616535
O O4 0.621719 0.209928 0.790763
O O5 0.572727 0.254796 0.637961
O O6 0.476711 0.188685 0.759324
O O7 0.572255 0.000000 0.702741
O O8 0.881359 0.500000 0.029676
O O9 0.897242 0.258204 0.107999
O O10 0.865735 0.256886 0.950878
O O11 0.000000 0.337365 0.000000
O O12 0.750000 0.846083 0.869441
O O13 0.874275 0.000000 0.889571
O O14 0.078624 0.500000 0.439748
O O15 0.000000 0.707351 0.500000
O O16 0.825442 0.802202 0.246912
O O17 0.894689 0.000000 0.165932
O O18 0.250000 0.000000 0.678536
#
# Coordination Sequence:
#
# PCOD9406187 Si02
#       7
#     4   8   8   8   8   8   4
#     4  10  22  40  60  85 116 153 188 227 290 351
#     4  10  21  37  60  86 112 148 192 236 286 340
#     4  11  23  38  57  84 115 152 197 239 286 341
#     4  10  22  39  59  83 115 154 194 237 287 340
#     4  10  22  39  59  84 116 152 189 231 285 349
#     4  10  21  38  59  84 116 152 191 237 288 341
#     4  10  22  38  60  89 114 143 190 239 284 337
#
# _framework density 18.047708
#
# number of rings (size 3 to 8) (size 9 to 14) (size 15 to 20)
#    0.000    1.833    1.667    1.500    2.333    4.000 
#    0.000    0.000    0.000    0.000    0.000    0.000 
#    0.000    0.000    0.000    0.000    0.000    0.000 
#
# Total GULP energy -267924.485845 kJ/mol
# GULP energy per Si atom -5581.760122 kJ/mol
# Density = 1.800663 g / cm^3
# Si number density = 18.047708 Si / 1000 Ang^3
#
#
#
# Elastic Constant Matrix: (Units=GPa)
#
#
# Indices 1 2 3 4 5 6 
#
# 1 111.7561 49.3895 78.5707 0.0000 0.0000 0.0000
# 2 49.3895 73.9174 98.4237 0.0000 0.0000 0.0000
# 3 78.5707 98.4237 193.2828 0.0000 0.0000 0.0000
# 4 0.0000 0.0000 0.0000 32.7543 0.0000 0.0000
# 5 0.0000 0.0000 0.0000 0.0000 -31.2771 0.0000
# 6 0.0000 0.0000 0.0000 0.0000 0.0000 8.4581
#
#
#
# Elastic Compliance Matrix: (Units=1/GPa)
#
#
# Indices 1 2 3 4 5 6 
#
# 1 0.013137 -0.005178 -0.002704 0.000000 0.000000 0.000000
# 2 -0.005178 0.044061 -0.020332 0.000000 0.000000 0.000000
# 3 -0.002704 -0.020332 0.016626 0.000000 0.000000 0.000000
# 4 0.000000 0.000000 0.000000 0.030530 0.000000 0.000000
# 5 0.000000 0.000000 0.000000 0.000000 -0.031972 0.000000
# 6 0.000000 0.000000 0.000000 0.000000 0.000000 0.118230
#
#
# Mechanical properties :
#
#
# Convention : Reuss Voigt Hill
#
# Bulk Modulus (GPa) = 57.47939 92.41378 74.94659
# Shear Modulus (GPa) = 19.77540 12.15855 15.96698
#
# Velocity S-wave (km/s) = 3.31377 2.59837 2.97763
# Velocity P-wave (km/s) = 6.82343 7.76650 7.31019
#
# Compressibility (1/GPa) = 0.01739754
#
# Stress axis : x y z
#
# Youngs Moduli (GPa) = 76.11978 22.69570 60.14548
#
# Poissons Ratio (x) = 0.11752 0.16261
# Poissons Ratio (y) = 0.39414 1.22288
# Poissons Ratio (z) = 0.20580 0.46145
#
# Static dielectric constant tensor:
#      x y z
#    x 1.617830 0.000000 0.000000 
#    y 0.000000 1.614250 0.000000 
#    z 0.000000 0.000000 1.565340 
# 
# From -- ./inp_files/24872.got.cif
#   From: 2010.05.17/outbox.cif.g08.bks.cpg/sg51_13_cif.got.tgz:24872.got - 2010.06.03 11:52:47.
