data_PCOD9406149
_publ_section_title
;
Structure prediction by ZEFSAII (Michael W. Deem and Ramdas Pophale) SiO2 
 PCOD9406149
Probable space group: P M M A
;
_chemical_formula_sum "Si O2"
_cell_formula_units_Z 48
_cell_length_a 18.081478
_cell_length_b 8.901410
_cell_length_c 15.638907
_cell_angle_alpha 90.000000
_cell_angle_beta 90.000000
_cell_angle_gamma 90.000000
_cell_volume 2517.092233
_symmetry_space_group_name_H-M "P M M A"
_symmetry_group_IT_number 51
_symmetry_cell_setting 'orthorhombic'
loop_
_space_group_symop_operation_xyz
x,y,z
1/2-x,-y,z
1/2+x,-y,-z
-x,y,-z
-x,-y,-z
1/2+x,y,-z
1/2-x,y,z
x,-y,z
loop_
_atom_site_type_symbol
_atom_site_label
_atom_site_fract_x
_atom_site_fract_y
_atom_site_fract_z
Si Si1 0.085833 0.819910 0.016965
Si Si2 0.084747 0.179084 0.343330
Si Si3 0.836633 0.679987 0.493569
Si Si4 0.576673 0.679414 0.319263
Si Si5 0.336343 0.180592 0.838515
Si Si6 0.336836 0.678771 0.180533
O O1 0.132364 0.781685 0.932216
O O2 0.091414 0.000000 0.030901
O O3 0.117514 0.736788 0.099293
O O4 0.000000 0.784368 0.000000
O O5 0.119641 0.237021 0.431657
O O6 0.133921 0.240462 0.265320
O O7 0.002668 0.244660 0.331786
O O8 0.082512 0.000000 0.341673
O O9 0.750000 0.719693 0.494785
O O10 0.842648 0.500000 0.507484
O O11 0.872533 0.713349 0.401713
O O12 0.567477 0.500000 0.313946
O O13 0.616303 0.740098 0.234596
O O14 0.250000 0.220714 0.831700
O O15 0.343136 0.000000 0.828542
O O16 0.250000 0.710785 0.167697
O O17 0.346050 0.500000 0.190459
#
# Coordination Sequence:
#
# PCOD9406149 Si02
#       6
#     8   8   8   8   8   8
#     4  10  21  38  61  89 121 158 199 242 291 349
#     4  12  25  40  61  89 120 156 198 244 297 355
#     4  10  22  41  63  88 120 157 197 242 293 349
#     4  11  23  40  63  89 119 157 200 246 296 350
#     4  10  21  37  58  87 124 162 199 244 297 351
#     4  11  24  41  62  89 120 155 197 246 298 353
#
# _framework density 19.069624000000001
#
# number of rings (size 3 to 8) (size 9 to 14) (size 15 to 20)
#    0.000    1.333    0.000    5.500    0.000   11.000 
#    0.000    0.000    0.000    0.000    0.000    0.000 
#    0.000    0.000    0.000    0.000    0.000    0.000 
#
# Total GULP energy -268565.574053 kJ/mol
# GULP energy per Si atom -5595.116126 kJ/mol
# Density = 1.902622 g / cm^3
# Si number density = 19.069624 Si / 1000 Ang^3
#
#
#
# Elastic Constant Matrix: (Units=GPa)
#
#
# Indices 1 2 3 4 5 6 
#
# 1 49.6186 12.9931 -28.5019 0.0000 0.0000 0.0000
# 2 12.9931 32.8320 13.1992 0.0000 0.0000 0.0000
# 3 -28.5019 13.1992 46.0709 0.0000 0.0000 0.0000
# 4 0.0000 0.0000 0.0000 41.7260 0.0000 0.0000
# 5 0.0000 0.0000 0.0000 0.0000 43.3760 0.0000
# 6 0.0000 0.0000 0.0000 0.0000 0.0000 26.0939
#
#
#
# Elastic Compliance Matrix: (Units=1/GPa)
#
#
# Indices 1 2 3 4 5 6 
#
# 1 0.060332 -0.043943 0.049914 0.000000 0.000000 0.000000
# 2 -0.043943 0.066428 -0.046217 0.000000 0.000000 0.000000
# 3 0.049914 -0.046217 0.065826 0.000000 0.000000 0.000000
# 4 0.000000 0.000000 0.000000 0.023966 0.000000 0.000000
# 5 0.000000 0.000000 0.000000 0.000000 0.023054 0.000000
# 6 0.000000 0.000000 0.000000 0.000000 0.000000 0.038323
#
#
# Mechanical properties :
#
#
# Convention : Reuss Voigt Hill
#
# Bulk Modulus (GPa) = 8.92092 13.76691 11.34391
# Shear Modulus (GPa) = 12.63309 30.96126 21.79718
#
# Velocity S-wave (km/s) = 2.57665 4.03375 3.38454
# Velocity P-wave (km/s) = 3.67972 5.37865 4.60816
#
# Compressibility (1/GPa) = 0.11209612
#
# Stress axis : x y z
#
# Youngs Moduli (GPa) = 16.57491 15.05383 15.19149
#
# Poissons Ratio (x) = 0.66151 -0.75827
# Poissons Ratio (y) = 0.72835 0.70210
# Poissons Ratio (z) = -0.82732 0.69574
#
# Static dielectric constant tensor:
#      x y z
#    x 1.636590 0.000000 0.000000 
#    y 0.000000 1.641260 0.000000 
#    z 0.000000 0.000000 1.617860 
# 
# From -- ./inp_files/24681.got.cif
#   From: 2010.05.17/outbox.cif.g08.bks.cpg/sg51_13_cif.got.tgz:24681.got - 2010.06.03 11:52:47.
