data_PCOD9406804
_publ_section_title
;
Structure prediction by ZEFSAII (Michael W. Deem and Ramdas Pophale) SiO2 
 PCOD9406804
Probable space group: P M M A
;
_chemical_formula_sum "Si O2"
_cell_formula_units_Z 40
_cell_length_a 20.389293
_cell_length_b 11.410892
_cell_length_c 9.110227
_cell_angle_alpha 90.000000
_cell_angle_beta 90.000000
_cell_angle_gamma 90.000000
_cell_volume 2119.585599
_symmetry_space_group_name_H-M "P M M A"
_symmetry_group_IT_number 51
_symmetry_cell_setting 'orthorhombic'
loop_
_space_group_symop_operation_xyz
x,y,z
1/2-x,-y,z
1/2+x,-y,-z
-x,y,-z
-x,-y,-z
1/2+x,y,-z
1/2-x,y,z
x,-y,z
loop_
_atom_site_type_symbol
_atom_site_label
_atom_site_fract_x
_atom_site_fract_y
_atom_site_fract_z
Si Si1 0.558753 0.000000 0.620267
Si Si2 0.672937 0.000000 0.380075
Si Si3 0.750000 0.358791 0.712702
Si Si4 0.486578 0.207055 0.169066
Si Si5 0.865740 0.760642 0.225423
Si Si6 0.128930 0.639538 0.083306
Si Si7 0.250000 0.361340 0.609544
O O1 0.500000 0.000000 0.500000
O O2 0.625321 0.000000 0.523135
O O3 0.548800 0.888327 0.727951
O O4 0.656622 0.888354 0.278143
O O5 0.750000 0.000000 0.418371
O O6 0.750000 0.500000 0.700291
O O7 0.684928 0.330316 0.800804
O O8 0.750000 0.306468 0.551972
O O9 0.555652 0.241245 0.243126
O O10 0.440814 0.319944 0.146133
O O11 0.500000 0.162924 0.000000
O O12 0.817139 0.677003 0.314038
O O13 0.856911 0.718999 0.058347
O O14 0.130653 0.500000 0.050217
O O15 0.250000 0.500000 0.603643
#
# Coordination Sequence:
#
# PCOD9406804 Si02
#       7
#     4   4   4   8   8   8   4
#     4  12  23  42  69  92 131 171 211 264 331 378
#     4  12  26  42  64  98 130 165 214 269 313 384
#     4   9  21  39  57  86 126 165 208 259 314 373
#     4  10  23  40  66  95 128 169 216 266 319 385
#     4  11  22  40  65  90 126 165 217 261 319 379
#     4  10  22  40  65  94 129 170 215 265 319 383
#     4  11  23  38  63  92 128 170 211 263 324 389
#
# _framework density 18.871614000000001
#
# number of rings (size 3 to 8) (size 9 to 14) (size 15 to 20)
#    0.000    1.400    3.000    1.500    2.800    7.600 
#    0.000    0.000    0.000    4.200    0.000    0.000 
#    0.000    0.000    0.000    0.000    0.000    0.000 
#
# Total GULP energy -223066.491220 kJ/mol
# GULP energy per Si atom -5576.662280 kJ/mol
# Density = 1.882866 g / cm^3
# Si number density = 18.871614 Si / 1000 Ang^3
#
#
#
# Elastic Constant Matrix: (Units=GPa)
#
#
# Indices 1 2 3 4 5 6 
#
# 1 170.9350 48.9525 81.5599 0.0000 0.0000 0.0000
# 2 48.9525 77.9590 51.6470 0.0000 0.0000 0.0000
# 3 81.5599 51.6470 101.8734 0.0000 0.0000 0.0000
# 4 0.0000 0.0000 0.0000 28.1148 0.0000 0.0000
# 5 0.0000 0.0000 0.0000 0.0000 31.2724 0.0000
# 6 0.0000 0.0000 0.0000 0.0000 0.0000 37.4892
#
#
#
# Elastic Compliance Matrix: (Units=1/GPa)
#
#
# Indices 1 2 3 4 5 6 
#
# 1 0.009567 -0.001405 -0.006947 0.000000 0.000000 0.000000
# 2 -0.001405 0.019521 -0.008771 0.000000 0.000000 0.000000
# 3 -0.006947 -0.008771 0.019825 0.000000 0.000000 0.000000
# 4 0.000000 0.000000 0.000000 0.035568 0.000000 0.000000
# 5 0.000000 0.000000 0.000000 0.000000 0.031977 0.000000
# 6 0.000000 0.000000 0.000000 0.000000 0.000000 0.026674
#
#
# Mechanical properties :
#
#
# Convention : Reuss Voigt Hill
#
# Bulk Modulus (GPa) = 68.18854 79.45403 73.82128
# Shear Modulus (GPa) = 27.43196 30.61581 29.02389
#
# Velocity S-wave (km/s) = 3.81676 4.03217 3.92594
# Velocity P-wave (km/s) = 7.45888 7.99198 7.73002
#
# Compressibility (1/GPa) = 0.01466522
#
# Stress axis : x y z
#
# Youngs Moduli (GPa) = 104.52133 51.22799 50.44126
#
# Poissons Ratio (x) = 0.07198 0.35043
# Poissons Ratio (y) = 0.14686 0.44244
# Poissons Ratio (z) = 0.72614 0.44934
#
# Static dielectric constant tensor:
#      x y z
#    x 1.693900 0.000000 0.000000 
#    y 0.000000 1.601700 0.000000 
#    z 0.000000 0.000000 1.655920 
# 
# From -- ./inp_files/10723.got.cif
#   From: 2010.05.17/outbox.cif.g08.bks.cpg/sg51_6_cif.got.tgz:10723.got - 2010.06.03 11:52:47.
