data_PCOD9406666
_publ_section_title
;
Structure prediction by ZEFSAII (Michael W. Deem and Ramdas Pophale) SiO2 
 PCOD9406666
Probable space group: P M M A
;
_chemical_formula_sum "Si O2"
_cell_formula_units_Z 64
_cell_length_a 23.302850
_cell_length_b 9.261725
_cell_length_c 15.926908
_cell_angle_alpha 90.000000
_cell_angle_beta 90.000000
_cell_angle_gamma 90.000000
_cell_volume 3437.418364
_symmetry_space_group_name_H-M "P M M A"
_symmetry_group_IT_number 51
_symmetry_cell_setting 'orthorhombic'
loop_
_space_group_symop_operation_xyz
x,y,z
1/2-x,-y,z
1/2+x,-y,-z
-x,y,-z
-x,-y,-z
1/2+x,y,-z
1/2-x,y,z
x,-y,z
loop_
_atom_site_type_symbol
_atom_site_label
_atom_site_fract_x
_atom_site_fract_y
_atom_site_fract_z
Si Si1 0.182437 0.325924 0.167711
Si Si2 0.418426 0.330972 0.717415
Si Si3 0.317599 0.837706 0.472641
Si Si4 0.000111 0.171029 0.600144
Si Si5 0.093082 0.171155 0.050452
Si Si6 0.386991 0.328266 0.338321
Si Si7 0.817097 0.837524 0.327041
Si Si8 0.533128 0.171447 0.124335
O O1 0.250000 0.282246 0.169744
O O2 0.181285 0.500000 0.160779
O O3 0.145293 0.256885 0.092410
O O4 0.148755 0.288369 0.254386
O O5 0.425861 0.500000 0.708860
O O6 0.444452 0.247075 0.638168
O O7 0.352701 0.282091 0.720839
O O8 0.450324 0.268791 0.798014
O O9 0.250000 0.835426 0.453024
O O10 0.349259 0.718993 0.418237
O O11 0.322752 0.818202 0.572427
O O12 0.340117 0.000000 0.452624
O O13 0.946190 0.243157 0.647499
O O14 0.000000 0.194266 0.500000
O O15 0.000792 0.000000 0.615524
O O16 0.033011 0.197978 0.099130
O O17 0.105032 0.000000 0.055981
O O18 0.075161 0.203354 0.954324
O O19 0.397383 0.500000 0.336680
O O20 0.750000 0.831615 0.307741
O O21 0.838231 0.000000 0.306815
O O22 0.538336 0.000000 0.142868
#
# Coordination Sequence:
#
# PCOD9406666 Si02
#       8
#     8   8   8   8   8   8   8   8
#     4  10  22  38  54  78 117 158 188 223 281 346
#     4  12  24  36  55  85 115 142 178 222 270 327
#     4   9  18  33  53  76 102 138 186 231 270 319
#     4  11  24  40  57  78 110 153 194 234 285 338
#     4   9  19  37  62  88 108 135 182 232 273 321
#     4  11  22  35  53  79 111 147 189 234 281 334
#     4   9  19  37  58  77 102 140 182 223 269 318
#     4   9  19  38  62  86 113 142 176 224 279 332
#
# _framework density 18.618624000000001
#
# number of rings (size 3 to 8) (size 9 to 14) (size 15 to 20)
#    0.000    2.000    0.000    5.250    0.000    9.750 
#    0.000    3.125    0.000    0.750    0.000    0.000 
#    0.000    0.000    0.000    0.000    0.000    0.000 
#
# Total GULP energy -357326.253648 kJ/mol
# GULP energy per Si atom -5583.222713 kJ/mol
# Density = 1.857625 g / cm^3
# Si number density = 18.618624 Si / 1000 Ang^3
#
#
#
# Elastic Constant Matrix: (Units=GPa)
#
#
# Indices 1 2 3 4 5 6 
#
# 1 94.1359 47.0466 28.9484 0.0000 0.0000 0.0000
# 2 47.0466 79.2101 48.2342 0.0000 0.0000 0.0000
# 3 28.9484 48.2342 48.8378 0.0000 0.0000 0.0000
# 4 0.0000 0.0000 0.0000 62.8045 0.0000 0.0000
# 5 0.0000 0.0000 0.0000 0.0000 26.5356 0.0000
# 6 0.0000 0.0000 0.0000 0.0000 0.0000 21.4793
#
#
#
# Elastic Compliance Matrix: (Units=1/GPa)
#
#
# Indices 1 2 3 4 5 6 
#
# 1 0.015108 -0.008832 -0.000233 0.000000 0.000000 0.000000
# 2 -0.008832 0.036836 -0.031146 0.000000 0.000000 0.000000
# 3 -0.000233 -0.031146 0.051375 0.000000 0.000000 0.000000
# 4 0.000000 0.000000 0.000000 0.015922 0.000000 0.000000
# 5 0.000000 0.000000 0.000000 0.000000 0.037685 0.000000
# 6 0.000000 0.000000 0.000000 0.000000 0.000000 0.046556
#
#
# Mechanical properties :
#
#
# Convention : Reuss Voigt Hill
#
# Bulk Modulus (GPa) = 43.67100 52.29356 47.98228
# Shear Modulus (GPa) = 17.15041 28.69419 22.92230
#
# Velocity S-wave (km/s) = 3.03833 3.93001 3.51258
# Velocity P-wave (km/s) = 5.98457 6.98148 6.50216
#
# Compressibility (1/GPa) = 0.02289849
#
# Stress axis : x y z
#
# Youngs Moduli (GPa) = 66.18806 27.14705 19.46471
#
# Poissons Ratio (x) = 0.23976 0.00453
# Poissons Ratio (y) = 0.58457 0.60625
# Poissons Ratio (z) = 0.01540 0.84552
#
# Static dielectric constant tensor:
#      x y z
#    x 1.694930 0.000000 0.000000 
#    y 0.000000 1.623620 0.000000 
#    z 0.000000 0.000000 1.640370 
# 
# From -- ./inp_files/26199.got.cif
#   From: 2010.05.17/outbox.cif.g08.bks.cpg/sg51_14_cif.got.tgz:26199.got - 2010.06.03 11:52:47.
