data_PCOD9406053
_publ_section_title
;
Structure prediction by ZEFSAII (Michael W. Deem and Ramdas Pophale) SiO2 
 PCOD9406053
Probable space group: P M M A
;
_chemical_formula_sum "Si O2"
_cell_formula_units_Z 40
_cell_length_a 8.694076
_cell_length_b 16.695389
_cell_length_c 15.073073
_cell_angle_alpha 90.000000
_cell_angle_beta 90.000000
_cell_angle_gamma 90.000000
_cell_volume 2187.871330
_symmetry_space_group_name_H-M "P M M A"
_symmetry_group_IT_number 51
_symmetry_cell_setting 'orthorhombic'
loop_
_space_group_symop_operation_xyz
x,y,z
1/2-x,-y,z
1/2+x,-y,-z
-x,y,-z
-x,-y,-z
1/2+x,y,-z
1/2-x,y,z
x,-y,z
loop_
_atom_site_type_symbol
_atom_site_label
_atom_site_fract_x
_atom_site_fract_y
_atom_site_fract_z
Si Si1 0.931157 0.500000 0.343552
Si Si2 0.565460 0.908108 0.902949
Si Si3 0.566673 0.328151 0.595261
Si Si4 0.565227 0.233751 0.771242
Si Si5 0.572332 0.500000 0.848135
Si Si6 0.570638 0.656111 0.084490
O O1 0.750000 0.500000 0.361273
O O2 0.001276 0.583489 0.379640
O O3 0.966747 0.500000 0.238799
O O4 0.750000 0.906764 0.911338
O O5 0.528919 0.851166 0.818623
O O6 0.515444 0.000000 0.886782
O O7 0.500000 0.884509 0.000000
O O8 0.500000 0.305399 0.500000
O O9 0.750000 0.336424 0.590371
O O10 0.533708 0.260228 0.669949
O O11 0.750000 0.247426 0.784716
O O12 0.463938 0.294585 0.828050
O O13 0.750000 0.500000 0.820785
O O14 0.530756 0.577073 0.904469
O O15 0.750000 0.639532 0.074074
O O16 0.500000 0.700866 0.000000
#
# Coordination Sequence:
#
# PCOD9406053 Si02
#       6
#     4   8   8   8   4   8
#     4  12  23  38  59  83 109 143 190 236 289 340
#     4   9  18  34  57  86 117 149 185 224 272 332
#     4  11  23  39  59  81 110 146 189 239 290 339
#     4  10  21  37  57  81 111 146 184 231 282 334
#     4  12  23  38  55  75 107 145 186 230 275 328
#     4  12  24  37  54  77 108 147 188 229 275 330
#
# _framework density 18.282609999999998
#
# number of rings (size 3 to 8) (size 9 to 14) (size 15 to 20)
#    0.000    1.200    2.000    5.400    0.000    3.200 
#    0.000    0.000    0.000    0.600    0.000    0.000 
#    0.000    0.000    0.000    0.000    0.000    0.200 
#
# Total GULP energy -223190.050610 kJ/mol
# GULP energy per Si atom -5579.751265 kJ/mol
# Density = 1.824100 g / cm^3
# Si number density = 18.282610 Si / 1000 Ang^3
#
#
#
# Elastic Constant Matrix: (Units=GPa)
#
#
# Indices 1 2 3 4 5 6 
#
# 1 55.4994 30.9710 36.5677 0.0000 0.0000 0.0000
# 2 30.9710 116.5538 55.1522 0.0000 0.0000 0.0000
# 3 36.5677 55.1522 148.1438 0.0000 0.0000 0.0000
# 4 0.0000 0.0000 0.0000 14.2895 0.0000 0.0000
# 5 0.0000 0.0000 0.0000 0.0000 31.4917 0.0000
# 6 0.0000 0.0000 0.0000 0.0000 0.0000 21.5475
#
#
#
# Elastic Compliance Matrix: (Units=1/GPa)
#
#
# Indices 1 2 3 4 5 6 
#
# 1 0.023076 -0.004171 -0.004143 0.000000 0.000000 0.000000
# 2 -0.004171 0.011168 -0.003128 0.000000 0.000000 0.000000
# 3 -0.004143 -0.003128 0.008937 0.000000 0.000000 0.000000
# 4 0.000000 0.000000 0.000000 0.069982 0.000000 0.000000
# 5 0.000000 0.000000 0.000000 0.000000 0.031754 0.000000
# 6 0.000000 0.000000 0.000000 0.000000 0.000000 0.046409
#
#
# Mechanical properties :
#
#
# Convention : Reuss Voigt Hill
#
# Bulk Modulus (GPa) = 49.26972 62.84210 56.05591
# Shear Modulus (GPa) = 22.62674 26.63281 24.62978
#
# Velocity S-wave (km/s) = 3.52178 3.82085 3.67436
# Velocity P-wave (km/s) = 6.59884 7.34251 6.98059
#
# Compressibility (1/GPa) = 0.02029644
#
# Stress axis : x y z
#
# Youngs Moduli (GPa) = 43.33551 89.53848 111.88842
#
# Poissons Ratio (x) = 0.37349 0.46356
# Poissons Ratio (y) = 0.18076 0.35001
# Poissons Ratio (z) = 0.17954 0.28010
#
# Static dielectric constant tensor:
#      x y z
#    x 1.605160 0.000000 0.000000 
#    y 0.000000 1.670470 0.000000 
#    z 0.000000 0.000000 1.644870 
# 
# From -- ./inp_files/20549.got.cif
#   From: 2010.05.17/outbox.cif.g08.bks.cpg/sg51_11_cif.got.tgz:20549.got - 2010.06.03 11:52:47.
