data_PCOD9406352
_publ_section_title
;
Structure prediction by ZEFSAII (Michael W. Deem and Ramdas Pophale) SiO2 
 PCOD9406352
Probable space group: P M M A
;
_chemical_formula_sum "Si O2"
_cell_formula_units_Z 48
_cell_length_a 8.655682
_cell_length_b 31.463652
_cell_length_c 9.474423
_cell_angle_alpha 90.000000
_cell_angle_beta 90.000000
_cell_angle_gamma 90.000000
_cell_volume 2580.258356
_symmetry_space_group_name_H-M "P M M A"
_symmetry_group_IT_number 51
_symmetry_cell_setting 'orthorhombic'
loop_
_space_group_symop_operation_xyz
x,y,z
1/2-x,-y,z
1/2+x,-y,-z
-x,y,-z
-x,-y,-z
1/2+x,y,-z
1/2-x,y,z
x,-y,z
loop_
_atom_site_type_symbol
_atom_site_label
_atom_site_fract_x
_atom_site_fract_y
_atom_site_fract_z
Si Si1 0.434853 0.923691 0.341823
Si Si2 0.435071 0.173123 0.342276
Si Si3 0.064915 0.659986 0.159091
Si Si4 0.565588 0.248956 0.156902
Si Si5 0.063772 0.417452 0.658693
Si Si6 0.933950 0.000000 0.157170
Si Si7 0.564046 0.500000 0.158641
O O1 0.500000 0.929135 0.500000
O O2 0.250000 0.928624 0.345837
O O3 0.470066 0.875273 0.295058
O O4 0.506900 0.958641 0.240478
O O5 0.500000 0.176913 0.500000
O O6 0.250000 0.178327 0.341977
O O7 0.512598 0.209236 0.249015
O O8 0.250000 0.659375 0.153869
O O9 0.005898 0.706322 0.207552
O O10 0.001959 0.623884 0.262579
O O11 0.000000 0.653232 0.000000
O O12 0.750000 0.252542 0.153280
O O13 0.500000 0.242772 0.000000
O O14 0.250000 0.415464 0.654248
O O15 0.017686 0.458336 0.752689
O O16 0.000000 0.420908 0.500000
O O17 0.750000 0.000000 0.153475
O O18 0.000000 0.000000 0.000000
O O19 0.750000 0.500000 0.149438
O O20 0.500000 0.500000 0.000000
#
# Coordination Sequence:
#
# PCOD9406352 Si02
#       7
#     8   8   8   8   8   4   4
#     4  10  21  39  62  86 115 151 192 234 283 341
#     4  10  21  38  60  87 117 151 191 237 285 340
#     4  11  22  39  61  86 116 153 195 240 287 343
#     4  11  22  38  60  86 117 154 194 239 288 343
#     4  11  23  40  60  88 120 154 194 240 292 343
#     4  12  25  40  59  84 116 150 190 238 289 340
#     4  10  23  40  62  88 118 154 195 238 285 344
#
# _framework density 18.602789999999999
#
# number of rings (size 3 to 8) (size 9 to 14) (size 15 to 20)
#    0.000    1.333    0.000    7.250    0.000    6.000 
#    0.000    3.333    0.000    0.000    0.000    0.000 
#    0.000    0.000    0.000    0.000    0.000    0.000 
#
# Total GULP energy -268399.631562 kJ/mol
# GULP energy per Si atom -5591.658991 kJ/mol
# Density = 1.856045 g / cm^3
# Si number density = 18.602790 Si / 1000 Ang^3
#
#
#
# Elastic Constant Matrix: (Units=GPa)
#
#
# Indices 1 2 3 4 5 6 
#
# 1 140.9319 91.3002 64.6818 0.0000 0.0000 0.0000
# 2 91.3002 197.8076 120.6045 0.0000 0.0000 0.0000
# 3 64.6818 120.6045 126.1293 0.0000 0.0000 0.0000
# 4 0.0000 0.0000 0.0000 36.2983 0.0000 0.0000
# 5 0.0000 0.0000 0.0000 0.0000 38.4625 0.0000
# 6 0.0000 0.0000 0.0000 0.0000 0.0000 30.5557
#
#
#
# Elastic Compliance Matrix: (Units=1/GPa)
#
#
# Indices 1 2 3 4 5 6 
#
# 1 0.010283 -0.003672 -0.001763 0.000000 0.000000 0.000000
# 2 -0.003672 0.013434 -0.010963 0.000000 0.000000 0.000000
# 3 -0.001763 -0.010963 0.019315 0.000000 0.000000 0.000000
# 4 0.000000 0.000000 0.000000 0.027550 0.000000 0.000000
# 5 0.000000 0.000000 0.000000 0.000000 0.025999 0.000000
# 6 0.000000 0.000000 0.000000 0.000000 0.000000 0.032727
#
#
# Mechanical properties :
#
#
# Convention : Reuss Voigt Hill
#
# Bulk Modulus (GPa) = 97.67448 113.11577 105.39513
# Shear Modulus (GPa) = 30.20865 33.61544 31.91205
#
# Velocity S-wave (km/s) = 4.03411 4.25551 4.14629
# Velocity P-wave (km/s) = 8.62079 9.22408 8.92753
#
# Compressibility (1/GPa) = 0.01023809
#
# Stress axis : x y z
#
# Youngs Moduli (GPa) = 97.24598 74.43666 51.77324
#
# Poissons Ratio (x) = 0.27330 0.09126
# Poissons Ratio (y) = 0.35705 0.56758
# Poissons Ratio (z) = 0.17141 0.81604
#
# Static dielectric constant tensor:
#      x y z
#    x 1.621520 0.000000 0.000000 
#    y 0.000000 1.638840 0.000000 
#    z 0.000000 0.000000 1.592570 
# 
# From -- ./inp_files/6256.got.cif
#   From: 2010.05.17/outbox.cif.g08.bks.cpg/sg51_4_cif.got.tgz:6256.got - 2010.06.03 11:52:47.
