data_PCOD9406671
_publ_section_title
;
Structure prediction by ZEFSAII (Michael W. Deem and Ramdas Pophale) SiO2 
 PCOD9406671
Probable space group: P M M A
;
_chemical_formula_sum "Si O2"
_cell_formula_units_Z 32
_cell_length_a 14.163744
_cell_length_b 7.441903
_cell_length_c 14.879083
_cell_angle_alpha 90.000000
_cell_angle_beta 90.000000
_cell_angle_gamma 90.000000
_cell_volume 1568.332853
_symmetry_space_group_name_H-M "P M M A"
_symmetry_group_IT_number 51
_symmetry_cell_setting 'orthorhombic'
loop_
_space_group_symop_operation_xyz
x,y,z
1/2-x,-y,z
1/2+x,-y,-z
-x,y,-z
-x,-y,-z
1/2+x,y,-z
1/2-x,y,z
x,-y,z
loop_
_atom_site_type_symbol
_atom_site_label
_atom_site_fract_x
_atom_site_fract_y
_atom_site_fract_z
Si Si1 0.478322 0.500000 0.395147
Si Si2 0.640666 0.781489 0.910499
Si Si3 0.137476 0.500000 0.748660
Si Si4 0.636358 0.213770 0.712022
Si Si5 0.364690 0.203193 0.894241
O O1 0.500000 0.500000 0.500000
O O2 0.575755 0.500000 0.339927
O O3 0.418022 0.328697 0.361500
O O4 0.750000 0.725124 0.908535
O O5 0.602955 0.729172 0.812845
O O6 0.639388 0.000000 0.912775
O O7 0.603428 0.725946 0.008039
O O8 0.250000 0.500000 0.730936
O O9 0.114555 0.670689 0.811199
O O10 0.750000 0.242595 0.707088
O O11 0.620712 0.000000 0.702928
O O12 0.250000 0.194682 0.899789
O O13 0.400694 0.000000 0.882024
#
# Coordination Sequence:
#
# PCOD9406671 Si02
#       5
#     4   8   4   8   8
#     4  12  27  42  59  82 112 149 195 254 303 337
#     4   7  11  24  51  85 116 145 177 217 271 336
#     4  10  22  38  55  78 111 155 200 234 273 335
#     4   9  19  39  66  92 117 146 183 231 290 352
#     4   8  14  28  52  81 114 151 186 221 268 331
#
# _framework density 20.403831
#
# number of rings (size 3 to 8) (size 9 to 14) (size 15 to 20)
#    0.000    3.250    0.000    3.375    0.000    3.500 
#    0.000    6.250    0.000    7.500    0.000    0.000 
#    0.000    0.000    0.000    0.000    0.000    0.000 
#
# Total GULP energy -178593.723873 kJ/mol
# GULP energy per Si atom -5581.053871 kJ/mol
# Density = 2.035739 g / cm^3
# Si number density = 20.403831 Si / 1000 Ang^3
#
#
#
# Elastic Constant Matrix: (Units=GPa)
#
#
# Indices 1 2 3 4 5 6 
#
# 1 117.6107 37.5324 60.8944 0.0000 0.0000 0.0000
# 2 37.5324 94.4499 75.2193 0.0000 0.0000 0.0000
# 3 60.8944 75.2193 218.6028 0.0000 0.0000 0.0000
# 4 0.0000 0.0000 0.0000 24.1829 0.0000 0.0000
# 5 0.0000 0.0000 0.0000 0.0000 38.5890 0.0000
# 6 0.0000 0.0000 0.0000 0.0000 0.0000 4856.0813
#
#
#
# Elastic Compliance Matrix: (Units=1/GPa)
#
#
# Indices 1 2 3 4 5 6 
#
# 1 0.010348 -0.002502 -0.002022 0.000000 0.000000 0.000000
# 2 -0.002502 0.015189 -0.004529 0.000000 0.000000 0.000000
# 3 -0.002022 -0.004529 0.006696 0.000000 0.000000 0.000000
# 4 0.000000 0.000000 0.000000 0.041351 0.000000 0.000000
# 5 0.000000 0.000000 0.000000 0.000000 0.025914 0.000000
# 6 0.000000 0.000000 0.000000 0.000000 0.000000 0.000206
#
#
# Mechanical properties :
#
#
# Convention : Reuss Voigt Hill
#
# Bulk Modulus (GPa) = 70.78667 86.43952 78.61309
# Shear Modulus (GPa) = 40.80977 1000.90513 520.85745
#
# Velocity S-wave (km/s) = 4.47710 22.17234 15.99464
# Velocity P-wave (km/s) = 7.84182 26.41855 19.48633
#
# Compressibility (1/GPa) = 0.01412695
#
# Stress axis : x y z
#
# Youngs Moduli (GPa) = 96.63911 65.83666 149.33863
#
# Poissons Ratio (x) = 0.16472 0.30190
# Poissons Ratio (y) = 0.24179 0.67642
# Poissons Ratio (z) = 0.19536 0.29821
#
# Static dielectric constant tensor:
#      x y z
#    x 1.782760 0.000000 0.000000 
#    y 0.000000 1.733110 0.000000 
#    z 0.000000 0.000000 1.687400 
# 
# From -- ./inp_files/15973.got.cif
#   From: 2010.05.17/outbox.cif.g08.bks.cpg/sg51_8_cif.got.tgz:15973.got - 2010.06.03 11:52:47.
