data_PCOD9406380
_publ_section_title
;
Structure prediction by ZEFSAII (Michael W. Deem and Ramdas Pophale) SiO2 
 PCOD9406380
Probable space group: P M M A
;
_chemical_formula_sum "Si O2"
_cell_formula_units_Z 48
_cell_length_a 8.805900
_cell_length_b 30.153346
_cell_length_c 9.791512
_cell_angle_alpha 90.000000
_cell_angle_beta 90.000000
_cell_angle_gamma 90.000000
_cell_volume 2599.914229
_symmetry_space_group_name_H-M "P M M A"
_symmetry_group_IT_number 51
_symmetry_cell_setting 'orthorhombic'
loop_
_space_group_symop_operation_xyz
x,y,z
1/2-x,-y,z
1/2+x,-y,-z
-x,y,-z
-x,-y,-z
1/2+x,y,-z
1/2-x,y,z
x,-y,z
loop_
_atom_site_type_symbol
_atom_site_label
_atom_site_fract_x
_atom_site_fract_y
_atom_site_fract_z
Si Si1 0.430099 0.052659 0.147843
Si Si2 0.567195 0.550913 0.147024
Si Si3 0.568692 0.876359 0.348848
Si Si4 0.069546 0.700032 0.147569
Si Si5 0.569278 0.805058 0.852162
Si Si6 0.932295 0.370977 0.349241
O O1 0.250000 0.061754 0.146972
O O2 0.510103 0.081212 0.264078
O O3 0.452254 0.000000 0.169132
O O4 0.500000 0.063968 0.000000
O O5 0.750000 0.551947 0.137331
O O6 0.520727 0.500000 0.175659
O O7 0.521041 0.585293 0.263609
O O8 0.500000 0.563688 0.000000
O O9 0.500000 0.876447 0.500000
O O10 0.750000 0.876103 0.354959
O O11 0.508653 0.834115 0.264035
O O12 0.250000 0.692307 0.145501
O O13 0.043330 0.752547 0.169304
O O14 0.992703 0.670864 0.264000
O O15 0.000000 0.688280 0.000000
O O16 0.750000 0.813084 0.853312
O O17 0.500000 0.816743 0.000000
O O18 0.750000 0.369645 0.355827
O O19 0.000000 0.371619 0.500000
#
# Coordination Sequence:
#
# PCOD9406380 Si02
#       6
#     8   8   8   8   8   8
#     4  10  21  39  63  89 117 151 192 236 281 332
#     4   9  19  36  57  81 108 141 183 229 277 330
#     4  12  25  40  59  84 117 154 191 234 284 338
#     4  10  21  38  61  86 113 146 186 232 279 331
#     4  10  21  39  62  87 114 147 188 232 279 332
#     4  11  23  37  55  80 113 150 187 230 280 335
#
# _framework density 18.462149
#
# number of rings (size 3 to 8) (size 9 to 14) (size 15 to 20)
#    0.000    1.667    0.000    4.500    0.000    7.000 
#    0.000    0.000    0.000    0.000    0.000    0.000 
#    0.000    0.000    0.000    0.000    0.000    0.000 
#
# Total GULP energy -268359.646190 kJ/mol
# GULP energy per Si atom -5590.825962 kJ/mol
# Density = 1.842013 g / cm^3
# Si number density = 18.462149 Si / 1000 Ang^3
#
#
#
# Elastic Constant Matrix: (Units=GPa)
#
#
# Indices 1 2 3 4 5 6 
#
# 1 119.1896 73.2605 95.2265 0.0000 0.0000 0.0000
# 2 73.2605 97.4301 104.7137 0.0000 0.0000 0.0000
# 3 95.2265 104.7137 208.5820 0.0000 0.0000 0.0000
# 4 0.0000 0.0000 0.0000 -57.8311 0.0000 0.0000
# 5 0.0000 0.0000 0.0000 0.0000 39.8348 0.0000
# 6 0.0000 0.0000 0.0000 0.0000 0.0000 28.4862
#
#
#
# Elastic Compliance Matrix: (Units=1/GPa)
#
#
# Indices 1 2 3 4 5 6 
#
# 1 0.016321 -0.009260 -0.002802 0.000000 0.000000 0.000000
# 2 -0.009260 0.027545 -0.009601 0.000000 0.000000 0.000000
# 3 -0.002802 -0.009601 0.010893 0.000000 0.000000 0.000000
# 4 0.000000 0.000000 0.000000 -0.017292 0.000000 0.000000
# 5 0.000000 0.000000 0.000000 0.000000 0.025104 0.000000
# 6 0.000000 0.000000 0.000000 0.000000 0.000000 0.035105
#
#
# Mechanical properties :
#
#
# Convention : Reuss Voigt Hill
#
# Bulk Modulus (GPa) = 87.46657 107.95593 97.71125
# Shear Modulus (GPa) = 34.52711 12.23139 23.37925
#
# Velocity S-wave (km/s) = 4.32922 2.57672 3.56242
# Velocity P-wave (km/s) = 8.51285 8.21303 8.36428
#
# Compressibility (1/GPa) = 0.01143294
#
# Stress axis : x y z
#
# Youngs Moduli (GPa) = 61.27187 36.30365 91.79859
#
# Poissons Ratio (x) = 0.33619 0.25723
# Poissons Ratio (y) = 0.56740 0.88134
# Poissons Ratio (z) = 0.17169 0.34854
#
# Static dielectric constant tensor:
#      x y z
#    x 1.616100 0.000000 0.000000 
#    y 0.000000 1.644330 0.000000 
#    z 0.000000 0.000000 1.584200 
# 
# From -- ./inp_files/5998.got.cif
#   From: 2010.05.17/outbox.cif.g08.bks.cpg/sg51_3_cif.got.tgz:5998.got - 2010.06.03 11:52:47.
