data_PCOD9406128
_publ_section_title
;
Structure prediction by ZEFSAII (Michael W. Deem and Ramdas Pophale) SiO2 
 PCOD9406128
Probable space group: P M M A
;
_chemical_formula_sum "Si O2"
_cell_formula_units_Z 46
_cell_length_a 7.758377
_cell_length_b 12.838862
_cell_length_c 23.033870
_cell_angle_alpha 90.000000
_cell_angle_beta 90.000000
_cell_angle_gamma 90.000000
_cell_volume 2294.374576
_symmetry_space_group_name_H-M "P M M A"
_symmetry_group_IT_number 51
_symmetry_cell_setting 'orthorhombic'
loop_
_space_group_symop_operation_xyz
x,y,z
1/2-x,-y,z
1/2+x,-y,-z
-x,y,-z
-x,-y,-z
1/2+x,y,-z
1/2-x,y,z
x,-y,z
loop_
_atom_site_type_symbol
_atom_site_label
_atom_site_fract_x
_atom_site_fract_y
_atom_site_fract_z
Si Si1 0.456205 0.385610 0.431880
Si Si2 0.454781 0.114286 0.736962
Si Si3 0.953608 0.842776 0.395424
Si Si4 0.958421 0.000000 0.931716
Si Si5 0.954907 0.382520 0.064494
Si Si6 0.048779 0.194354 0.143361
Si Si7 0.750000 0.000000 0.564100
O O1 0.500000 0.384717 0.500000
O O2 0.250000 0.379771 0.424703
O O3 0.513482 0.500000 0.409129
O O4 0.535435 0.280505 0.406558
O O5 0.250000 0.107486 0.732749
O O6 0.510175 0.139393 0.671711
O O7 0.489995 0.189795 0.790245
O O8 0.525686 0.000000 0.753209
O O9 0.750000 0.874541 0.403720
O O10 0.094117 0.908807 0.431785
O O11 0.025960 0.898272 0.897093
O O12 0.750000 0.000000 0.929424
O O13 0.000000 0.000000 0.000000
O O14 0.750000 0.387596 0.068483
O O15 0.025727 0.500000 0.069973
O O16 0.017822 0.303450 0.112554
O O17 0.000000 0.343568 0.000000
O O18 0.250000 0.174604 0.145432
#
# Coordination Sequence:
#
# PCOD9406128 Si02
#       7
#     8   8   8   4   8   8   2
#     4  10  21  40  68  99 131 171 217 266 321 379
#     4  10  21  37  58  84 117 159 201 239 293 358
#     4  11  23  40  65  94 129 169 218 264 317 380
#     4  10  22  35  48  76 110 142 178 225 281 337
#     4  10  21  38  58  78 104 139 182 232 290 354
#     4  11  22  35  55  82 111 145 189 234 285 347
#     4  12  22  38  64  90 130 172 208 264 310 372
#
# _framework density 20.049036000000001
#
# number of rings (size 3 to 8) (size 9 to 14) (size 15 to 20)
#    0.000    1.565    2.609    2.348    1.217    4.870 
#    0.000    1.304    0.000    1.043    0.000    0.000 
#    0.000    0.000    0.000    0.000    0.000    0.000 
#
# Total GULP energy -256196.693929 kJ/mol
# GULP energy per Si atom -5569.493346 kJ/mol
# Density = 2.000340 g / cm^3
# Si number density = 20.049036 Si / 1000 Ang^3
#
#
#
# Elastic Constant Matrix: (Units=GPa)
#
#
# Indices 1 2 3 4 5 6 
#
# 1 74.3914 11.2036 0.2599 0.0000 0.0000 0.0000
# 2 11.2036 103.2481 17.7496 0.0000 0.0000 0.0000
# 3 0.2599 17.7496 36.4869 0.0000 0.0000 0.0000
# 4 0.0000 0.0000 0.0000 31.0166 0.0000 0.0000
# 5 0.0000 0.0000 0.0000 0.0000 22.4622 0.0000
# 6 0.0000 0.0000 0.0000 0.0000 0.0000 25.9848
#
#
#
# Elastic Compliance Matrix: (Units=1/GPa)
#
#
# Indices 1 2 3 4 5 6 
#
# 1 0.013681 -0.001602 0.000682 0.000000 0.000000 0.000000
# 2 -0.001602 0.010757 -0.005221 0.000000 0.000000 0.000000
# 3 0.000682 -0.005221 0.029942 0.000000 0.000000 0.000000
# 4 0.000000 0.000000 0.000000 0.032241 0.000000 0.000000
# 5 0.000000 0.000000 0.000000 0.000000 0.044519 0.000000
# 6 0.000000 0.000000 0.000000 0.000000 0.000000 0.038484
#
#
# Mechanical properties :
#
#
# Convention : Reuss Voigt Hill
#
# Bulk Modulus (GPa) = 23.75438 30.28362 27.01900
# Shear Modulus (GPa) = 25.51806 28.22029 26.86917
#
# Velocity S-wave (km/s) = 3.57148 3.75582 3.66481
# Velocity P-wave (km/s) = 5.37412 5.82630 5.60477
#
# Compressibility (1/GPa) = 0.04209750
#
# Stress axis : x y z
#
# Youngs Moduli (GPa) = 73.09270 92.96405 33.39762
#
# Poissons Ratio (x) = 0.14891 -0.02277
# Poissons Ratio (y) = 0.11708 0.17438
# Poissons Ratio (z) = -0.04983 0.48540
#
# Static dielectric constant tensor:
#      x y z
#    x 1.745080 0.000000 0.000000 
#    y 0.000000 1.870690 0.000000 
#    z 0.000000 0.000000 1.700960 
# 
# From -- ./inp_files/34586.got.cif
#   From: 2010.05.17/outbox.cif.g08.bks.cpg/sg51_18_cif.got.tgz:34586.got - 2010.06.03 11:52:47.
