data_PCOD9406642
_publ_section_title
;
Structure prediction by ZEFSAII (Michael W. Deem and Ramdas Pophale) SiO2 
 PCOD9406642
Probable space group: P M M A
;
_chemical_formula_sum "Si O2"
_cell_formula_units_Z 48
_cell_length_a 14.120009
_cell_length_b 8.250168
_cell_length_c 20.956013
_cell_angle_alpha 90.000000
_cell_angle_beta 90.000000
_cell_angle_gamma 90.000000
_cell_volume 2441.217221
_symmetry_space_group_name_H-M "P M M A"
_symmetry_group_IT_number 51
_symmetry_cell_setting 'orthorhombic'
loop_
_space_group_symop_operation_xyz
x,y,z
1/2-x,-y,z
1/2+x,-y,-z
-x,y,-z
-x,-y,-z
1/2+x,y,-z
1/2-x,y,z
x,-y,z
loop_
_atom_site_type_symbol
_atom_site_label
_atom_site_fract_x
_atom_site_fract_y
_atom_site_fract_z
Si Si1 0.365119 0.000000 0.245625
Si Si2 0.858640 0.806940 0.184292
Si Si3 0.862721 0.000000 0.607980
Si Si4 0.023096 0.686111 0.425219
Si Si5 0.508596 0.312251 0.070180
Si Si6 0.641989 0.306012 0.325492
Si Si7 0.363385 0.322257 0.174045
O O1 0.393374 0.000000 0.318319
O O2 0.397124 0.165255 0.212285
O O3 0.250000 0.000000 0.242910
O O4 0.750000 0.749773 0.174966
O O5 0.889090 0.742820 0.254009
O O6 0.921413 0.758223 0.123607
O O7 0.858832 0.000000 0.188407
O O8 0.901897 0.830902 0.581139
O O9 0.750000 0.000000 0.603765
O O10 0.051819 0.500000 0.406078
O O11 0.000000 0.678256 0.500000
O O12 0.933324 0.735373 0.380715
O O13 0.537585 0.500000 0.062002
O O14 0.406214 0.308687 0.103738
O O15 0.500000 0.236531 0.000000
O O16 0.750000 0.241801 0.335653
O O17 0.647858 0.500000 0.326785
O O18 0.250000 0.320194 0.173491
O O19 0.393902 0.500000 0.199689
#
# Coordination Sequence:
#
# PCOD9406642 Si02
#       7
#     4   8   4   8   8   8   8
#     4   9  20  37  56  81 111 149 196 241 288 339
#     4  10  22  38  57  86 120 152 191 245 304 359
#     4  11  25  41  60  91 128 167 207 249 304 365
#     4  10  23  42  64  93 127 164 208 257 308 368
#     4  10  22  37  56  82 110 149 194 237 295 357
#     4   9  19  37  62  90 118 155 203 254 312 370
#     4   9  19  36  56  80 111 147 192 242 291 350
#
# _framework density 19.662322
#
# number of rings (size 3 to 8) (size 9 to 14) (size 15 to 20)
#    0.000    2.333    0.000    0.750    4.667    3.667 
#    0.000    5.000    0.000    0.000    0.000    0.000 
#    0.000    0.000    0.000    0.000    0.000    0.000 
#
# Total GULP energy -267600.299535 kJ/mol
# GULP energy per Si atom -5575.006240 kJ/mol
# Density = 1.961757 g / cm^3
# Si number density = 19.662322 Si / 1000 Ang^3
#
#
#
# Elastic Constant Matrix: (Units=GPa)
#
#
# Indices 1 2 3 4 5 6 
#
# 1 77.6479 38.2465 48.6186 0.0000 0.0000 0.0000
# 2 38.2465 104.3794 44.7631 0.0000 0.0000 0.0000
# 3 48.6186 44.7631 129.5882 0.0000 0.0000 0.0000
# 4 0.0000 0.0000 0.0000 71.6762 0.0000 0.0000
# 5 0.0000 0.0000 0.0000 0.0000 18.9203 0.0000
# 6 0.0000 0.0000 0.0000 0.0000 0.0000 1.6429
#
#
#
# Elastic Compliance Matrix: (Units=1/GPa)
#
#
# Indices 1 2 3 4 5 6 
#
# 1 0.018439 -0.004449 -0.005381 0.000000 0.000000 0.000000
# 2 -0.004449 0.012320 -0.002586 0.000000 0.000000 0.000000
# 3 -0.005381 -0.002586 0.010629 0.000000 0.000000 0.000000
# 4 0.000000 0.000000 0.000000 0.013952 0.000000 0.000000
# 5 0.000000 0.000000 0.000000 0.000000 0.052853 0.000000
# 6 0.000000 0.000000 0.000000 0.000000 0.000000 0.608679
#
#
# Mechanical properties :
#
#
# Convention : Reuss Voigt Hill
#
# Bulk Modulus (GPa) = 60.40412 63.87465 62.13939
# Shear Modulus (GPa) = 6.69143 30.44704 18.56923
#
# Velocity S-wave (km/s) = 1.84677 3.93936 3.07645
# Velocity P-wave (km/s) = 5.94431 7.29711 6.65517
#
# Compressibility (1/GPa) = 0.01655516
#
# Stress axis : x y z
#
# Youngs Moduli (GPa) = 54.23164 81.17048 94.08081
#
# Poissons Ratio (x) = 0.36111 0.50628
# Poissons Ratio (y) = 0.24126 0.24334
# Poissons Ratio (z) = 0.29184 0.20995
#
# Static dielectric constant tensor:
#      x y z
#    x 1.718640 0.000000 0.000000 
#    y 0.000000 1.719020 0.000000 
#    z 0.000000 0.000000 1.686220 
# 
# From -- ./inp_files/29623.got.cif
#   From: 2010.05.17/outbox.cif.g08.bks.cpg/sg51_15_cif.got.tgz:29623.got - 2010.06.03 11:52:47.
