data_PCOD9406229
_publ_section_title
;
Structure prediction by ZEFSAII (Michael W. Deem and Ramdas Pophale) SiO2 
 PCOD9406229
Probable space group: P M M A
;
_chemical_formula_sum "Si O2"
_cell_formula_units_Z 64
_cell_length_a 8.733221
_cell_length_b 20.622349
_cell_length_c 18.296968
_cell_angle_alpha 90.000000
_cell_angle_beta 90.000000
_cell_angle_gamma 90.000000
_cell_volume 3295.275362
_symmetry_space_group_name_H-M "P M M A"
_symmetry_group_IT_number 51
_symmetry_cell_setting 'orthorhombic'
loop_
_space_group_symop_operation_xyz
x,y,z
1/2-x,-y,z
1/2+x,-y,-z
-x,y,-z
-x,-y,-z
1/2+x,y,-z
1/2-x,y,z
x,-y,z
loop_
_atom_site_type_symbol
_atom_site_label
_atom_site_fract_x
_atom_site_fract_y
_atom_site_fract_z
Si Si1 0.437256 0.929595 0.739048
Si Si2 0.435463 0.211850 0.783423
Si Si3 0.432863 0.293163 0.924247
Si Si4 0.569142 0.425165 0.875642
Si Si5 0.929463 0.751594 0.381782
Si Si6 0.928326 0.098911 0.423575
Si Si7 0.571998 0.375195 0.575069
Si Si8 0.420520 0.422799 0.723150
O O1 0.250000 0.926893 0.737558
O O2 0.487704 0.863399 0.778795
O O3 0.489223 0.926563 0.654186
O O4 0.481016 0.000000 0.769990
O O5 0.250000 0.210513 0.786882
O O6 0.488917 0.252962 0.853092
O O7 0.469938 0.243722 0.704547
O O8 0.250000 0.290052 0.925996
O O9 0.483071 0.368170 0.917302
O O10 0.500000 0.266906 0.000000
O O11 0.750000 0.421611 0.889264
O O12 0.518952 0.500000 0.890315
O O13 0.531905 0.410069 0.790762
O O14 0.750000 0.731078 0.388490
O O15 0.940864 0.823288 0.414603
O O16 0.041126 0.701750 0.420762
O O17 0.750000 0.081796 0.426098
O O18 0.000000 0.078412 0.500000
O O19 0.500000 0.400510 0.500000
O O20 0.750000 0.390684 0.578636
O O21 0.484604 0.400004 0.646351
O O22 0.250000 0.395363 0.737957
O O23 0.408031 0.500000 0.719497
#
# Coordination Sequence:
#
# PCOD9406229 Si02
#       8
#     8   8   8   8   8   8   8   8
#     4   8  14  27  48  73  99 130 174 223 265 308
#     4   8  16  31  52  76 101 134 173 215 262 312
#     4  11  22  36  56  82 113 145 177 214 260 314
#     4  10  21  38  60  86 114 142 175 214 255 306
#     4   9  17  32  51  70  95 126 167 215 261 313
#     4   9  17  27  42  67  99 134 168 208 259 311
#     4  12  24  35  49  70  97 130 172 222 274 321
#     4  10  21  38  58  77  99 131 170 210 256 311
#
# _framework density 19.421747
#
# number of rings (size 3 to 8) (size 9 to 14) (size 15 to 20)
#    0.000    2.375    0.000    4.875    0.000    4.750 
#    0.000    0.625    0.000    1.875    0.000    0.000 
#    0.000    0.000    0.000    0.000    0.000    0.125 
#
# Total GULP energy -357113.517571 kJ/mol
# GULP energy per Si atom -5579.898712 kJ/mol
# Density = 1.937754 g / cm^3
# Si number density = 19.421747 Si / 1000 Ang^3
#
#
#
# Elastic Constant Matrix: (Units=GPa)
#
#
# Indices 1 2 3 4 5 6 
#
# 1 36.0500 9.8265 11.5330 0.0000 0.0000 0.0000
# 2 9.8265 59.3599 40.6204 0.0000 0.0000 0.0000
# 3 11.5330 40.6204 98.9787 0.0000 0.0000 0.0000
# 4 0.0000 0.0000 0.0000 -5.3264 0.0000 0.0000
# 5 0.0000 0.0000 0.0000 0.0000 27.6132 0.0000
# 6 0.0000 0.0000 0.0000 0.0000 0.0000 4.1635
#
#
#
# Elastic Compliance Matrix: (Units=1/GPa)
#
#
# Indices 1 2 3 4 5 6 
#
# 1 0.029327 -0.003499 -0.001981 0.000000 0.000000 0.000000
# 2 -0.003499 0.023842 -0.009377 0.000000 0.000000 0.000000
# 3 -0.001981 -0.009377 0.014182 0.000000 0.000000 0.000000
# 4 0.000000 0.000000 0.000000 -0.187743 0.000000 0.000000
# 5 0.000000 0.000000 0.000000 0.000000 0.036215 0.000000
# 6 0.000000 0.000000 0.000000 0.000000 0.000000 0.240180
#
#
# Mechanical properties :
#
#
# Convention : Reuss Voigt Hill
#
# Bulk Modulus (GPa) = 26.56966 35.37206 30.97086
# Shear Modulus (GPa) = 25.21895 14.11731 19.66813
#
# Velocity S-wave (km/s) = 3.60737 2.69900 3.18573
# Velocity P-wave (km/s) = 5.57323 5.28819 5.43258
#
# Compressibility (1/GPa) = 0.03763692
#
# Stress axis : x y z
#
# Youngs Moduli (GPa) = 34.09847 41.94198 70.51010
#
# Poissons Ratio (x) = 0.14676 0.13969
# Poissons Ratio (y) = 0.11931 0.66118
# Poissons Ratio (z) = 0.06755 0.39330
#
# Static dielectric constant tensor:
#      x y z
#    x 1.667680 0.000000 0.000000 
#    y 0.000000 1.727260 0.000000 
#    z 0.000000 0.000000 1.691170 
# 
# From -- ./inp_files/28428.got.cif
#   From: 2010.05.17/outbox.cif.g08.bks.cpg/sg51_15_cif.got.tgz:28428.got - 2010.06.03 11:52:47.
