data_PCOD9406670
_publ_section_title
;
Structure prediction by ZEFSAII (Michael W. Deem and Ramdas Pophale) SiO2 
 PCOD9406670
Probable space group: P M M A
;
_chemical_formula_sum "Si O2"
_cell_formula_units_Z 56
_cell_length_a 9.536066
_cell_length_b 14.425192
_cell_length_c 20.590889
_cell_angle_alpha 90.000000
_cell_angle_beta 90.000000
_cell_angle_gamma 90.000000
_cell_volume 2832.474104
_symmetry_space_group_name_H-M "P M M A"
_symmetry_group_IT_number 51
_symmetry_cell_setting 'orthorhombic'
loop_
_space_group_symop_operation_xyz
x,y,z
1/2-x,-y,z
1/2+x,-y,-z
-x,y,-z
-x,-y,-z
1/2+x,y,-z
1/2-x,y,z
x,-y,z
loop_
_atom_site_type_symbol
_atom_site_label
_atom_site_fract_x
_atom_site_fract_y
_atom_site_fract_z
Si Si1 0.082987 0.108461 0.167774
Si Si2 0.413190 0.887463 0.706079
Si Si3 0.089354 0.386839 0.437100
Si Si4 0.411726 0.611109 0.187762
Si Si5 0.412040 0.113191 0.561950
Si Si6 0.583023 0.737502 0.933693
Si Si7 0.410400 0.612843 0.687777
O O1 0.250000 0.117975 0.177561
O O2 0.044789 0.168744 0.105171
O O3 0.004623 0.141940 0.232606
O O4 0.051233 0.000000 0.157898
O O5 0.250000 0.861751 0.713903
O O6 0.461862 0.858272 0.634012
O O7 0.418193 0.000000 0.705901
O O8 0.250000 0.354129 0.438835
O O9 0.094457 0.500000 0.436768
O O10 0.000000 0.360163 0.500000
O O11 0.006041 0.358654 0.372692
O O12 0.250000 0.636540 0.204268
O O13 0.417544 0.500000 0.182620
O O14 0.445645 0.657348 0.119082
O O15 0.516287 0.639963 0.244973
O O16 0.500000 0.144565 0.500000
O O17 0.250000 0.141227 0.555560
O O18 0.414672 0.000000 0.561445
O O19 0.750000 0.738336 0.946399
O O20 0.500000 0.726876 0.000000
O O21 0.250000 0.644720 0.681966
O O22 0.407411 0.500000 0.686921
#
# Coordination Sequence:
#
# PCOD9406670 Si02
#       7
#     8   8   8   8   8   8   8
#     4   9  18  33  52  74 101 132 165 202 244 290
#     4   8  14  25  41  63  92 126 165 206 245 288
#     4   9  15  22  34  56  90 131 172 214 258 301
#     4   9  18  34  54  74  99 132 166 201 245 296
#     4   8  13  20  31  52  85 122 159 200 242 282
#     4  10  22  38  55  78 105 130 161 200 242 294
#     4   9  16  26  42  66  95 127 166 210 253 300
#
# _framework density 19.770700999999999
#
# number of rings (size 3 to 8) (size 9 to 14) (size 15 to 20)
#    0.000    3.143    0.000    1.714    0.000    5.714 
#    0.000    2.857    0.000    0.000    0.000    1.000 
#    0.000    2.286    0.000    0.286    0.000    0.000 
#
# Total GULP energy -312574.376381 kJ/mol
# GULP energy per Si atom -5581.685293 kJ/mol
# Density = 1.972570 g / cm^3
# Si number density = 19.770701 Si / 1000 Ang^3
#
#
#
# Elastic Constant Matrix: (Units=GPa)
#
#
# Indices 1 2 3 4 5 6 
#
# 1 121.3044 25.1759 115.4199 0.0000 0.0000 0.0000
# 2 25.1759 64.8004 22.6716 0.0000 0.0000 0.0000
# 3 115.4199 22.6716 199.2340 0.0000 0.0000 0.0000
# 4 0.0000 0.0000 0.0000 61.7320 0.0000 0.0000
# 5 0.0000 0.0000 0.0000 0.0000 45.7271 0.0000
# 6 0.0000 0.0000 0.0000 0.0000 0.0000 1.8336
#
#
#
# Elastic Compliance Matrix: (Units=1/GPa)
#
#
# Indices 1 2 3 4 5 6 
#
# 1 0.019191 -0.003714 -0.010695 0.000000 0.000000 0.000000
# 2 -0.003714 0.016791 0.000241 0.000000 0.000000 0.000000
# 3 -0.010695 0.000241 0.011188 0.000000 0.000000 0.000000
# 4 0.000000 0.000000 0.000000 0.016199 0.000000 0.000000
# 5 0.000000 0.000000 0.000000 0.000000 0.021869 0.000000
# 6 0.000000 0.000000 0.000000 0.000000 0.000000 0.545366
#
#
# Mechanical properties :
#
#
# Convention : Reuss Voigt Hill
#
# Bulk Modulus (GPa) = 53.09854 79.09707 66.09780
# Shear Modulus (GPa) = 7.51635 36.66329 22.08982
#
# Velocity S-wave (km/s) = 1.95193 4.31098 3.34623
# Velocity P-wave (km/s) = 5.65646 8.05440 6.95949
#
# Compressibility (1/GPa) = 0.01883291
#
# Stress axis : x y z
#
# Youngs Moduli (GPa) = 52.10896 59.55688 89.38541
#
# Poissons Ratio (x) = 0.22120 0.95596
# Poissons Ratio (y) = 0.19353 -0.02154
# Poissons Ratio (z) = 0.55730 -0.01435
#
# Static dielectric constant tensor:
#      x y z
#    x 1.664560 0.000000 0.000000 
#    y 0.000000 1.775040 0.000000 
#    z 0.000000 0.000000 1.650990 
# 
# From -- ./inp_files/32014.got.cif
#   From: 2010.05.17/outbox.cif.g08.bks.cpg/sg51_17_cif.got.tgz:32014.got - 2010.06.03 11:52:47.
