data_PCOD9406083
_publ_section_title
;
Structure prediction by ZEFSAII (Michael W. Deem and Ramdas Pophale) SiO2 
 PCOD9406083
Probable space group: P M M A
;
_chemical_formula_sum "Si O2"
_cell_formula_units_Z 48
_cell_length_a 8.392779
_cell_length_b 10.248549
_cell_length_c 30.025296
_cell_angle_alpha 90.000000
_cell_angle_beta 90.000000
_cell_angle_gamma 90.000000
_cell_volume 2582.590010
_symmetry_space_group_name_H-M "P M M A"
_symmetry_group_IT_number 51
_symmetry_cell_setting 'orthorhombic'
loop_
_space_group_symop_operation_xyz
x,y,z
1/2-x,-y,z
1/2+x,-y,-z
-x,y,-z
-x,-y,-z
1/2+x,y,-z
1/2-x,y,z
x,-y,z
loop_
_atom_site_type_symbol
_atom_site_label
_atom_site_fract_x
_atom_site_fract_y
_atom_site_fract_z
Si Si1 0.442589 0.648823 0.875693
Si Si2 0.058537 0.250184 0.605242
Si Si3 0.057674 0.350715 0.224023
Si Si4 0.057455 0.151850 0.300323
Si Si5 0.060523 0.500000 0.448871
Si Si6 0.057486 0.149743 0.950790
Si Si7 0.058346 0.000000 0.549949
O O1 0.250000 0.651894 0.875014
O O2 0.491976 0.500000 0.886414
O O3 0.502565 0.678755 0.826084
O O4 0.498473 0.751635 0.912588
O O5 0.250000 0.253196 0.606806
O O6 0.995544 0.224887 0.654786
O O7 0.998579 0.376223 0.579235
O O8 0.003646 0.126855 0.576219
O O9 0.250000 0.351348 0.224968
O O10 0.004793 0.500000 0.235014
O O11 0.002611 0.240603 0.258741
O O12 0.250000 0.148233 0.299431
O O13 0.001761 0.000000 0.299664
O O14 0.250000 0.500000 0.450654
O O15 0.000000 0.500000 0.500000
O O16 0.250000 0.150920 0.950754
O O17 0.005307 0.000000 0.942628
O O18 0.000000 0.187873 0.000000
O O19 0.000000 0.000000 0.500000
O O20 0.250000 0.000000 0.550013
#
# Coordination Sequence:
#
# PCOD9406083 Si02
#       7
#     8   8   8   8   4   8   4
#     4   9  18  33  51  73 102 135 174 219 269 323
#     4  11  23  41  61  88 119 152 191 235 281 335
#     4   9  19  35  54  77 107 142 182 227 275 329
#     4  10  21  37  57  83 114 149 187 229 280 335
#     4  12  26  44  64  90 120 154 192 234 281 334
#     4   9  18  32  49  71 101 136 174 216 263 318
#     4  10  22  38  60  86 116 148 186 228 275 328
#
# _framework density 18.585992000000001
#
# number of rings (size 3 to 8) (size 9 to 14) (size 15 to 20)
#    0.000    2.167    0.833    1.750    1.167    5.000 
#    0.000    0.000    0.000    0.000    0.000    0.000 
#    0.000    0.000    0.000    0.000    0.000    0.000 
#
# Total GULP energy -267885.789960 kJ/mol
# GULP energy per Si atom -5580.953957 kJ/mol
# Density = 1.854369 g / cm^3
# Si number density = 18.585992 Si / 1000 Ang^3
#
#
#
# Elastic Constant Matrix: (Units=GPa)
#
#
# Indices 1 2 3 4 5 6 
#
# 1 12.4650 24.8673 19.0142 0.0000 0.0000 0.0000
# 2 24.8673 170.8667 128.5130 0.0000 0.0000 0.0000
# 3 19.0142 128.5130 184.1383 0.0000 0.0000 0.0000
# 4 0.0000 0.0000 0.0000 44.3725 0.0000 0.0000
# 5 0.0000 0.0000 0.0000 0.0000 34.4492 0.0000
# 6 0.0000 0.0000 0.0000 0.0000 0.0000 27.8229
#
#
#
# Elastic Compliance Matrix: (Units=1/GPa)
#
#
# Indices 1 2 3 4 5 6 
#
# 1 0.113061 -0.016152 -0.000402 0.000000 0.000000 0.000000
# 2 -0.016152 0.014627 -0.008540 0.000000 0.000000 0.000000
# 3 -0.000402 -0.008540 0.011433 0.000000 0.000000 0.000000
# 4 0.000000 0.000000 0.000000 0.022536 0.000000 0.000000
# 5 0.000000 0.000000 0.000000 0.000000 0.029028 0.000000
# 6 0.000000 0.000000 0.000000 0.000000 0.000000 0.035942
#
#
# Mechanical properties :
#
#
# Convention : Reuss Voigt Hill
#
# Bulk Modulus (GPa) = 11.24458 79.13987 45.19222
# Shear Modulus (GPa) = 16.31538 34.33395 25.32466
#
# Velocity S-wave (km/s) = 2.96604 4.30269 3.69530
# Velocity P-wave (km/s) = 4.21817 8.20713 6.52495
#
# Compressibility (1/GPa) = 0.08893176
#
# Stress axis : x y z
#
# Youngs Moduli (GPa) = 8.84476 68.36868 87.46959
#
# Poissons Ratio (x) = 1.10432 0.03514
# Poissons Ratio (y) = 0.14286 0.74701
# Poissons Ratio (z) = 0.00355 0.58388
#
# Static dielectric constant tensor:
#      x y z
#    x 1.642390 0.000000 0.000000 
#    y 0.000000 1.653830 0.000000 
#    z 0.000000 0.000000 1.607530 
# 
# From -- ./inp_files/37187.got.cif
#   From: 2010.05.17/outbox.cif.g08.bks.cpg/sg51_19_cif.got.tgz:37187.got - 2010.06.03 11:52:47.
