data_PCOD9406216
_publ_section_title
;
Structure prediction by ZEFSAII (Michael W. Deem and Ramdas Pophale) SiO2 
 PCOD9406216
Probable space group: P M M A
;
_chemical_formula_sum "Si O2"
_cell_formula_units_Z 64
_cell_length_a 7.578817
_cell_length_b 16.123379
_cell_length_c 24.394952
_cell_angle_alpha 90.000000
_cell_angle_beta 90.000000
_cell_angle_gamma 90.000000
_cell_volume 2980.968942
_symmetry_space_group_name_H-M "P M M A"
_symmetry_group_IT_number 51
_symmetry_cell_setting 'orthorhombic'
loop_
_space_group_symop_operation_xyz
x,y,z
1/2-x,-y,z
1/2+x,-y,-z
-x,y,-z
-x,-y,-z
1/2+x,y,-z
1/2-x,y,z
x,-y,z
loop_
_atom_site_type_symbol
_atom_site_label
_atom_site_fract_x
_atom_site_fract_y
_atom_site_fract_z
Si Si1 0.538056 0.251991 0.064110
Si Si2 0.539158 0.592363 0.630768
Si Si3 0.034054 0.091642 0.366811
Si Si4 0.965633 0.592802 0.134923
Si Si5 0.461774 0.750397 0.435897
Si Si6 0.453524 0.141003 0.246962
Si Si7 0.461147 0.333466 0.748946
Si Si8 0.044795 0.091032 0.873678
O O1 0.750000 0.252072 0.071639
O O2 0.473168 0.335295 0.093944
O O3 0.467160 0.169347 0.093926
O O4 0.500000 0.251523 0.000000
O O5 0.750000 0.588883 0.622428
O O6 0.468067 0.500000 0.620367
O O7 0.469433 0.666295 0.592428
O O8 0.508392 0.618920 0.693534
O O9 0.250000 0.094115 0.366148
O O10 0.972797 0.167705 0.404292
O O11 0.975246 0.105622 0.304104
O O12 0.981658 0.000000 0.385948
O O13 0.750000 0.592062 0.134054
O O14 0.024806 0.500000 0.121241
O O15 0.018335 0.618194 0.196538
O O16 0.500000 0.753127 0.500000
O O17 0.250000 0.750019 0.428950
O O18 0.250000 0.115260 0.242905
O O19 0.463778 0.240600 0.251019
O O20 0.540118 0.110940 0.190995
O O21 0.250000 0.324990 0.751378
O O22 0.250000 0.086587 0.889984
O O23 0.965876 0.000000 0.883751
#
# Coordination Sequence:
#
# PCOD9406216 Si02
#       8
#     8   8   8   8   8   8   8   8
#     4  10  21  38  56  78 108 146 188 231 278 328
#     4  10  21  38  58  82 114 149 184 229 283 333
#     4   9  18  34  56  80 109 144 179 219 273 333
#     4   9  18  34  56  80 109 144 179 219 273 333
#     4  10  21  38  56  78 108 146 188 231 278 328
#     4  11  20  34  58  86 116 148 184 224 277 338
#     4  11  20  34  58  86 116 148 184 224 277 338
#     4  10  21  38  58  82 114 149 184 229 283 333
#
# _framework density 21.469529000000001
#
# number of rings (size 3 to 8) (size 9 to 14) (size 15 to 20)
#    0.000    2.000    2.500    1.500    0.000    3.500 
#    0.000    0.000    0.000    3.000    0.000    0.000 
#    0.000    0.000    0.000    0.000    0.000    0.000 
#
# Total GULP energy -357622.211960 kJ/mol
# GULP energy per Si atom -5587.847062 kJ/mol
# Density = 2.142066 g / cm^3
# Si number density = 21.469529 Si / 1000 Ang^3
#
#
#
# Elastic Constant Matrix: (Units=GPa)
#
#
# Indices 1 2 3 4 5 6 
#
# 1 48.5836 7.1133 -8.4713 0.0000 0.0000 0.0000
# 2 7.1133 231.4097 109.8825 0.0000 0.0000 0.0000
# 3 -8.4713 109.8825 155.1884 0.0000 0.0000 0.0000
# 4 0.0000 0.0000 0.0000 86.8816 0.0000 0.0000
# 5 0.0000 0.0000 0.0000 0.0000 23.4612 0.0000
# 6 0.0000 0.0000 0.0000 0.0000 0.0000 -2.8195
#
#
#
# Elastic Compliance Matrix: (Units=1/GPa)
#
#
# Indices 1 2 3 4 5 6 
#
# 1 0.021276 -0.001816 0.002447 0.000000 0.000000 0.000000
# 2 -0.001816 0.006665 -0.004818 0.000000 0.000000 0.000000
# 3 0.002447 -0.004818 0.009989 0.000000 0.000000 0.000000
# 4 0.000000 0.000000 0.000000 0.011510 0.000000 0.000000
# 5 0.000000 0.000000 0.000000 0.000000 0.042624 0.000000
# 6 0.000000 0.000000 0.000000 0.000000 0.000000 -0.354669
#
#
# Mechanical properties :
#
#
# Convention : Reuss Voigt Hill
#
# Bulk Modulus (GPa) = 33.83471 72.47009 53.15240
# Shear Modulus (GPa) = -20.46001 43.28180 11.41089
#
# Velocity S-wave (km/s) = -3.09039 4.49482 2.30791
# Velocity P-wave (km/s) = 1.74918 7.79526 5.64914
#
# Compressibility (1/GPa) = 0.02955545
#
# Stress axis : x y z
#
# Youngs Moduli (GPa) = 47.00200 150.03405 100.10898
#
# Poissons Ratio (x) = 0.27247 -0.24499
# Poissons Ratio (y) = 0.08536 0.48237
# Poissons Ratio (z) = -0.11502 0.72293
#
# Static dielectric constant tensor:
#      x y z
#    x 1.813840 0.000000 0.000000 
#    y 0.000000 1.780270 0.000000 
#    z 0.000000 0.000000 1.714900 
# 
# From -- ./inp_files/34839.got.cif
#   From: 2010.05.17/outbox.cif.g08.bks.cpg/sg51_18_cif.got.tgz:34839.got - 2010.06.03 11:52:47.
