data_PCOD9406281
_publ_section_title
;
Structure prediction by ZEFSAII (Michael W. Deem and Ramdas Pophale) SiO2 
 PCOD9406281
Probable space group: P M M A
;
_chemical_formula_sum "Si O2"
_cell_formula_units_Z 40
_cell_length_a 8.750807
_cell_length_b 25.651082
_cell_length_c 9.800391
_cell_angle_alpha 90.000000
_cell_angle_beta 90.000000
_cell_angle_gamma 90.000000
_cell_volume 2199.870913
_symmetry_space_group_name_H-M "P M M A"
_symmetry_group_IT_number 51
_symmetry_cell_setting 'orthorhombic'
loop_
_space_group_symop_operation_xyz
x,y,z
1/2-x,-y,z
1/2+x,-y,-z
-x,y,-z
-x,-y,-z
1/2+x,y,-z
1/2-x,y,z
x,-y,z
loop_
_atom_site_type_symbol
_atom_site_label
_atom_site_fract_x
_atom_site_fract_y
_atom_site_fract_z
Si Si1 0.567295 0.353530 0.349632
Si Si2 0.932715 0.440183 0.848442
Si Si3 0.067090 0.145476 0.151375
Si Si4 0.432565 0.061269 0.647211
Si Si5 0.933530 0.758910 0.650049
O O1 0.500000 0.363498 0.500000
O O2 0.750000 0.351884 0.354933
O O3 0.509527 0.398308 0.249498
O O4 0.503006 0.296802 0.308064
O O5 0.750000 0.432852 0.851070
O O6 0.963561 0.500000 0.804399
O O7 0.000000 0.434323 0.000000
O O8 0.250000 0.141848 0.144102
O O9 0.027823 0.196390 0.241593
O O10 0.002181 0.096179 0.233801
O O11 0.000000 0.148603 0.000000
O O12 0.500000 0.077172 0.500000
O O13 0.250000 0.067139 0.644086
O O14 0.468776 0.000000 0.666710
O O15 0.750000 0.754615 0.639674
O O16 0.000000 0.771528 0.500000
#
# Coordination Sequence:
#
# PCOD9406281 Si02
#       5
#     8   8   8   8   8
#     4  11  22  37  59  85 114 148 187 233 282 331
#     4  10  21  38  59  83 113 149 188 230 278 334
#     4  11  24  39  58  84 115 151 189 233 282 333
#     4  10  21  38  61  87 115 149 189 232 278 332
#     4  10  21  38  59  83 111 145 187 232 281 336
#
# _framework density 18.182884000000001
#
# number of rings (size 3 to 8) (size 9 to 14) (size 15 to 20)
#    0.000    1.600    0.000    6.000    0.000    8.800 
#    0.000    2.000    0.000    0.000    0.000    0.000 
#    0.000    0.000    0.000    0.000    0.000    0.000 
#
# Total GULP energy -223592.252040 kJ/mol
# GULP energy per Si atom -5589.806301 kJ/mol
# Density = 1.814150 g / cm^3
# Si number density = 18.182884 Si / 1000 Ang^3
#
#
#
# Elastic Constant Matrix: (Units=GPa)
#
#
# Indices 1 2 3 4 5 6 
#
# 1 101.3081 76.5893 68.2751 0.0000 0.0000 0.0000
# 2 76.5893 135.5031 111.2199 0.0000 0.0000 0.0000
# 3 68.2751 111.2199 132.7663 0.0000 0.0000 0.0000
# 4 0.0000 0.0000 0.0000 289.3648 0.0000 0.0000
# 5 0.0000 0.0000 0.0000 0.0000 38.4871 0.0000
# 6 0.0000 0.0000 0.0000 0.0000 0.0000 55.3147
#
#
#
# Elastic Compliance Matrix: (Units=1/GPa)
#
#
# Indices 1 2 3 4 5 6 
#
# 1 0.017448 -0.007994 -0.002276 0.000000 0.000000 0.000000
# 2 -0.007994 0.027285 -0.018746 0.000000 0.000000 0.000000
# 3 -0.002276 -0.018746 0.024406 0.000000 0.000000 0.000000
# 4 0.000000 0.000000 0.000000 0.003456 0.000000 0.000000
# 5 0.000000 0.000000 0.000000 0.000000 0.025983 0.000000
# 6 0.000000 0.000000 0.000000 0.000000 0.000000 0.018078
#
#
# Mechanical properties :
#
#
# Convention : Reuss Voigt Hill
#
# Bulk Modulus (GPa) = 90.03100 97.97181 94.00141
# Shear Modulus (GPa) = 28.02844 84.19953 56.11399
#
# Velocity S-wave (km/s) = 3.93042 6.81231 5.56128
# Velocity P-wave (km/s) = 8.37969 10.76453 9.64609
#
# Compressibility (1/GPa) = 0.01110728
#
# Stress axis : x y z
#
# Youngs Moduli (GPa) = 57.31221 36.65074 40.97320
#
# Poissons Ratio (x) = 0.29298 0.09327
# Poissons Ratio (y) = 0.45814 0.76808
# Poissons Ratio (z) = 0.13046 0.68705
#
# Static dielectric constant tensor:
#      x y z
#    x 1.605360 0.000000 0.000000 
#    y 0.000000 1.617770 0.000000 
#    z 0.000000 0.000000 1.585790 
# 
# From -- ./inp_files/5271.got.cif
#   From: 2010.05.17/outbox.cif.g08.bks.cpg/sg51_3_cif.got.tgz:5271.got - 2010.06.03 11:52:47.
