data_PCOD9406384
_publ_section_title
;
Structure prediction by ZEFSAII (Michael W. Deem and Ramdas Pophale) SiO2 
 PCOD9406384
Probable space group: P M M A
;
_chemical_formula_sum "Si O2"
_cell_formula_units_Z 64
_cell_length_a 14.733804
_cell_length_b 24.061786
_cell_length_c 9.762580
_cell_angle_alpha 90.000000
_cell_angle_beta 90.000000
_cell_angle_gamma 90.000000
_cell_volume 3461.045861
_symmetry_space_group_name_H-M "P M M A"
_symmetry_group_IT_number 51
_symmetry_cell_setting 'orthorhombic'
loop_
_space_group_symop_operation_xyz
x,y,z
1/2-x,-y,z
1/2+x,-y,-z
-x,y,-z
-x,-y,-z
1/2+x,y,-z
1/2-x,y,z
x,-y,z
loop_
_atom_site_type_symbol
_atom_site_label
_atom_site_fract_x
_atom_site_fract_y
_atom_site_fract_z
Si Si1 0.858635 0.935787 0.165491
Si Si2 0.505854 0.137352 0.337328
Si Si3 0.002277 0.379452 0.655921
Si Si4 0.641401 0.434893 0.836791
Si Si5 0.853871 0.566939 0.144896
Si Si6 0.854812 0.118769 0.884252
Si Si7 0.015839 0.737823 0.770098
Si Si8 0.644695 0.752645 0.975143
O O1 0.750000 0.927312 0.174895
O O2 0.910803 0.895475 0.268608
O O3 0.879106 0.000000 0.194935
O O4 0.883983 0.921207 0.008272
O O5 0.500000 0.127978 0.500000
O O6 0.418543 0.117726 0.248299
O O7 0.514894 0.203017 0.305271
O O8 0.080183 0.409558 0.742326
O O9 0.020881 0.314103 0.670188
O O10 0.000000 0.397259 0.500000
O O11 0.909203 0.397455 0.728179
O O12 0.750000 0.432358 0.825749
O O13 0.614703 0.500000 0.820861
O O14 0.617135 0.416552 0.991251
O O15 0.750000 0.584986 0.165943
O O16 0.855052 0.500000 0.146489
O O17 0.750000 0.107401 0.848428
O O18 0.858831 0.180613 0.950807
O O19 0.922904 0.730702 0.857857
O O20 0.097822 0.738374 0.880451
O O21 0.750000 0.735012 0.966340
#
# Coordination Sequence:
#
# PCOD9406384 Si02
#       8
#     8   8   8   8   8   8   8   8
#     4  10  21  38  61  87 114 148 195 247 291 333
#     4  11  22  37  58  83 121 161 190 226 285 347
#     4  12  25  37  53  84 123 155 186 229 287 347
#     4   9  20  40  64  86 110 147 194 241 288 338
#     4   9  20  40  63  85 109 142 190 242 287 336
#     4   9  18  36  59  84 110 142 191 241 284 334
#     4  10  22  37  54  84 117 151 191 232 280 342
#     4   9  18  35  60  83 104 139 193 245 282 321
#
# _framework density 18.491520000000001
#
# number of rings (size 3 to 8) (size 9 to 14) (size 15 to 20)
#    0.000    2.125    1.250    2.250    3.500    5.250 
#    0.000    1.250    0.000    6.000    0.000    0.000 
#    0.000    0.000    0.000    0.000    0.000    0.000 
#
# Total GULP energy -357366.630732 kJ/mol
# GULP energy per Si atom -5583.853605 kJ/mol
# Density = 1.844943 g / cm^3
# Si number density = 18.491520 Si / 1000 Ang^3
#
#
#
# Elastic Constant Matrix: (Units=GPa)
#
#
# Indices 1 2 3 4 5 6 
#
# 1 83.6482 21.0726 51.4025 0.0000 0.0000 0.0000
# 2 21.0726 47.8353 43.1274 0.0000 0.0000 0.0000
# 3 51.4025 43.1274 145.7734 0.0000 0.0000 0.0000
# 4 0.0000 0.0000 0.0000 -4.6661 0.0000 0.0000
# 5 0.0000 0.0000 0.0000 0.0000 24.3796 0.0000
# 6 0.0000 0.0000 0.0000 0.0000 0.0000 34.2741
#
#
#
# Elastic Compliance Matrix: (Units=1/GPa)
#
#
# Indices 1 2 3 4 5 6 
#
# 1 0.015494 -0.002591 -0.004697 0.000000 0.000000 0.000000
# 2 -0.002591 0.028943 -0.007649 0.000000 0.000000 0.000000
# 3 -0.004697 -0.007649 0.010779 0.000000 0.000000 0.000000
# 4 0.000000 0.000000 0.000000 -0.214314 0.000000 0.000000
# 5 0.000000 0.000000 0.000000 0.000000 0.041018 0.000000
# 6 0.000000 0.000000 0.000000 0.000000 0.000000 0.029177
#
#
# Mechanical properties :
#
#
# Convention : Reuss Voigt Hill
#
# Bulk Modulus (GPa) = 39.46021 56.49576 47.97798
# Shear Modulus (GPa) = -98.84838 21.57450 -38.63694
#
# Velocity S-wave (km/s) = -7.31930 3.41944 -4.57600
# Velocity P-wave (km/s) = 7.07414 6.79770 1.38471
#
# Compressibility (1/GPa) = 0.02534199
#
# Stress axis : x y z
#
# Youngs Moduli (GPa) = 64.54206 34.55100 92.77091
#
# Poissons Ratio (x) = 0.08951 0.43574
# Poissons Ratio (y) = 0.16721 0.70963
# Poissons Ratio (z) = 0.30315 0.26429
#
# Static dielectric constant tensor:
#      x y z
#    x 1.643510 0.000000 0.000000 
#    y 0.000000 1.650360 0.000000 
#    z 0.000000 0.000000 1.599490 
# 
# From -- ./inp_files/8750.got.cif
#   From: 2010.05.17/outbox.cif.g08.bks.cpg/sg51_5_cif.got.tgz:8750.got - 2010.06.03 11:52:47.
