data_PCOD9406857
_publ_section_title
;
Structure prediction by ZEFSAII (Michael W. Deem and Ramdas Pophale) SiO2 
 PCOD9406857
Probable space group: P M M A
;
_chemical_formula_sum "Si O2"
_cell_formula_units_Z 30
_cell_length_a 9.280264
_cell_length_b 12.183124
_cell_length_c 13.668007
_cell_angle_alpha 90.000000
_cell_angle_beta 90.000000
_cell_angle_gamma 90.000000
_cell_volume 1545.340505
_symmetry_space_group_name_H-M "P M M A"
_symmetry_group_IT_number 51
_symmetry_cell_setting 'orthorhombic'
loop_
_space_group_symop_operation_xyz
x,y,z
1/2-x,-y,z
1/2+x,-y,-z
-x,y,-z
-x,-y,-z
1/2+x,y,-z
1/2-x,y,z
x,-y,z
loop_
_atom_site_type_symbol
_atom_site_label
_atom_site_fract_x
_atom_site_fract_y
_atom_site_fract_z
Si Si1 0.250000 0.382151 0.415826
Si Si2 0.250000 0.000000 0.669397
Si Si3 0.918210 0.225895 0.897780
Si Si4 0.478454 0.374805 0.725874
Si Si5 0.250000 0.240954 0.604480
Si Si6 0.576594 0.000000 0.775050
O O1 0.250000 0.500000 0.470559
O O2 0.382889 0.379200 0.343237
O O3 0.250000 0.287775 0.495449
O O4 0.250000 0.888865 0.608071
O O5 0.414076 0.000000 0.721553
O O6 0.750000 0.249434 0.914389
O O7 0.927872 0.110847 0.839169
O O8 0.984555 0.320720 0.829453
O O9 0.000000 0.217278 0.000000
O O10 0.423852 0.500000 0.735401
O O11 0.379923 0.291949 0.665824
O O12 0.750000 0.000000 0.732905
#
# Coordination Sequence:
#
# PCOD9406857 Si02
#       6
#     4   2   8   8   4   4
#     4  10  22  44  70  95 132 180 229 276 329 402
#     4  12  24  42  74 102 140 174 220 292 342 406
#     4  11  24  41  66  98 133 177 226 281 339 404
#     4  11  23  42  66  95 135 177 221 277 336 402
#     4  12  24  42  67 101 130 170 229 276 337 406
#     4  10  23  45  67  97 136 187 230 280 344 405
#
# _framework density 19.413195999999999
#
# number of rings (size 3 to 8) (size 9 to 14) (size 15 to 20)
#    0.000    1.067    4.000    2.400    3.733    2.667 
#    0.000    4.000    0.000    0.000    0.000    0.000 
#    0.000    0.000    0.000    0.000    0.000    0.000 
#
# Total GULP energy -167167.890229 kJ/mol
# GULP energy per Si atom -5572.263008 kJ/mol
# Density = 1.936901 g / cm^3
# Si number density = 19.413196 Si / 1000 Ang^3
#
#
#
# Elastic Constant Matrix: (Units=GPa)
#
#
# Indices 1 2 3 4 5 6 
#
# 1 94.3986 19.7625 15.8303 0.0000 0.0000 0.0000
# 2 19.7625 152.5854 33.8816 0.0000 0.0000 0.0000
# 3 15.8303 33.8816 57.9039 0.0000 0.0000 0.0000
# 4 0.0000 0.0000 0.0000 3.4798 0.0000 0.0000
# 5 0.0000 0.0000 0.0000 0.0000 24.1639 0.0000
# 6 0.0000 0.0000 0.0000 0.0000 0.0000 28.2294
#
#
#
# Elastic Compliance Matrix: (Units=1/GPa)
#
#
# Indices 1 2 3 4 5 6 
#
# 1 0.011206 -0.000886 -0.002545 0.000000 0.000000 0.000000
# 2 -0.000886 0.007602 -0.004206 0.000000 0.000000 0.000000
# 3 -0.002545 -0.004206 0.020427 0.000000 0.000000 0.000000
# 4 0.000000 0.000000 0.000000 0.287376 0.000000 0.000000
# 5 0.000000 0.000000 0.000000 0.000000 0.041384 0.000000
# 6 0.000000 0.000000 0.000000 0.000000 0.000000 0.035424
#
#
# Mechanical properties :
#
#
# Convention : Reuss Voigt Hill
#
# Bulk Modulus (GPa) = 41.73559 49.31519 45.52539
# Shear Modulus (GPa) = 11.71835 26.86884 19.29359
#
# Velocity S-wave (km/s) = 2.45955 3.72432 3.15594
# Velocity P-wave (km/s) = 5.44161 6.62964 6.06478
#
# Compressibility (1/GPa) = 0.02396037
#
# Stress axis : x y z
#
# Youngs Moduli (GPa) = 89.24041 131.53608 48.95491
#
# Poissons Ratio (x) = 0.11657 0.12459
# Poissons Ratio (y) = 0.07909 0.20591
# Poissons Ratio (z) = 0.22711 0.55327
#
# Static dielectric constant tensor:
#      x y z
#    x 1.738220 0.000000 0.000000 
#    y 0.000000 1.666970 0.000000 
#    z 0.000000 0.000000 1.627420 
# 
# From -- ./inp_files/20077.got.cif
#   From: 2010.05.17/outbox.cif.g08.bks.cpg/sg51_11_cif.got.tgz:20077.got - 2010.06.03 11:52:47.
