data_PCOD9406211
_publ_section_title
;
Structure prediction by ZEFSAII (Michael W. Deem and Ramdas Pophale) SiO2 
 PCOD9406211
Probable space group: P M M A
;
_chemical_formula_sum "Si O2"
_cell_formula_units_Z 64
_cell_length_a 23.461545
_cell_length_b 9.171392
_cell_length_c 16.687799
_cell_angle_alpha 90.000000
_cell_angle_beta 90.000000
_cell_angle_gamma 90.000000
_cell_volume 3590.797586
_symmetry_space_group_name_H-M "P M M A"
_symmetry_group_IT_number 51
_symmetry_cell_setting 'orthorhombic'
loop_
_space_group_symop_operation_xyz
x,y,z
1/2-x,-y,z
1/2+x,-y,-z
-x,y,-z
-x,-y,-z
1/2+x,y,-z
1/2-x,y,z
x,-y,z
loop_
_atom_site_type_symbol
_atom_site_label
_atom_site_fract_x
_atom_site_fract_y
_atom_site_fract_z
Si Si1 0.030859 0.174146 0.129622
Si Si2 0.635274 0.172949 0.442626
Si Si3 0.815563 0.324137 0.126515
Si Si4 0.817816 0.176631 0.618245
Si Si5 0.183275 0.663248 0.700383
Si Si6 0.918312 0.324075 0.713396
Si Si7 0.519658 0.334635 0.408316
Si Si8 0.084644 0.826840 0.954889
O O1 0.059401 0.261220 0.202180
O O2 0.965844 0.216560 0.106977
O O3 0.031789 0.000000 0.147126
O O4 0.063574 0.196829 0.045573
O O5 0.656562 0.220679 0.530827
O O6 0.676408 0.234134 0.374793
O O7 0.574664 0.233605 0.412702
O O8 0.634133 0.000000 0.443950
O O9 0.750000 0.276636 0.115116
O O10 0.816371 0.500000 0.125337
O O11 0.839260 0.279806 0.214656
O O12 0.857971 0.258289 0.062547
O O13 0.750000 0.212824 0.623359
O O14 0.859042 0.252536 0.683264
O O15 0.822262 0.000000 0.625012
O O16 0.250000 0.648360 0.716783
O O17 0.160981 0.500000 0.683300
O O18 0.912938 0.500000 0.715486
O O19 0.967752 0.286133 0.648207
O O20 0.500000 0.340200 0.500000
O O21 0.534684 0.500000 0.383453
O O22 0.092975 0.000000 0.945015
#
# Coordination Sequence:
#
# PCOD9406211 Si02
#       8
#     8   8   8   8   8   8   8   8
#     4   9  20  39  60  83 115 146 177 226 282 334
#     4  11  22  34  54  82 110 142 187 234 273 320
#     4   9  19  35  54  79 113 149 183 225 275 327
#     4  10  22  40  59  79 109 148 187 233 286 330
#     4   9  19  35  52  73 108 151 186 218 266 324
#     4  11  23  38  59  86 112 144 188 231 272 326
#     4  10  21  38  55  76 112 148 179 221 271 325
#     4   9  19  37  60  85 111 144 183 222 272 335
#
# _framework density 17.823336999999999
#
# number of rings (size 3 to 8) (size 9 to 14) (size 15 to 20)
#    0.000    2.250    1.250    2.625    1.750    4.500 
#    0.000    3.125    0.000    0.750    0.000    0.000 
#    0.000    0.000    0.000    0.000    0.000    0.000 
#
# Total GULP energy -356669.587336 kJ/mol
# GULP energy per Si atom -5572.962302 kJ/mol
# Density = 1.778277 g / cm^3
# Si number density = 17.823337 Si / 1000 Ang^3
#
#
#
# Elastic Constant Matrix: (Units=GPa)
#
#
# Indices 1 2 3 4 5 6 
#
# 1 115.8333 43.1983 56.7353 0.0000 0.0000 0.0000
# 2 43.1983 38.0561 36.5905 0.0000 0.0000 0.0000
# 3 56.7353 36.5905 77.8034 0.0000 0.0000 0.0000
# 4 0.0000 0.0000 0.0000 35.9252 0.0000 0.0000
# 5 0.0000 0.0000 0.0000 0.0000 24.8831 0.0000
# 6 0.0000 0.0000 0.0000 0.0000 0.0000 31.9078
#
#
#
# Elastic Compliance Matrix: (Units=1/GPa)
#
#
# Indices 1 2 3 4 5 6 
#
# 1 0.016293 -0.012907 -0.005811 0.000000 0.000000 0.000000
# 2 -0.012907 0.058192 -0.017955 0.000000 0.000000 0.000000
# 3 -0.005811 -0.017955 0.025534 0.000000 0.000000 0.000000
# 4 0.000000 0.000000 0.000000 0.027836 0.000000 0.000000
# 5 0.000000 0.000000 0.000000 0.000000 0.040188 0.000000
# 6 0.000000 0.000000 0.000000 0.000000 0.000000 0.031340
#
#
# Mechanical properties :
#
#
# Convention : Reuss Voigt Hill
#
# Bulk Modulus (GPa) = 37.49135 56.08232 46.78683
# Shear Modulus (GPa) = 17.75437 24.88779 21.32108
#
# Velocity S-wave (km/s) = 3.15958 3.74084 3.46243
# Velocity P-wave (km/s) = 5.86440 7.08467 6.50322
#
# Compressibility (1/GPa) = 0.02667282
#
# Stress axis : x y z
#
# Youngs Moduli (GPa) = 61.37694 17.18442 39.16293
#
# Poissons Ratio (x) = 0.22181 0.22756
# Poissons Ratio (y) = 0.79222 0.70318
# Poissons Ratio (z) = 0.35664 0.30855
#
# Static dielectric constant tensor:
#      x y z
#    x 1.544120 0.000000 0.000000 
#    y 0.000000 1.605430 0.000000 
#    z 0.000000 0.000000 1.623120 
# 
# From -- ./inp_files/26212.got.cif
#   From: 2010.05.17/outbox.cif.g08.bks.cpg/sg51_14_cif.got.tgz:26212.got - 2010.06.03 11:52:47.
