data_PCOD9406108
_publ_section_title
;
Structure prediction by ZEFSAII (Michael W. Deem and Ramdas Pophale) SiO2 
 PCOD9406108
Probable space group: P M M A
;
_chemical_formula_sum "Si O2"
_cell_formula_units_Z 64
_cell_length_a 18.004800
_cell_length_b 28.982422
_cell_length_c 5.345137
_cell_angle_alpha 90.000000
_cell_angle_beta 90.000000
_cell_angle_gamma 90.000000
_cell_volume 2789.213883
_symmetry_space_group_name_H-M "P M M A"
_symmetry_group_IT_number 51
_symmetry_cell_setting 'orthorhombic'
loop_
_space_group_symop_operation_xyz
x,y,z
1/2-x,-y,z
1/2+x,-y,-z
-x,y,-z
-x,-y,-z
1/2+x,y,-z
1/2-x,y,z
x,-y,z
loop_
_atom_site_type_symbol
_atom_site_label
_atom_site_fract_x
_atom_site_fract_y
_atom_site_fract_z
Si Si1 0.082233 0.945492 0.083412
Si Si2 0.424218 0.827690 0.520920
Si Si3 0.829385 0.779140 0.829226
Si Si4 0.839176 0.602552 0.854116
Si Si5 0.931427 0.266817 0.186009
Si Si6 0.659252 0.553032 0.350875
Si Si7 0.166847 0.687901 0.472718
Si Si8 0.662255 0.088803 0.406454
O O1 0.119386 0.924456 0.335163
O O2 0.074860 0.000000 0.134626
O O3 0.133279 0.937892 0.837990
O O4 0.000000 0.927993 0.000000
O O5 0.500000 0.855588 0.500000
O O6 0.392664 0.814005 0.250458
O O7 0.445893 0.781202 0.668979
O O8 0.359988 0.857693 0.644150
O O9 0.750000 0.801377 0.864386
O O10 0.825762 0.741054 0.609687
O O11 0.855079 0.747241 0.051671
O O12 0.750000 0.596618 0.866623
O O13 0.866768 0.585307 0.122093
O O14 0.850062 0.654907 0.762146
O O15 0.865843 0.571655 0.620409
O O16 0.905948 0.309644 0.354377
O O17 0.000000 0.275447 0.000000
O O18 0.750000 0.554203 0.355616
O O19 0.637807 0.500000 0.309130
O O20 0.250000 0.673398 0.569579
O O21 0.750000 0.083115 0.440175
#
# Coordination Sequence:
#
# PCOD9406108 Si02
#       8
#     8   8   8   8   8   8   8   8
#     4  11  25  48  75 104 139 183 227 273 335 406
#     4  11  23  41  61  88 124 164 210 255 312 373
#     4  10  21  37  58  82 115 154 196 248 302 362
#     4   9  17  28  45  69 103 144 187 233 290 359
#     4  11  22  37  60  83 113 158 203 254 306 367
#     4   9  16  26  42  67 102 143 184 230 289 359
#     4   9  20  34  51  79 112 151 195 245 302 364
#     4  12  27  44  71 106 141 178 224 282 336 392
#
# _framework density 22.945535
#
# number of rings (size 3 to 8) (size 9 to 14) (size 15 to 20)
#    0.000    1.750    1.250    3.000    3.500    6.000 
#    0.000    0.000    0.000    0.000    0.000    0.000 
#    0.000    3.000    0.000    0.000    0.000    0.000 
#
# Total GULP energy -357062.530134 kJ/mol
# GULP energy per Si atom -5579.102033 kJ/mol
# Density = 2.289331 g / cm^3
# Si number density = 22.945535 Si / 1000 Ang^3
#
#
#
# Elastic Constant Matrix: (Units=GPa)
#
#
# Indices 1 2 3 4 5 6 
#
# 1 119.6962 15.0050 38.9203 0.0000 0.0000 0.0000
# 2 15.0050 63.1011 14.8608 0.0000 0.0000 0.0000
# 3 38.9203 14.8608 105.7060 0.0000 0.0000 0.0000
# 4 0.0000 0.0000 0.0000 20.6687 0.0000 0.0000
# 5 0.0000 0.0000 0.0000 0.0000 16.5934 0.0000
# 6 0.0000 0.0000 0.0000 0.0000 0.0000 -3.1372
#
#
#
# Elastic Compliance Matrix: (Units=1/GPa)
#
#
# Indices 1 2 3 4 5 6 
#
# 1 0.009627 -0.001504 -0.003333 0.000000 0.000000 0.000000
# 2 -0.001504 0.016625 -0.001783 0.000000 0.000000 0.000000
# 3 -0.003333 -0.001783 0.010938 0.000000 0.000000 0.000000
# 4 0.000000 0.000000 0.000000 0.048382 0.000000 0.000000
# 5 0.000000 0.000000 0.000000 0.000000 0.060265 0.000000
# 6 0.000000 0.000000 0.000000 0.000000 0.000000 -0.318760
#
#
# Mechanical properties :
#
#
# Convention : Reuss Voigt Hill
#
# Bulk Modulus (GPa) = 41.75574 47.34171 44.54872
# Shear Modulus (GPa) = -32.96028 21.47279 -5.74374
#
# Velocity S-wave (km/s) = -3.79417 3.06243 -1.58387
# Velocity P-wave (km/s) = 0.97830 5.76035 4.01401
#
# Compressibility (1/GPa) = 0.02394881
#
# Stress axis : x y z
#
# Youngs Moduli (GPa) = 103.87632 60.14932 91.42322
#
# Poissons Ratio (x) = 0.09048 0.30472
# Poissons Ratio (y) = 0.15625 0.16305
# Poissons Ratio (z) = 0.34623 0.10727
#
# Static dielectric constant tensor:
#      x y z
#    x 1.888010 0.000000 0.000000 
#    y 0.000000 1.897440 0.000000 
#    z 0.000000 0.000000 1.959210 
# 
# From -- ./inp_files/2119.got.cif
#   From: 2010.05.17/outbox.cif.g08.bks.cpg/sg51_2_cif.got.tgz:2119.got - 2010.06.03 11:52:47.
