data_PCOD9406103
_publ_section_title
;
Structure prediction by ZEFSAII (Michael W. Deem and Ramdas Pophale) SiO2 
 PCOD9406103
Probable space group: P M M A
;
_chemical_formula_sum "Si O2"
_cell_formula_units_Z 64
_cell_length_a 14.902526
_cell_length_b 9.057366
_cell_length_c 26.890036
_cell_angle_alpha 90.000000
_cell_angle_beta 90.000000
_cell_angle_gamma 90.000000
_cell_volume 3629.553392
_symmetry_space_group_name_H-M "P M M A"
_symmetry_group_IT_number 51
_symmetry_cell_setting 'orthorhombic'
loop_
_space_group_symop_operation_xyz
x,y,z
1/2-x,-y,z
1/2+x,-y,-z
-x,y,-z
-x,-y,-z
1/2+x,y,-z
1/2-x,y,z
x,-y,z
loop_
_atom_site_type_symbol
_atom_site_label
_atom_site_fract_x
_atom_site_fract_y
_atom_site_fract_z
Si Si1 0.856867 0.825300 0.759587
Si Si2 0.855645 0.176783 0.873685
Si Si3 0.999955 0.821553 0.580438
Si Si4 0.497431 0.323361 0.942063
Si Si5 0.852867 0.820597 0.499930
Si Si6 0.643099 0.826234 0.128232
Si Si7 0.996304 0.323785 0.688051
Si Si8 0.145266 0.323923 0.767772
O O1 0.750000 0.806498 0.753669
O O2 0.879430 0.783425 0.816601
O O3 0.912149 0.733593 0.719863
O O4 0.876367 0.000000 0.753775
O O5 0.750000 0.207316 0.880710
O O6 0.917050 0.260595 0.912614
O O7 0.868124 0.000000 0.878442
O O8 0.912253 0.778422 0.547976
O O9 0.087614 0.778209 0.548039
O O10 0.999411 0.750642 0.634363
O O11 0.999788 0.000000 0.584387
O O12 0.495526 0.500000 0.938590
O O13 0.411534 0.255915 0.914349
O O14 0.500000 0.281376 0.000000
O O15 0.750000 0.767860 0.499940
O O16 0.850391 0.000000 0.499928
O O17 0.750000 0.805697 0.122264
O O18 0.618214 0.760661 0.182124
O O19 0.623001 0.000000 0.127031
O O20 0.993282 0.500000 0.682883
O O21 0.083100 0.284121 0.721426
O O22 0.250000 0.292005 0.757953
O O23 0.136537 0.500000 0.776545
#
# Coordination Sequence:
#
# PCOD9406103 Si02
#       8
#     8   8   8   8   8   8   8   8
#     4   9  19  36  56  77 102 135 173 210 254 309
#     4   9  19  37  60  83 106 134 172 221 271 314
#     4   9  18  32  51  75 100 130 170 212 256 305
#     4  11  24  38  53  77 108 142 178 214 258 316
#     4   8  15  31  54  75  95 125 170 219 260 301
#     4  10  21  37  58  82 105 133 174 223 270 314
#     4  11  22  33  49  77 112 143 171 210 255 301
#     4   9  19  36  55  75 104 143 179 209 252 312
#
# _framework density 17.633022
#
# number of rings (size 3 to 8) (size 9 to 14) (size 15 to 20)
#    0.000    2.500    0.000    3.375    0.000    7.250 
#    0.000    6.250    0.000    0.750    0.000    0.000 
#    0.000    0.000    0.000    0.000    0.000    0.000 
#
# Total GULP energy -357164.139943 kJ/mol
# GULP energy per Si atom -5580.689687 kJ/mol
# Density = 1.759289 g / cm^3
# Si number density = 17.633022 Si / 1000 Ang^3
#
#
#
# Elastic Constant Matrix: (Units=GPa)
#
#
# Indices 1 2 3 4 5 6 
#
# 1 107.4027 44.6387 89.9128 0.0000 0.0000 0.0000
# 2 44.6387 41.8630 70.4186 0.0000 0.0000 0.0000
# 3 89.9128 70.4186 189.1536 0.0000 0.0000 0.0000
# 4 0.0000 0.0000 0.0000 16.4722 0.0000 0.0000
# 5 0.0000 0.0000 0.0000 0.0000 70.3135 0.0000
# 6 0.0000 0.0000 0.0000 0.0000 0.0000 22.7659
#
#
#
# Elastic Compliance Matrix: (Units=1/GPa)
#
#
# Indices 1 2 3 4 5 6 
#
# 1 0.017638 -0.012586 -0.003698 0.000000 0.000000 0.000000
# 2 -0.012586 0.072890 -0.021153 0.000000 0.000000 0.000000
# 3 -0.003698 -0.021153 0.014920 0.000000 0.000000 0.000000
# 4 0.000000 0.000000 0.000000 0.060708 0.000000 0.000000
# 5 0.000000 0.000000 0.000000 0.000000 0.014222 0.000000
# 6 0.000000 0.000000 0.000000 0.000000 0.000000 0.043925
#
#
# Mechanical properties :
#
#
# Convention : Reuss Voigt Hill
#
# Bulk Modulus (GPa) = 32.70931 83.15107 57.93019
# Shear Modulus (GPa) = 16.16193 30.80694 23.48443
#
# Velocity S-wave (km/s) = 3.03078 4.18439 3.65340
# Velocity P-wave (km/s) = 5.55318 8.40263 7.12187
#
# Compressibility (1/GPa) = 0.03057234
#
# Stress axis : x y z
#
# Youngs Moduli (GPa) = 56.69560 13.71934 67.02604
#
# Poissons Ratio (x) = 0.17268 0.24789
# Poissons Ratio (y) = 0.71359 1.41779
# Poissons Ratio (z) = 0.20969 0.29020
#
# Static dielectric constant tensor:
#      x y z
#    x 1.606910 0.000000 0.000000 
#    y 0.000000 1.581390 0.000000 
#    z 0.000000 0.000000 1.567840 
# 
# From -- ./inp_files/35623.got.cif
#   From: 2010.05.17/outbox.cif.g08.bks.cpg/sg51_18_cif.got.tgz:35623.got - 2010.06.03 11:52:47.
