data_PCOD9406084
_publ_section_title
;
Structure prediction by ZEFSAII (Michael W. Deem and Ramdas Pophale) SiO2 
 PCOD9406084
Probable space group: P M M A
;
_chemical_formula_sum "Si O2"
_cell_formula_units_Z 40
_cell_length_a 31.456250
_cell_length_b 7.548833
_cell_length_c 7.612634
_cell_angle_alpha 90.000000
_cell_angle_beta 90.000000
_cell_angle_gamma 90.000000
_cell_volume 1807.680677
_symmetry_space_group_name_H-M "P M M A"
_symmetry_group_IT_number 51
_symmetry_cell_setting 'orthorhombic'
loop_
_space_group_symop_operation_xyz
x,y,z
1/2-x,-y,z
1/2+x,-y,-z
-x,y,-z
-x,-y,-z
1/2+x,y,-z
1/2-x,y,z
x,-y,z
loop_
_atom_site_type_symbol
_atom_site_label
_atom_site_fract_x
_atom_site_fract_y
_atom_site_fract_z
Si Si1 0.363096 0.789011 0.434840
Si Si2 0.297995 0.711753 0.736817
Si Si3 0.136458 0.289727 0.021517
Si Si4 0.954371 0.715798 0.926113
Si Si5 0.046318 0.799485 0.473224
O O1 0.323714 0.741080 0.557055
O O2 0.357182 0.736863 0.230828
O O3 0.407725 0.716667 0.517909
O O4 0.368027 0.000000 0.436291
O O5 0.250000 0.782516 0.732950
O O6 0.294761 0.500000 0.760189
O O7 0.326914 0.784302 0.896525
O O8 0.136296 0.500000 0.993900
O O9 0.088542 0.228763 0.973921
O O10 0.953877 0.500000 0.909340
O O11 0.950286 0.801198 0.736413
O O12 0.000000 0.765965 0.000000
O O13 0.000000 0.712221 0.500000
O O14 0.043631 0.000000 0.547064
#
# Coordination Sequence:
#
# PCOD9406084 Si02
#       5
#     8   8   8   8   8
#     4  10  21  37  57  83 115 148 184 229 280 330
#     4  10  22  39  60  84 108 142 187 231 279 333
#     4   9  19  37  57  79 112 149 186 229 276 330
#     4   9  18  31  49  77 107 138 178 223 271 317
#     4   9  19  34  50  74 108 146 183 216 261 324
#
# _framework density 22.127799
#
# number of rings (size 3 to 8) (size 9 to 14) (size 15 to 20)
#    0.000    2.600    0.000    0.600    2.800    3.600 
#    0.000    2.000    0.000    0.000    0.000    0.000 
#    0.000    0.000    0.000    0.000    0.000    0.000 
#
# Total GULP energy -222994.717535 kJ/mol
# GULP energy per Si atom -5574.867938 kJ/mol
# Density = 2.207744 g / cm^3
# Si number density = 22.127799 Si / 1000 Ang^3
#
#
#
# Elastic Constant Matrix: (Units=GPa)
#
#
# Indices 1 2 3 4 5 6 
#
# 1 255.9500 12.2461 81.9220 0.0000 0.0000 0.0000
# 2 12.2461 57.3940 -11.1381 0.0000 0.0000 0.0000
# 3 81.9220 -11.1381 79.0822 0.0000 0.0000 0.0000
# 4 0.0000 0.0000 0.0000 26.7230 0.0000 0.0000
# 5 0.0000 0.0000 0.0000 0.0000 37.1863 0.0000
# 6 0.0000 0.0000 0.0000 0.0000 0.0000 -51.5851
#
#
#
# Elastic Compliance Matrix: (Units=1/GPa)
#
#
# Indices 1 2 3 4 5 6 
#
# 1 0.006213 -0.002647 -0.006809 0.000000 0.000000 0.000000
# 2 -0.002647 0.019041 0.005424 0.000000 0.000000 0.000000
# 3 -0.006809 0.005424 0.020462 0.000000 0.000000 0.000000
# 4 0.000000 0.000000 0.000000 0.037421 0.000000 0.000000
# 5 0.000000 0.000000 0.000000 0.000000 0.026892 0.000000
# 6 0.000000 0.000000 0.000000 0.000000 0.000000 -0.019385
#
#
# Mechanical properties :
#
#
# Convention : Reuss Voigt Hill
#
# Bulk Modulus (GPa) = 26.55903 62.05400 44.30652
# Shear Modulus (GPa) = 44.94049 23.09125 34.01587
#
# Velocity S-wave (km/s) = 4.51150 3.23389 3.92503
# Velocity P-wave (km/s) = 6.25834 6.48447 6.37241
#
# Compressibility (1/GPa) = 0.03765198
#
# Stress axis : x y z
#
# Youngs Moduli (GPa) = 160.95292 52.51882 48.87008
#
# Poissons Ratio (x) = 0.13902 0.33275
# Poissons Ratio (y) = 0.42605 -0.26506
# Poissons Ratio (z) = 1.09592 -0.28485
#
# Static dielectric constant tensor:
#      x y z
#    x 1.918450 0.000000 0.000000 
#    y 0.000000 1.858340 0.000000 
#    z 0.000000 0.000000 1.763660 
# 
# From -- ./inp_files/12106.got.cif
#   From: 2010.05.17/outbox.cif.g08.bks.cpg/sg51_7_cif.got.tgz:12106.got - 2010.06.03 11:52:47.
