data_PCOD9406715
_publ_section_title
;
Structure prediction by ZEFSAII (Michael W. Deem and Ramdas Pophale) SiO2 
 PCOD9406715
Probable space group: P M M A
;
_chemical_formula_sum "Si O2"
_cell_formula_units_Z 48
_cell_length_a 17.200188
_cell_length_b 9.446831
_cell_length_c 15.695583
_cell_angle_alpha 90.000000
_cell_angle_beta 90.000000
_cell_angle_gamma 90.000000
_cell_volume 2550.332420
_symmetry_space_group_name_H-M "P M M A"
_symmetry_group_IT_number 51
_symmetry_cell_setting 'orthorhombic'
loop_
_space_group_symop_operation_xyz
x,y,z
1/2-x,-y,z
1/2+x,-y,-z
-x,y,-z
-x,-y,-z
1/2+x,y,-z
1/2-x,y,z
x,-y,z
loop_
_atom_site_type_symbol
_atom_site_label
_atom_site_fract_x
_atom_site_fract_y
_atom_site_fract_z
Si Si1 0.655358 0.663483 0.526845
Si Si2 0.574426 0.165018 0.867120
Si Si3 0.656122 0.667281 0.335663
Si Si4 0.660985 0.665636 0.011476
Si Si5 0.107925 0.164732 0.828501
Si Si6 0.842042 0.831523 0.692395
O O1 0.750000 0.668318 0.526287
O O2 0.632751 0.500000 0.538529
O O3 0.631250 0.708438 0.431757
O O4 0.629140 0.754890 0.607030
O O5 0.482199 0.171365 0.855777
O O6 0.613789 0.210480 0.778234
O O7 0.596072 0.000000 0.883203
O O8 0.605027 0.260031 0.943742
O O9 0.750000 0.680697 0.330534
O O10 0.638417 0.500000 0.323760
O O11 0.619448 0.763064 0.262910
O O12 0.750000 0.677214 0.980622
O O13 0.642403 0.500000 0.022275
O O14 0.653849 0.746237 0.100972
O O15 0.131641 0.000000 0.826890
O O16 0.750000 0.801523 0.702571
O O17 0.851064 0.000000 0.682176
#
# Coordination Sequence:
#
# PCOD9406715 Si02
#       6
#     8   8   8   8   8   8
#     4   8  15  29  50  76 105 136 173 220 267 308
#     4  10  22  39  56  78 110 144 177 215 262 315
#     4   9  18  34  55  78 106 141 180 222 267 313
#     4  11  24  40  59  83 107 134 173 219 265 315
#     4  11  23  37  55  80 109 142 178 216 262 316
#     4   9  17  31  53  78 103 135 175 218 263 309
#
# _framework density 18.821076000000001
#
# number of rings (size 3 to 8) (size 9 to 14) (size 15 to 20)
#    0.000    2.333    0.000    3.500    0.000    9.000 
#    0.000    4.167    0.000    5.000    0.000    0.000 
#    0.000    0.000    0.000    0.000    0.000    0.000 
#
# Total GULP energy -267957.506693 kJ/mol
# GULP energy per Si atom -5582.448056 kJ/mol
# Density = 1.877824 g / cm^3
# Si number density = 18.821076 Si / 1000 Ang^3
#
#
#
# Elastic Constant Matrix: (Units=GPa)
#
#
# Indices 1 2 3 4 5 6 
#
# 1 21.0619 23.3582 16.4410 0.0000 0.0000 0.0000
# 2 23.3582 73.0479 49.8967 0.0000 0.0000 0.0000
# 3 16.4410 49.8967 99.0021 0.0000 0.0000 0.0000
# 4 0.0000 0.0000 0.0000 39.9783 0.0000 0.0000
# 5 0.0000 0.0000 0.0000 0.0000 -11.1870 0.0000
# 6 0.0000 0.0000 0.0000 0.0000 0.0000 16.9545
#
#
#
# Elastic Compliance Matrix: (Units=1/GPa)
#
#
# Indices 1 2 3 4 5 6 
#
# 1 0.073588 -0.023155 -0.000551 0.000000 0.000000 0.000000
# 2 -0.023155 0.028163 -0.010349 0.000000 0.000000 0.000000
# 3 -0.000551 -0.010349 0.015408 0.000000 0.000000 0.000000
# 4 0.000000 0.000000 0.000000 0.025014 0.000000 0.000000
# 5 0.000000 0.000000 0.000000 0.000000 -0.089389 0.000000
# 6 0.000000 0.000000 0.000000 0.000000 0.000000 0.058981
#
#
# Mechanical properties :
#
#
# Convention : Reuss Voigt Hill
#
# Bulk Modulus (GPa) = 20.38708 41.38930 30.88819
# Shear Modulus (GPa) = 25.48124 16.04357 20.76240
#
# Velocity S-wave (km/s) = 3.68349 2.92280 3.32497
# Velocity P-wave (km/s) = 5.38018 5.78178 5.58459
#
# Compressibility (1/GPa) = 0.04905068
#
# Stress axis : x y z
#
# Youngs Moduli (GPa) = 13.58909 35.50811 64.90187
#
# Poissons Ratio (x) = 0.82219 0.03574
# Poissons Ratio (y) = 0.31465 0.67164
# Poissons Ratio (z) = 0.00748 0.36746
#
# Static dielectric constant tensor:
#      x y z
#    x 1.658420 0.000000 0.000000 
#    y 0.000000 1.630800 0.000000 
#    z 0.000000 0.000000 1.637570 
# 
# From -- ./inp_files/24744.got.cif
#   From: 2010.05.17/outbox.cif.g08.bks.cpg/sg51_13_cif.got.tgz:24744.got - 2010.06.03 11:52:47.
