data_PCOD9406017
_publ_section_title
;
Structure prediction by ZEFSAII (Michael W. Deem and Ramdas Pophale) SiO2 
 PCOD9406017
Probable space group: P M M A
;
_chemical_formula_sum "Si O2"
_cell_formula_units_Z 48
_cell_length_a 9.397644
_cell_length_b 7.763807
_cell_length_c 31.893911
_cell_angle_alpha 90.000000
_cell_angle_beta 90.000000
_cell_angle_gamma 90.000000
_cell_volume 2327.027405
_symmetry_space_group_name_H-M "P M M A"
_symmetry_group_IT_number 51
_symmetry_cell_setting 'orthorhombic'
loop_
_space_group_symop_operation_xyz
x,y,z
1/2-x,-y,z
1/2+x,-y,-z
-x,y,-z
-x,-y,-z
1/2+x,y,-z
1/2-x,y,z
x,-y,z
loop_
_atom_site_type_symbol
_atom_site_label
_atom_site_fract_x
_atom_site_fract_y
_atom_site_fract_z
Si Si1 0.912787 0.207179 0.621820
Si Si2 0.911615 0.293871 0.039729
Si Si3 0.088093 0.205450 0.122355
Si Si4 0.912889 0.707017 0.715228
Si Si5 0.911417 0.292694 0.205173
Si Si6 0.913310 0.789057 0.458880
O O1 0.750000 0.271630 0.617931
O O2 0.964699 0.251330 0.668439
O O3 0.009538 0.269135 0.583661
O O4 0.907751 0.000000 0.618930
O O5 0.750000 0.225889 0.041657
O O6 0.901162 0.500000 0.034442
O O7 0.997597 0.263263 0.082302
O O8 0.000000 0.224940 0.000000
O O9 0.250000 0.274424 0.121567
O O10 0.006816 0.253874 0.164820
O O11 0.095931 0.000000 0.120730
O O12 0.750000 0.772187 0.719207
O O13 0.907166 0.500000 0.718694
O O14 0.011764 0.772377 0.752671
O O15 0.750000 0.227388 0.200596
O O16 0.903432 0.500000 0.208443
O O17 0.750000 0.733639 0.460743
O O18 0.000000 0.735070 0.500000
O O19 0.913698 0.000000 0.458695
#
# Coordination Sequence:
#
# PCOD9406017 Si02
#       6
#     8   8   8   8   8   8
#     4   9  17  29  46  69  96 125 159 201 247 294
#     4  10  21  38  61  87 113 144 183 223 263 310
#     4  11  24  39  56  81 112 145 180 219 266 316
#     4   9  18  33  52  73  99 133 169 205 250 304
#     4  10  21  37  57  80 105 136 176 219 262 311
#     4   9  16  26  42  65  93 124 158 197 242 292
#
# _framework density 20.627172999999999
#
# number of rings (size 3 to 8) (size 9 to 14) (size 15 to 20)
#    0.000    2.333    0.000    2.500    0.000    9.000 
#    0.000    1.667    0.000    0.500    0.000    0.000 
#    0.000    0.000    0.000    0.000    0.000    0.000 
#
# Total GULP energy -268091.717705 kJ/mol
# GULP energy per Si atom -5585.244119 kJ/mol
# Density = 2.058023 g / cm^3
# Si number density = 20.627173 Si / 1000 Ang^3
#
#
#
# Elastic Constant Matrix: (Units=GPa)
#
#
# Indices 1 2 3 4 5 6 
#
# 1 196.1872 7.8375 143.0147 0.0000 0.0000 0.0000
# 2 7.8375 28.3768 -2.1270 0.0000 0.0000 0.0000
# 3 143.0147 -2.1270 224.5139 0.0000 0.0000 0.0000
# 4 0.0000 0.0000 0.0000 23.4242 0.0000 0.0000
# 5 0.0000 0.0000 0.0000 0.0000 45.2552 0.0000
# 6 0.0000 0.0000 0.0000 0.0000 0.0000 13.3408
#
#
#
# Elastic Compliance Matrix: (Units=1/GPa)
#
#
# Indices 1 2 3 4 5 6 
#
# 1 0.009794 -0.003175 -0.006269 0.000000 0.000000 0.000000
# 2 -0.003175 0.036294 0.002366 0.000000 0.000000 0.000000
# 3 -0.006269 0.002366 0.008470 0.000000 0.000000 0.000000
# 4 0.000000 0.000000 0.000000 0.042691 0.000000 0.000000
# 5 0.000000 0.000000 0.000000 0.000000 0.022097 0.000000
# 6 0.000000 0.000000 0.000000 0.000000 0.000000 0.074958
#
#
# Mechanical properties :
#
#
# Convention : Reuss Voigt Hill
#
# Bulk Modulus (GPa) = 24.75060 82.94758 53.84909
# Shear Modulus (GPa) = 22.53012 36.42758 29.47885
#
# Velocity S-wave (km/s) = 3.30851 4.20694 3.78448
# Velocity P-wave (km/s) = 5.15947 7.99361 6.72748
#
# Compressibility (1/GPa) = 0.04040306
#
# Stress axis : x y z
#
# Youngs Moduli (GPa) = 102.10747 27.55254 118.07013
#
# Poissons Ratio (x) = 0.08747 0.74013
# Poissons Ratio (y) = 0.32417 -0.27937
# Poissons Ratio (z) = 0.64007 -0.06519
#
# Static dielectric constant tensor:
#      x y z
#    x 1.727560 0.000000 0.000000 
#    y 0.000000 1.764040 0.000000 
#    z 0.000000 0.000000 1.694820 
# 
# From -- ./inp_files/36941.got.cif
#   From: 2010.05.17/outbox.cif.g08.bks.cpg/sg51_19_cif.got.tgz:36941.got - 2010.06.03 11:52:47.
