data_PCOD9406603
_publ_section_title
;
Structure prediction by ZEFSAII (Michael W. Deem and Ramdas Pophale) SiO2 
 PCOD9406603
Probable space group: P M M A
;
_chemical_formula_sum "Si O2"
_cell_formula_units_Z 48
_cell_length_a 15.252702
_cell_length_b 14.224202
_cell_length_c 11.655600
_cell_angle_alpha 90.000000
_cell_angle_beta 90.000000
_cell_angle_gamma 90.000000
_cell_volume 2528.770004
_symmetry_space_group_name_H-M "P M M A"
_symmetry_group_IT_number 51
_symmetry_cell_setting 'orthorhombic'
loop_
_space_group_symop_operation_xyz
x,y,z
1/2-x,-y,z
1/2+x,-y,-z
-x,y,-z
-x,-y,-z
1/2+x,y,-z
1/2-x,y,z
x,-y,z
loop_
_atom_site_type_symbol
_atom_site_label
_atom_site_fract_x
_atom_site_fract_y
_atom_site_fract_z
Si Si1 0.102822 0.233387 0.500972
Si Si2 0.250000 0.887663 0.617732
Si Si3 0.353275 0.611735 0.687490
Si Si4 0.852394 0.261408 0.763966
Si Si5 0.403503 0.111377 0.051096
Si Si6 0.001049 0.612732 0.131700
Si Si7 0.750000 0.114095 0.118723
O O1 0.164128 0.154226 0.557199
O O2 0.118321 0.326117 0.578716
O O3 0.133755 0.248964 0.371222
O O4 0.000000 0.209948 0.500000
O O5 0.250000 0.854877 0.750221
O O6 0.250000 0.000000 0.613295
O O7 0.250000 0.626296 0.710002
O O8 0.366004 0.500000 0.665973
O O9 0.414896 0.639020 0.794843
O O10 0.750000 0.276690 0.788349
O O11 0.885169 0.170564 0.835022
O O12 0.914145 0.345074 0.807052
O O13 0.390536 0.000000 0.073188
O O14 0.500000 0.124008 0.000000
O O15 0.334658 0.142611 0.953881
O O16 0.005322 0.500000 0.130660
O O17 0.000000 0.645861 0.000000
O O18 0.750000 0.000000 0.122519
#
# Coordination Sequence:
#
# PCOD9406603 Si02
#       7
#     8   4   8   8   8   8   4
#     4  12  25  43  66  93 130 166 217 267 313 384
#     4  11  26  45  64  92 131 171 213 264 317 374
#     4  10  21  42  71  96 124 168 214 262 318 373
#     4  12  24  40  62  94 127 168 214 256 322 372
#     4  10  22  41  65  93 125 161 209 265 319 379
#     4  10  23  42  64  96 134 167 207 259 318 383
#     4   9  20  41  65  90 119 161 212 260 314 374
#
# _framework density 18.981560000000002
#
# number of rings (size 3 to 8) (size 9 to 14) (size 15 to 20)
#    0.000    1.333    4.167    0.500    2.333    4.333 
#    0.000    1.667    0.000    0.000    0.000    0.000 
#    0.000    0.000    0.000    0.000    0.000    0.000 
#
# Total GULP energy -268265.371482 kJ/mol
# GULP energy per Si atom -5588.861906 kJ/mol
# Density = 1.893836 g / cm^3
# Si number density = 18.981560 Si / 1000 Ang^3
#
#
#
# Elastic Constant Matrix: (Units=GPa)
#
#
# Indices 1 2 3 4 5 6 
#
# 1 168.1971 38.5119 67.7592 0.0000 0.0000 0.0000
# 2 38.5119 66.6965 52.6174 0.0000 0.0000 0.0000
# 3 67.7592 52.6174 178.2476 0.0000 0.0000 0.0000
# 4 0.0000 0.0000 0.0000 13.7606 0.0000 0.0000
# 5 0.0000 0.0000 0.0000 0.0000 33.2310 0.0000
# 6 0.0000 0.0000 0.0000 0.0000 0.0000 60.0939
#
#
#
# Elastic Compliance Matrix: (Units=1/GPa)
#
#
# Indices 1 2 3 4 5 6 
#
# 1 0.007367 -0.002665 -0.002014 0.000000 0.000000 0.000000
# 2 -0.002665 0.020509 -0.005041 0.000000 0.000000 0.000000
# 3 -0.002014 -0.005041 0.007864 0.000000 0.000000 0.000000
# 4 0.000000 0.000000 0.000000 0.072671 0.000000 0.000000
# 5 0.000000 0.000000 0.000000 0.000000 0.030092 0.000000
# 6 0.000000 0.000000 0.000000 0.000000 0.000000 0.016641
#
#
# Mechanical properties :
#
#
# Convention : Reuss Voigt Hill
#
# Bulk Modulus (GPa) = 61.34980 81.21312 71.28146
# Shear Modulus (GPa) = 27.77515 38.36728 33.07122
#
# Velocity S-wave (km/s) = 3.82942 4.50076 4.17859
# Velocity P-wave (km/s) = 7.20719 8.35986 7.80483
#
# Compressibility (1/GPa) = 0.01629997
#
# Stress axis : x y z
#
# Youngs Moduli (GPa) = 135.74271 48.75886 127.16591
#
# Poissons Ratio (x) = 0.12995 0.25608
# Poissons Ratio (y) = 0.36177 0.64105
# Poissons Ratio (z) = 0.27335 0.24579
#
# Static dielectric constant tensor:
#      x y z
#    x 1.630440 0.000000 0.000000 
#    y 0.000000 1.660820 0.000000 
#    z 0.000000 0.000000 1.633450 
# 
# From -- ./inp_files/16517.got.cif
#   From: 2010.05.17/outbox.cif.g08.bks.cpg/sg51_9_cif.got.tgz:16517.got - 2010.06.03 11:52:47.
