data_PCOD9406086
_publ_section_title
;
Structure prediction by ZEFSAII (Michael W. Deem and Ramdas Pophale) SiO2 
 PCOD9406086
Probable space group: P M M A
;
_chemical_formula_sum "Si O2"
_cell_formula_units_Z 64
_cell_length_a 9.002688
_cell_length_b 18.952905
_cell_length_c 19.967560
_cell_angle_alpha 90.000000
_cell_angle_beta 90.000000
_cell_angle_gamma 90.000000
_cell_volume 3407.006665
_symmetry_space_group_name_H-M "P M M A"
_symmetry_group_IT_number 51
_symmetry_cell_setting 'orthorhombic'
loop_
_space_group_symop_operation_xyz
x,y,z
1/2-x,-y,z
1/2+x,-y,-z
-x,y,-z
-x,-y,-z
1/2+x,y,-z
1/2-x,y,z
x,-y,z
loop_
_atom_site_type_symbol
_atom_site_label
_atom_site_fract_x
_atom_site_fract_y
_atom_site_fract_z
Si Si1 0.919865 0.415565 0.432817
Si Si2 0.571729 0.918006 0.321151
Si Si3 0.427228 0.850680 0.190324
Si Si4 0.582208 0.084367 0.065857
Si Si5 0.571882 0.311879 0.820952
Si Si6 0.427012 0.319243 0.335407
Si Si7 0.572203 0.197698 0.426755
Si Si8 0.572186 0.417445 0.072565
O O1 0.750000 0.390021 0.429223
O O2 0.916337 0.500000 0.435355
O O3 0.000000 0.389093 0.500000
O O4 0.016445 0.389525 0.371237
O O5 0.750000 0.916207 0.311268
O O6 0.497427 0.875503 0.260218
O O7 0.539774 0.876870 0.390101
O O8 0.524905 0.000000 0.321472
O O9 0.250000 0.855002 0.196108
O O10 0.489577 0.899163 0.131684
O O11 0.465657 0.770582 0.169483
O O12 0.750000 0.112097 0.071324
O O13 0.591511 0.000000 0.058998
O O14 0.500000 0.112702 0.000000
O O15 0.750000 0.320311 0.829033
O O16 0.534898 0.323547 0.742760
O O17 0.491104 0.364772 0.871361
O O18 0.250000 0.309891 0.341071
O O19 0.507052 0.256808 0.376474
O O20 0.500000 0.202684 0.500000
O O21 0.750000 0.205803 0.431992
O O22 0.750000 0.410403 0.068080
O O23 0.538224 0.500000 0.088575
O O24 0.500000 0.402258 0.000000
#
# Coordination Sequence:
#
# PCOD9406086 Si02
#       8
#     8   8   8   8   8   8   8   8
#     4  10  21  37  57  83 115 151 193 239 289 349
#     4  10  22  40  61  86 116 153 197 245 301 362
#     4  11  22  38  59  86 119 155 197 243 295 353
#     4  10  21  37  57  83 115 152 195 240 290 349
#     4  10  23  40  60  87 120 156 196 241 288 344
#     4  11  22  39  60  84 118 156 197 244 295 353
#     4  11  23  39  61  86 116 154 197 246 302 361
#     4  10  22  41  66  94 124 160 202 246 293 347
#
# _framework density 18.784818000000001
#
# number of rings (size 3 to 8) (size 9 to 14) (size 15 to 20)
#    0.000    1.625    1.250    3.000    0.000    7.750 
#    0.000    2.500    0.000    0.000    0.000    0.000 
#    0.000    0.000    0.000    0.000    0.000    0.000 
#
# Total GULP energy -357424.021954 kJ/mol
# GULP energy per Si atom -5584.750343 kJ/mol
# Density = 1.874206 g / cm^3
# Si number density = 18.784818 Si / 1000 Ang^3
#
#
#
# Elastic Constant Matrix: (Units=GPa)
#
#
# Indices 1 2 3 4 5 6 
#
# 1 73.0135 49.5461 63.6679 0.0000 0.0000 0.0000
# 2 49.5461 84.4912 59.2305 0.0000 0.0000 0.0000
# 3 63.6679 59.2305 134.1303 0.0000 0.0000 0.0000
# 4 0.0000 0.0000 0.0000 25.8433 0.0000 0.0000
# 5 0.0000 0.0000 0.0000 0.0000 30.8462 0.0000
# 6 0.0000 0.0000 0.0000 0.0000 0.0000 11.3821
#
#
#
# Elastic Compliance Matrix: (Units=1/GPa)
#
#
# Indices 1 2 3 4 5 6 
#
# 1 0.028638 -0.010521 -0.008948 0.000000 0.000000 0.000000
# 2 -0.010521 0.021007 -0.004283 0.000000 0.000000 0.000000
# 3 -0.008948 -0.004283 0.013594 0.000000 0.000000 0.000000
# 4 0.000000 0.000000 0.000000 0.038695 0.000000 0.000000
# 5 0.000000 0.000000 0.000000 0.000000 0.032419 0.000000
# 6 0.000000 0.000000 0.000000 0.000000 0.000000 0.087857
#
#
# Mechanical properties :
#
#
# Convention : Reuss Voigt Hill
#
# Bulk Modulus (GPa) = 63.54611 70.72487 67.13549
# Shear Modulus (GPa) = 18.18463 21.56036 19.87249
#
# Velocity S-wave (km/s) = 3.11472 3.39153 3.25607
# Velocity P-wave (km/s) = 6.84377 7.28480 7.06773
#
# Compressibility (1/GPa) = 0.01573660
#
# Stress axis : x y z
#
# Youngs Moduli (GPa) = 34.91895 47.60265 73.56290
#
# Poissons Ratio (x) = 0.50082 0.65822
# Poissons Ratio (y) = 0.36737 0.31504
# Poissons Ratio (z) = 0.31244 0.20387
#
# Static dielectric constant tensor:
#      x y z
#    x 1.641140 0.000000 0.000000 
#    y 0.000000 1.672240 0.000000 
#    z 0.000000 0.000000 1.635030 
# 
# From -- ./inp_files/32394.got.cif
#   From: 2010.05.17/outbox.cif.g08.bks.cpg/sg51_17_cif.got.tgz:32394.got - 2010.06.03 11:52:47.
