data_PCOD9406319
_publ_section_title
;
Structure prediction by ZEFSAII (Michael W. Deem and Ramdas Pophale) SiO2 
 PCOD9406319
Probable space group: P M M A
;
_chemical_formula_sum "Si O2"
_cell_formula_units_Z 44
_cell_length_a 8.339498
_cell_length_b 29.024129
_cell_length_c 9.875488
_cell_angle_alpha 90.000000
_cell_angle_beta 90.000000
_cell_angle_gamma 90.000000
_cell_volume 2390.328943
_symmetry_space_group_name_H-M "P M M A"
_symmetry_group_IT_number 51
_symmetry_cell_setting 'orthorhombic'
loop_
_space_group_symop_operation_xyz
x,y,z
1/2-x,-y,z
1/2+x,-y,-z
-x,y,-z
-x,-y,-z
1/2+x,y,-z
1/2-x,y,z
x,-y,z
loop_
_atom_site_type_symbol
_atom_site_label
_atom_site_fract_x
_atom_site_fract_y
_atom_site_fract_z
Si Si1 0.943793 0.713333 0.152229
Si Si2 0.555822 0.100449 0.345005
Si Si3 0.443783 0.182077 0.848122
Si Si4 0.941668 0.368348 0.346266
Si Si5 0.943315 0.000000 0.344243
Si Si6 0.558055 0.446960 0.851240
O O1 0.750000 0.712833 0.152068
O O2 0.996878 0.765642 0.184724
O O3 0.001239 0.675839 0.260324
O O4 0.000000 0.702209 0.000000
O O5 0.500000 0.104774 0.500000
O O6 0.750000 0.101020 0.344571
O O7 0.498203 0.143052 0.254968
O O8 0.503179 0.049914 0.289865
O O9 0.250000 0.181927 0.845795
O O10 0.500000 0.171845 0.000000
O O11 0.750000 0.366880 0.346989
O O12 0.000000 0.368046 0.500000
O O13 0.995332 0.413563 0.264788
O O14 0.000000 0.000000 0.500000
O O15 0.750000 0.000000 0.340366
O O16 0.750000 0.446396 0.850263
O O17 0.503304 0.500000 0.832764
O O18 0.500000 0.431515 0.000000
#
# Coordination Sequence:
#
# PCOD9406319 Si02
#       6
#     8   8   8   8   4   8
#     4   9  19  35  54  74  97 129 168 206 246 296
#     4   9  17  29  47  69  94 124 160 201 243 290
#     4   9  18  33  50  70  97 128 162 201 246 296
#     4  11  23  37  54  78 108 139 171 211 257 303
#     4   8  14  26  43  64  90 122 158 196 239 286
#     4  10  21  38  60  84 109 139 175 212 250 297
#
# _framework density 18.407506999999999
#
# number of rings (size 3 to 8) (size 9 to 14) (size 15 to 20)
#    0.000    2.545    0.000    1.636    0.000    5.818 
#    0.000    0.455    0.000    0.000    0.000    0.000 
#    0.000    0.000    0.000    0.000    0.000    0.000 
#
# Total GULP energy -245365.663707 kJ/mol
# GULP energy per Si atom -5576.492357 kJ/mol
# Density = 1.836561 g / cm^3
# Si number density = 18.407507 Si / 1000 Ang^3
#
#
#
# Elastic Constant Matrix: (Units=GPa)
#
#
# Indices 1 2 3 4 5 6 
#
# 1 14.8566 22.1610 17.1729 0.0000 0.0000 0.0000
# 2 22.1610 154.1478 115.4709 0.0000 0.0000 0.0000
# 3 17.1729 115.4709 135.4533 0.0000 0.0000 0.0000
# 4 0.0000 0.0000 0.0000 37.6761 0.0000 0.0000
# 5 0.0000 0.0000 0.0000 0.0000 30.3579 0.0000
# 6 0.0000 0.0000 0.0000 0.0000 0.0000 589.1946
#
#
#
# Elastic Compliance Matrix: (Units=1/GPa)
#
#
# Indices 1 2 3 4 5 6 
#
# 1 0.085734 -0.011575 -0.001002 0.000000 0.000000 0.000000
# 2 -0.011575 0.019512 -0.015166 0.000000 0.000000 0.000000
# 3 -0.001002 -0.015166 0.020439 0.000000 0.000000 0.000000
# 4 0.000000 0.000000 0.000000 0.026542 0.000000 0.000000
# 5 0.000000 0.000000 0.000000 0.000000 0.032940 0.000000
# 6 0.000000 0.000000 0.000000 0.000000 0.000000 0.001697
#
#
# Mechanical properties :
#
#
# Convention : Reuss Voigt Hill
#
# Bulk Modulus (GPa) = 14.24537 68.22970 41.23753
# Shear Modulus (GPa) = 18.81465 141.42260 80.11863
#
# Velocity S-wave (km/s) = 3.20053 8.77471 6.60450
# Velocity P-wave (km/s) = 4.62747 11.82402 8.97833
#
# Compressibility (1/GPa) = 0.07019826
#
# Stress axis : x y z
#
# Youngs Moduli (GPa) = 11.66400 51.24974 48.92694
#
# Poissons Ratio (x) = 0.59320 0.04903
# Poissons Ratio (y) = 0.13501 0.74204
# Poissons Ratio (z) = 0.01169 0.77727
#
# Static dielectric constant tensor:
#      x y z
#    x 1.633560 0.000000 0.000000 
#    y 0.000000 1.679710 0.000000 
#    z 0.000000 0.000000 1.562080 
# 
# From -- ./inp_files/5845.got.cif
#   From: 2010.05.17/outbox.cif.g08.bks.cpg/sg51_3_cif.got.tgz:5845.got - 2010.06.03 11:52:47.
