data_PCOD9406056
_publ_section_title
;
Structure prediction by ZEFSAII (Michael W. Deem and Ramdas Pophale) SiO2 
 PCOD9406056
Probable space group: P M M A
;
_chemical_formula_sum "Si O2"
_cell_formula_units_Z 48
_cell_length_a 8.708690
_cell_length_b 31.189945
_cell_length_c 9.586444
_cell_angle_alpha 90.000000
_cell_angle_beta 90.000000
_cell_angle_gamma 90.000000
_cell_volume 2603.904067
_symmetry_space_group_name_H-M "P M M A"
_symmetry_group_IT_number 51
_symmetry_cell_setting 'orthorhombic'
loop_
_space_group_symop_operation_xyz
x,y,z
1/2-x,-y,z
1/2+x,-y,-z
-x,y,-z
-x,-y,-z
1/2+x,y,-z
1/2-x,y,z
x,-y,z
loop_
_atom_site_type_symbol
_atom_site_label
_atom_site_fract_x
_atom_site_fract_y
_atom_site_fract_z
Si Si1 0.933681 0.047715 0.155367
Si Si2 0.933940 0.704329 0.156255
Si Si3 0.065448 0.779328 0.344342
Si Si4 0.433140 0.878154 0.346509
Si Si5 0.935024 0.372539 0.655778
Si Si6 0.065148 0.450952 0.151141
O O1 0.750000 0.050377 0.150459
O O2 0.998854 0.086347 0.245334
O O3 0.975321 0.000000 0.210462
O O4 0.000000 0.050656 0.000000
O O5 0.750000 0.702900 0.152061
O O6 0.990929 0.747098 0.234707
O O7 0.998245 0.665055 0.247876
O O8 0.000000 0.702326 0.000000
O O9 0.250000 0.773935 0.346662
O O10 0.029554 0.828861 0.307530
O O11 0.000000 0.771135 0.500000
O O12 0.500000 0.885168 0.500000
O O13 0.250000 0.881841 0.349914
O O14 0.750000 0.369329 0.652203
O O15 0.979071 0.417435 0.729660
O O16 0.000000 0.369562 0.500000
O O17 0.250000 0.450674 0.142015
O O18 0.015032 0.500000 0.179023
O O19 0.000000 0.438066 0.000000
#
# Coordination Sequence:
#
# PCOD9406056 Si02
#       6
#     8   8   8   8   8   8
#     4  10  21  37  57  81 111 148 189 233 281 333
#     4  12  25  41  61  85 114 148 188 233 281 334
#     4  10  21  39  61  86 115 148 186 228 279 334
#     4  10  21  37  59  85 114 148 186 230 278 332
#     4  11  23  39  59  84 116 152 191 235 283 335
#     4   9  19  36  58  84 114 149 189 233 282 335
#
# _framework density 18.433859000000002
#
# number of rings (size 3 to 8) (size 9 to 14) (size 15 to 20)
#    0.000    1.667    0.000    4.500    0.000    7.000 
#    0.000    0.000    0.000    0.000    0.000    0.000 
#    0.000    0.000    0.000    0.000    0.000    0.000 
#
# Total GULP energy -268231.022979 kJ/mol
# GULP energy per Si atom -5588.146312 kJ/mol
# Density = 1.839190 g / cm^3
# Si number density = 18.433859 Si / 1000 Ang^3
#
#
#
# Elastic Constant Matrix: (Units=GPa)
#
#
# Indices 1 2 3 4 5 6 
#
# 1 89.7496 69.0541 66.4019 0.0000 0.0000 0.0000
# 2 69.0541 143.8655 119.8044 0.0000 0.0000 0.0000
# 3 66.4019 119.8044 159.0575 0.0000 0.0000 0.0000
# 4 0.0000 0.0000 0.0000 42.6517 0.0000 0.0000
# 5 0.0000 0.0000 0.0000 0.0000 38.4498 0.0000
# 6 0.0000 0.0000 0.0000 0.0000 0.0000 30.7214
#
#
#
# Elastic Compliance Matrix: (Units=1/GPa)
#
#
# Indices 1 2 3 4 5 6 
#
# 1 0.018093 -0.006424 -0.002715 0.000000 0.000000 0.000000
# 2 -0.006424 0.020928 -0.013082 0.000000 0.000000 0.000000
# 3 -0.002715 -0.013082 0.017274 0.000000 0.000000 0.000000
# 4 0.000000 0.000000 0.000000 0.023446 0.000000 0.000000
# 5 0.000000 0.000000 0.000000 0.000000 0.026008 0.000000
# 6 0.000000 0.000000 0.000000 0.000000 0.000000 0.032551
#
#
# Mechanical properties :
#
#
# Convention : Reuss Voigt Hill
#
# Bulk Modulus (GPa) = 84.35649 100.35480 92.35565
# Shear Modulus (GPa) = 26.78222 31.52538 29.15380
#
# Velocity S-wave (km/s) = 3.81580 4.13993 3.98117
# Velocity P-wave (km/s) = 8.07929 8.79833 8.44647
#
# Compressibility (1/GPa) = 0.01185445
#
# Stress axis : x y z
#
# Youngs Moduli (GPa) = 55.26918 47.78308 57.89162
#
# Poissons Ratio (x) = 0.30694 0.15718
# Poissons Ratio (y) = 0.35503 0.75731
# Poissons Ratio (z) = 0.15006 0.62507
#
# Static dielectric constant tensor:
#      x y z
#    x 1.617070 0.000000 0.000000 
#    y 0.000000 1.645380 0.000000 
#    z 0.000000 0.000000 1.584710 
# 
# From -- ./inp_files/5953.got.cif
#   From: 2010.05.17/outbox.cif.g08.bks.cpg/sg51_3_cif.got.tgz:5953.got - 2010.06.03 11:52:47.
