data_PCOD9406976
_publ_section_title
;
Structure prediction by ZEFSAII (Michael W. Deem and Ramdas Pophale) SiO2 
 PCOD9406976
Probable space group: P M M A
;
_chemical_formula_sum "Si O2"
_cell_formula_units_Z 56
_cell_length_a 21.841062
_cell_length_b 14.664596
_cell_length_c 8.678460
_cell_angle_alpha 90.000000
_cell_angle_beta 90.000000
_cell_angle_gamma 90.000000
_cell_volume 2779.626995
_symmetry_space_group_name_H-M "P M M A"
_symmetry_group_IT_number 51
_symmetry_cell_setting 'orthorhombic'
loop_
_space_group_symop_operation_xyz
x,y,z
1/2-x,-y,z
1/2+x,-y,-z
-x,y,-z
-x,-y,-z
1/2+x,y,-z
1/2-x,y,z
x,-y,z
loop_
_atom_site_type_symbol
_atom_site_label
_atom_site_fract_x
_atom_site_fract_y
_atom_site_fract_z
Si Si1 0.931705 0.099363 0.066025
Si Si2 0.424885 0.354968 0.633815
Si Si3 0.561541 0.599181 0.712176
Si Si4 0.935281 0.139619 0.421193
Si Si5 0.681143 0.895847 0.638423
Si Si6 0.360199 0.748514 0.114692
Si Si7 0.182441 0.394590 0.873748
O O1 0.933073 0.100791 0.249856
O O2 0.908502 0.000000 0.013848
O O3 0.892674 0.182476 0.002688
O O4 0.000000 0.109533 0.000000
O O5 0.416597 0.398314 0.465432
O O6 0.488292 0.390461 0.705633
O O7 0.433606 0.248383 0.600186
O O8 0.369755 0.373063 0.749535
O O9 0.577180 0.500000 0.780035
O O10 0.590561 0.685184 0.797638
O O11 0.875799 0.112961 0.520800
O O12 0.000000 0.114600 0.500000
O O13 0.750000 0.885913 0.569994
O O14 0.672688 0.815477 0.763733
O O15 0.678287 0.000000 0.701142
O O16 0.322308 0.676053 0.014761
O O17 0.250000 0.385004 0.802852
O O18 0.175751 0.500000 0.923797
#
# Coordination Sequence:
#
# PCOD9406976 Si02
#       7
#     8   8   8   8   8   8   8
#     4  11  24  40  63  97 133 167 210 264 326 392
#     4  11  20  41  64  93 129 162 209 269 319 378
#     4  11  22  38  66  98 128 165 210 266 326 382
#     4  12  22  43  71  98 129 169 217 270 326 385
#     4  11  25  45  68  96 130 172 221 271 325 385
#     4  12  23  42  64  92 133 169 212 264 321 386
#     4  11  25  43  63  90 127 173 219 263 318 385
#
# _framework density 20.146588000000001
#
# number of rings (size 3 to 8) (size 9 to 14) (size 15 to 20)
#    0.000    0.714    4.286    5.143    0.000    2.857 
#    0.000    1.429    0.000    5.143    0.000    0.000 
#    0.000    0.000    0.000    0.000    0.000    0.000 
#
# Total GULP energy -312903.300908 kJ/mol
# GULP energy per Si atom -5587.558945 kJ/mol
# Density = 2.010073 g / cm^3
# Si number density = 20.146588 Si / 1000 Ang^3
#
#
#
# Elastic Constant Matrix: (Units=GPa)
#
#
# Indices 1 2 3 4 5 6 
#
# 1 137.4319 44.5787 79.6488 0.0000 0.0000 0.0000
# 2 44.5787 154.6422 28.1521 0.0000 0.0000 0.0000
# 3 79.6488 28.1521 90.8798 0.0000 0.0000 0.0000
# 4 0.0000 0.0000 0.0000 80.4142 0.0000 0.0000
# 5 0.0000 0.0000 0.0000 0.0000 23.2631 0.0000
# 6 0.0000 0.0000 0.0000 0.0000 0.0000 30.5558
#
#
#
# Elastic Compliance Matrix: (Units=1/GPa)
#
#
# Indices 1 2 3 4 5 6 
#
# 1 0.015406 -0.002102 -0.012851 0.000000 0.000000 0.000000
# 2 -0.002102 0.007140 -0.000370 0.000000 0.000000 0.000000
# 3 -0.012851 -0.000370 0.022381 0.000000 0.000000 0.000000
# 4 0.000000 0.000000 0.000000 0.012436 0.000000 0.000000
# 5 0.000000 0.000000 0.000000 0.000000 0.042987 0.000000
# 6 0.000000 0.000000 0.000000 0.000000 0.000000 0.032727
#
#
# Mechanical properties :
#
#
# Convention : Reuss Voigt Hill
#
# Bulk Modulus (GPa) = 70.01943 76.41255 73.21599
# Shear Modulus (GPa) = 29.67701 42.21825 35.94763
#
# Velocity S-wave (km/s) = 3.84220 4.58269 4.22868
# Velocity P-wave (km/s) = 7.38335 8.12478 7.76292
#
# Compressibility (1/GPa) = 0.01428175
#
# Stress axis : x y z
#
# Youngs Moduli (GPa) = 64.91075 140.06223 44.68098
#
# Poissons Ratio (x) = 0.29435 0.57419
# Poissons Ratio (y) = 0.13641 0.01652
# Poissons Ratio (z) = 0.83416 0.05180
#
# Static dielectric constant tensor:
#      x y z
#    x 1.693780 0.000000 0.000000 
#    y 0.000000 1.597550 0.000000 
#    z 0.000000 0.000000 1.698720 
# 
# From -- ./inp_files/11034.got.cif
#   From: 2010.05.17/outbox.cif.g08.bks.cpg/sg51_6_cif.got.tgz:11034.got - 2010.06.03 11:52:47.
