data_PCOD9406936
_publ_section_title
;
Structure prediction by ZEFSAII (Michael W. Deem and Ramdas Pophale) SiO2 
 PCOD9406936
Probable space group: P M M A
;
_chemical_formula_sum "Si O2"
_cell_formula_units_Z 56
_cell_length_a 21.746562
_cell_length_b 14.030770
_cell_length_c 8.731156
_cell_angle_alpha 90.000000
_cell_angle_beta 90.000000
_cell_angle_gamma 90.000000
_cell_volume 2664.059135
_symmetry_space_group_name_H-M "P M M A"
_symmetry_group_IT_number 51
_symmetry_cell_setting 'orthorhombic'
loop_
_space_group_symop_operation_xyz
x,y,z
1/2-x,-y,z
1/2+x,-y,-z
-x,y,-z
-x,-y,-z
1/2+x,y,-z
1/2-x,y,z
x,-y,z
loop_
_atom_site_type_symbol
_atom_site_label
_atom_site_fract_x
_atom_site_fract_y
_atom_site_fract_z
Si Si1 0.850716 0.892581 0.529637
Si Si2 0.318660 0.611000 0.881814
Si Si3 0.683834 0.314252 0.452213
Si Si4 0.060241 0.611713 0.397284
Si Si5 0.568821 0.694738 0.937356
Si Si6 0.926832 0.891718 0.851361
Si Si7 0.531373 0.887993 0.349411
O O1 0.815217 0.794051 0.515261
O O2 0.888702 0.891857 0.690722
O O3 0.897622 0.882610 0.385710
O O4 0.823447 0.000000 0.521337
O O5 0.250000 0.624654 0.953052
O O6 0.321716 0.500000 0.832687
O O7 0.377577 0.632128 0.986183
O O8 0.321102 0.676944 0.731286
O O9 0.750000 0.358984 0.494518
O O10 0.623063 0.364494 0.514835
O O11 0.057740 0.500000 0.358638
O O12 0.063494 0.671178 0.242063
O O13 0.000000 0.631979 0.500000
O O14 0.593039 0.803908 0.954285
O O15 0.500000 0.677956 0.000000
O O16 0.996472 0.860625 0.803414
O O17 0.924753 0.000000 0.913157
O O18 0.500000 0.843129 0.500000
O O19 0.515571 0.000000 0.352632
#
# Coordination Sequence:
#
# PCOD9406936 Si02
#       7
#     8   8   8   8   8   8   8
#     4   9  17  32  58  90 127 166 207 258 313 370
#     4  10  24  47  68  87 123 172 216 263 323 388
#     4  11  23  40  67  98 125 162 214 266 321 381
#     4  11  25  43  65  95 128 161 210 276 331 377
#     4  12  25  39  65  98 130 170 211 260 317 389
#     4   9  18  34  55  89 130 167 208 254 309 369
#     4   7  12  23  46  77 110 151 194 237 290 350
#
# _framework density 21.020555999999999
#
# number of rings (size 3 to 8) (size 9 to 14) (size 15 to 20)
#    0.000    2.143    1.429    3.429    4.000    4.286 
#    0.000    0.714    0.000    1.286    0.000    0.000 
#    0.000    0.000    0.000    0.000    0.000    0.000 
#
# Total GULP energy -312016.330501 kJ/mol
# GULP energy per Si atom -5571.720188 kJ/mol
# Density = 2.097271 g / cm^3
# Si number density = 21.020556 Si / 1000 Ang^3
#
#
#
# Elastic Constant Matrix: (Units=GPa)
#
#
# Indices 1 2 3 4 5 6 
#
# 1 125.8597 27.5331 37.0067 0.0000 0.0000 0.0000
# 2 27.5331 111.3421 11.5173 0.0000 0.0000 0.0000
# 3 37.0067 11.5173 48.6475 0.0000 0.0000 0.0000
# 4 0.0000 0.0000 0.0000 20.1760 0.0000 0.0000
# 5 0.0000 0.0000 0.0000 0.0000 21.6010 0.0000
# 6 0.0000 0.0000 0.0000 0.0000 0.0000 89.6895
#
#
#
# Elastic Compliance Matrix: (Units=1/GPa)
#
#
# Indices 1 2 3 4 5 6 
#
# 1 0.010586 -0.001830 -0.007620 0.000000 0.000000 0.000000
# 2 -0.001830 0.009523 -0.000863 0.000000 0.000000 0.000000
# 3 -0.007620 -0.000863 0.026557 0.000000 0.000000 0.000000
# 4 0.000000 0.000000 0.000000 0.049564 0.000000 0.000000
# 5 0.000000 0.000000 0.000000 0.000000 0.046294 0.000000
# 6 0.000000 0.000000 0.000000 0.000000 0.000000 0.011150
#
#
# Mechanical properties :
#
#
# Convention : Reuss Voigt Hill
#
# Bulk Modulus (GPa) = 38.40022 48.66262 43.53142
# Shear Modulus (GPa) = 27.32566 40.27945 33.80255
#
# Velocity S-wave (km/s) = 3.60939 4.38218 4.01443
# Velocity P-wave (km/s) = 5.97310 6.98606 6.49934
#
# Compressibility (1/GPa) = 0.02604152
#
# Stress axis : x y z
#
# Youngs Moduli (GPa) = 94.46404 105.00896 37.65518
#
# Poissons Ratio (x) = 0.19212 0.28692
# Poissons Ratio (y) = 0.17283 0.03249
# Poissons Ratio (z) = 0.71979 0.09060
#
# Static dielectric constant tensor:
#      x y z
#    x 1.850870 0.000000 0.000000 
#    y 0.000000 1.788390 0.000000 
#    z 0.000000 0.000000 1.772350 
# 
# From -- ./inp_files/11020.got.cif
#   From: 2010.05.17/outbox.cif.g08.bks.cpg/sg51_6_cif.got.tgz:11020.got - 2010.06.03 11:52:47.
