data_PCOD9406805
_publ_section_title
;
Structure prediction by ZEFSAII (Michael W. Deem and Ramdas Pophale) SiO2 
 PCOD9406805
Probable space group: P M M A
;
_chemical_formula_sum "Si O2"
_cell_formula_units_Z 56
_cell_length_a 28.307636
_cell_length_b 14.850969
_cell_length_c 6.197286
_cell_angle_alpha 90.000000
_cell_angle_beta 90.000000
_cell_angle_gamma 90.000000
_cell_volume 2605.313159
_symmetry_space_group_name_H-M "P M M A"
_symmetry_group_IT_number 51
_symmetry_cell_setting 'orthorhombic'
loop_
_space_group_symop_operation_xyz
x,y,z
1/2-x,-y,z
1/2+x,-y,-z
-x,y,-z
-x,-y,-z
1/2+x,y,-z
1/2-x,y,z
x,-y,z
loop_
_atom_site_type_symbol
_atom_site_label
_atom_site_fract_x
_atom_site_fract_y
_atom_site_fract_z
Si Si1 0.804933 0.096481 0.023660
Si Si2 0.546178 0.897050 0.348939
Si Si3 0.884807 0.395546 0.314860
Si Si4 0.194167 0.738459 0.648444
Si Si5 0.628759 0.160519 0.674669
Si Si6 0.060043 0.741808 0.991556
Si Si7 0.959377 0.599759 0.679192
O O1 0.750000 0.101777 0.956543
O O2 0.813933 0.183775 0.171191
O O3 0.811048 0.000000 0.142449
O O4 0.839186 0.096108 0.819745
O O5 0.500000 0.888882 0.500000
O O6 0.592618 0.878465 0.495824
O O7 0.542759 0.823234 0.160419
O O8 0.548183 0.000000 0.265975
O O9 0.886850 0.500000 0.253219
O O10 0.832459 0.354594 0.302003
O O11 0.915325 0.331598 0.161227
O O12 0.910078 0.388667 0.549743
O O13 0.250000 0.729001 0.617789
O O14 0.166282 0.775596 0.442514
O O15 0.597347 0.212075 0.848592
O O16 0.030880 0.681417 0.161563
O O17 0.959370 0.500000 0.782199
O O18 0.000000 0.599802 0.500000
#
# Coordination Sequence:
#
# PCOD9406805 Si02
#       7
#     8   8   8   8   8   8   8
#     4  10  22  40  65  96 130 174 229 286 345 405
#     4  11  27  47  68 102 142 183 226 273 337 412
#     4  11  23  43  67  99 137 177 227 282 344 409
#     4  11  23  43  66  98 139 177 227 286 344 408
#     4  12  22  41  67  98 134 179 228 282 334 398
#     4  12  23  44  70  99 135 183 226 281 335 404
#     4  10  23  43  71 105 137 173 225 284 343 406
#
# _framework density 21.494537000000001
#
# number of rings (size 3 to 8) (size 9 to 14) (size 15 to 20)
#    0.000    1.000    4.286    1.286    0.000    8.286 
#    0.000    5.000    0.000    1.714    0.000    0.000 
#    0.000    0.000    0.000    0.000    0.000    0.000 
#
# Total GULP energy -313022.938233 kJ/mol
# GULP energy per Si atom -5589.695326 kJ/mol
# Density = 2.144561 g / cm^3
# Si number density = 21.494537 Si / 1000 Ang^3
#
#
#
# Elastic Constant Matrix: (Units=GPa)
#
#
# Indices 1 2 3 4 5 6 
#
# 1 117.1171 61.7165 38.9985 0.0000 0.0000 0.0000
# 2 61.7165 204.0705 79.8163 0.0000 0.0000 0.0000
# 3 38.9985 79.8163 85.3060 0.0000 0.0000 0.0000
# 4 0.0000 0.0000 0.0000 -208.9776 0.0000 0.0000
# 5 0.0000 0.0000 0.0000 0.0000 36.3246 0.0000
# 6 0.0000 0.0000 0.0000 0.0000 0.0000 36.8352
#
#
#
# Elastic Compliance Matrix: (Units=1/GPa)
#
#
# Indices 1 2 3 4 5 6 
#
# 1 0.010597 -0.002066 -0.002911 0.000000 0.000000 0.000000
# 2 -0.002066 0.008131 -0.006664 0.000000 0.000000 0.000000
# 3 -0.002911 -0.006664 0.019288 0.000000 0.000000 0.000000
# 4 0.000000 0.000000 0.000000 -0.004785 0.000000 0.000000
# 5 0.000000 0.000000 0.000000 0.000000 0.027530 0.000000
# 6 0.000000 0.000000 0.000000 0.000000 0.000000 0.027148
#
#
# Mechanical properties :
#
#
# Convention : Reuss Voigt Hill
#
# Bulk Modulus (GPa) = 67.86843 85.28401 76.57622
# Shear Modulus (GPa) = 43.06574 -12.09940 15.48317
#
# Velocity S-wave (km/s) = 4.48098 -2.37514 2.68681
# Velocity P-wave (km/s) = 7.64300 5.67816 6.73264
#
# Compressibility (1/GPa) = 0.01473439
#
# Stress axis : x y z
#
# Youngs Moduli (GPa) = 94.36981 122.98076 51.84533
#
# Poissons Ratio (x) = 0.25408 0.15093
# Poissons Ratio (y) = 0.19497 0.34547
# Poissons Ratio (z) = 0.27473 0.81949
#
# Static dielectric constant tensor:
#      x y z
#    x 1.836710 0.000000 0.000000 
#    y 0.000000 1.781940 0.000000 
#    z 0.000000 0.000000 1.773670 
# 
# From -- ./inp_files/4024.got.cif
#   From: 2010.05.17/outbox.cif.g08.bks.cpg/sg51_3_cif.got.tgz:4024.got - 2010.06.03 11:52:47.
