data_PCOD9406562
_publ_section_title
;
Structure prediction by ZEFSAII (Michael W. Deem and Ramdas Pophale) SiO2 
 PCOD9406562
Probable space group: P M M A
;
_chemical_formula_sum "Si O2"
_cell_formula_units_Z 48
_cell_length_a 28.414909
_cell_length_b 13.333040
_cell_length_c 5.606926
_cell_angle_alpha 90.000000
_cell_angle_beta 90.000000
_cell_angle_gamma 90.000000
_cell_volume 2124.223827
_symmetry_space_group_name_H-M "P M M A"
_symmetry_group_IT_number 51
_symmetry_cell_setting 'orthorhombic'
loop_
_space_group_symop_operation_xyz
x,y,z
1/2-x,-y,z
1/2+x,-y,-z
-x,y,-z
-x,-y,-z
1/2+x,y,-z
1/2-x,y,z
x,-y,z
loop_
_atom_site_type_symbol
_atom_site_label
_atom_site_fract_x
_atom_site_fract_y
_atom_site_fract_z
Si Si1 0.626361 0.782113 0.180025
Si Si2 0.048269 0.111834 0.146731
Si Si3 0.696644 0.693306 0.818280
Si Si4 0.974589 0.675078 0.740016
Si Si5 0.886270 0.390239 0.530024
Si Si6 0.198427 0.888653 0.499193
O O1 0.602291 0.700914 0.352041
O O2 0.655693 0.863058 0.329373
O O3 0.590412 0.842593 0.013920
O O4 0.665410 0.713853 0.048788
O O5 0.036190 0.206934 0.309049
O O6 0.059849 0.000000 0.242927
O O7 0.000000 0.100714 0.000000
O O8 0.750000 0.658448 0.858449
O O9 0.665593 0.627085 0.638431
O O10 0.698394 0.803333 0.698557
O O11 0.924041 0.621231 0.742828
O O12 0.000000 0.635322 0.500000
O O13 0.000000 0.665881 0.000000
O O14 0.890090 0.500000 0.420719
O O15 0.250000 0.882436 0.622262
O O16 0.193846 0.000000 0.398472
#
# Coordination Sequence:
#
# PCOD9406562 Si02
#       6
#     8   8   8   8   8   8
#     4  11  21  41  63  94 130 176 226 287 339 416
#     4  10  21  39  65  99 137 179 219 266 334 412
#     4  10  22  41  63  90 130 173 221 287 349 414
#     4  11  24  46  72 104 145 183 232 289 347 416
#     4  11  25  44  67  95 130 176 230 291 355 415
#     4   9  19  35  59  92 128 170 221 277 341 412
#
# _framework density 22.596489999999999
#
# number of rings (size 3 to 8) (size 9 to 14) (size 15 to 20)
#    0.000    1.667    1.667    3.000    0.000    4.000 
#    0.000    4.167    0.000    0.500    0.000    0.000 
#    0.000    0.000    0.000    0.000    0.000    0.000 
#
# Total GULP energy -267825.644241 kJ/mol
# GULP energy per Si atom -5579.700922 kJ/mol
# Density = 2.254506 g / cm^3
# Si number density = 22.596490 Si / 1000 Ang^3
#
#
#
# Elastic Constant Matrix: (Units=GPa)
#
#
# Indices 1 2 3 4 5 6 
#
# 1 120.1561 15.7892 39.2215 0.0000 0.0000 0.0000
# 2 15.7892 87.1750 0.6939 0.0000 0.0000 0.0000
# 3 39.2215 0.6939 65.4671 0.0000 0.0000 0.0000
# 4 0.0000 0.0000 0.0000 13.1331 0.0000 0.0000
# 5 0.0000 0.0000 0.0000 0.0000 40.3827 0.0000
# 6 0.0000 0.0000 0.0000 0.0000 0.0000 -405.9359
#
#
#
# Elastic Compliance Matrix: (Units=1/GPa)
#
#
# Indices 1 2 3 4 5 6 
#
# 1 0.010644 -0.001877 -0.006357 0.000000 0.000000 0.000000
# 2 -0.001877 0.011803 0.001000 0.000000 0.000000 0.000000
# 3 -0.006357 0.001000 0.019073 0.000000 0.000000 0.000000
# 4 0.000000 0.000000 0.000000 0.076143 0.000000 0.000000
# 5 0.000000 0.000000 0.000000 0.000000 0.024763 0.000000
# 6 0.000000 0.000000 0.000000 0.000000 0.000000 -0.002463
#
#
# Mechanical properties :
#
#
# Convention : Reuss Voigt Hill
#
# Bulk Modulus (GPa) = 36.96761 42.68968 39.82864
# Shear Modulus (GPa) = 30.59041 -56.01111 -12.71035
#
# Velocity S-wave (km/s) = 3.68335 -4.98411 -2.37426
# Velocity P-wave (km/s) = 5.87238 3.76678 3.18561
#
# Compressibility (1/GPa) = 0.02705071
#
# Stress axis : x y z
#
# Youngs Moduli (GPa) = 93.94702 84.72250 52.43061
#
# Poissons Ratio (x) = 0.15905 0.33331
# Poissons Ratio (y) = 0.17637 -0.05241
# Poissons Ratio (z) = 0.59723 -0.08469
#
# Static dielectric constant tensor:
#      x y z
#    x 1.919390 0.000000 0.000000 
#    y 0.000000 1.821510 0.000000 
#    z 0.000000 0.000000 1.890530 
# 
# From -- ./inp_files/3516.got.cif
#   From: 2010.05.17/outbox.cif.g08.bks.cpg/sg51_2_cif.got.tgz:3516.got - 2010.06.03 11:52:47.
