data_PCOD9406295
_publ_section_title
;
Structure prediction by ZEFSAII (Michael W. Deem and Ramdas Pophale) SiO2 
 PCOD9406295
Probable space group: P M M A
;
_chemical_formula_sum "Si O2"
_cell_formula_units_Z 48
_cell_length_a 8.616222
_cell_length_b 31.449017
_cell_length_c 9.550387
_cell_angle_alpha 90.000000
_cell_angle_beta 90.000000
_cell_angle_gamma 90.000000
_cell_volume 2587.884717
_symmetry_space_group_name_H-M "P M M A"
_symmetry_group_IT_number 51
_symmetry_cell_setting 'orthorhombic'
loop_
_space_group_symop_operation_xyz
x,y,z
1/2-x,-y,z
1/2+x,-y,-z
-x,y,-z
-x,-y,-z
1/2+x,y,-z
1/2-x,y,z
x,-y,z
loop_
_atom_site_type_symbol
_atom_site_label
_atom_site_fract_x
_atom_site_fract_y
_atom_site_fract_z
Si Si1 0.935968 0.451995 0.657331
Si Si2 0.935615 0.284722 0.842426
Si Si3 0.062805 0.873445 0.843597
Si Si4 0.062537 0.951460 0.654378
Si Si5 0.564905 0.376421 0.155756
Si Si6 0.936712 0.207969 0.342592
O O1 0.750000 0.447152 0.656790
O O2 0.972126 0.500000 0.708570
O O3 0.000000 0.448885 0.500000
O O4 0.012022 0.415368 0.749026
O O5 0.750000 0.284127 0.847237
O O6 0.994278 0.331307 0.796432
O O7 0.998279 0.248826 0.738850
O O8 0.000000 0.277497 0.000000
O O9 0.250000 0.873836 0.849903
O O10 0.010822 0.916944 0.767885
O O11 0.016721 0.833713 0.746366
O O12 0.000000 0.869372 0.000000
O O13 0.250000 0.950523 0.649091
O O14 0.000000 0.940668 0.500000
O O15 0.014182 0.000000 0.686800
O O16 0.750000 0.372953 0.151758
O O17 0.500000 0.383510 0.000000
O O18 0.750000 0.209945 0.346156
O O19 0.000000 0.205736 0.500000
#
# Coordination Sequence:
#
# PCOD9406295 Si02
#       6
#     8   8   8   8   8   8
#     4  10  21  38  59  84 115 151 191 235 283 334
#     4  11  22  39  61  85 114 147 184 227 278 333
#     4  10  22  37  55  80 111 146 184 228 276 329
#     4   9  18  34  55  80 110 144 183 227 275 327
#     4  11  22  38  60  86 116 150 189 232 280 333
#     4  11  23  39  58  83 112 144 185 230 279 332
#
# _framework density 18.547965999999999
#
# number of rings (size 3 to 8) (size 9 to 14) (size 15 to 20)
#    0.000    1.667    0.000    6.000    0.000    5.667 
#    0.000    3.333    0.000    0.000    0.000    0.000 
#    0.000    0.000    0.000    0.000    0.000    0.000 
#
# Total GULP energy -268242.563689 kJ/mol
# GULP energy per Si atom -5588.386744 kJ/mol
# Density = 1.850575 g / cm^3
# Si number density = 18.547966 Si / 1000 Ang^3
#
#
#
# Elastic Constant Matrix: (Units=GPa)
#
#
# Indices 1 2 3 4 5 6 
#
# 1 94.8648 60.5165 49.8531 0.0000 0.0000 0.0000
# 2 60.5165 168.3172 119.1830 0.0000 0.0000 0.0000
# 3 49.8531 119.1830 134.1267 0.0000 0.0000 0.0000
# 4 0.0000 0.0000 0.0000 46.5816 0.0000 0.0000
# 5 0.0000 0.0000 0.0000 0.0000 37.2114 0.0000
# 6 0.0000 0.0000 0.0000 0.0000 0.0000 34.7590
#
#
#
# Elastic Compliance Matrix: (Units=1/GPa)
#
#
# Indices 1 2 3 4 5 6 
#
# 1 0.013866 -0.003603 -0.001952 0.000000 0.000000 0.000000
# 2 -0.003603 0.016959 -0.013730 0.000000 0.000000 0.000000
# 3 -0.001952 -0.013730 0.020381 0.000000 0.000000 0.000000
# 4 0.000000 0.000000 0.000000 0.021468 0.000000 0.000000
# 5 0.000000 0.000000 0.000000 0.000000 0.026873 0.000000
# 6 0.000000 0.000000 0.000000 0.000000 0.000000 0.028770
#
#
# Mechanical properties :
#
#
# Convention : Reuss Voigt Hill
#
# Bulk Modulus (GPa) = 79.14186 95.15710 87.14948
# Shear Modulus (GPa) = 29.22300 34.89415 32.05857
#
# Velocity S-wave (km/s) = 3.97361 4.34209 4.16193
# Velocity P-wave (km/s) = 7.98838 8.74946 8.37756
#
# Compressibility (1/GPa) = 0.01263554
#
# Stress axis : x y z
#
# Youngs Moduli (GPa) = 72.12095 58.96743 49.06425
#
# Poissons Ratio (x) = 0.21245 0.09578
# Poissons Ratio (y) = 0.25985 0.67365
# Poissons Ratio (z) = 0.14079 0.80962
#
# Static dielectric constant tensor:
#      x y z
#    x 1.624580 0.000000 0.000000 
#    y 0.000000 1.641720 0.000000 
#    z 0.000000 0.000000 1.588140 
# 
# From -- ./inp_files/6052.got.cif
#   From: 2010.05.17/outbox.cif.g08.bks.cpg/sg51_4_cif.got.tgz:6052.got - 2010.06.03 11:52:47.
