data_PCOD9406518
_publ_section_title
;
Structure prediction by ZEFSAII (Michael W. Deem and Ramdas Pophale) SiO2 
 PCOD9406518
Probable space group: P M M A
;
_chemical_formula_sum "Si O2"
_cell_formula_units_Z 40
_cell_length_a 9.033419
_cell_length_b 14.420660
_cell_length_c 15.287169
_cell_angle_alpha 90.000000
_cell_angle_beta 90.000000
_cell_angle_gamma 90.000000
_cell_volume 1991.426853
_symmetry_space_group_name_H-M "P M M A"
_symmetry_group_IT_number 51
_symmetry_cell_setting 'orthorhombic'
loop_
_space_group_symop_operation_xyz
x,y,z
1/2-x,-y,z
1/2+x,-y,-z
-x,y,-z
-x,-y,-z
1/2+x,y,-z
1/2-x,y,z
x,-y,z
loop_
_atom_site_type_symbol
_atom_site_label
_atom_site_fract_x
_atom_site_fract_y
_atom_site_fract_z
Si Si1 0.921359 0.888523 0.231556
Si Si2 0.918957 0.613143 0.412277
Si Si3 0.919382 0.886958 0.588945
Si Si4 0.426756 0.758877 0.095035
Si Si5 0.428452 0.390365 0.782105
O O1 0.750000 0.858975 0.225053
O O2 0.988703 0.860745 0.325258
O O3 0.016488 0.843514 0.154877
O O4 0.926076 0.000000 0.226348
O O5 0.750000 0.644849 0.416498
O O6 0.918084 0.500000 0.412926
O O7 0.978715 0.637774 0.316212
O O8 0.000000 0.643442 0.500000
O O9 0.750000 0.854236 0.592999
O O10 0.000000 0.858314 0.500000
O O11 0.915397 0.000000 0.588019
O O12 0.250000 0.757723 0.088724
O O13 0.488000 0.668808 0.145817
O O14 0.500000 0.764320 0.000000
O O15 0.250000 0.376484 0.786956
O O16 0.454682 0.500000 0.792745
#
# Coordination Sequence:
#
# PCOD9406518 Si02
#       5
#     8   8   8   8   8
#     4  10  21  39  63  89 118 153 193 239 291 346
#     4   8  14  26  48  79 114 151 187 225 272 326
#     4   9  16  28  50  82 119 157 195 234 280 337
#     4  12  26  43  63  86 114 148 190 242 297 353
#     4   9  19  38  62  87 118 155 194 238 288 341
#
# _framework density 20.086100999999999
#
# number of rings (size 3 to 8) (size 9 to 14) (size 15 to 20)
#    0.000    2.400    0.000    4.200    0.000    5.600 
#    0.000    3.000    0.000    2.400    0.000    0.000 
#    0.000    0.000    0.000    0.000    0.000    0.000 
#
# Total GULP energy -223511.123996 kJ/mol
# GULP energy per Si atom -5587.778100 kJ/mol
# Density = 2.004038 g / cm^3
# Si number density = 20.086101 Si / 1000 Ang^3
#
#
#
# Elastic Constant Matrix: (Units=GPa)
#
#
# Indices 1 2 3 4 5 6 
#
# 1 133.5112 31.1522 90.3818 0.0000 0.0000 0.0000
# 2 31.1522 75.1174 38.1294 0.0000 0.0000 0.0000
# 3 90.3818 38.1294 205.6607 0.0000 0.0000 0.0000
# 4 0.0000 0.0000 0.0000 26.8044 0.0000 0.0000
# 5 0.0000 0.0000 0.0000 0.0000 39.8541 0.0000
# 6 0.0000 0.0000 0.0000 0.0000 0.0000 23.7716
#
#
#
# Elastic Compliance Matrix: (Units=1/GPa)
#
#
# Indices 1 2 3 4 5 6 
#
# 1 0.011020 -0.002331 -0.004411 0.000000 0.000000 0.000000
# 2 -0.002331 0.015189 -0.001791 0.000000 0.000000 0.000000
# 3 -0.004411 -0.001791 0.007133 0.000000 0.000000 0.000000
# 4 0.000000 0.000000 0.000000 0.037307 0.000000 0.000000
# 5 0.000000 0.000000 0.000000 0.000000 0.025092 0.000000
# 6 0.000000 0.000000 0.000000 0.000000 0.000000 0.042067
#
#
# Mechanical properties :
#
#
# Convention : Reuss Voigt Hill
#
# Bulk Modulus (GPa) = 61.44542 81.51289 71.47916
# Shear Modulus (GPa) = 31.19176 35.06107 33.12642
#
# Velocity S-wave (km/s) = 3.94496 4.18250 4.06547
# Velocity P-wave (km/s) = 7.16992 7.99964 7.59612
#
# Compressibility (1/GPa) = 0.01627461
#
# Stress axis : x y z
#
# Youngs Moduli (GPa) = 90.74567 65.83870 140.19585
#
# Poissons Ratio (x) = 0.15348 0.61836
# Poissons Ratio (y) = 0.21155 0.25116
# Poissons Ratio (z) = 0.40025 0.11795
#
# Static dielectric constant tensor:
#      x y z
#    x 1.676650 0.000000 0.000000 
#    y 0.000000 1.764980 0.000000 
#    z 0.000000 0.000000 1.674910 
# 
# From -- ./inp_files/20474.got.cif
#   From: 2010.05.17/outbox.cif.g08.bks.cpg/sg51_11_cif.got.tgz:20474.got - 2010.06.03 11:52:47.
