data_PCOD9406550
_publ_section_title
;
Structure prediction by ZEFSAII (Michael W. Deem and Ramdas Pophale) SiO2 
 PCOD9406550
Probable space group: P M M A
;
_chemical_formula_sum "Si O2"
_cell_formula_units_Z 48
_cell_length_a 17.220311
_cell_length_b 14.207478
_cell_length_c 9.668852
_cell_angle_alpha 90.000000
_cell_angle_beta 90.000000
_cell_angle_gamma 90.000000
_cell_volume 2365.554158
_symmetry_space_group_name_H-M "P M M A"
_symmetry_group_IT_number 51
_symmetry_cell_setting 'orthorhombic'
loop_
_space_group_symop_operation_xyz
x,y,z
1/2-x,-y,z
1/2+x,-y,-z
-x,y,-z
-x,-y,-z
1/2+x,y,-z
1/2-x,y,z
x,-y,z
loop_
_atom_site_type_symbol
_atom_site_label
_atom_site_fract_x
_atom_site_fract_y
_atom_site_fract_z
Si Si1 0.949917 0.610401 0.245074
Si Si2 0.664934 0.611710 0.494856
Si Si3 0.657687 0.111543 0.570399
Si Si4 0.844196 0.107072 0.253290
Si Si5 0.606324 0.727497 0.749114
Si Si6 0.841046 0.280368 0.060516
O O1 0.971457 0.500000 0.246129
O O2 0.902157 0.632071 0.385044
O O3 0.891982 0.634475 0.120007
O O4 0.023567 0.677631 0.236073
O O5 0.750000 0.637107 0.436698
O O6 0.663289 0.500000 0.518593
O O7 0.652407 0.664536 0.637810
O O8 0.750000 0.133754 0.588223
O O9 0.635458 0.133276 0.411353
O O10 0.607458 0.170585 0.677643
O O11 0.649458 0.000000 0.588851
O O12 0.750000 0.103424 0.250853
O O13 0.867212 0.186757 0.144512
O O14 0.871500 0.000000 0.224467
O O15 0.645250 0.731914 0.898386
O O16 0.750000 0.295451 0.087438
#
# Coordination Sequence:
#
# PCOD9406550 Si02
#       6
#     8   8   8   8   8   8
#     4  11  25  44  62  82 117 165 207 246 301 366
#     4  10  21  39  64  90 114 149 202 255 299 353
#     4   9  18  35  61  91 122 158 200 246 297 355
#     4   8  16  34  60  88 118 154 196 240 288 347
#     4  12  23  37  59  92 128 156 190 246 313 364
#     4  11  23  38  60  89 119 159 208 252 297 353
#
# _framework density 20.291226999999999
#
# number of rings (size 3 to 8) (size 9 to 14) (size 15 to 20)
#    0.000    1.833    0.000    5.500    0.000    6.333 
#    0.000    2.500    0.000    6.000    0.000    0.000 
#    0.000    0.000    0.000    0.000    0.000    0.000 
#
# Total GULP energy -268290.818306 kJ/mol
# GULP energy per Si atom -5589.392048 kJ/mol
# Density = 2.024504 g / cm^3
# Si number density = 20.291227 Si / 1000 Ang^3
#
#
#
# Elastic Constant Matrix: (Units=GPa)
#
#
# Indices 1 2 3 4 5 6 
#
# 1 59.1215 33.8105 11.1885 0.0000 0.0000 0.0000
# 2 33.8105 83.4187 35.0923 0.0000 0.0000 0.0000
# 3 11.1885 35.0923 99.2337 0.0000 0.0000 0.0000
# 4 0.0000 0.0000 0.0000 -6.8002 0.0000 0.0000
# 5 0.0000 0.0000 0.0000 0.0000 8.3082 0.0000
# 6 0.0000 0.0000 0.0000 0.0000 0.0000 14.3936
#
#
#
# Elastic Compliance Matrix: (Units=1/GPa)
#
#
# Indices 1 2 3 4 5 6 
#
# 1 0.022071 -0.009279 0.000793 0.000000 0.000000 0.000000
# 2 -0.009279 0.017984 -0.005313 0.000000 0.000000 0.000000
# 3 0.000793 -0.005313 0.011867 0.000000 0.000000 0.000000
# 4 0.000000 0.000000 0.000000 -0.147055 0.000000 0.000000
# 5 0.000000 0.000000 0.000000 0.000000 0.120364 0.000000
# 6 0.000000 0.000000 0.000000 0.000000 0.000000 0.069475
#
#
# Mechanical properties :
#
#
# Convention : Reuss Voigt Hill
#
# Bulk Modulus (GPa) = 41.11467 44.66185 42.88826
# Shear Modulus (GPa) = 38.34004 13.95915 26.14960
#
# Velocity S-wave (km/s) = 4.35154 2.62571 3.59376
# Velocity P-wave (km/s) = 6.74938 5.59023 6.19697
#
# Compressibility (1/GPa) = 0.02432222
#
# Stress axis : x y z
#
# Youngs Moduli (GPa) = 45.30876 55.60532 84.26842
#
# Poissons Ratio (x) = 0.51597 -0.06682
# Poissons Ratio (y) = 0.42042 0.44776
# Poissons Ratio (z) = -0.03593 0.29546
#
# Static dielectric constant tensor:
#      x y z
#    x 1.734860 0.000000 0.000000 
#    y 0.000000 1.745940 0.000000 
#    z 0.000000 0.000000 1.688980 
# 
# From -- ./inp_files/9650.got.cif
#   From: 2010.05.17/outbox.cif.g08.bks.cpg/sg51_5_cif.got.tgz:9650.got - 2010.06.03 11:52:47.
