data_PCOD9406263
_publ_section_title
;
Structure prediction by ZEFSAII (Michael W. Deem and Ramdas Pophale) SiO2 
 PCOD9406263
Probable space group: P M M A
;
_chemical_formula_sum "Si O2"
_cell_formula_units_Z 48
_cell_length_a 13.557505
_cell_length_b 8.887922
_cell_length_c 18.657876
_cell_angle_alpha 90.000000
_cell_angle_beta 90.000000
_cell_angle_gamma 90.000000
_cell_volume 2248.237618
_symmetry_space_group_name_H-M "P M M A"
_symmetry_group_IT_number 51
_symmetry_cell_setting 'orthorhombic'
loop_
_space_group_symop_operation_xyz
x,y,z
1/2-x,-y,z
1/2+x,-y,-z
-x,y,-z
-x,-y,-z
1/2+x,y,-z
1/2-x,y,z
x,-y,z
loop_
_atom_site_type_symbol
_atom_site_label
_atom_site_fract_x
_atom_site_fract_y
_atom_site_fract_z
Si Si1 0.369818 0.329312 0.043512
Si Si2 0.868710 0.171774 0.102679
Si Si3 0.134697 0.821797 0.193676
Si Si4 0.931810 0.181370 0.392984
Si Si5 0.643201 0.182529 0.548804
Si Si6 0.945751 0.678002 0.247052
O O1 0.250000 0.334907 0.040276
O O2 0.404678 0.500000 0.055998
O O3 0.402261 0.263886 0.967161
O O4 0.390898 0.225043 0.111891
O O5 0.750000 0.166950 0.099413
O O6 0.898005 0.249351 0.176585
O O7 0.905102 0.000000 0.100052
O O8 0.250000 0.786052 0.205688
O O9 0.059567 0.732145 0.243283
O O10 0.121651 0.000000 0.203809
O O11 0.044611 0.230182 0.410379
O O12 0.899349 0.257805 0.319806
O O13 0.871264 0.218765 0.464689
O O14 0.929696 0.000000 0.384655
O O15 0.750000 0.236235 0.574783
O O16 0.642845 0.000000 0.553197
O O17 0.938526 0.500000 0.244120
#
# Coordination Sequence:
#
# PCOD9406263 Si02
#       6
#     8   8   8   8   8   8
#     4   9  17  32  55  82 112 143 179 230 289 342
#     4  10  21  38  59  81 107 144 192 240 282 329
#     4  10  21  38  59  81 107 144 192 240 282 329
#     4   9  18  34  55  81 111 140 179 225 264 316
#     4   8  15  31  58  86 108 136 176 221 266 313
#     4  12  25  38  54  80 117 154 186 226 279 336
#
# _framework density 21.350055999999999
#
# number of rings (size 3 to 8) (size 9 to 14) (size 15 to 20)
#    0.000    2.333    0.000    4.000    0.000    6.000 
#    0.000    8.333    0.000    1.000    0.000    0.000 
#    0.000    0.000    0.000    0.000    0.000    0.000 
#
# Total GULP energy -268284.669953 kJ/mol
# GULP energy per Si atom -5589.263957 kJ/mol
# Density = 2.130146 g / cm^3
# Si number density = 21.350056 Si / 1000 Ang^3
#
#
#
# Elastic Constant Matrix: (Units=GPa)
#
#
# Indices 1 2 3 4 5 6 
#
# 1 49.4418 -2.8571 -15.0994 0.0000 0.0000 0.0000
# 2 -2.8571 88.1770 21.9333 0.0000 0.0000 0.0000
# 3 -15.0994 21.9333 78.1460 0.0000 0.0000 0.0000
# 4 0.0000 0.0000 0.0000 -757.4167 0.0000 0.0000
# 5 0.0000 0.0000 0.0000 0.0000 8.1197 0.0000
# 6 0.0000 0.0000 0.0000 0.0000 0.0000 20.0957
#
#
#
# Elastic Compliance Matrix: (Units=1/GPa)
#
#
# Indices 1 2 3 4 5 6 
#
# 1 0.021505 -0.000362 0.004257 0.000000 0.000000 0.000000
# 2 -0.000362 0.012198 -0.003494 0.000000 0.000000 0.000000
# 3 0.004257 -0.003494 0.014600 0.000000 0.000000 0.000000
# 4 0.000000 0.000000 0.000000 -0.001320 0.000000 0.000000
# 5 0.000000 0.000000 0.000000 0.000000 0.123157 0.000000
# 6 0.000000 0.000000 0.000000 0.000000 0.000000 0.049762
#
#
# Mechanical properties :
#
#
# Convention : Reuss Voigt Hill
#
# Bulk Modulus (GPa) = 20.36456 24.85759 22.61107
# Shear Modulus (GPa) = 21.23442 -131.72104 -55.24331
#
# Velocity S-wave (km/s) = 3.15712 -7.86319 -5.09227
# Velocity P-wave (km/s) = 4.78007 8.41259 4.89503
#
# Compressibility (1/GPa) = 0.04910492
#
# Stress axis : x y z
#
# Youngs Moduli (GPa) = 46.50107 81.97996 68.49498
#
# Poissons Ratio (x) = 0.02968 -0.29157
# Poissons Ratio (y) = 0.01684 0.23929
# Poissons Ratio (z) = -0.19795 0.28641
#
# Static dielectric constant tensor:
#      x y z
#    x 1.847450 0.000000 0.000000 
#    y 0.000000 1.716620 0.000000 
#    z 0.000000 0.000000 1.744610 
# 
# From -- ./inp_files/29453.got.cif
#   From: 2010.05.17/outbox.cif.g08.bks.cpg/sg51_15_cif.got.tgz:29453.got - 2010.06.03 11:52:47.
