data_PCOD9406827
_publ_section_title
;
Structure prediction by ZEFSAII (Michael W. Deem and Ramdas Pophale) SiO2 
 PCOD9406827
Probable space group: P M M A
;
_chemical_formula_sum "Si O2"
_cell_formula_units_Z 38
_cell_length_a 24.158264
_cell_length_b 11.717331
_cell_length_c 7.034339
_cell_angle_alpha 90.000000
_cell_angle_beta 90.000000
_cell_angle_gamma 90.000000
_cell_volume 1991.212983
_symmetry_space_group_name_H-M "P M M A"
_symmetry_group_IT_number 51
_symmetry_cell_setting 'orthorhombic'
loop_
_space_group_symop_operation_xyz
x,y,z
1/2-x,-y,z
1/2+x,-y,-z
-x,y,-z
-x,-y,-z
1/2+x,y,-z
1/2-x,y,z
x,-y,z
loop_
_atom_site_type_symbol
_atom_site_label
_atom_site_fract_x
_atom_site_fract_y
_atom_site_fract_z
Si Si1 0.042400 0.868886 0.334530
Si Si2 0.000000 0.286187 0.000000
Si Si3 0.888744 0.370323 0.161314
Si Si4 0.311810 0.629221 0.203206
Si Si5 0.843518 0.194898 0.474178
Si Si6 0.250000 0.000000 0.595706
O O1 0.103537 0.860297 0.421009
O O2 0.000000 0.832405 0.500000
O O3 0.029824 0.000000 0.285766
O O4 0.032579 0.791674 0.151373
O O5 0.953578 0.355800 0.114107
O O6 0.878289 0.500000 0.230452
O O7 0.867032 0.273807 0.304379
O O8 0.855721 0.355384 0.963948
O O9 0.250000 0.638862 0.120286
O O10 0.318330 0.500000 0.278221
O O11 0.318055 0.719804 0.369598
O O12 0.798953 0.100784 0.411413
#
# Coordination Sequence:
#
# PCOD9406827 Si02
#       6
#     8   4   8   8   8   2
#     4  11  23  41  65  93 131 173 214 264 326 392
#     4  12  22  42  68 100 130 171 221 272 326 386
#     4  11  25  42  66 100 135 171 217 271 327 393
#     4  10  22  41  66  92 125 169 215 266 327 390
#     4  12  23  45  65  95 133 171 215 269 329 382
#     4  12  28  44  70  96 132 170 220 280 314 388
#
# _framework density 19.083843999999999
#
# number of rings (size 3 to 8) (size 9 to 14) (size 15 to 20)
#    0.000    0.842    6.316    1.263    1.474    0.000 
#    1.895    3.158    0.000    0.000    0.000    0.000 
#    0.000    0.000    0.000    0.000    0.000    0.000 
#
# Total GULP energy -211651.038186 kJ/mol
# GULP energy per Si atom -5569.764163 kJ/mol
# Density = 1.904041 g / cm^3
# Si number density = 19.083844 Si / 1000 Ang^3
#
#
#
# Elastic Constant Matrix: (Units=GPa)
#
#
# Indices 1 2 3 4 5 6 
#
# 1 130.8134 36.4548 24.0888 0.0000 0.0000 0.0000
# 2 36.4548 117.7326 49.0009 0.0000 0.0000 0.0000
# 3 24.0888 49.0009 48.1570 0.0000 0.0000 0.0000
# 4 0.0000 0.0000 0.0000 4.3967 0.0000 0.0000
# 5 0.0000 0.0000 0.0000 0.0000 20.1136 0.0000
# 6 0.0000 0.0000 0.0000 0.0000 0.0000 33.5919
#
#
#
# Elastic Compliance Matrix: (Units=1/GPa)
#
#
# Indices 1 2 3 4 5 6 
#
# 1 0.008572 -0.001508 -0.002753 0.000000 0.000000 0.000000
# 2 -0.001508 0.014999 -0.014507 0.000000 0.000000 0.000000
# 3 -0.002753 -0.014507 0.036904 0.000000 0.000000 0.000000
# 4 0.000000 0.000000 0.000000 0.227445 0.000000 0.000000
# 5 0.000000 0.000000 0.000000 0.000000 0.049718 0.000000
# 6 0.000000 0.000000 0.000000 0.000000 0.000000 0.029769
#
#
# Mechanical properties :
#
#
# Convention : Reuss Voigt Hill
#
# Bulk Modulus (GPa) = 43.59662 57.31024 50.45343
# Shear Modulus (GPa) = 12.11860 24.09767 18.10814
#
# Velocity S-wave (km/s) = 2.52269 3.55734 3.08372
# Velocity P-wave (km/s) = 5.60176 6.85338 6.25893
#
# Compressibility (1/GPa) = 0.02293756
#
# Stress axis : x y z
#
# Youngs Moduli (GPa) = 116.66196 66.67188 27.09744
#
# Poissons Ratio (x) = 0.10057 0.07460
# Poissons Ratio (y) = 0.17597 0.39311
# Poissons Ratio (z) = 0.32116 0.96722
#
# Static dielectric constant tensor:
#      x y z
#    x 1.680890 0.000000 0.000000 
#    y 0.000000 1.668930 0.000000 
#    z 0.000000 0.000000 1.636220 
# 
# From -- ./inp_files/3418.got.cif
#   From: 2010.05.17/outbox.cif.g08.bks.cpg/sg51_2_cif.got.tgz:3418.got - 2010.06.03 11:52:47.
