data_PCOD9406905
_publ_section_title
;
Structure prediction by ZEFSAII (Michael W. Deem and Ramdas Pophale) SiO2 
 PCOD9406905
Probable space group: P M M A
;
_chemical_formula_sum "Si O2"
_cell_formula_units_Z 52
_cell_length_a 20.069570
_cell_length_b 22.692138
_cell_length_c 5.254851
_cell_angle_alpha 90.000000
_cell_angle_beta 90.000000
_cell_angle_gamma 90.000000
_cell_volume 2393.171873
_symmetry_space_group_name_H-M "P M M A"
_symmetry_group_IT_number 51
_symmetry_cell_setting 'orthorhombic'
loop_
_space_group_symop_operation_xyz
x,y,z
1/2-x,-y,z
1/2+x,-y,-z
-x,y,-z
-x,-y,-z
1/2+x,y,-z
1/2-x,y,z
x,-y,z
loop_
_atom_site_type_symbol
_atom_site_label
_atom_site_fract_x
_atom_site_fract_y
_atom_site_fract_z
Si Si1 0.457793 0.429114 0.750911
Si Si2 0.000000 0.101982 0.500000
Si Si3 0.929816 0.824976 0.861894
Si Si4 0.825835 0.353336 0.291628
Si Si5 0.750000 0.098982 0.386261
Si Si6 0.850591 0.276609 0.794724
Si Si7 0.113642 0.063088 0.845203
Si Si8 0.750000 0.171672 0.881156
O O1 0.500000 0.413673 0.500000
O O2 0.451158 0.500000 0.761306
O O3 0.384899 0.400607 0.730479
O O4 0.500000 0.410509 0.000000
O O5 0.941947 0.146736 0.588370
O O6 0.957362 0.064253 0.301604
O O7 0.920568 0.754641 0.842553
O O8 0.885541 0.875774 0.997763
O O9 0.000000 0.832484 0.000000
O O10 0.750000 0.376528 0.320316
O O11 0.840419 0.311257 0.533834
O O12 0.829239 0.316150 0.031470
O O13 0.819345 0.066322 0.324704
O O14 0.750000 0.119271 0.678336
O O15 0.750000 0.153145 0.177352
O O16 0.810149 0.215477 0.806983
O O17 0.116575 0.000000 0.988525
#
# Coordination Sequence:
#
# PCOD9406905 Si02
#       8
#     8   4   8   8   4   8   8   4
#     4  10  23  46  72 102 145 194 235 278 335 391
#     4  10  23  44  62  90 120 166 213 264 342 410
#     4  10  24  40  61  87 123 167 217 270 336 408
#     4  12  25  42  69 106 139 179 233 281 332 395
#     4  12  25  42  70  94 124 166 225 265 347 400
#     4  12  24  41  65  96 135 174 220 274 337 399
#     4  11  24  42  63  92 122 162 216 279 339 414
#     4  12  22  42  67  88 127 182 206 265 333 416
#
# _framework density 21.728486
#
# number of rings (size 3 to 8) (size 9 to 14) (size 15 to 20)
#    0.000    0.923    3.077    3.231    4.308    5.538 
#    0.000    0.769    0.000    4.615    0.000    0.000 
#    0.000    0.000    0.000    0.000    0.000    0.000 
#
# Total GULP energy -289842.086244 kJ/mol
# GULP energy per Si atom -5573.886274 kJ/mol
# Density = 2.167903 g / cm^3
# Si number density = 21.728486 Si / 1000 Ang^3
#
#
#
# Elastic Constant Matrix: (Units=GPa)
#
#
# Indices 1 2 3 4 5 6 
#
# 1 111.1306 49.9261 24.8692 0.0000 0.0000 0.0000
# 2 49.9261 62.8765 31.6873 0.0000 0.0000 0.0000
# 3 24.8692 31.6873 105.8952 0.0000 0.0000 0.0000
# 4 0.0000 0.0000 0.0000 10.3701 0.0000 0.0000
# 5 0.0000 0.0000 0.0000 0.0000 28.0481 0.0000
# 6 0.0000 0.0000 0.0000 0.0000 0.0000 268.2041
#
#
#
# Elastic Compliance Matrix: (Units=1/GPa)
#
#
# Indices 1 2 3 4 5 6 
#
# 1 0.013989 -0.011130 0.000045 0.000000 0.000000 0.000000
# 2 -0.011130 0.027585 -0.005640 0.000000 0.000000 0.000000
# 3 0.000045 -0.005640 0.011120 0.000000 0.000000 0.000000
# 4 0.000000 0.000000 0.000000 0.096431 0.000000 0.000000
# 5 0.000000 0.000000 0.000000 0.000000 0.035653 0.000000
# 6 0.000000 0.000000 0.000000 0.000000 0.000000 0.003729
#
#
# Mechanical properties :
#
#
# Convention : Reuss Voigt Hill
#
# Bulk Modulus (GPa) = 51.96668 54.76307 53.36488
# Shear Modulus (GPa) = 21.89423 72.88578 47.39001
#
# Velocity S-wave (km/s) = 3.17776 5.79799 4.67519
# Velocity P-wave (km/s) = 6.11821 8.37140 7.33188
#
# Compressibility (1/GPa) = 0.01924310
#
# Stress axis : x y z
#
# Youngs Moduli (GPa) = 71.48662 36.25222 89.92485
#
# Poissons Ratio (x) = 0.40350 -0.00408
# Poissons Ratio (y) = 0.79567 0.50720
# Poissons Ratio (z) = -0.00324 0.20447
#
# Static dielectric constant tensor:
#      x y z
#    x 1.506990 0.000000 0.000000 
#    y 0.000000 1.756260 0.000000 
#    z 0.000000 0.000000 1.884650 
# 
# From -- ./inp_files/2596.got.cif
#   From: 2010.05.17/outbox.cif.g08.bks.cpg/sg51_2_cif.got.tgz:2596.got - 2010.06.03 11:52:47.
