data_PCOD9406011
_publ_section_title
;
Structure prediction by ZEFSAII (Michael W. Deem and Ramdas Pophale) SiO2 
 PCOD9406011
Probable space group: P M M A
;
_chemical_formula_sum "Si O2"
_cell_formula_units_Z 48
_cell_length_a 9.671624
_cell_length_b 8.184881
_cell_length_c 31.793851
_cell_angle_alpha 90.000000
_cell_angle_beta 90.000000
_cell_angle_gamma 90.000000
_cell_volume 2516.835949
_symmetry_space_group_name_H-M "P M M A"
_symmetry_group_IT_number 51
_symmetry_cell_setting 'orthorhombic'
loop_
_space_group_symop_operation_xyz
x,y,z
1/2-x,-y,z
1/2+x,-y,-z
-x,y,-z
-x,-y,-z
1/2+x,y,-z
1/2-x,y,z
x,-y,z
loop_
_atom_site_type_symbol
_atom_site_label
_atom_site_fract_x
_atom_site_fract_y
_atom_site_fract_z
Si Si1 0.406716 0.305263 0.291171
Si Si2 0.091353 0.800754 0.881580
Si Si3 0.908154 0.197312 0.213850
Si Si4 0.908369 0.805036 0.369102
Si Si5 0.409128 0.199937 0.040104
Si Si6 0.908434 0.302832 0.461113
O O1 0.250000 0.239491 0.291910
O O2 0.400153 0.500000 0.292430
O O3 0.486590 0.255470 0.248932
O O4 0.494370 0.249051 0.331337
O O5 0.250000 0.752363 0.891097
O O6 0.058059 0.749283 0.833856
O O7 0.985225 0.746106 0.917193
O O8 0.089927 0.000000 0.881770
O O9 0.750000 0.249733 0.223286
O O10 0.908340 0.000000 0.214071
O O11 0.750000 0.742662 0.363476
O O12 0.958767 0.747794 0.414924
O O13 0.902790 0.000000 0.369118
O O14 0.250000 0.253074 0.037479
O O15 0.408235 0.000000 0.040205
O O16 0.500000 0.250526 0.000000
O O17 0.750000 0.244845 0.465138
O O18 0.907373 0.500000 0.462506
O O19 0.000000 0.243354 0.500000
#
# Coordination Sequence:
#
# PCOD9406011 Si02
#       6
#     8   8   8   8   8   8
#     4  11  24  38  52  74 103 133 167 208 253 301
#     4   8  14  25  40  59  85 116 151 193 240 290
#     4   9  18  33  53  75  98 127 164 205 251 304
#     4  10  21  37  57  80 105 135 173 213 253 301
#     4   9  15  21  31  50  79 117 158 196 236 284
#     4   9  18  33  53  77 106 140 175 210 249 294
#
# _framework density 19.071565
#
# number of rings (size 3 to 8) (size 9 to 14) (size 15 to 20)
#    0.000    2.667    0.000    3.000    0.000    8.333 
#    0.000    3.333    0.000    0.000    0.000    0.000 
#    0.000    0.667    0.000    2.167    0.000    4.833 
#
# Total GULP energy -267811.730559 kJ/mol
# GULP energy per Si atom -5579.411053 kJ/mol
# Density = 1.902816 g / cm^3
# Si number density = 19.071565 Si / 1000 Ang^3
#
#
#
# Elastic Constant Matrix: (Units=GPa)
#
#
# Indices 1 2 3 4 5 6 
#
# 1 145.1943 11.7627 132.0619 0.0000 0.0000 0.0000
# 2 11.7627 10.7174 13.5297 0.0000 0.0000 0.0000
# 3 132.0619 13.5297 190.7600 0.0000 0.0000 0.0000
# 4 0.0000 0.0000 0.0000 38.5130 0.0000 0.0000
# 5 0.0000 0.0000 0.0000 0.0000 40.6302 0.0000
# 6 0.0000 0.0000 0.0000 0.0000 0.0000 7.8308
#
#
#
# Elastic Compliance Matrix: (Units=1/GPa)
#
#
# Indices 1 2 3 4 5 6 
#
# 1 0.018804 -0.004618 -0.012690 0.000000 0.000000 0.000000
# 2 -0.004618 0.103616 -0.004152 0.000000 0.000000 0.000000
# 3 -0.012690 -0.004152 0.014322 0.000000 0.000000 0.000000
# 4 0.000000 0.000000 0.000000 0.025965 0.000000 0.000000
# 5 0.000000 0.000000 0.000000 0.000000 0.024612 0.000000
# 6 0.000000 0.000000 0.000000 0.000000 0.000000 0.127701
#
#
# Mechanical properties :
#
#
# Convention : Reuss Voigt Hill
#
# Bulk Modulus (GPa) = 10.65850 73.48671 42.07261
# Shear Modulus (GPa) = 12.84637 30.01595 21.43116
#
# Velocity S-wave (km/s) = 2.59817 3.97149 3.35583
# Velocity P-wave (km/s) = 3.82119 7.72309 6.09293
#
# Compressibility (1/GPa) = 0.09382181
#
# Stress axis : x y z
#
# Youngs Moduli (GPa) = 53.18029 9.65100 69.82199
#
# Poissons Ratio (x) = 0.04456 0.88607
# Poissons Ratio (y) = 0.24557 0.28992
# Poissons Ratio (z) = 0.67488 0.04007
#
# Static dielectric constant tensor:
#      x y z
#    x 1.662900 0.000000 0.000000 
#    y 0.000000 1.673260 0.000000 
#    z 0.000000 0.000000 1.643030 
# 
# From -- ./inp_files/36880.got.cif
#   From: 2010.05.17/outbox.cif.g08.bks.cpg/sg51_19_cif.got.tgz:36880.got - 2010.06.03 11:52:47.
