data_PCOD9406990
_publ_section_title
;
Structure prediction by ZEFSAII (Michael W. Deem and Ramdas Pophale) SiO2 
 PCOD9406990
Probable space group: P M M A
;
_chemical_formula_sum "Si O2"
_cell_formula_units_Z 56
_cell_length_a 8.099719
_cell_length_b 19.915138
_cell_length_c 19.157046
_cell_angle_alpha 90.000000
_cell_angle_beta 90.000000
_cell_angle_gamma 90.000000
_cell_volume 3090.166034
_symmetry_space_group_name_H-M "P M M A"
_symmetry_group_IT_number 51
_symmetry_cell_setting 'orthorhombic'
loop_
_space_group_symop_operation_xyz
x,y,z
1/2-x,-y,z
1/2+x,-y,-z
-x,y,-z
-x,-y,-z
1/2+x,y,-z
1/2-x,y,z
x,-y,z
loop_
_atom_site_type_symbol
_atom_site_label
_atom_site_fract_x
_atom_site_fract_y
_atom_site_fract_z
Si Si1 0.451511 0.574588 0.345824
Si Si2 0.051557 0.425994 0.183789
Si Si3 0.053899 0.707737 0.421385
Si Si4 0.551526 0.151602 0.077313
Si Si5 0.948446 0.716522 0.152758
Si Si6 0.551047 0.207858 0.291968
Si Si7 0.048181 0.075508 0.784037
O O1 0.250000 0.575599 0.346068
O O2 0.502520 0.500000 0.369529
O O3 0.502873 0.582407 0.264800
O O4 0.512779 0.636323 0.392117
O O5 0.250000 0.427314 0.184441
O O6 0.993913 0.500000 0.159939
O O7 0.999347 0.360056 0.142240
O O8 0.250000 0.702868 0.420837
O O9 0.000000 0.720774 0.500000
O O10 0.004275 0.764283 0.365896
O O11 0.750000 0.152186 0.079660
O O12 0.493635 0.226898 0.098121
O O13 0.496823 0.102064 0.139352
O O14 0.500000 0.132437 0.000000
O O15 0.750000 0.718578 0.153277
O O16 0.006178 0.742922 0.229103
O O17 0.750000 0.208391 0.290523
O O18 0.496551 0.132931 0.270664
O O19 0.250000 0.074760 0.783642
O O20 0.991125 0.000000 0.770401
#
# Coordination Sequence:
#
# PCOD9406990 Si02
#       7
#     8   8   8   8   8   8   8
#     4   8  15  28  44  63  90 122 154 191 236 282
#     4   9  16  27  45  68  91 117 155 201 244 284
#     4  11  21  32  48  68  94 128 161 197 240 283
#     4   9  18  31  47  72 103 133 160 189 225 273
#     4   9  17  29  46  67  94 124 157 197 238 277
#     4   9  17  31  50  71  94 120 157 198 232 278
#     4   8  15  30  53  77 100 128 157 187 230 279
#
# _framework density 18.122004
#
# number of rings (size 3 to 8) (size 9 to 14) (size 15 to 20)
#    0.000    3.000    1.429    3.000    0.000    1.429 
#    0.000    2.143    0.000    3.429    0.000    0.000 
#    0.000    0.000    0.000    0.000    0.000    0.000 
#
# Total GULP energy -312015.880407 kJ/mol
# GULP energy per Si atom -5571.712150 kJ/mol
# Density = 1.808076 g / cm^3
# Si number density = 18.122004 Si / 1000 Ang^3
#
#
#
# Elastic Constant Matrix: (Units=GPa)
#
#
# Indices 1 2 3 4 5 6 
#
# 1 9.3427 9.7595 2.3766 0.0000 0.0000 0.0000
# 2 9.7595 152.4291 39.4363 0.0000 0.0000 0.0000
# 3 2.3766 39.4363 53.4640 0.0000 0.0000 0.0000
# 4 0.0000 0.0000 0.0000 13.3409 0.0000 0.0000
# 5 0.0000 0.0000 0.0000 0.0000 16.2045 0.0000
# 6 0.0000 0.0000 0.0000 0.0000 0.0000 11.4454
#
#
#
# Elastic Compliance Matrix: (Units=1/GPa)
#
#
# Indices 1 2 3 4 5 6 
#
# 1 0.114714 -0.007447 0.000393 0.000000 0.000000 0.000000
# 2 -0.007447 0.008591 -0.006006 0.000000 0.000000 0.000000
# 3 0.000393 -0.006006 0.023117 0.000000 0.000000 0.000000
# 4 0.000000 0.000000 0.000000 0.074958 0.000000 0.000000
# 5 0.000000 0.000000 0.000000 0.000000 0.061711 0.000000
# 6 0.000000 0.000000 0.000000 0.000000 0.000000 0.087372
#
#
# Mechanical properties :
#
#
# Convention : Reuss Voigt Hill
#
# Bulk Modulus (GPa) = 8.31227 35.37561 21.84394
# Shear Modulus (GPa) = 11.44998 19.10904 15.27951
#
# Velocity S-wave (km/s) = 2.51634 3.25078 2.90685
# Velocity P-wave (km/s) = 3.61102 5.80114 4.83181
#
# Compressibility (1/GPa) = 0.12030406
#
# Stress axis : x y z
#
# Youngs Moduli (GPa) = 8.71731 116.40009 43.25850
#
# Poissons Ratio (x) = 0.86678 -0.01702
# Poissons Ratio (y) = 0.06491 0.25981
# Poissons Ratio (z) = -0.00343 0.69909
#
# Static dielectric constant tensor:
#      x y z
#    x 1.648350 0.000000 0.000000 
#    y 0.000000 1.649720 0.000000 
#    z 0.000000 0.000000 1.613760 
# 
# From -- ./inp_files/28255.got.cif
#   From: 2010.05.17/outbox.cif.g08.bks.cpg/sg51_15_cif.got.tgz:28255.got - 2010.06.03 11:52:47.
