data_PCOD9406841
_publ_section_title
;
Structure prediction by ZEFSAII (Michael W. Deem and Ramdas Pophale) SiO2 
 PCOD9406841
Probable space group: P M M A
;
_chemical_formula_sum "Si O2"
_cell_formula_units_Z 38
_cell_length_a 19.214680
_cell_length_b 11.342687
_cell_length_c 8.919265
_cell_angle_alpha 90.000000
_cell_angle_beta 90.000000
_cell_angle_gamma 90.000000
_cell_volume 1943.919031
_symmetry_space_group_name_H-M "P M M A"
_symmetry_group_IT_number 51
_symmetry_cell_setting 'orthorhombic'
loop_
_space_group_symop_operation_xyz
x,y,z
1/2-x,-y,z
1/2+x,-y,-z
-x,y,-z
-x,-y,-z
1/2+x,y,-z
1/2-x,y,z
x,-y,z
loop_
_atom_site_type_symbol
_atom_site_label
_atom_site_fract_x
_atom_site_fract_y
_atom_site_fract_z
Si Si1 0.497644 0.639073 0.331664
Si Si2 0.081267 0.000000 0.062285
Si Si3 0.870386 0.358218 0.144731
Si Si4 0.750000 0.141494 0.635818
Si Si5 0.250000 0.224491 0.704379
Si Si6 0.124277 0.243683 0.176146
Si Si7 0.250000 0.000000 0.923236
O O1 0.500000 0.690573 0.500000
O O2 0.510938 0.500000 0.345120
O O3 0.555043 0.680407 0.211590
O O4 0.423280 0.663489 0.261712
O O5 0.082551 0.876451 0.146625
O O6 0.167413 0.000000 0.995809
O O7 0.000000 0.000000 0.000000
O O8 0.866900 0.500000 0.131726
O O9 0.815658 0.307096 0.262417
O O10 0.855869 0.299709 0.983768
O O11 0.750000 0.170757 0.460634
O O12 0.814114 0.202076 0.718491
O O13 0.750000 0.000000 0.658912
O O14 0.250000 0.117234 0.822953
#
# Coordination Sequence:
#
# PCOD9406841 Si02
#       7
#     8   4   8   4   4   8   2
#     4  10  22  42  65  94 133 173 216 276 349 413
#     4  12  24  41  68 105 134 177 236 291 338 411
#     4  11  23  41  68  99 130 170 221 277 341 413
#     4  12  26  45  62  93 132 183 222 281 341 415
#     4  12  24  43  68  93 133 170 228 273 353 406
#     4  12  23  41  66  94 133 174 227 278 337 403
#     4  12  24  44  70  96 138 188 220 286 362 390
#
# _framework density 19.548141000000001
#
# number of rings (size 3 to 8) (size 9 to 14) (size 15 to 20)
#    0.000    0.632    3.684    5.368    0.000    1.684 
#    0.000    5.263    0.000    0.000    0.000    0.000 
#    0.000    0.000    0.000    0.000    0.000    0.000 
#
# Total GULP energy -211640.022868 kJ/mol
# GULP energy per Si atom -5569.474286 kJ/mol
# Density = 1.950365 g / cm^3
# Si number density = 19.548141 Si / 1000 Ang^3
#
#
#
# Elastic Constant Matrix: (Units=GPa)
#
#
# Indices 1 2 3 4 5 6 
#
# 1 94.4251 -12.3164 32.7788 0.0000 0.0000 0.0000
# 2 -12.3164 36.8002 9.0017 0.0000 0.0000 0.0000
# 3 32.7788 9.0017 103.7520 0.0000 0.0000 0.0000
# 4 0.0000 0.0000 0.0000 30.0663 0.0000 0.0000
# 5 0.0000 0.0000 0.0000 0.0000 26.3416 0.0000
# 6 0.0000 0.0000 0.0000 0.0000 0.0000 27.2639
#
#
#
# Elastic Compliance Matrix: (Units=1/GPa)
#
#
# Indices 1 2 3 4 5 6 
#
# 1 0.012872 0.005418 -0.004537 0.000000 0.000000 0.000000
# 2 0.005418 0.030043 -0.004318 0.000000 0.000000 0.000000
# 3 -0.004537 -0.004318 0.011446 0.000000 0.000000 0.000000
# 4 0.000000 0.000000 0.000000 0.033260 0.000000 0.000000
# 5 0.000000 0.000000 0.000000 0.000000 0.037963 0.000000
# 6 0.000000 0.000000 0.000000 0.000000 0.000000 0.036679
#
#
# Mechanical properties :
#
#
# Convention : Reuss Voigt Hill
#
# Bulk Modulus (GPa) = 21.05834 32.65616 26.85725
# Shear Modulus (GPa) = 27.03196 30.43524 28.73360
#
# Velocity S-wave (km/s) = 3.72269 3.95009 3.83807
# Velocity P-wave (km/s) = 5.41053 6.12748 5.78013
#
# Compressibility (1/GPa) = 0.04748712
#
# Stress axis : x y z
#
# Youngs Moduli (GPa) = 77.68816 33.28528 87.36408
#
# Poissons Ratio (x) = -0.18033 0.39635
# Poissons Ratio (y) = -0.42090 0.37726
# Poissons Ratio (z) = 0.35245 0.14373
#
# Static dielectric constant tensor:
#      x y z
#    x 1.901510 0.000000 0.000000 
#    y 0.000000 1.657830 0.000000 
#    z 0.000000 0.000000 1.689800 
# 
# From -- ./inp_files/9330.got.cif
#   From: 2010.05.17/outbox.cif.g08.bks.cpg/sg51_5_cif.got.tgz:9330.got - 2010.06.03 11:52:47.
