data_PCOD9406232
_publ_section_title
;
Structure prediction by ZEFSAII (Michael W. Deem and Ramdas Pophale) SiO2 
 PCOD9406232
Probable space group: P M M A
;
_chemical_formula_sum "Si O2"
_cell_formula_units_Z 48
_cell_length_a 8.550091
_cell_length_b 32.609935
_cell_length_c 9.860787
_cell_angle_alpha 90.000000
_cell_angle_beta 90.000000
_cell_angle_gamma 90.000000
_cell_volume 2749.364040
_symmetry_space_group_name_H-M "P M M A"
_symmetry_group_IT_number 51
_symmetry_cell_setting 'orthorhombic'
loop_
_space_group_symop_operation_xyz
x,y,z
1/2-x,-y,z
1/2+x,-y,-z
-x,y,-z
-x,-y,-z
1/2+x,y,-z
1/2-x,y,z
x,-y,z
loop_
_atom_site_type_symbol
_atom_site_label
_atom_site_fract_x
_atom_site_fract_y
_atom_site_fract_z
Si Si1 0.062505 0.547050 0.348815
Si Si2 0.562015 0.702764 0.844965
Si Si3 0.560995 0.046287 0.651621
Si Si4 0.939357 0.880950 0.846438
Si Si5 0.561452 0.791311 0.845662
Si Si6 0.564150 0.616994 0.153466
O O1 0.250000 0.549669 0.349077
O O2 0.018065 0.500000 0.314309
O O3 0.000000 0.555337 0.500000
O O4 0.994698 0.579540 0.243839
O O5 0.750000 0.700112 0.846127
O O6 0.513852 0.747171 0.784287
O O7 0.494694 0.660628 0.786872
O O8 0.500000 0.703517 0.000000
O O9 0.500000 0.053498 0.500000
O O10 0.750000 0.047251 0.649047
O O11 0.505984 0.081581 0.753496
O O12 0.513119 0.000000 0.692394
O O13 0.750000 0.881857 0.850367
O O14 0.987387 0.835832 0.790075
O O15 0.000000 0.884847 0.000000
O O16 0.750000 0.790948 0.848642
O O17 0.500000 0.791374 0.000000
O O18 0.750000 0.617604 0.147538
O O19 0.500000 0.613231 0.000000
#
# Coordination Sequence:
#
# PCOD9406232 Si02
#       6
#     8   8   8   8   8   8
#     4  10  21  38  58  78 101 131 166 202 243 293
#     4   9  15  25  42  65  93 124 158 194 236 283
#     4   9  18  32  48  65  88 120 156 192 231 279
#     4   9  17  29  45  68  95 120 151 191 236 281
#     4   8  14  24  40  62  89 121 152 187 231 279
#     4  11  21  33  51  76 105 134 166 205 247 287
#
# _framework density 17.458583000000001
#
# number of rings (size 3 to 8) (size 9 to 14) (size 15 to 20)
#    0.000    2.667    0.000    3.500    0.000    3.000 
#    0.000    0.000    0.000    1.000    0.000    2.333 
#    0.000    0.000    0.000    0.000    0.000    0.000 
#
# Total GULP energy -267280.583667 kJ/mol
# GULP energy per Si atom -5568.345493 kJ/mol
# Density = 1.741885 g / cm^3
# Si number density = 17.458583 Si / 1000 Ang^3
#
#
#
# Elastic Constant Matrix: (Units=GPa)
#
#
# Indices 1 2 3 4 5 6 
#
# 1 47.8938 47.3094 19.9642 0.0000 0.0000 0.0000
# 2 47.3094 211.3417 84.5480 0.0000 0.0000 0.0000
# 3 19.9642 84.5480 49.7002 0.0000 0.0000 0.0000
# 4 0.0000 0.0000 0.0000 -9.0415 0.0000 0.0000
# 5 0.0000 0.0000 0.0000 0.0000 22.5136 0.0000
# 6 0.0000 0.0000 0.0000 0.0000 0.0000 -13.0432
#
#
#
# Elastic Compliance Matrix: (Units=1/GPa)
#
#
# Indices 1 2 3 4 5 6 
#
# 1 0.026856 -0.005309 -0.001756 0.000000 0.000000 0.000000
# 2 -0.005309 0.015862 -0.024851 0.000000 0.000000 0.000000
# 3 -0.001756 -0.024851 0.063101 0.000000 0.000000 0.000000
# 4 0.000000 0.000000 0.000000 -0.110601 0.000000 0.000000
# 5 0.000000 0.000000 0.000000 0.000000 0.044418 0.000000
# 6 0.000000 0.000000 0.000000 0.000000 0.000000 -0.076668
#
#
# Mechanical properties :
#
#
# Convention : Reuss Voigt Hill
#
# Bulk Modulus (GPa) = 23.81681 68.06432 45.94057
# Shear Modulus (GPa) = 122.56524 10.56005 66.56265
#
# Velocity S-wave (km/s) = 8.38784 2.46206 6.18133
# Velocity P-wave (km/s) = 10.36722 6.86682 8.79296
#
# Compressibility (1/GPa) = 0.04198715
#
# Stress axis : x y z
#
# Youngs Moduli (GPa) = 37.23561 63.04444 15.84764
#
# Poissons Ratio (x) = 0.33473 0.02782
# Poissons Ratio (y) = 0.19770 0.39383
# Poissons Ratio (z) = 0.06537 1.56670
#
# Static dielectric constant tensor:
#      x y z
#    x 1.575480 0.000000 0.000000 
#    y 0.000000 1.666390 0.000000 
#    z 0.000000 0.000000 1.551750 
# 
# From -- ./inp_files/14720.got.cif
#   From: 2010.05.17/outbox.cif.g08.bks.cpg/sg51_8_cif.got.tgz:14720.got - 2010.06.03 11:52:47.
