data_PCOD9406095
_publ_section_title
;
Structure prediction by ZEFSAII (Michael W. Deem and Ramdas Pophale) SiO2 
 PCOD9406095
Probable space group: P M M A
;
_chemical_formula_sum "Si O2"
_cell_formula_units_Z 64
_cell_length_a 28.876142
_cell_length_b 9.054858
_cell_length_c 12.794202
_cell_angle_alpha 90.000000
_cell_angle_beta 90.000000
_cell_angle_gamma 90.000000
_cell_volume 3345.291878
_symmetry_space_group_name_H-M "P M M A"
_symmetry_group_IT_number 51
_symmetry_cell_setting 'orthorhombic'
loop_
_space_group_symop_operation_xyz
x,y,z
1/2-x,-y,z
1/2+x,-y,-z
-x,y,-z
-x,-y,-z
1/2+x,y,-z
1/2-x,y,z
x,-y,z
loop_
_atom_site_type_symbol
_atom_site_label
_atom_site_fract_x
_atom_site_fract_y
_atom_site_fract_z
Si Si1 0.805892 0.666775 0.826454
Si Si2 0.385392 0.324318 0.862231
Si Si3 0.400238 0.823719 0.459202
Si Si4 0.052824 0.826076 0.040557
Si Si5 0.549361 0.323166 0.734390
Si Si6 0.694981 0.825762 0.039689
Si Si7 0.555042 0.324839 0.342422
Si Si8 0.697423 0.177032 0.606851
O O1 0.750000 0.657432 0.833297
O O2 0.824751 0.500000 0.828044
O O3 0.814509 0.748014 0.717619
O O4 0.820333 0.758714 0.927778
O O5 0.384539 0.500000 0.877659
O O6 0.334438 0.256939 0.872861
O O7 0.409800 0.293426 0.752138
O O8 0.415324 0.249106 0.953468
O O9 0.418342 0.747453 0.353784
O O10 0.429737 0.763434 0.555702
O O11 0.345269 0.788754 0.469543
O O12 0.405257 0.000000 0.450842
O O13 0.057732 0.747444 0.152355
O O14 0.063475 0.000000 0.050034
O O15 0.000000 0.811221 0.000000
O O16 0.555087 0.500000 0.739120
O O17 0.496535 0.291406 0.698184
O O18 0.750000 0.802471 0.050822
O O19 0.686114 0.000000 0.041403
O O20 0.556595 0.500000 0.366212
O O21 0.750000 0.222102 0.576569
O O22 0.698116 0.000000 0.621561
#
# Coordination Sequence:
#
# PCOD9406095 Si02
#       8
#     8   8   8   8   8   8   8   8
#     4   9  17  30  51  79 110 147 190 236 289 349
#     4  11  23  40  63  88 120 162 206 250 299 363
#     4  11  24  39  61  91 119 153 202 254 302 357
#     4  11  23  39  62  93 126 158 196 245 300 363
#     4  11  23  41  64  88 122 161 199 245 300 364
#     4  10  21  37  57  84 120 160 201 249 304 360
#     4  10  23  43  63  85 116 158 202 246 302 362
#     4   9  19  37  57  79 113 154 193 239 296 354
#
# _framework density 19.131366
#
# number of rings (size 3 to 8) (size 9 to 14) (size 15 to 20)
#    0.000    1.750    1.250    2.625    1.750    7.250 
#    0.000    0.625    0.000    2.250    0.000    0.000 
#    0.000    0.000    0.000    0.000    0.000    0.000 
#
# Total GULP energy -357608.039894 kJ/mol
# GULP energy per Si atom -5587.625623 kJ/mol
# Density = 1.908782 g / cm^3
# Si number density = 19.131366 Si / 1000 Ang^3
#
#
#
# Elastic Constant Matrix: (Units=GPa)
#
#
# Indices 1 2 3 4 5 6 
#
# 1 48.3947 28.0406 22.8244 0.0000 0.0000 0.0000
# 2 28.0406 60.2845 43.2733 0.0000 0.0000 0.0000
# 3 22.8244 43.2733 74.2618 0.0000 0.0000 0.0000
# 4 0.0000 0.0000 0.0000 54.0653 0.0000 0.0000
# 5 0.0000 0.0000 0.0000 0.0000 14.0976 0.0000
# 6 0.0000 0.0000 0.0000 0.0000 0.0000 24.2647
#
#
#
# Elastic Compliance Matrix: (Units=1/GPa)
#
#
# Indices 1 2 3 4 5 6 
#
# 1 0.028422 -0.011947 -0.001774 0.000000 0.000000 0.000000
# 2 -0.011947 0.033537 -0.015871 0.000000 0.000000 0.000000
# 3 -0.001774 -0.015871 0.023259 0.000000 0.000000 0.000000
# 4 0.000000 0.000000 0.000000 0.018496 0.000000 0.000000
# 5 0.000000 0.000000 0.000000 0.000000 0.070934 0.000000
# 6 0.000000 0.000000 0.000000 0.000000 0.000000 0.041212
#
#
# Mechanical properties :
#
#
# Convention : Reuss Voigt Hill
#
# Bulk Modulus (GPa) = 38.40903 41.24640 39.82772
# Shear Modulus (GPa) = 17.62286 24.40571 21.01428
#
# Velocity S-wave (km/s) = 3.03834 3.57556 3.31784
# Velocity P-wave (km/s) = 5.69462 6.21711 5.96159
#
# Compressibility (1/GPa) = 0.02603554
#
# Stress axis : x y z
#
# Youngs Moduli (GPa) = 35.18368 29.81765 42.99377
#
# Poissons Ratio (x) = 0.35623 0.07627
# Poissons Ratio (y) = 0.42033 0.68234
# Poissons Ratio (z) = 0.06242 0.47323
#
# Static dielectric constant tensor:
#      x y z
#    x 1.708690 0.000000 0.000000 
#    y 0.000000 1.640240 0.000000 
#    z 0.000000 0.000000 1.613740 
# 
# From -- ./inp_files/19455.got.cif
#   From: 2010.05.17/outbox.cif.g08.bks.cpg/sg51_10_cif.got.tgz:19455.got - 2010.06.03 11:52:47.
