data_PCOD9406516
_publ_section_title
;
Structure prediction by ZEFSAII (Michael W. Deem and Ramdas Pophale) SiO2 
 PCOD9406516
Probable space group: P M M A
;
_chemical_formula_sum "Si O2"
_cell_formula_units_Z 48
_cell_length_a 31.556579
_cell_length_b 8.795884
_cell_length_c 9.111081
_cell_angle_alpha 90.000000
_cell_angle_beta 90.000000
_cell_angle_gamma 90.000000
_cell_volume 2528.944607
_symmetry_space_group_name_H-M "P M M A"
_symmetry_group_IT_number 51
_symmetry_cell_setting 'orthorhombic'
loop_
_space_group_symop_operation_xyz
x,y,z
1/2-x,-y,z
1/2+x,-y,-z
-x,y,-z
-x,-y,-z
1/2+x,y,-z
1/2-x,y,z
x,-y,z
loop_
_atom_site_type_symbol
_atom_site_label
_atom_site_fract_x
_atom_site_fract_y
_atom_site_fract_z
Si Si1 0.832953 0.182802 0.672784
Si Si2 0.832013 0.183092 0.329562
Si Si3 0.582877 0.183059 0.155178
Si Si4 0.496644 0.817359 0.328158
Si Si5 0.415176 0.319123 0.169353
Si Si6 0.750000 0.682735 0.827353
Si Si7 0.250000 0.318156 0.828992
O O1 0.833523 0.225372 0.500835
O O2 0.874696 0.244500 0.752226
O O3 0.791550 0.250993 0.749669
O O4 0.831996 0.000000 0.682954
O O5 0.875421 0.226029 0.247423
O O6 0.791688 0.254669 0.250051
O O7 0.828282 0.000000 0.322280
O O8 0.540414 0.219402 0.245622
O O9 0.583708 0.000000 0.133950
O O10 0.582832 0.262296 0.998030
O O11 0.500000 0.779309 0.500000
O O12 0.457454 0.734971 0.252174
O O13 0.490022 0.000000 0.317106
O O14 0.411401 0.500000 0.173876
O O15 0.750000 0.500000 0.816545
O O16 0.750000 0.725181 0.999344
O O17 0.250000 0.500000 0.820127
#
# Coordination Sequence:
#
# PCOD9406516 Si02
#       7
#     8   8   8   8   8   4   4
#     4  11  23  41  64  89 117 155 202 247 293 349
#     4  10  22  40  63  89 115 148 197 249 292 342
#     4  10  21  39  63  88 116 154 198 245 295 348
#     4  10  21  40  65  90 117 153 199 247 294 351
#     4  12  25  39  58  88 124 159 196 242 295 352
#     4  11  24  41  60  90 126 157 194 241 296 354
#     4  11  24  39  58  86 122 159 192 233 290 354
#
# _framework density 18.980250999999999
#
# number of rings (size 3 to 8) (size 9 to 14) (size 15 to 20)
#    0.000    1.333    0.000    5.500    0.000   13.667 
#    0.000    1.667    0.000    0.000    0.000    0.000 
#    0.000    0.000    0.000    0.000    0.000    0.000 
#
# Total GULP energy -268552.942220 kJ/mol
# GULP energy per Si atom -5594.852963 kJ/mol
# Density = 1.893705 g / cm^3
# Si number density = 18.980251 Si / 1000 Ang^3
#
#
#
# Elastic Constant Matrix: (Units=GPa)
#
#
# Indices 1 2 3 4 5 6 
#
# 1 202.1468 73.2683 120.6546 0.0000 0.0000 0.0000
# 2 73.2683 58.5540 81.2457 0.0000 0.0000 0.0000
# 3 120.6546 81.2457 216.4610 0.0000 0.0000 0.0000
# 4 0.0000 0.0000 0.0000 -3.0785 0.0000 0.0000
# 5 0.0000 0.0000 0.0000 0.0000 43.8256 0.0000
# 6 0.0000 0.0000 0.0000 0.0000 0.0000 -3.6240
#
#
#
# Elastic Compliance Matrix: (Units=1/GPa)
#
#
# Indices 1 2 3 4 5 6 
#
# 1 0.009347 -0.009321 -0.001711 0.000000 0.000000 0.000000
# 2 -0.009321 0.044934 -0.011670 0.000000 0.000000 0.000000
# 3 -0.001711 -0.011670 0.009954 0.000000 0.000000 0.000000
# 4 0.000000 0.000000 0.000000 -0.324836 0.000000 0.000000
# 5 0.000000 0.000000 0.000000 0.000000 0.022818 0.000000
# 6 0.000000 0.000000 0.000000 0.000000 0.000000 -0.275942
#
#
# Mechanical properties :
#
#
# Convention : Reuss Voigt Hill
#
# Bulk Modulus (GPa) = 53.10664 114.16656 83.63660
# Shear Modulus (GPa) = -10.82146 20.89085 5.03470
#
# Velocity S-wave (km/s) = -2.39036 3.32122 1.63045
# Velocity P-wave (km/s) = 4.51910 8.65957 6.90690
#
# Compressibility (1/GPa) = 0.01883004
#
# Stress axis : x y z
#
# Youngs Moduli (GPa) = 106.98919 22.25498 100.46455
#
# Poissons Ratio (x) = 0.20744 0.17193
# Poissons Ratio (y) = 0.99724 1.17240
# Poissons Ratio (z) = 0.18309 0.25971
#
# Static dielectric constant tensor:
#      x y z
#    x 1.615190 0.000000 0.000000 
#    y 0.000000 1.634550 0.000000 
#    z 0.000000 0.000000 1.628800 
# 
# From -- ./inp_files/12965.got.cif
#   From: 2010.05.17/outbox.cif.g08.bks.cpg/sg51_7_cif.got.tgz:12965.got - 2010.06.03 11:52:47.
