data_PCOD9406171
_publ_section_title
;
Structure prediction by ZEFSAII (Michael W. Deem and Ramdas Pophale) SiO2 
 PCOD9406171
Probable space group: P M M A
;
_chemical_formula_sum "Si O2"
_cell_formula_units_Z 24
_cell_length_a 13.392962
_cell_length_b 10.961087
_cell_length_c 6.866539
_cell_angle_alpha 90.000000
_cell_angle_beta 90.000000
_cell_angle_gamma 90.000000
_cell_volume 1008.017687
_symmetry_space_group_name_H-M "P M M A"
_symmetry_group_IT_number 51
_symmetry_cell_setting 'orthorhombic'
loop_
_space_group_symop_operation_xyz
x,y,z
1/2-x,-y,z
1/2+x,-y,-z
-x,y,-z
-x,-y,-z
1/2+x,y,-z
1/2-x,y,z
x,-y,z
loop_
_atom_site_type_symbol
_atom_site_label
_atom_site_fract_x
_atom_site_fract_y
_atom_site_fract_z
Si Si1 0.362059 0.181513 0.180045
Si Si2 0.590431 0.863946 0.271717
Si Si3 0.617186 0.365096 0.525808
O O1 0.250000 0.134285 0.227479
O O2 0.467671 0.137193 0.275658
O O3 0.360233 0.321367 0.255202
O O4 0.379512 0.159114 0.952493
O O5 0.638985 0.753397 0.392804
O O6 0.622633 0.000000 0.329537
O O7 0.500000 0.374168 0.500000
O O8 0.653903 0.500000 0.478330
#
# Coordination Sequence:
#
# PCOD9406171 Si02
#       3
#     8   8   8
#     4  10  21  37  59  87 120 159 202 247 298 357
#     4  10  22  39  60  89 123 157 198 250 304 358
#     4   9  20  39  61  85 116 155 198 247 303 359
#
# _framework density 23.809104999999999
#
# number of rings (size 3 to 8) (size 9 to 14) (size 15 to 20)
#    0.000    2.333    0.000    2.000    0.000   13.333 
#    0.000    6.667    0.000    0.000    0.000    0.000 
#    0.000    0.000    0.000    0.000    0.000    0.000 
#
# Total GULP energy -133630.213945 kJ/mol
# GULP energy per Si atom -5567.925581 kJ/mol
# Density = 2.375491 g / cm^3
# Si number density = 23.809105 Si / 1000 Ang^3
#
#
#
# Elastic Constant Matrix: (Units=GPa)
#
#
# Indices 1 2 3 4 5 6 
#
# 1 208.3094 34.9067 14.9992 0.0000 0.0000 0.0000
# 2 34.9067 266.2867 80.6333 0.0000 0.0000 0.0000
# 3 14.9992 80.6333 79.0977 0.0000 0.0000 0.0000
# 4 0.0000 0.0000 0.0000 11.7511 0.0000 0.0000
# 5 0.0000 0.0000 0.0000 0.0000 -33.8221 0.0000
# 6 0.0000 0.0000 0.0000 0.0000 0.0000 -74.3239
#
#
#
# Elastic Compliance Matrix: (Units=1/GPa)
#
#
# Indices 1 2 3 4 5 6 
#
# 1 0.004917 -0.000524 -0.000398 0.000000 0.000000 0.000000
# 2 -0.000524 0.005488 -0.005495 0.000000 0.000000 0.000000
# 3 -0.000398 -0.005495 0.018320 0.000000 0.000000 0.000000
# 4 0.000000 0.000000 0.000000 0.085098 0.000000 0.000000
# 5 0.000000 0.000000 0.000000 0.000000 -0.029566 0.000000
# 6 0.000000 0.000000 0.000000 0.000000 0.000000 -0.013455
#
#
# Mechanical properties :
#
#
# Convention : Reuss Voigt Hill
#
# Bulk Modulus (GPa) = 62.93203 90.53025 76.73114
# Shear Modulus (GPa) = 56.22153 8.93133 32.57643
#
# Velocity S-wave (km/s) = 4.86464 1.93891 3.70298
# Velocity P-wave (km/s) = 7.61855 6.56646 7.11198
#
# Compressibility (1/GPa) = 0.01589016
#
# Stress axis : x y z
#
# Youngs Moduli (GPa) = 203.37486 182.21525 54.58517
#
# Poissons Ratio (x) = 0.09547 0.02174
# Poissons Ratio (y) = 0.10656 0.29996
# Poissons Ratio (z) = 0.08100 1.00131
#
# Static dielectric constant tensor:
#      x y z
#    x 1.920950 0.000000 0.000000 
#    y 0.000000 1.915050 0.000000 
#    z 0.000000 0.000000 1.917730 
# 
# From -- ./inp_files/7259.got.cif
#   From: 2010.05.17/outbox.cif.g08.bks.cpg/sg51_4_cif.got.tgz:7259.got - 2010.06.03 11:52:47.
