data_PCOD9406570
_publ_section_title
;
Structure prediction by ZEFSAII (Michael W. Deem and Ramdas Pophale) SiO2 
 PCOD9406570
Probable space group: P M M A
;
_chemical_formula_sum "Si O2"
_cell_formula_units_Z 40
_cell_length_a 9.925089
_cell_length_b 12.992464
_cell_length_c 15.763834
_cell_angle_alpha 90.000000
_cell_angle_beta 90.000000
_cell_angle_gamma 90.000000
_cell_volume 2032.767857
_symmetry_space_group_name_H-M "P M M A"
_symmetry_group_IT_number 51
_symmetry_cell_setting 'orthorhombic'
loop_
_space_group_symop_operation_xyz
x,y,z
1/2-x,-y,z
1/2+x,-y,-z
-x,y,-z
-x,-y,-z
1/2+x,y,-z
1/2-x,y,z
x,-y,z
loop_
_atom_site_type_symbol
_atom_site_label
_atom_site_fract_x
_atom_site_fract_y
_atom_site_fract_z
Si Si1 0.912790 0.809496 0.085842
Si Si2 0.590603 0.000000 0.631590
Si Si3 0.250000 0.616382 0.658233
Si Si4 0.250000 0.303499 0.483720
Si Si5 0.467833 0.374614 0.788785
Si Si6 0.250000 0.622717 0.290880
Si Si7 0.500000 0.161830 0.500000
Si Si8 0.415310 0.000000 0.165711
O O1 0.750000 0.833450 0.075031
O O2 0.921310 0.701200 0.136811
O O3 0.998265 0.900902 0.132892
O O4 0.000000 0.796816 0.000000
O O5 0.521346 0.094800 0.584001
O O6 0.579723 0.000000 0.732094
O O7 0.750000 0.000000 0.609315
O O8 0.250000 0.500000 0.687373
O O9 0.250000 0.613285 0.557651
O O10 0.381387 0.657545 0.705551
O O11 0.250000 0.333624 0.385873
O O12 0.374866 0.234311 0.505976
O O13 0.459470 0.500000 0.805821
O O14 0.619751 0.349467 0.762887
O O15 0.250000 0.500000 0.302009
O O16 0.250000 0.000000 0.143197
#
# Coordination Sequence:
#
# PCOD9406570 Si02
#       8
#     8   4   4   4   8   4   4   4
#     4  12  27  47  73 105 138 172 220 279 341 410
#     4  10  23  44  60  86 127 169 219 271 332 391
#     4  10  21  40  62  93 135 179 222 271 327 383
#     4  12  23  35  64  94 132 172 224 271 329 384
#     4  10  23  43  69 100 139 181 227 278 331 400
#     4  10  23  40  62  95 137 181 226 273 327 395
#     4  11  24  38  57  92 126 168 219 282 322 383
#     4  11  27  47  76  97 133 180 225 275 340 411
#
# _framework density 19.677603999999999
#
# number of rings (size 3 to 8) (size 9 to 14) (size 15 to 20)
#    0.000    1.200    2.000    2.700    8.400    0.400 
#    1.800    4.000    0.000    0.000    0.000    0.000 
#    0.000    0.000    0.000    0.000    0.000    0.000 
#
# Total GULP energy -222806.701284 kJ/mol
# GULP energy per Si atom -5570.167532 kJ/mol
# Density = 1.963282 g / cm^3
# Si number density = 19.677604 Si / 1000 Ang^3
#
#
#
# Elastic Constant Matrix: (Units=GPa)
#
#
# Indices 1 2 3 4 5 6 
#
# 1 181.7798 48.6807 40.8401 0.0000 0.0000 0.0000
# 2 48.6807 71.2201 41.6068 0.0000 0.0000 0.0000
# 3 40.8401 41.6068 104.8043 0.0000 0.0000 0.0000
# 4 0.0000 0.0000 0.0000 40.6196 0.0000 0.0000
# 5 0.0000 0.0000 0.0000 0.0000 31.3912 0.0000
# 6 0.0000 0.0000 0.0000 0.0000 0.0000 456.0261
#
#
#
# Elastic Compliance Matrix: (Units=1/GPa)
#
#
# Indices 1 2 3 4 5 6 
#
# 1 0.006822 -0.004049 -0.001051 0.000000 0.000000 0.000000
# 2 -0.004049 0.020684 -0.006634 0.000000 0.000000 0.000000
# 3 -0.001051 -0.006634 0.012585 0.000000 0.000000 0.000000
# 4 0.000000 0.000000 0.000000 0.024619 0.000000 0.000000
# 5 0.000000 0.000000 0.000000 0.000000 0.031856 0.000000
# 6 0.000000 0.000000 0.000000 0.000000 0.000000 0.002193
#
#
# Mechanical properties :
#
#
# Convention : Reuss Voigt Hill
#
# Bulk Modulus (GPa) = 60.15623 68.89548 64.52586
# Shear Modulus (GPa) = 39.13429 120.71915 79.92672
#
# Velocity S-wave (km/s) = 4.46440 7.84103 6.38015
# Velocity P-wave (km/s) = 7.56385 10.81960 9.33476
#
# Compressibility (1/GPa) = 0.01662338
#
# Stress axis : x y z
#
# Youngs Moduli (GPa) = 146.59500 48.34705 79.46203
#
# Poissons Ratio (x) = 0.19575 0.08350
# Poissons Ratio (y) = 0.59353 0.52712
# Poissons Ratio (z) = 0.15405 0.32072
#
# Static dielectric constant tensor:
#      x y z
#    x 1.732540 0.000000 0.000000 
#    y 0.000000 1.609450 0.000000 
#    z 0.000000 0.000000 1.674010 
# 
# From -- ./inp_files/20646.got.cif
#   From: 2010.05.17/outbox.cif.g08.bks.cpg/sg51_11_cif.got.tgz:20646.got - 2010.06.03 11:52:47.
