data_PCOD9406361
_publ_section_title
;
Structure prediction by ZEFSAII (Michael W. Deem and Ramdas Pophale) SiO2 
 PCOD9406361
Probable space group: P M M A
;
_chemical_formula_sum "Si O2"
_cell_formula_units_Z 56
_cell_length_a 8.298441
_cell_length_b 21.547239
_cell_length_c 15.040523
_cell_angle_alpha 90.000000
_cell_angle_beta 90.000000
_cell_angle_gamma 90.000000
_cell_volume 2689.373230
_symmetry_space_group_name_H-M "P M M A"
_symmetry_group_IT_number 51
_symmetry_cell_setting 'orthorhombic'
loop_
_space_group_symop_operation_xyz
x,y,z
1/2-x,-y,z
1/2+x,-y,-z
-x,y,-z
-x,-y,-z
1/2+x,y,-z
1/2-x,y,z
x,-y,z
loop_
_atom_site_type_symbol
_atom_site_label
_atom_site_fract_x
_atom_site_fract_y
_atom_site_fract_z
Si Si1 0.565220 0.785392 0.759478
Si Si2 0.058899 0.135542 0.598216
Si Si3 0.937858 0.867071 0.093079
Si Si4 0.052691 0.000000 0.670318
Si Si5 0.558616 0.000000 0.871801
Si Si6 0.443867 0.570751 0.216218
Si Si7 0.442231 0.572257 0.593717
Si Si8 0.444884 0.316721 0.100728
O O1 0.750000 0.769657 0.740699
O O2 0.490375 0.811902 0.669342
O O3 0.547154 0.842369 0.827596
O O4 0.495190 0.730436 0.821903
O O5 0.250000 0.132696 0.598865
O O6 0.004056 0.065078 0.623731
O O7 0.000000 0.150843 0.500000
O O8 0.750000 0.852972 0.107784
O O9 0.967824 0.939955 0.092318
O O10 0.000000 0.840356 0.000000
O O11 0.970807 0.000000 0.766224
O O12 0.250000 0.000000 0.679668
O O13 0.750000 0.000000 0.891915
O O14 0.250000 0.568556 0.215933
O O15 0.505728 0.500000 0.208200
O O16 0.495128 0.597651 0.312522
O O17 0.494544 0.615418 0.136347
O O18 0.500000 0.600245 0.500000
O O19 0.250000 0.572702 0.594617
O O20 0.500069 0.500000 0.593578
O O21 0.250000 0.312243 0.100570
O O22 0.500000 0.305385 0.000000
#
# Coordination Sequence:
#
# PCOD9406361 Si02
#       8
#     8   8   8   4   4   8   8   8
#     4  11  23  41  62  86 116 152 198 246 297 354
#     4  11  23  40  64  92 124 160 201 247 300 355
#     4  12  24  39  58  83 116 153 197 245 298 353
#     4  10  21  38  60  89 124 160 199 246 297 356
#     4  12  23  36  57  85 118 156 196 242 297 350
#     4   9  18  35  58  85 119 157 196 243 300 358
#     4   9  16  27  47  78 114 151 189 229 276 333
#     4  10  23  41  62  88 118 153 196 246 298 361
#
# _framework density 20.822696000000001
#
# number of rings (size 3 to 8) (size 9 to 14) (size 15 to 20)
#    0.000    1.571    1.429    4.071    0.000    5.429 
#    0.000    0.714    0.000    0.000    0.000    0.000 
#    0.000    0.000    0.000    0.000    0.000    0.000 
#
# Total GULP energy -312531.426018 kJ/mol
# GULP energy per Si atom -5580.918322 kJ/mol
# Density = 2.077530 g / cm^3
# Si number density = 20.822696 Si / 1000 Ang^3
#
#
#
# Elastic Constant Matrix: (Units=GPa)
#
#
# Indices 1 2 3 4 5 6 
#
# 1 34.6910 8.2794 18.8834 0.0000 0.0000 0.0000
# 2 8.2794 88.7604 58.5425 0.0000 0.0000 0.0000
# 3 18.8834 58.5425 176.6308 0.0000 0.0000 0.0000
# 4 0.0000 0.0000 0.0000 -165.8423 0.0000 0.0000
# 5 0.0000 0.0000 0.0000 0.0000 35.1918 0.0000
# 6 0.0000 0.0000 0.0000 0.0000 0.0000 7.9274
#
#
#
# Elastic Compliance Matrix: (Units=1/GPa)
#
#
# Indices 1 2 3 4 5 6 
#
# 1 0.030662 -0.000893 -0.002982 0.000000 0.000000 0.000000
# 2 -0.000893 0.014444 -0.004692 0.000000 0.000000 0.000000
# 3 -0.002982 -0.004692 0.007535 0.000000 0.000000 0.000000
# 4 0.000000 0.000000 0.000000 -0.006030 0.000000 0.000000
# 5 0.000000 0.000000 0.000000 0.000000 0.028416 0.000000
# 6 0.000000 0.000000 0.000000 0.000000 0.000000 0.126145
#
#
# Mechanical properties :
#
#
# Convention : Reuss Voigt Hill
#
# Bulk Modulus (GPa) = 28.16304 52.38807 40.27556
# Shear Modulus (GPa) = 21.72560 -10.25282 5.73639
#
# Velocity S-wave (km/s) = 3.23362 -2.22139 1.66158
# Velocity P-wave (km/s) = 5.24368 4.31675 4.80263
#
# Compressibility (1/GPa) = 0.03550753
#
# Stress axis : x y z
#
# Youngs Moduli (GPa) = 32.61332 69.23212 132.70698
#
# Poissons Ratio (x) = 0.06185 0.39573
# Poissons Ratio (y) = 0.02913 0.62264
# Poissons Ratio (z) = 0.09725 0.32483
#
# Static dielectric constant tensor:
#      x y z
#    x 1.709910 0.000000 0.000000 
#    y 0.000000 1.818860 0.000000 
#    z 0.000000 0.000000 1.724950 
# 
# From -- ./inp_files/21936.got.cif
#   From: 2010.05.17/outbox.cif.g08.bks.cpg/sg51_11_cif.got.tgz:21936.got - 2010.06.03 11:52:47.
