data_PCOD9406880
_publ_section_title
;
Structure prediction by ZEFSAII (Michael W. Deem and Ramdas Pophale) SiO2 
 PCOD9406880
Probable space group: P M M A
;
_chemical_formula_sum "Si O2"
_cell_formula_units_Z 48
_cell_length_a 31.605672
_cell_length_b 8.658853
_cell_length_c 9.139744
_cell_angle_alpha 90.000000
_cell_angle_beta 90.000000
_cell_angle_gamma 90.000000
_cell_volume 2501.263393
_symmetry_space_group_name_H-M "P M M A"
_symmetry_group_IT_number 51
_symmetry_cell_setting 'orthorhombic'
loop_
_space_group_symop_operation_xyz
x,y,z
1/2-x,-y,z
1/2+x,-y,-z
-x,y,-z
-x,-y,-z
1/2+x,y,-z
1/2-x,y,z
x,-y,z
loop_
_atom_site_type_symbol
_atom_site_label
_atom_site_fract_x
_atom_site_fract_y
_atom_site_fract_z
Si Si1 0.918894 0.313787 0.170567
Si Si2 0.332276 0.314768 0.664654
Si Si3 0.250000 0.812221 0.165109
Si Si4 0.415772 0.684928 0.171328
Si Si5 0.750000 0.814317 0.172714
Si Si6 0.665685 0.814469 0.662916
Si Si7 0.998504 0.815254 0.671085
O O1 0.923512 0.500000 0.179543
O O2 0.875200 0.270635 0.250155
O O3 0.958618 0.237295 0.250053
O O4 0.917303 0.271158 0.999695
O O5 0.329377 0.500000 0.664390
O O6 0.291619 0.246357 0.746075
O O7 0.334198 0.254197 0.499418
O O8 0.292221 0.763204 0.250098
O O9 0.250000 0.000000 0.164278
O O10 0.250000 0.761919 0.996532
O O11 0.411990 0.500000 0.180286
O O12 0.375678 0.760278 0.250414
O O13 0.458543 0.738032 0.250433
O O14 0.750000 0.000000 0.176167
O O15 0.666048 0.000000 0.653430
O O16 0.000000 0.771388 0.500000
O O17 0.994183 0.000000 0.680160
#
# Coordination Sequence:
#
# PCOD9406880 Si02
#       7
#     8   8   4   8   4   8   8
#     4  10  23  41  61  86 118 156 197 243 296 353
#     4  11  23  40  61  88 121 157 196 240 293 349
#     4   9  21  39  60  86 118 155 194 241 294 344
#     4  11  23  40  61  87 119 155 196 243 296 352
#     4  11  22  39  62  88 118 155 198 243 292 344
#     4  11  22  39  62  89 120 156 199 244 293 350
#     4  11  24  40  60  88 119 153 196 244 294 351
#
# _framework density 19.190304000000001
#
# number of rings (size 3 to 8) (size 9 to 14) (size 15 to 20)
#    0.000    1.333    0.000    5.250    0.000    9.333 
#    0.000    3.750    0.000    0.000    0.000    0.000 
#    0.000    0.000    0.000    0.000    0.000    0.000 
#
# Total GULP energy -268551.235017 kJ/mol
# GULP energy per Si atom -5594.817396 kJ/mol
# Density = 1.914663 g / cm^3
# Si number density = 19.190304 Si / 1000 Ang^3
#
#
#
# Elastic Constant Matrix: (Units=GPa)
#
#
# Indices 1 2 3 4 5 6 
#
# 1 189.8268 52.1545 107.0721 0.0000 0.0000 0.0000
# 2 52.1545 51.2820 54.3339 0.0000 0.0000 0.0000
# 3 107.0721 54.3339 203.5628 0.0000 0.0000 0.0000
# 4 0.0000 0.0000 0.0000 32.0513 0.0000 0.0000
# 5 0.0000 0.0000 0.0000 0.0000 44.3706 0.0000
# 6 0.0000 0.0000 0.0000 0.0000 0.0000 30.7230
#
#
#
# Elastic Compliance Matrix: (Units=1/GPa)
#
#
# Indices 1 2 3 4 5 6 
#
# 1 0.008446 -0.005414 -0.002998 0.000000 0.000000 0.000000
# 2 -0.005414 0.030659 -0.005336 0.000000 0.000000 0.000000
# 3 -0.002998 -0.005336 0.007913 0.000000 0.000000 0.000000
# 4 0.000000 0.000000 0.000000 0.031200 0.000000 0.000000
# 5 0.000000 0.000000 0.000000 0.000000 0.022537 0.000000
# 6 0.000000 0.000000 0.000000 0.000000 0.000000 0.032549
#
#
# Mechanical properties :
#
#
# Convention : Reuss Voigt Hill
#
# Bulk Modulus (GPa) = 51.21786 96.86583 74.04185
# Shear Modulus (GPa) = 29.88500 36.83638 33.36069
#
# Velocity S-wave (km/s) = 3.95054 4.38600 4.17395
# Velocity P-wave (km/s) = 6.89612 8.73128 7.86739
#
# Compressibility (1/GPa) = 0.01952444
#
# Stress axis : x y z
#
# Youngs Moduli (GPa) = 118.39620 32.61643 126.36844
#
# Poissons Ratio (x) = 0.17658 0.37880
# Poissons Ratio (y) = 0.64099 0.67427
# Poissons Ratio (z) = 0.35490 0.17403
#
# Static dielectric constant tensor:
#      x y z
#    x 1.623230 0.000000 0.000000 
#    y 0.000000 1.652410 0.000000 
#    z 0.000000 0.000000 1.636880 
# 
# From -- ./inp_files/12911.got.cif
#   From: 2010.05.17/outbox.cif.g08.bks.cpg/sg51_7_cif.got.tgz:12911.got - 2010.06.03 11:52:47.
