data_PCOD9406988
_publ_section_title
;
Structure prediction by ZEFSAII (Michael W. Deem and Ramdas Pophale) SiO2 
 PCOD9406988
Probable space group: P M M A
;
_chemical_formula_sum "Si O2"
_cell_formula_units_Z 64
_cell_length_a 14.320719
_cell_length_b 9.000352
_cell_length_c 26.890980
_cell_angle_alpha 90.000000
_cell_angle_beta 90.000000
_cell_angle_gamma 90.000000
_cell_volume 3466.019068
_symmetry_space_group_name_H-M "P M M A"
_symmetry_group_IT_number 51
_symmetry_cell_setting 'orthorhombic'
loop_
_space_group_symop_operation_xyz
x,y,z
1/2-x,-y,z
1/2+x,-y,-z
-x,y,-z
-x,-y,-z
1/2+x,y,-z
1/2-x,y,z
x,-y,z
loop_
_atom_site_type_symbol
_atom_site_label
_atom_site_fract_x
_atom_site_fract_y
_atom_site_fract_z
Si Si1 0.357710 0.178856 0.918696
Si Si2 0.856208 0.321108 0.371133
Si Si3 0.533378 0.677436 0.876873
Si Si4 0.459360 0.319040 0.322628
Si Si5 0.137503 0.674418 0.424775
Si Si6 0.862272 0.827445 0.967402
Si Si7 0.857849 0.318540 0.777652
Si Si8 0.136096 0.169591 0.525759
O O1 0.250000 0.222214 0.910293
O O2 0.430954 0.253071 0.882144
O O3 0.362629 0.000000 0.915695
O O4 0.383677 0.218496 0.975884
O O5 0.750000 0.270029 0.361556
O O6 0.855130 0.500000 0.373132
O O7 0.887521 0.262696 0.425176
O O8 0.932959 0.275226 0.330699
O O9 0.527334 0.500000 0.876330
O O10 0.590378 0.730891 0.925138
O O11 0.587494 0.727100 0.827258
O O12 0.455857 0.500000 0.321638
O O13 0.405127 0.273099 0.372666
O O14 0.410192 0.267613 0.272314
O O15 0.250000 0.685967 0.421733
O O16 0.114523 0.500000 0.431066
O O17 0.104509 0.761465 0.473567
O O18 0.750000 0.821790 0.962648
O O19 0.891377 0.000000 0.961354
O O20 0.750000 0.270596 0.778423
O O21 0.857369 0.500000 0.777094
O O22 0.250000 0.171414 0.523861
O O23 0.105650 0.000000 0.531112
#
# Coordination Sequence:
#
# PCOD9406988 Si02
#       8
#     8   8   8   8   8   8   8   8
#     4   9  19  36  55  74 101 140 181 216 251 297
#     4   9  17  30  48  69  92 117 151 197 239 275
#     4  11  21  31  49  79 110 138 169 210 262 313
#     4   9  17  30  49  70  90 120 163 202 237 281
#     4   9  16  27  46  70  92 116 152 197 236 271
#     4   9  18  33  53  76 103 139 181 218 252 298
#     4   9  18  33  51  73 103 133 161 199 249 302
#     4   9  17  29  45  66  95 128 153 178 226 291
#
# _framework density 18.464987000000001
#
# number of rings (size 3 to 8) (size 9 to 14) (size 15 to 20)
#    0.000    2.750    0.000    2.625    0.000    6.500 
#    0.000    5.000    0.000    5.250    0.000    3.500 
#    0.000    0.000    0.000    0.000    0.000    0.000 
#
# Total GULP energy -357081.072985 kJ/mol
# GULP energy per Si atom -5579.391765 kJ/mol
# Density = 1.842296 g / cm^3
# Si number density = 18.464987 Si / 1000 Ang^3
#
#
#
# Elastic Constant Matrix: (Units=GPa)
#
#
# Indices 1 2 3 4 5 6 
#
# 1 114.6392 26.4435 94.8068 0.0000 0.0000 0.0000
# 2 26.4435 16.3362 28.7009 0.0000 0.0000 0.0000
# 3 94.8068 28.7009 130.8477 0.0000 0.0000 0.0000
# 4 0.0000 0.0000 0.0000 -21.7135 0.0000 0.0000
# 5 0.0000 0.0000 0.0000 0.0000 35.4450 0.0000
# 6 0.0000 0.0000 0.0000 0.0000 0.0000 20.0563
#
#
#
# Elastic Compliance Matrix: (Units=1/GPa)
#
#
# Indices 1 2 3 4 5 6 
#
# 1 0.023381 -0.013152 -0.014056 0.000000 0.000000 0.000000
# 2 -0.013152 0.106993 -0.013939 0.000000 0.000000 0.000000
# 3 -0.014056 -0.013939 0.020884 0.000000 0.000000 0.000000
# 4 0.000000 0.000000 0.000000 -0.046054 0.000000 0.000000
# 5 0.000000 0.000000 0.000000 0.000000 0.028213 0.000000
# 6 0.000000 0.000000 0.000000 0.000000 0.000000 0.049860
#
#
# Mechanical properties :
#
#
# Convention : Reuss Voigt Hill
#
# Bulk Modulus (GPa) = 14.50036 62.41393 38.45714
# Shear Modulus (GPa) = 17.32747 14.21569 15.77158
#
# Velocity S-wave (km/s) = 3.06665 2.77767 2.92573
# Velocity P-wave (km/s) = 4.51764 6.64544 5.68203
#
# Compressibility (1/GPa) = 0.06896381
#
# Stress axis : x y z
#
# Youngs Moduli (GPa) = 42.76915 9.34644 47.88243
#
# Poissons Ratio (x) = 0.12293 0.67305
# Poissons Ratio (y) = 0.56251 0.66743
# Poissons Ratio (z) = 0.60117 0.13028
#
# Static dielectric constant tensor:
#      x y z
#    x 1.679190 0.000000 0.000000 
#    y 0.000000 1.619600 0.000000 
#    z 0.000000 0.000000 1.608500 
# 
# From -- ./inp_files/35682.got.cif
#   From: 2010.05.17/outbox.cif.g08.bks.cpg/sg51_18_cif.got.tgz:35682.got - 2010.06.03 11:52:47.
