data_PCOD9406220
_publ_section_title
;
Structure prediction by ZEFSAII (Michael W. Deem and Ramdas Pophale) SiO2 
 PCOD9406220
Probable space group: P M M A
;
_chemical_formula_sum "Si O2"
_cell_formula_units_Z 64
_cell_length_a 16.444886
_cell_length_b 15.131353
_cell_length_c 12.696910
_cell_angle_alpha 90.000000
_cell_angle_beta 90.000000
_cell_angle_gamma 90.000000
_cell_volume 3159.414969
_symmetry_space_group_name_H-M "P M M A"
_symmetry_group_IT_number 51
_symmetry_cell_setting 'orthorhombic'
loop_
_space_group_symop_operation_xyz
x,y,z
1/2-x,-y,z
1/2+x,-y,-z
-x,y,-z
-x,-y,-z
1/2+x,y,-z
1/2-x,y,z
x,-y,z
loop_
_atom_site_type_symbol
_atom_site_label
_atom_site_fract_x
_atom_site_fract_y
_atom_site_fract_z
Si Si1 0.651597 0.398573 0.913180
Si Si2 0.341843 0.601045 0.495743
Si Si3 0.848235 0.901394 0.997655
Si Si4 0.425399 0.282537 0.666101
Si Si5 0.348125 0.720743 0.890795
Si Si6 0.890436 0.902845 0.756857
Si Si7 0.452616 0.903815 0.611492
Si Si8 0.617451 0.288150 0.704094
O O1 0.750000 0.400533 0.913948
O O2 0.622771 0.500000 0.906452
O O3 0.627162 0.339518 0.813627
O O4 0.625753 0.348568 0.019518
O O5 0.250000 0.601855 0.538459
O O6 0.365455 0.500000 0.474489
O O7 0.398891 0.647137 0.580143
O O8 0.342943 0.656031 0.388377
O O9 0.750000 0.895794 0.980425
O O10 0.871576 0.819618 0.071017
O O11 0.865793 0.000000 0.040141
O O12 0.889789 0.893754 0.883259
O O13 0.386530 0.300236 0.778998
O O14 0.400501 0.183835 0.628303
O O15 0.522261 0.282913 0.676585
O O16 0.250000 0.718294 0.883397
O O17 0.851244 0.812611 0.713966
O O18 0.979525 0.905027 0.703867
O O19 0.853396 0.000000 0.733514
O O20 0.500000 0.895534 0.500000
O O21 0.411122 0.000000 0.611424
#
# Coordination Sequence:
#
# PCOD9406220 Si02
#       8
#     8   8   8   8   8   8   8   8
#     4  10  21  38  59  82 111 152 198 241 293 355
#     4  11  25  44  65  87 113 152 198 243 299 365
#     4   9  17  31  53  81 114 154 201 248 289 336
#     4  11  23  38  60  89 121 153 193 242 297 351
#     4  10  21  38  57  79 115 160 198 237 290 354
#     4   9  17  31  53  83 118 155 191 232 288 347
#     4   9  18  35  57  82 117 158 196 234 286 352
#     4  11  21  37  62  91 120 148 191 249 301 342
#
# _framework density 20.256914999999999
#
# number of rings (size 3 to 8) (size 9 to 14) (size 15 to 20)
#    0.000    2.000    1.250    3.000    0.000    4.500 
#    0.000    1.875    0.000    5.625    0.000    0.000 
#    0.000    0.000    0.000    0.000    0.000    0.000 
#
# Total GULP energy -357303.481584 kJ/mol
# GULP energy per Si atom -5582.866900 kJ/mol
# Density = 2.021081 g / cm^3
# Si number density = 20.256915 Si / 1000 Ang^3
#
#
#
# Elastic Constant Matrix: (Units=GPa)
#
#
# Indices 1 2 3 4 5 6 
#
# 1 25.7687 20.9680 13.7415 0.0000 0.0000 0.0000
# 2 20.9680 184.8861 51.4829 0.0000 0.0000 0.0000
# 3 13.7415 51.4829 88.1288 0.0000 0.0000 0.0000
# 4 0.0000 0.0000 0.0000 -17.1215 0.0000 0.0000
# 5 0.0000 0.0000 0.0000 0.0000 32.5476 0.0000
# 6 0.0000 0.0000 0.0000 0.0000 0.0000 16.1030
#
#
#
# Elastic Compliance Matrix: (Units=1/GPa)
#
#
# Indices 1 2 3 4 5 6 
#
# 1 0.044357 -0.003708 -0.004750 0.000000 0.000000 0.000000
# 2 -0.003708 0.006769 -0.003376 0.000000 0.000000 0.000000
# 3 -0.004750 -0.003376 0.014060 0.000000 0.000000 0.000000
# 4 0.000000 0.000000 0.000000 -0.058406 0.000000 0.000000
# 5 0.000000 0.000000 0.000000 0.000000 0.030724 0.000000
# 6 0.000000 0.000000 0.000000 0.000000 0.000000 0.062100
#
#
# Mechanical properties :
#
#
# Convention : Reuss Voigt Hill
#
# Bulk Modulus (GPa) = 24.08623 52.35204 38.21913
# Shear Modulus (GPa) = 36.46621 20.47857 28.47239
#
# Velocity S-wave (km/s) = 4.24746 3.18298 3.75315
# Velocity P-wave (km/s) = 5.99756 6.27763 6.13919
#
# Compressibility (1/GPa) = 0.04151749
#
# Stress axis : x y z
#
# Youngs Moduli (GPa) = 22.54434 147.72315 71.12295
#
# Poissons Ratio (x) = 0.54772 0.33786
# Poissons Ratio (y) = 0.08359 0.24014
# Poissons Ratio (z) = 0.10709 0.49877
#
# Static dielectric constant tensor:
#      x y z
#    x 1.712430 0.000000 0.000000 
#    y 0.000000 1.758080 0.000000 
#    z 0.000000 0.000000 1.676640 
# 
# From -- ./inp_files/17591.got.cif
#   From: 2010.05.17/outbox.cif.g08.bks.cpg/sg51_9_cif.got.tgz:17591.got - 2010.06.03 11:52:47.
