data_PCOD9406964
_publ_section_title
;
Structure prediction by ZEFSAII (Michael W. Deem and Ramdas Pophale) SiO2 
 PCOD9406964
Probable space group: P M M A
;
_chemical_formula_sum "Si O2"
_cell_formula_units_Z 58
_cell_length_a 16.105814
_cell_length_b 15.558392
_cell_length_c 12.658531
_cell_angle_alpha 90.000000
_cell_angle_beta 90.000000
_cell_angle_gamma 90.000000
_cell_volume 3171.981884
_symmetry_space_group_name_H-M "P M M A"
_symmetry_group_IT_number 51
_symmetry_cell_setting 'orthorhombic'
loop_
_space_group_symop_operation_xyz
x,y,z
1/2-x,-y,z
1/2+x,-y,-z
-x,y,-z
-x,-y,-z
1/2+x,y,-z
1/2-x,y,z
x,-y,z
loop_
_atom_site_type_symbol
_atom_site_label
_atom_site_fract_x
_atom_site_fract_y
_atom_site_fract_z
Si Si1 0.613471 0.901585 0.399191
Si Si2 0.351379 0.094195 0.942720
Si Si3 0.415290 0.902529 0.361677
Si Si4 0.111402 0.629254 0.090950
Si Si5 0.150680 0.178195 0.155222
Si Si6 0.346173 0.233644 0.776347
Si Si7 0.750000 0.500000 0.837944
Si Si8 0.920906 0.596693 0.149290
O O1 0.514393 0.900862 0.378243
O O2 0.624769 0.884594 0.523856
O O3 0.649817 0.826755 0.326678
O O4 0.642558 0.000000 0.376032
O O5 0.250000 0.095420 0.936782
O O6 0.381143 0.171665 0.868954
O O7 0.379373 0.000000 0.906537
O O8 0.374748 0.111257 0.063710
O O9 0.389488 0.841223 0.267455
O O10 0.391324 0.000000 0.332180
O O11 0.125640 0.729080 0.112001
O O12 0.177746 0.574282 0.153977
O O13 0.018688 0.604400 0.125484
O O14 0.121341 0.609598 0.965987
O O15 0.250000 0.173670 0.165681
O O16 0.250000 0.252814 0.799689
O O17 0.393308 0.324239 0.777146
O O18 0.901824 0.500000 0.187340
#
# Coordination Sequence:
#
# PCOD9406964 Si02
#       8
#     8   8   8   8   8   8   2   8
#     4   9  19  38  58  78 108 147 193 239 282 336
#     4   9  18  31  46  71 113 151 179 216 269 330
#     4   9  19  36  57  79 108 148 190 235 286 334
#     4  11  21  35  55  81 113 146 186 232 281 336
#     4  11  20  31  52  82 113 145 179 227 281 334
#     4  11  22  34  55  82 112 151 192 232 281 332
#     4  12  20  34  60  80 108 148 188 238 282 334
#     4  11  22  37  54  80 112 151 189 232 279 337
#
# _framework density 18.285098999999999
#
# number of rings (size 3 to 8) (size 9 to 14) (size 15 to 20)
#    0.000    1.793    3.448    2.897    0.966    2.483 
#    0.000    1.379    0.000    3.310    1.793    1.931 
#    0.000    0.000    0.000    0.000    0.000    0.000 
#
# Total GULP energy -323253.507177 kJ/mol
# GULP energy per Si atom -5573.336331 kJ/mol
# Density = 1.824348 g / cm^3
# Si number density = 18.285099 Si / 1000 Ang^3
#
#
#
# Elastic Constant Matrix: (Units=GPa)
#
#
# Indices 1 2 3 4 5 6 
#
# 1 31.0093 21.3601 10.9242 0.0000 0.0000 0.0000
# 2 21.3601 117.5307 26.9609 0.0000 0.0000 0.0000
# 3 10.9242 26.9609 52.5690 0.0000 0.0000 0.0000
# 4 0.0000 0.0000 0.0000 20.9818 0.0000 0.0000
# 5 0.0000 0.0000 0.0000 0.0000 15.6135 0.0000
# 6 0.0000 0.0000 0.0000 0.0000 0.0000 25.5448
#
#
#
# Elastic Compliance Matrix: (Units=1/GPa)
#
#
# Indices 1 2 3 4 5 6 
#
# 1 0.037958 -0.005768 -0.004930 0.000000 0.000000 0.000000
# 2 -0.005768 0.010519 -0.004196 0.000000 0.000000 0.000000
# 3 -0.004930 -0.004196 0.022199 0.000000 0.000000 0.000000
# 4 0.000000 0.000000 0.000000 0.047660 0.000000 0.000000
# 5 0.000000 0.000000 0.000000 0.000000 0.064047 0.000000
# 6 0.000000 0.000000 0.000000 0.000000 0.000000 0.039147
#
#
# Mechanical properties :
#
#
# Convention : Reuss Voigt Hill
#
# Bulk Modulus (GPa) = 24.45668 35.51106 29.98387
# Shear Modulus (GPa) = 18.87160 21.88562 20.37861
#
# Velocity S-wave (km/s) = 3.21608 3.46339 3.34202
# Velocity P-wave (km/s) = 5.21489 5.95453 5.59694
#
# Compressibility (1/GPa) = 0.04088862
#
# Stress axis : x y z
#
# Youngs Moduli (GPa) = 26.34488 95.06370 45.04643
#
# Poissons Ratio (x) = 0.54829 0.22208
# Poissons Ratio (y) = 0.15195 0.18903
# Poissons Ratio (z) = 0.12988 0.39893
#
# Static dielectric constant tensor:
#      x y z
#    x 1.650020 0.000000 0.000000 
#    y 0.000000 1.712370 0.000000 
#    z 0.000000 0.000000 1.620540 
# 
# From -- ./inp_files/17490.got.cif
#   From: 2010.05.17/outbox.cif.g08.bks.cpg/sg51_9_cif.got.tgz:17490.got - 2010.06.03 11:52:47.
