data_PCOD9406267
_publ_section_title
;
Structure prediction by ZEFSAII (Michael W. Deem and Ramdas Pophale) SiO2 
 PCOD9406267
Probable space group: P M M A
;
_chemical_formula_sum "Si O2"
_cell_formula_units_Z 64
_cell_length_a 8.933023
_cell_length_b 14.078223
_cell_length_c 24.791864
_cell_angle_alpha 90.000000
_cell_angle_beta 90.000000
_cell_angle_gamma 90.000000
_cell_volume 3117.851836
_symmetry_space_group_name_H-M "P M M A"
_symmetry_group_IT_number 51
_symmetry_cell_setting 'orthorhombic'
loop_
_space_group_symop_operation_xyz
x,y,z
1/2-x,-y,z
1/2+x,-y,-z
-x,y,-z
-x,-y,-z
1/2+x,y,-z
1/2-x,y,z
x,-y,z
loop_
_atom_site_type_symbol
_atom_site_label
_atom_site_fract_x
_atom_site_fract_y
_atom_site_fract_z
Si Si1 0.922286 0.884358 0.728439
Si Si2 0.928872 0.800737 0.944742
Si Si3 0.425475 0.385575 0.341174
Si Si4 0.427995 0.708300 0.555796
Si Si5 0.424926 0.384589 0.223701
Si Si6 0.077609 0.885093 0.838862
Si Si7 0.932655 0.607980 0.894675
Si Si8 0.070061 0.891679 0.615322
O O1 0.750000 0.854651 0.728327
O O2 0.002934 0.851003 0.782921
O O3 0.000458 0.859222 0.672210
O O4 0.925929 0.000000 0.729962
O O5 0.750000 0.807729 0.947177
O O6 0.973112 0.689985 0.936165
O O7 0.988085 0.852945 0.891509
O O8 0.000000 0.837372 0.000000
O O9 0.250000 0.357898 0.345527
O O10 0.429864 0.500000 0.341601
O O11 0.514732 0.347931 0.392097
O O12 0.485422 0.353989 0.282023
O O13 0.500000 0.675983 0.500000
O O14 0.250000 0.701300 0.551877
O O15 0.470938 0.817551 0.569042
O O16 0.250000 0.356706 0.223570
O O17 0.427363 0.500000 0.223678
O O18 0.488650 0.360384 0.164982
O O19 0.250000 0.854016 0.842008
O O20 0.076186 0.000000 0.837295
O O21 0.750000 0.605717 0.891761
O O22 0.981691 0.500000 0.906388
O O23 0.250000 0.890902 0.621015
O O24 0.022190 0.000000 0.604569
#
# Coordination Sequence:
#
# PCOD9406267 Si02
#       8
#     8   8   8   8   8   8   8   8
#     4   9  17  31  55  87 116 141 175 218 264 320
#     4  11  23  37  54  78 108 144 188 233 273 320
#     4   9  18  34  57  83 110 140 173 215 271 331
#     4  11  24  39  55  77 105 141 186 232 275 321
#     4   7  11  24  49  79 106 131 164 207 256 312
#     4  10  21  38  59  81 109 145 180 221 275 328
#     4   8  15  30  53  81 111 141 174 215 265 320
#     4   9  19  37  58  80 110 146 180 218 269 325
#
# _framework density 20.526952999999999
#
# number of rings (size 3 to 8) (size 9 to 14) (size 15 to 20)
#    0.000    2.750    0.000    3.000    0.000    5.500 
#    0.000    1.250    0.000    1.875    0.000    3.500 
#    0.000    0.000    0.000    0.000    0.000    0.000 
#
# Total GULP energy -357167.452377 kJ/mol
# GULP energy per Si atom -5580.741443 kJ/mol
# Density = 2.048023 g / cm^3
# Si number density = 20.526953 Si / 1000 Ang^3
#
#
#
# Elastic Constant Matrix: (Units=GPa)
#
#
# Indices 1 2 3 4 5 6 
#
# 1 39.0095 5.8065 26.9688 0.0000 0.0000 0.0000
# 2 5.8065 28.3071 0.5111 0.0000 0.0000 0.0000
# 3 26.9688 0.5111 109.6449 0.0000 0.0000 0.0000
# 4 0.0000 0.0000 0.0000 24.3686 0.0000 0.0000
# 5 0.0000 0.0000 0.0000 0.0000 19.3868 0.0000
# 6 0.0000 0.0000 0.0000 0.0000 0.0000 16.0847
#
#
#
# Elastic Compliance Matrix: (Units=1/GPa)
#
#
# Indices 1 2 3 4 5 6 
#
# 1 0.032014 -0.006425 -0.007844 0.000000 0.000000 0.000000
# 2 -0.006425 0.036619 0.001410 0.000000 0.000000 0.000000
# 3 -0.007844 0.001410 0.011043 0.000000 0.000000 0.000000
# 4 0.000000 0.000000 0.000000 0.041036 0.000000 0.000000
# 5 0.000000 0.000000 0.000000 0.000000 0.051582 0.000000
# 6 0.000000 0.000000 0.000000 0.000000 0.000000 0.062171
#
#
# Mechanical properties :
#
#
# Convention : Reuss Voigt Hill
#
# Bulk Modulus (GPa) = 18.53335 27.05937 22.79636
# Shear Modulus (GPa) = 17.97450 21.54634 19.76042
#
# Velocity S-wave (km/s) = 2.96235 3.24336 3.10604
# Velocity P-wave (km/s) = 4.55512 5.21889 4.89826
#
# Compressibility (1/GPa) = 0.05395679
#
# Stress axis : x y z
#
# Youngs Moduli (GPa) = 31.23591 27.30797 90.55304
#
# Poissons Ratio (x) = 0.17546 0.71034
# Poissons Ratio (y) = 0.20070 -0.12766
# Poissons Ratio (z) = 0.24503 -0.03850
#
# Static dielectric constant tensor:
#      x y z
#    x 1.682970 0.000000 0.000000 
#    y 0.000000 1.793300 0.000000 
#    z 0.000000 0.000000 1.706920 
# 
# From -- ./inp_files/35014.got.cif
#   From: 2010.05.17/outbox.cif.g08.bks.cpg/sg51_18_cif.got.tgz:35014.got - 2010.06.03 11:52:47.
