data_PCOD9406001
_publ_section_title
;
Structure prediction by ZEFSAII (Michael W. Deem and Ramdas Pophale) SiO2 
 PCOD9406001
Probable space group: P M M A
;
_chemical_formula_sum "Si O2"
_cell_formula_units_Z 56
_cell_length_a 8.881679
_cell_length_b 16.248892
_cell_length_c 19.996481
_cell_angle_alpha 90.000000
_cell_angle_beta 90.000000
_cell_angle_gamma 90.000000
_cell_volume 2885.841004
_symmetry_space_group_name_H-M "P M M A"
_symmetry_group_IT_number 51
_symmetry_cell_setting 'orthorhombic'
loop_
_space_group_symop_operation_xyz
x,y,z
1/2-x,-y,z
1/2+x,-y,-z
-x,y,-z
-x,-y,-z
1/2+x,y,-z
1/2-x,y,z
x,-y,z
loop_
_atom_site_type_symbol
_atom_site_label
_atom_site_fract_x
_atom_site_fract_y
_atom_site_fract_z
Si Si1 0.429168 0.341441 0.294182
Si Si2 0.067551 0.747708 0.926343
Si Si3 0.923487 0.599563 0.430883
Si Si4 0.930609 0.591238 0.163319
Si Si5 0.430338 0.163143 0.704928
Si Si6 0.932765 0.909680 0.154651
Si Si7 0.576262 0.099538 0.569261
O O1 0.250000 0.339795 0.293255
O O2 0.487841 0.369997 0.366309
O O3 0.492011 0.398277 0.235065
O O4 0.497466 0.251490 0.281402
O O5 0.250000 0.748456 0.929576
O O6 0.023054 0.666732 0.884120
O O7 0.017393 0.831233 0.888529
O O8 0.000000 0.744800 0.000000
O O9 0.750000 0.627021 0.427659
O O10 0.924951 0.500000 0.430509
O O11 0.000000 0.627069 0.500000
O O12 0.750000 0.597488 0.172738
O O13 0.963607 0.500000 0.135855
O O14 0.250000 0.170431 0.703152
O O15 0.471363 0.105372 0.767606
O O16 0.489885 0.130820 0.634342
O O17 0.750000 0.909856 0.151219
O O18 0.986235 0.000000 0.132519
O O19 0.500000 0.127041 0.500000
O O20 0.750000 0.126300 0.571653
O O21 0.572817 0.000000 0.569868
#
# Coordination Sequence:
#
# PCOD9406001 Si02
#       7
#     8   8   8   8   8   8   8
#     4  12  24  37  57  86 120 154 197 250 306 360
#     4  10  21  39  61  90 125 159 197 241 293 353
#     4  10  21  38  59  83 114 153 198 248 302 359
#     4  10  21  40  64  88 118 160 205 247 296 356
#     4  11  21  37  60  84 114 154 203 251 303 360
#     4   9  18  35  61  89 118 155 199 243 293 355
#     4  10  21  37  56  82 117 155 199 252 308 365
#
# _framework density 19.405087000000002
#
# number of rings (size 3 to 8) (size 9 to 14) (size 15 to 20)
#    0.000    1.714    1.429    3.429    0.000    6.000 
#    0.000    2.857    0.000    1.714    0.000    0.000 
#    0.000    0.000    0.000    0.000    0.000    0.000 
#
# Total GULP energy -312887.779389 kJ/mol
# GULP energy per Si atom -5587.281775 kJ/mol
# Density = 1.936092 g / cm^3
# Si number density = 19.405087 Si / 1000 Ang^3
#
#
#
# Elastic Constant Matrix: (Units=GPa)
#
#
# Indices 1 2 3 4 5 6 
#
# 1 67.1507 41.3096 39.6337 0.0000 0.0000 0.0000
# 2 41.3096 122.7537 67.8207 0.0000 0.0000 0.0000
# 3 39.6337 67.8207 139.3721 0.0000 0.0000 0.0000
# 4 0.0000 0.0000 0.0000 12.9933 0.0000 0.0000
# 5 0.0000 0.0000 0.0000 0.0000 36.0685 0.0000
# 6 0.0000 0.0000 0.0000 0.0000 0.0000 10.0704
#
#
#
# Elastic Compliance Matrix: (Units=1/GPa)
#
#
# Indices 1 2 3 4 5 6 
#
# 1 0.019811 -0.004861 -0.003268 0.000000 0.000000 0.000000
# 2 -0.004861 0.012335 -0.004620 0.000000 0.000000 0.000000
# 3 -0.003268 -0.004620 0.010353 0.000000 0.000000 0.000000
# 4 0.000000 0.000000 0.000000 0.076963 0.000000 0.000000
# 5 0.000000 0.000000 0.000000 0.000000 0.027725 0.000000
# 6 0.000000 0.000000 0.000000 0.000000 0.000000 0.099301
#
#
# Mechanical properties :
#
#
# Convention : Reuss Voigt Hill
#
# Bulk Modulus (GPa) = 58.82398 69.64494 64.23446
# Shear Modulus (GPa) = 18.00811 23.86061 20.93436
#
# Velocity S-wave (km/s) = 3.04963 3.51038 3.28808
# Velocity P-wave (km/s) = 6.54063 7.23867 6.89848
#
# Compressibility (1/GPa) = 0.01699987
#
# Stress axis : x y z
#
# Youngs Moduli (GPa) = 50.47587 81.07142 96.59463
#
# Poissons Ratio (x) = 0.39412 0.31569
# Poissons Ratio (y) = 0.24538 0.44625
# Poissons Ratio (z) = 0.16497 0.37454
#
# Static dielectric constant tensor:
#      x y z
#    x 1.648100 0.000000 0.000000 
#    y 0.000000 1.709370 0.000000 
#    z 0.000000 0.000000 1.642290 
# 
# From -- ./inp_files/31942.got.cif
#   From: 2010.05.17/outbox.cif.g08.bks.cpg/sg51_16_cif.got.tgz:31942.got - 2010.06.03 11:52:47.
