data_PCOD9406690
_publ_section_title
;
Structure prediction by ZEFSAII (Michael W. Deem and Ramdas Pophale) SiO2 
 PCOD9406690
Probable space group: P M M A
;
_chemical_formula_sum "Si O2"
_cell_formula_units_Z 48
_cell_length_a 15.781863
_cell_length_b 7.605633
_cell_length_c 18.314656
_cell_angle_alpha 90.000000
_cell_angle_beta 90.000000
_cell_angle_gamma 90.000000
_cell_volume 2198.327537
_symmetry_space_group_name_H-M "P M M A"
_symmetry_group_IT_number 51
_symmetry_cell_setting 'orthorhombic'
loop_
_space_group_symop_operation_xyz
x,y,z
1/2-x,-y,z
1/2+x,-y,-z
-x,y,-z
-x,-y,-z
1/2+x,y,-z
1/2-x,y,z
x,-y,z
loop_
_atom_site_type_symbol
_atom_site_label
_atom_site_fract_x
_atom_site_fract_y
_atom_site_fract_z
Si Si1 0.501805 0.788850 0.917216
Si Si2 0.351579 0.298655 0.654282
Si Si3 0.346247 0.793178 0.182221
Si Si4 0.648455 0.700204 0.655742
Si Si5 0.652965 0.711978 0.187481
Si Si6 0.100335 0.298767 0.499148
O O1 0.582249 0.718805 0.871307
O O2 0.414763 0.754588 0.874198
O O3 0.510975 0.000000 0.920646
O O4 0.500000 0.721594 0.000000
O O5 0.250000 0.306912 0.658721
O O6 0.385613 0.500000 0.650848
O O7 0.377477 0.221110 0.732520
O O8 0.373115 0.215932 0.576211
O O9 0.250000 0.719118 0.175831
O O10 0.376296 0.777420 0.266288
O O11 0.339232 0.000000 0.166642
O O12 0.750000 0.697094 0.656548
O O13 0.615126 0.500000 0.654766
O O14 0.624203 0.784352 0.578446
O O15 0.750000 0.772309 0.173178
O O16 0.656747 0.500000 0.193998
O O17 0.137360 0.500000 0.498294
O O18 0.000000 0.310608 0.500000
#
# Coordination Sequence:
#
# PCOD9406690 Si02
#       6
#     8   8   8   8   8   8
#     4  10  22  38  57  81 105 134 174 217 264 318
#     4   8  14  26  43  64  95 134 169 203 246 296
#     4   9  19  36  55  74 101 137 173 212 263 319
#     4   9  17  29  47  72  99 129 169 214 254 296
#     4   9  19  35  56  82 110 141 175 212 261 316
#     4   9  16  23  37  67 101 131 165 205 249 293
#
# _framework density 21.834781
#
# number of rings (size 3 to 8) (size 9 to 14) (size 15 to 20)
#    0.000    3.000    0.000    1.500    2.333    4.000 
#    0.000    1.667    0.000    3.500    0.000    2.333 
#    0.000    0.000    0.000    0.000    0.000    0.000 
#
# Total GULP energy -267536.188875 kJ/mol
# GULP energy per Si atom -5573.670602 kJ/mol
# Density = 2.178508 g / cm^3
# Si number density = 21.834781 Si / 1000 Ang^3
#
#
#
# Elastic Constant Matrix: (Units=GPa)
#
#
# Indices 1 2 3 4 5 6 
#
# 1 94.9324 4.1847 102.5114 0.0000 0.0000 0.0000
# 2 4.1847 45.8381 9.0412 0.0000 0.0000 0.0000
# 3 102.5114 9.0412 244.3284 0.0000 0.0000 0.0000
# 4 0.0000 0.0000 0.0000 13.5276 0.0000 0.0000
# 5 0.0000 0.0000 0.0000 0.0000 42.2742 0.0000
# 6 0.0000 0.0000 0.0000 0.0000 0.0000 10.7461
#
#
#
# Elastic Compliance Matrix: (Units=1/GPa)
#
#
# Indices 1 2 3 4 5 6 
#
# 1 0.019261 -0.000166 -0.008075 0.000000 0.000000 0.000000
# 2 -0.000166 0.021978 -0.000744 0.000000 0.000000 0.000000
# 3 -0.008075 -0.000744 0.007508 0.000000 0.000000 0.000000
# 4 0.000000 0.000000 0.000000 0.073923 0.000000 0.000000
# 5 0.000000 0.000000 0.000000 0.000000 0.023655 0.000000
# 6 0.000000 0.000000 0.000000 0.000000 0.000000 0.093057
#
#
# Mechanical properties :
#
#
# Convention : Reuss Voigt Hill
#
# Bulk Modulus (GPa) = 32.49069 68.50816 50.49942
# Shear Modulus (GPa) = 18.68389 31.26703 24.97546
#
# Velocity S-wave (km/s) = 2.92840 3.78826 3.38574
# Velocity P-wave (km/s) = 5.13289 7.11185 6.20181
#
# Compressibility (1/GPa) = 0.03077805
#
# Stress axis : x y z
#
# Youngs Moduli (GPa) = 51.91897 45.50062 133.18503
#
# Poissons Ratio (x) = 0.00754 1.07547
# Poissons Ratio (y) = 0.00860 0.09906
# Poissons Ratio (z) = 0.41925 0.03384
#
# Static dielectric constant tensor:
#      x y z
#    x 1.769480 0.000000 0.000000 
#    y 0.000000 1.863860 0.000000 
#    z 0.000000 0.000000 1.833160 
# 
# From -- ./inp_files/29485.got.cif
#   From: 2010.05.17/outbox.cif.g08.bks.cpg/sg51_15_cif.got.tgz:29485.got - 2010.06.03 11:52:47.
