data_PCOD9406207
_publ_section_title
;
Structure prediction by ZEFSAII (Michael W. Deem and Ramdas Pophale) SiO2 
 PCOD9406207
Probable space group: P M M A
;
_chemical_formula_sum "Si O2"
_cell_formula_units_Z 48
_cell_length_a 16.267218
_cell_length_b 8.885639
_cell_length_c 17.377346
_cell_angle_alpha 90.000000
_cell_angle_beta 90.000000
_cell_angle_gamma 90.000000
_cell_volume 2511.801990
_symmetry_space_group_name_H-M "P M M A"
_symmetry_group_IT_number 51
_symmetry_cell_setting 'orthorhombic'
loop_
_space_group_symop_operation_xyz
x,y,z
1/2-x,-y,z
1/2+x,-y,-z
-x,y,-z
-x,-y,-z
1/2+x,y,-z
1/2-x,y,z
x,-y,z
loop_
_atom_site_type_symbol
_atom_site_label
_atom_site_fract_x
_atom_site_fract_y
_atom_site_fract_z
Si Si1 0.750000 0.183048 0.269869
Si Si2 0.391824 0.179839 0.846571
Si Si3 0.917084 0.177997 0.837901
Si Si4 0.586071 0.818171 0.538853
Si Si5 0.651990 0.676115 0.990177
Si Si6 0.750000 0.816551 0.446265
Si Si7 0.155775 0.320370 0.312170
O O1 0.670279 0.228455 0.220629
O O2 0.750000 0.235490 0.357752
O O3 0.750000 0.000000 0.272808
O O4 0.486242 0.205981 0.825334
O O5 0.380740 0.000000 0.858101
O O6 0.371251 0.260873 0.926344
O O7 0.892795 0.234841 0.922327
O O8 0.866758 0.263676 0.772533
O O9 0.901740 0.000000 0.832037
O O10 0.500000 0.772357 0.500000
O O11 0.666364 0.770167 0.489668
O O12 0.597581 0.753431 0.624032
O O13 0.586550 0.000000 0.542782
O O14 0.750000 0.692065 0.979992
O O15 0.630821 0.500000 0.985157
O O16 0.750000 0.000000 0.446093
O O17 0.250000 0.276301 0.329838
O O18 0.149662 0.500000 0.315428
#
# Coordination Sequence:
#
# PCOD9406207 Si02
#       7
#     4   8   8   8   8   4   8
#     4   9  18  34  59  86 115 148 187 239 296 349
#     4  10  21  38  61  87 116 152 195 246 298 349
#     4  11  24  38  60  91 118 149 201 252 297 352
#     4  10  21  37  63  94 123 157 202 251 303 361
#     4  11  23  39  59  84 119 160 199 237 291 356
#     4   9  18  34  59  90 121 154 193 245 302 351
#     4  11  24  42  62  86 122 163 202 243 299 361
#
# _framework density 19.109787000000001
#
# number of rings (size 3 to 8) (size 9 to 14) (size 15 to 20)
#    0.000    1.667    1.667    2.500    2.333    7.667 
#    0.000    0.000    0.000    1.000    0.000    0.000 
#    0.000    0.000    0.000    0.000    0.000    0.000 
#
# Total GULP energy -268240.264408 kJ/mol
# GULP energy per Si atom -5588.338842 kJ/mol
# Density = 1.906629 g / cm^3
# Si number density = 19.109787 Si / 1000 Ang^3
#
#
#
# Elastic Constant Matrix: (Units=GPa)
#
#
# Indices 1 2 3 4 5 6 
#
# 1 72.8400 25.5492 13.1253 0.0000 0.0000 0.0000
# 2 25.5492 14.2710 1.3529 0.0000 0.0000 0.0000
# 3 13.1253 1.3529 91.0491 0.0000 0.0000 0.0000
# 4 0.0000 0.0000 0.0000 -40.9311 0.0000 0.0000
# 5 0.0000 0.0000 0.0000 0.0000 20.3177 0.0000
# 6 0.0000 0.0000 0.0000 0.0000 0.0000 18.3869
#
#
#
# Elastic Compliance Matrix: (Units=1/GPa)
#
#
# Indices 1 2 3 4 5 6 
#
# 1 0.038701 -0.068853 -0.004556 0.000000 0.000000 0.000000
# 2 -0.068853 0.192670 0.007063 0.000000 0.000000 0.000000
# 3 -0.004556 0.007063 0.011535 0.000000 0.000000 0.000000
# 4 0.000000 0.000000 0.000000 -0.024431 0.000000 0.000000
# 5 0.000000 0.000000 0.000000 0.000000 0.049218 0.000000
# 6 0.000000 0.000000 0.000000 0.000000 0.000000 0.054386
#
#
# Mechanical properties :
#
#
# Convention : Reuss Voigt Hill
#
# Bulk Modulus (GPa) = 9.07335 28.69056 18.88196
# Shear Modulus (GPa) = 10.17274 8.76356 9.46815
#
# Velocity S-wave (km/s) = 2.30973 2.14379 2.22831
# Velocity P-wave (km/s) = 3.44550 4.60152 4.06481
#
# Compressibility (1/GPa) = 0.11021290
#
# Stress axis : x y z
#
# Youngs Moduli (GPa) = 25.83941 5.19021 86.69347
#
# Poissons Ratio (x) = 0.35736 0.39496
# Poissons Ratio (y) = 1.77913 -0.61230
# Poissons Ratio (z) = 0.11772 -0.03666
#
# Static dielectric constant tensor:
#      x y z
#    x 1.667040 0.000000 0.000000 
#    y 0.000000 1.636010 0.000000 
#    z 0.000000 0.000000 1.621690 
# 
# From -- ./inp_files/29524.got.cif
#   From: 2010.05.17/outbox.cif.g08.bks.cpg/sg51_15_cif.got.tgz:29524.got - 2010.06.03 11:52:47.
