data_PCOD9406996
_publ_section_title
;
Structure prediction by ZEFSAII (Michael W. Deem and Ramdas Pophale) SiO2 
 PCOD9406996
Probable space group: P M M A
;
_chemical_formula_sum "Si O2"
_cell_formula_units_Z 64
_cell_length_a 9.051715
_cell_length_b 14.109696
_cell_length_c 30.387141
_cell_angle_alpha 90.000000
_cell_angle_beta 90.000000
_cell_angle_gamma 90.000000
_cell_volume 3880.952874
_symmetry_space_group_name_H-M "P M M A"
_symmetry_group_IT_number 51
_symmetry_cell_setting 'orthorhombic'
loop_
_space_group_symop_operation_xyz
x,y,z
1/2-x,-y,z
1/2+x,-y,-z
-x,y,-z
-x,-y,-z
1/2+x,y,-z
1/2-x,y,z
x,-y,z
loop_
_atom_site_type_symbol
_atom_site_label
_atom_site_fract_x
_atom_site_fract_y
_atom_site_fract_z
Si Si1 0.418883 0.385157 0.544140
Si Si2 0.073045 0.888079 0.779160
Si Si3 0.426442 0.798575 0.133539
Si Si4 0.412475 0.606646 0.767775
Si Si5 0.071556 0.389480 0.363446
Si Si6 0.081528 0.605811 0.873236
Si Si7 0.581546 0.886408 0.956609
Si Si8 0.577260 0.250554 0.715110
O O1 0.500000 0.350904 0.500000
O O2 0.250000 0.351727 0.546182
O O3 0.414923 0.500000 0.541343
O O4 0.506151 0.364561 0.588910
O O5 0.250000 0.877713 0.780332
O O6 0.005201 0.834785 0.821904
O O7 0.009546 0.839269 0.734774
O O8 0.036621 0.000000 0.781016
O O9 0.250000 0.807351 0.139847
O O10 0.471587 0.692200 0.119632
O O11 0.477478 0.859617 0.091401
O O12 0.250000 0.644081 0.753558
O O13 0.427117 0.500000 0.750746
O O14 0.410180 0.601809 0.820163
O O15 0.545966 0.670293 0.752182
O O16 0.250000 0.389170 0.364725
O O17 0.027814 0.500000 0.353203
O O18 0.026034 0.308953 0.328220
O O19 0.250000 0.625652 0.888654
O O20 0.038672 0.500000 0.888551
O O21 0.750000 0.852168 0.958015
O O22 0.582137 0.000000 0.959189
O O23 0.500000 0.849799 0.000000
O O24 0.750000 0.228505 0.710812
#
# Coordination Sequence:
#
# PCOD9406996 Si02
#       8
#     8   8   8   8   8   8   8   8
#     4   9  16  26  42  64  91 127 168 207 247 289
#     4  11  24  39  53  70  95 130 169 205 244 296
#     4  11  21  34  55  81 105 129 160 203 248 290
#     4   9  17  29  45  65  93 128 162 197 235 277
#     4   9  18  31  45  66  98 132 166 203 244 293
#     4   9  18  32  49  71 100 132 165 199 234 277
#     4   9  19  35  54  78 106 131 157 194 243 297
#     4  11  21  32  48  70  96 127 163 208 253 291
#
# _framework density 16.490796
#
# number of rings (size 3 to 8) (size 9 to 14) (size 15 to 20)
#    0.000    2.250    1.250    3.000    0.000    6.000 
#    0.000    3.750    0.000    0.375    0.000    0.000 
#    0.000    0.500    0.000    1.625    0.000    2.375 
#
# Total GULP energy -356307.060096 kJ/mol
# GULP energy per Si atom -5567.297814 kJ/mol
# Density = 1.645326 g / cm^3
# Si number density = 16.490796 Si / 1000 Ang^3
#
#
#
# Elastic Constant Matrix: (Units=GPa)
#
#
# Indices 1 2 3 4 5 6 
#
# 1 40.5045 24.5788 32.0773 0.0000 0.0000 0.0000
# 2 24.5788 66.8402 24.0277 0.0000 0.0000 0.0000
# 3 32.0773 24.0277 91.8674 0.0000 0.0000 0.0000
# 4 0.0000 0.0000 0.0000 18.5499 0.0000 0.0000
# 5 0.0000 0.0000 0.0000 0.0000 23.5447 0.0000
# 6 0.0000 0.0000 0.0000 0.0000 0.0000 16.7648
#
#
#
# Elastic Compliance Matrix: (Units=1/GPa)
#
#
# Indices 1 2 3 4 5 6 
#
# 1 0.040038 -0.010704 -0.011181 0.000000 0.000000 0.000000
# 2 -0.010704 0.019375 -0.001330 0.000000 0.000000 0.000000
# 3 -0.011181 -0.001330 0.015137 0.000000 0.000000 0.000000
# 4 0.000000 0.000000 0.000000 0.053909 0.000000 0.000000
# 5 0.000000 0.000000 0.000000 0.000000 0.042472 0.000000
# 6 0.000000 0.000000 0.000000 0.000000 0.000000 0.059649
#
#
# Mechanical properties :
#
#
# Convention : Reuss Voigt Hill
#
# Bulk Modulus (GPa) = 35.55995 40.06440 37.81217
# Shear Modulus (GPa) = 17.45912 19.67377 18.56644
#
# Velocity S-wave (km/s) = 3.25733 3.45775 3.35903
# Velocity P-wave (km/s) = 5.97973 6.34737 6.16629
#
# Compressibility (1/GPa) = 0.02812153
#
# Stress axis : x y z
#
# Youngs Moduli (GPa) = 24.97613 51.61216 66.06309
#
# Poissons Ratio (x) = 0.55245 0.73862
# Poissons Ratio (y) = 0.26734 0.08787
# Poissons Ratio (z) = 0.27925 0.06865
#
# Static dielectric constant tensor:
#      x y z
#    x 1.576330 0.000000 0.000000 
#    y 0.000000 1.576480 0.000000 
#    z 0.000000 0.000000 1.565620 
# 
# From -- ./inp_files/37524.got.cif
#   From: 2010.05.17/outbox.cif.g08.bks.cpg/sg51_19_cif.got.tgz:37524.got - 2010.06.03 11:52:47.
