data_PCOD9406919
_publ_section_title
;
Structure prediction by ZEFSAII (Michael W. Deem and Ramdas Pophale) SiO2 
 PCOD9406919
Probable space group: P M M A
;
_chemical_formula_sum "Si O2"
_cell_formula_units_Z 40
_cell_length_a 10.247009
_cell_length_b 9.109956
_cell_length_c 25.105023
_cell_angle_alpha 90.000000
_cell_angle_beta 90.000000
_cell_angle_gamma 90.000000
_cell_volume 2343.548904
_symmetry_space_group_name_H-M "P M M A"
_symmetry_group_IT_number 51
_symmetry_cell_setting 'orthorhombic'
loop_
_space_group_symop_operation_xyz
x,y,z
1/2-x,-y,z
1/2+x,-y,-z
-x,y,-z
-x,-y,-z
1/2+x,y,-z
1/2-x,y,z
x,-y,z
loop_
_atom_site_type_symbol
_atom_site_label
_atom_site_fract_x
_atom_site_fract_y
_atom_site_fract_z
Si Si1 0.408337 0.831147 0.344909
Si Si2 0.983613 0.326474 0.879835
Si Si3 0.750000 0.825046 0.943623
Si Si4 0.594464 0.176595 0.773880
Si Si5 0.901602 0.323252 0.546392
Si Si6 0.250000 0.670749 0.944004
O O1 0.250000 0.831132 0.343105
O O2 0.448790 0.780318 0.285899
O O3 0.445176 0.737135 0.396140
O O4 0.450024 0.000000 0.351988
O O5 0.953775 0.500000 0.878243
O O6 0.122185 0.306852 0.908356
O O7 0.875375 0.242557 0.914328
O O8 0.978754 0.259653 0.820774
O O9 0.750000 0.000000 0.938827
O O10 0.750000 0.773843 0.004710
O O11 0.750000 0.207159 0.779501
O O12 0.579592 0.000000 0.778463
O O13 0.750000 0.277703 0.537117
O O14 0.903097 0.500000 0.547794
O O15 0.000000 0.274238 0.500000
O O16 0.250000 0.500000 0.962536
#
# Coordination Sequence:
#
# PCOD9406919 Si02
#       6
#     8   8   4   8   8   4
#     4   8  15  28  47  72 100 130 163 205 252 292
#     4  11  22  37  58  81 106 139 175 214 261 310
#     4  12  24  38  58  84 108 134 175 218 257 308
#     4   9  17  31  52  78 106 132 166 215 260 303
#     4   9  17  29  46  69  97 128 164 206 249 294
#     4  10  24  42  56  76 110 142 173 214 259 310
#
# _framework density 17.068131000000001
#
# number of rings (size 3 to 8) (size 9 to 14) (size 15 to 20)
#    0.000    2.400    1.000    3.300    0.000    5.200 
#    0.000    2.000    2.200    0.000    0.000    0.000 
#    0.000    0.000    0.000    0.000    0.000    0.000 
#
# Total GULP energy -223064.887432 kJ/mol
# GULP energy per Si atom -5576.622186 kJ/mol
# Density = 1.702928 g / cm^3
# Si number density = 17.068131 Si / 1000 Ang^3
#
#
#
# Elastic Constant Matrix: (Units=GPa)
#
#
# Indices 1 2 3 4 5 6 
#
# 1 71.0901 48.5461 53.8353 0.0000 0.0000 0.0000
# 2 48.5461 63.4000 70.5958 0.0000 0.0000 0.0000
# 3 53.8353 70.5958 167.7195 0.0000 0.0000 0.0000
# 4 0.0000 0.0000 0.0000 38.0279 0.0000 0.0000
# 5 0.0000 0.0000 0.0000 0.0000 16.4119 0.0000
# 6 0.0000 0.0000 0.0000 0.0000 0.0000 -7.8772
#
#
#
# Elastic Compliance Matrix: (Units=1/GPa)
#
#
# Indices 1 2 3 4 5 6 
#
# 1 0.029484 -0.022657 0.000073 0.000000 0.000000 0.000000
# 2 -0.022657 0.047098 -0.012552 0.000000 0.000000 0.000000
# 3 0.000073 -0.012552 0.011222 0.000000 0.000000 0.000000
# 4 0.000000 0.000000 0.000000 0.026296 0.000000 0.000000
# 5 0.000000 0.000000 0.000000 0.000000 0.060931 0.000000
# 6 0.000000 0.000000 0.000000 0.000000 0.000000 -0.126948
#
#
# Mechanical properties :
#
#
# Convention : Reuss Voigt Hill
#
# Bulk Modulus (GPa) = 57.03880 72.01824 64.52852
# Shear Modulus (GPa) = 40.25787 17.92801 29.09294
#
# Velocity S-wave (km/s) = 4.86187 3.24447 4.13306
# Velocity P-wave (km/s) = 8.06275 7.50477 7.78876
#
# Compressibility (1/GPa) = 0.01753193
#
# Stress axis : x y z
#
# Youngs Moduli (GPa) = 33.91723 21.23229 89.10975
#
# Poissons Ratio (x) = 0.48106 -0.00651
# Poissons Ratio (y) = 0.76847 1.11848
# Poissons Ratio (z) = -0.00248 0.26650
#
# Static dielectric constant tensor:
#      x y z
#    x 1.561350 0.000000 0.000000 
#    y 0.000000 1.571790 0.000000 
#    z 0.000000 0.000000 1.581380 
# 
# From -- ./inp_files/36016.got.cif
#   From: 2010.05.17/outbox.cif.g08.bks.cpg/sg51_19_cif.got.tgz:36016.got - 2010.06.03 11:52:47.
