data_PCOD9406172
_publ_section_title
;
Structure prediction by ZEFSAII (Michael W. Deem and Ramdas Pophale) SiO2 
 PCOD9406172
Probable space group: P M M A
;
_chemical_formula_sum "Si O2"
_cell_formula_units_Z 48
_cell_length_a 8.743807
_cell_length_b 9.757859
_cell_length_c 29.888715
_cell_angle_alpha 90.000000
_cell_angle_beta 90.000000
_cell_angle_gamma 90.000000
_cell_volume 2550.130146
_symmetry_space_group_name_H-M "P M M A"
_symmetry_group_IT_number 51
_symmetry_cell_setting 'orthorhombic'
loop_
_space_group_symop_operation_xyz
x,y,z
1/2-x,-y,z
1/2+x,-y,-z
-x,y,-z
-x,-y,-z
1/2+x,y,-z
1/2-x,y,z
x,-y,z
loop_
_atom_site_type_symbol
_atom_site_label
_atom_site_fract_x
_atom_site_fract_y
_atom_site_fract_z
Si Si1 0.064932 0.661384 0.285108
Si Si2 0.433570 0.257164 0.108952
Si Si3 0.931784 0.500000 0.050293
Si Si4 0.433902 0.161850 0.796820
Si Si5 0.065374 0.840198 0.372162
Si Si6 0.930650 0.000000 0.951460
Si Si7 0.066696 0.342854 0.549530
O O1 0.250000 0.664363 0.281515
O O2 0.019366 0.500000 0.286061
O O3 0.021764 0.744875 0.329956
O O4 0.994872 0.746657 0.244084
O O5 0.250000 0.276157 0.111793
O O6 0.510030 0.375953 0.080576
O O7 0.499060 0.227963 0.157971
O O8 0.471467 0.127702 0.078549
O O9 0.750000 0.500000 0.045967
O O10 0.000000 0.500000 0.000000
O O11 0.250000 0.166041 0.797955
O O12 0.479811 0.000000 0.793340
O O13 0.250000 0.838973 0.374980
O O14 0.998002 0.767541 0.415937
O O15 0.017939 0.000000 0.367196
O O16 0.750000 0.000000 0.957504
O O17 0.000000 0.000000 0.000000
O O18 0.250000 0.334704 0.548029
O O19 0.024600 0.500000 0.563016
O O20 0.000000 0.320759 0.500000
#
# Coordination Sequence:
#
# PCOD9406172 Si02
#       7
#     8   8   4   8   8   4   8
#     4  10  22  40  64  91 119 157 202 250 303 364
#     4  11  23  42  65  91 121 161 204 249 301 358
#     4  12  26  44  64  92 126 164 204 248 299 356
#     4  11  24  41  62  90 123 160 200 248 305 363
#     4  10  21  38  61  89 121 159 204 253 307 365
#     4  10  22  38  62  92 120 154 198 244 295 352
#     4  10  21  37  59  87 120 161 207 255 307 362
#
# _framework density 18.822569999999999
#
# number of rings (size 3 to 8) (size 9 to 14) (size 15 to 20)
#    0.000    1.500    0.833    3.750    1.167    7.667 
#    0.000    0.000    0.000    0.000    0.000    0.000 
#    0.000    0.000    0.000    0.000    0.000    0.000 
#
# Total GULP energy -268071.400205 kJ/mol
# GULP energy per Si atom -5584.820838 kJ/mol
# Density = 1.877973 g / cm^3
# Si number density = 18.822570 Si / 1000 Ang^3
#
#
#
# Elastic Constant Matrix: (Units=GPa)
#
#
# Indices 1 2 3 4 5 6 
#
# 1 39.5968 71.1274 52.3814 0.0000 0.0000 0.0000
# 2 71.1274 200.1135 114.2915 0.0000 0.0000 0.0000
# 3 52.3814 114.2915 173.5003 0.0000 0.0000 0.0000
# 4 0.0000 0.0000 0.0000 35.1405 0.0000 0.0000
# 5 0.0000 0.0000 0.0000 0.0000 37.1766 0.0000
# 6 0.0000 0.0000 0.0000 0.0000 0.0000 30.7966
#
#
#
# Elastic Compliance Matrix: (Units=1/GPa)
#
#
# Indices 1 2 3 4 5 6 
#
# 1 0.076698 -0.022502 -0.008333 0.000000 0.000000 0.000000
# 2 -0.022502 0.014613 -0.002833 0.000000 0.000000 0.000000
# 3 -0.008333 -0.002833 0.010145 0.000000 0.000000 0.000000
# 4 0.000000 0.000000 0.000000 0.028457 0.000000 0.000000
# 5 0.000000 0.000000 0.000000 0.000000 0.026899 0.000000
# 6 0.000000 0.000000 0.000000 0.000000 0.000000 0.032471
#
#
# Mechanical properties :
#
#
# Convention : Reuss Voigt Hill
#
# Bulk Modulus (GPa) = 29.30698 98.75680 64.03189
# Shear Modulus (GPa) = 18.65721 32.31675 25.48698
#
# Velocity S-wave (km/s) = 3.15177 4.14806 3.68375
# Velocity P-wave (km/s) = 5.37111 8.69040 7.22398
#
# Compressibility (1/GPa) = 0.03412157
#
# Stress axis : x y z
#
# Youngs Moduli (GPa) = 13.03807 68.43247 98.56696
#
# Poissons Ratio (x) = 1.53987 0.82136
# Poissons Ratio (y) = 0.29338 0.27919
# Poissons Ratio (z) = 0.10865 0.19384
#
# Static dielectric constant tensor:
#      x y z
#    x 1.636970 0.000000 0.000000 
#    y 0.000000 1.617680 0.000000 
#    z 0.000000 0.000000 1.627340 
# 
# From -- ./inp_files/37141.got.cif
#   From: 2010.05.17/outbox.cif.g08.bks.cpg/sg51_19_cif.got.tgz:37141.got - 2010.06.03 11:52:47.
