data_PCOD9406450
_publ_section_title
;
Structure prediction by ZEFSAII (Michael W. Deem and Ramdas Pophale) SiO2 
 PCOD9406450
Probable space group: P M M A
;
_chemical_formula_sum "Si O2"
_cell_formula_units_Z 48
_cell_length_a 8.353536
_cell_length_b 15.052523
_cell_length_c 19.443934
_cell_angle_alpha 90.000000
_cell_angle_beta 90.000000
_cell_angle_gamma 90.000000
_cell_volume 2444.915120
_symmetry_space_group_name_H-M "P M M A"
_symmetry_group_IT_number 51
_symmetry_cell_setting 'orthorhombic'
loop_
_space_group_symop_operation_xyz
x,y,z
1/2-x,-y,z
1/2+x,-y,-z
-x,y,-z
-x,-y,-z
1/2+x,y,-z
1/2-x,y,z
x,-y,z
loop_
_atom_site_type_symbol
_atom_site_label
_atom_site_fract_x
_atom_site_fract_y
_atom_site_fract_z
Si Si1 0.931388 0.599425 0.215864
Si Si2 0.062814 0.362676 0.073271
Si Si3 0.059102 0.600490 0.577402
Si Si4 0.558912 0.161941 0.072165
Si Si5 0.443027 0.100935 0.220090
Si Si6 0.567770 0.263109 0.689393
O O1 0.750000 0.629390 0.231443
O O2 0.949893 0.500000 0.243160
O O3 0.960396 0.598652 0.135095
O O4 0.055390 0.667100 0.248050
O O5 0.250000 0.381600 0.081859
O O6 0.031213 0.256676 0.075294
O O7 0.000000 0.394077 0.000000
O O8 0.250000 0.596696 0.577998
O O9 0.999527 0.500000 0.596472
O O10 0.000000 0.617171 0.500000
O O11 0.009436 0.680387 0.627764
O O12 0.750000 0.175654 0.068174
O O13 0.516956 0.115305 0.144208
O O14 0.500000 0.118921 0.000000
O O15 0.250000 0.113061 0.213300
O O16 0.501010 0.172981 0.276535
O O17 0.474053 0.000000 0.242106
O O18 0.750000 0.244634 0.669626
#
# Coordination Sequence:
#
# PCOD9406450 Si02
#       6
#     8   8   8   8   8   8
#     4  11  23  37  54  79 111 148 189 234 284 340
#     4  11  21  35  54  75 103 142 187 236 290 345
#     4  10  21  38  62  93 128 162 195 233 277 332
#     4  11  21  35  57  81 109 145 190 245 305 362
#     4  10  22  40  60  84 115 152 196 245 297 353
#     4  11  22  37  60  87 118 155 191 234 287 341
#
# _framework density 19.632583
#
# number of rings (size 3 to 8) (size 9 to 14) (size 15 to 20)
#    0.000    1.333    1.667    6.000    0.000    6.000 
#    0.000    0.000    0.000    0.500    0.000    0.000 
#    0.000    0.000    0.000    0.000    0.000    0.000 
#
# Total GULP energy -268011.390387 kJ/mol
# GULP energy per Si atom -5583.570633 kJ/mol
# Density = 1.958790 g / cm^3
# Si number density = 19.632583 Si / 1000 Ang^3
#
#
#
# Elastic Constant Matrix: (Units=GPa)
#
#
# Indices 1 2 3 4 5 6 
#
# 1 57.5894 22.9619 15.1973 0.0000 0.0000 0.0000
# 2 22.9619 112.3884 58.5801 0.0000 0.0000 0.0000
# 3 15.1973 58.5801 133.3932 0.0000 0.0000 0.0000
# 4 0.0000 0.0000 0.0000 24.0738 0.0000 0.0000
# 5 0.0000 0.0000 0.0000 0.0000 33.2358 0.0000
# 6 0.0000 0.0000 0.0000 0.0000 0.0000 3.3816
#
#
#
# Elastic Compliance Matrix: (Units=1/GPa)
#
#
# Indices 1 2 3 4 5 6 
#
# 1 0.018941 -0.003560 -0.000595 0.000000 0.000000 0.000000
# 2 -0.003560 0.012208 -0.004956 0.000000 0.000000 0.000000
# 3 -0.000595 -0.004956 0.009741 0.000000 0.000000 0.000000
# 4 0.000000 0.000000 0.000000 0.041539 0.000000 0.000000
# 5 0.000000 0.000000 0.000000 0.000000 0.030088 0.000000
# 6 0.000000 0.000000 0.000000 0.000000 0.000000 0.295719
#
#
# Mechanical properties :
#
#
# Convention : Reuss Voigt Hill
#
# Bulk Modulus (GPa) = 44.11264 55.20549 49.65907
# Shear Modulus (GPa) = 11.52042 25.91371 18.71706
#
# Velocity S-wave (km/s) = 2.42503 3.63703 3.09101
# Velocity P-wave (km/s) = 5.50989 6.76888 6.17157
#
# Compressibility (1/GPa) = 0.02266924
#
# Stress axis : x y z
#
# Youngs Moduli (GPa) = 52.79668 81.91328 102.66253
#
# Poissons Ratio (x) = 0.29160 0.06104
# Poissons Ratio (y) = 0.18795 0.50876
# Poissons Ratio (z) = 0.03139 0.40593
#
# Static dielectric constant tensor:
#      x y z
#    x 1.673300 0.000000 0.000000 
#    y 0.000000 1.721250 0.000000 
#    z 0.000000 0.000000 1.697870 
# 
# From -- ./inp_files/27576.got.cif
#   From: 2010.05.17/outbox.cif.g08.bks.cpg/sg51_14_cif.got.tgz:27576.got - 2010.06.03 11:52:47.
