data_PCOD9406556
_publ_section_title
;
Structure prediction by ZEFSAII (Michael W. Deem and Ramdas Pophale) SiO2 
 PCOD9406556
Probable space group: P M M A
;
_chemical_formula_sum "Si O2"
_cell_formula_units_Z 56
_cell_length_a 9.239865
_cell_length_b 14.396228
_cell_length_c 21.333823
_cell_angle_alpha 90.000000
_cell_angle_beta 90.000000
_cell_angle_gamma 90.000000
_cell_volume 2837.808137
_symmetry_space_group_name_H-M "P M M A"
_symmetry_group_IT_number 51
_symmetry_cell_setting 'orthorhombic'
loop_
_space_group_symop_operation_xyz
x,y,z
1/2-x,-y,z
1/2+x,-y,-z
-x,y,-z
-x,-y,-z
1/2+x,y,-z
1/2-x,y,z
x,-y,z
loop_
_atom_site_type_symbol
_atom_site_label
_atom_site_fract_x
_atom_site_fract_y
_atom_site_fract_z
Si Si1 0.589113 0.637612 0.559384
Si Si2 0.081515 0.863686 0.435822
Si Si3 0.919110 0.396588 0.182734
Si Si4 0.083548 0.850395 0.690111
Si Si5 0.417997 0.888088 0.936846
Si Si6 0.094603 0.629349 0.671527
Si Si7 0.924738 0.801018 0.818326
O O1 0.500000 0.608030 0.500000
O O2 0.750000 0.608802 0.549955
O O3 0.582967 0.750729 0.562272
O O4 0.529153 0.602593 0.624719
O O5 0.250000 0.892613 0.435180
O O6 0.000000 0.892820 0.500000
O O7 0.998466 0.890303 0.371257
O O8 0.750000 0.378606 0.164725
O O9 0.960709 0.500000 0.158096
O O10 0.919889 0.403717 0.258060
O O11 0.017328 0.305492 0.172041
O O12 0.250000 0.884911 0.697588
O O13 0.095435 0.740759 0.675927
O O14 0.992874 0.848181 0.755156
O O15 0.250000 0.856146 0.934238
O O16 0.509540 0.855311 0.877288
O O17 0.415124 0.000000 0.937547
O O18 0.500000 0.856741 0.000000
O O19 0.250000 0.601670 0.645277
O O20 0.750000 0.802576 0.815124
#
# Coordination Sequence:
#
# PCOD9406556 Si02
#       7
#     8   8   8   8   8   8   8
#     4   9  15  21  31  47  69 100 142 196 257 320
#     4   9  15  22  33  53  83 121 166 217 274 332
#     4   9  18  33  52  73 100 138 183 229 276 324
#     4   9  16  27  42  62  92 131 176 225 275 326
#     4  10  21  39  64  93 124 156 188 221 261 316
#     4   8  14  24  38  56  79 110 153 207 264 318
#     4  11  21  33  53  82 116 151 187 230 278 330
#
# _framework density 19.733539
#
# number of rings (size 3 to 8) (size 9 to 14) (size 15 to 20)
#    0.000    2.714    0.000    3.857    0.000    8.000 
#    0.000    0.000    0.000    0.857    0.000    0.000 
#    0.000    0.571    0.000    2.143    0.000    5.143 
#
# Total GULP energy -312102.211423 kJ/mol
# GULP energy per Si atom -5573.253775 kJ/mol
# Density = 1.968862 g / cm^3
# Si number density = 19.733539 Si / 1000 Ang^3
#
#
#
# Elastic Constant Matrix: (Units=GPa)
#
#
# Indices 1 2 3 4 5 6 
#
# 1 183.3037 17.1597 88.7393 0.0000 0.0000 0.0000
# 2 17.1597 63.6665 15.9886 0.0000 0.0000 0.0000
# 3 88.7393 15.9886 130.5367 0.0000 0.0000 0.0000
# 4 0.0000 0.0000 0.0000 21.5377 0.0000 0.0000
# 5 0.0000 0.0000 0.0000 0.0000 33.7884 0.0000
# 6 0.0000 0.0000 0.0000 0.0000 0.0000 -1.6256
#
#
#
# Elastic Compliance Matrix: (Units=1/GPa)
#
#
# Indices 1 2 3 4 5 6 
#
# 1 0.008174 -0.000833 -0.005455 0.000000 0.000000 0.000000
# 2 -0.000833 0.016290 -0.001429 0.000000 0.000000 0.000000
# 3 -0.005455 -0.001429 0.011544 0.000000 0.000000 0.000000
# 4 0.000000 0.000000 0.000000 0.046430 0.000000 0.000000
# 5 0.000000 0.000000 0.000000 0.000000 0.029596 0.000000
# 6 0.000000 0.000000 0.000000 0.000000 0.000000 -0.615149
#
#
# Mechanical properties :
#
#
# Convention : Reuss Voigt Hill
#
# Bulk Modulus (GPa) = 48.60373 69.03132 58.81753
# Shear Modulus (GPa) = -10.39884 27.78137 8.69127
#
# Velocity S-wave (km/s) = -2.29806 3.75617 2.10092
# Velocity P-wave (km/s) = 4.20025 7.33958 5.97961
#
# Compressibility (1/GPa) = 0.02057455
#
# Stress axis : x y z
#
# Youngs Moduli (GPa) = 122.33712 61.38637 86.62627
#
# Poissons Ratio (x) = 0.05115 0.47252
# Poissons Ratio (y) = 0.10194 0.12377
# Poissons Ratio (z) = 0.66732 0.08771
#
# Static dielectric constant tensor:
#      x y z
#    x 1.688030 0.000000 0.000000 
#    y 0.000000 1.759310 0.000000 
#    z 0.000000 0.000000 1.652220 
# 
# From -- ./inp_files/32008.got.cif
#   From: 2010.05.17/outbox.cif.g08.bks.cpg/sg51_17_cif.got.tgz:32008.got - 2010.06.03 11:52:47.
