data_PCOD9406895
_publ_section_title
;
Structure prediction by ZEFSAII (Michael W. Deem and Ramdas Pophale) SiO2 
 PCOD9406895
Probable space group: P M M A
;
_chemical_formula_sum "Si O2"
_cell_formula_units_Z 38
_cell_length_a 8.910970
_cell_length_b 13.126788
_cell_length_c 16.472535
_cell_angle_alpha 90.000000
_cell_angle_beta 90.000000
_cell_angle_gamma 90.000000
_cell_volume 1926.832185
_symmetry_space_group_name_H-M "P M M A"
_symmetry_group_IT_number 51
_symmetry_cell_setting 'orthorhombic'
loop_
_space_group_symop_operation_xyz
x,y,z
1/2-x,-y,z
1/2+x,-y,-z
-x,y,-z
-x,-y,-z
1/2+x,y,-z
1/2-x,y,z
x,-y,z
loop_
_atom_site_type_symbol
_atom_site_label
_atom_site_fract_x
_atom_site_fract_y
_atom_site_fract_z
Si Si1 0.500000 0.661093 0.500000
Si Si2 0.921495 0.204229 0.350247
Si Si3 0.429772 0.889726 0.911295
Si Si4 0.929978 0.500000 0.908812
Si Si5 0.068990 0.689449 0.812594
Si Si6 0.750000 0.500000 0.549851
Si Si7 0.428774 0.000000 0.409107
O O1 0.574916 0.733773 0.433572
O O2 0.619828 0.588898 0.543466
O O3 0.750000 0.174085 0.329508
O O4 0.970637 0.283581 0.280151
O O5 0.016434 0.101836 0.362693
O O6 0.250000 0.888297 0.918880
O O7 0.471916 0.793073 0.859106
O O8 0.473609 0.000000 0.875906
O O9 0.500000 0.881922 0.000000
O O10 0.750000 0.500000 0.915703
O O11 0.986821 0.597208 0.857300
O O12 0.000000 0.500000 0.000000
O O13 0.250000 0.671936 0.817397
O O14 0.500000 0.000000 0.500000
O O15 0.250000 0.000000 0.416970
#
# Coordination Sequence:
#
# PCOD9406895 Si02
#       7
#     4   8   8   4   8   2   4
#     4  11  22  43  62  94 124 173 220 269 328 396
#     4  11  24  43  68  96 132 172 221 274 338 404
#     4   9  18  34  59  88 119 154 198 249 309 375
#     4  12  26  46  70  98 135 177 222 273 329 400
#     4  10  23  42  66  95 127 170 216 271 326 395
#     4  10  24  38  64  86 118 162 214 270 316 376
#     4  12  26  42  68  96 131 176 227 282 342 408
#
# _framework density 19.721488999999998
#
# number of rings (size 3 to 8) (size 9 to 14) (size 15 to 20)
#    0.000    1.474    2.105    2.526    2.947    5.053 
#    1.895    0.000    0.000    0.000    0.000    0.000 
#    0.000    0.000    0.000    0.000    0.000    0.000 
#
# Total GULP energy -211627.665359 kJ/mol
# GULP energy per Si atom -5569.149088 kJ/mol
# Density = 1.967660 g / cm^3
# Si number density = 19.721489 Si / 1000 Ang^3
#
#
#
# Elastic Constant Matrix: (Units=GPa)
#
#
# Indices 1 2 3 4 5 6 
#
# 1 98.7124 50.4811 29.9628 0.0000 0.0000 0.0000
# 2 50.4811 147.1413 67.1181 0.0000 0.0000 0.0000
# 3 29.9628 67.1181 113.2789 0.0000 0.0000 0.0000
# 4 0.0000 0.0000 0.0000 23.4233 0.0000 0.0000
# 5 0.0000 0.0000 0.0000 0.0000 23.8611 0.0000
# 6 0.0000 0.0000 0.0000 0.0000 0.0000 44.7016
#
#
#
# Elastic Compliance Matrix: (Units=1/GPa)
#
#
# Indices 1 2 3 4 5 6 
#
# 1 0.012374 -0.003772 -0.001038 0.000000 0.000000 0.000000
# 2 -0.003772 0.010463 -0.005202 0.000000 0.000000 0.000000
# 3 -0.001038 -0.005202 0.012184 0.000000 0.000000 0.000000
# 4 0.000000 0.000000 0.000000 0.042693 0.000000 0.000000
# 5 0.000000 0.000000 0.000000 0.000000 0.041909 0.000000
# 6 0.000000 0.000000 0.000000 0.000000 0.000000 0.022371
#
#
# Mechanical properties :
#
#
# Convention : Reuss Voigt Hill
#
# Bulk Modulus (GPa) = 66.67426 72.69517 69.68472
# Shear Modulus (GPa) = 29.93704 32.50190 31.21947
#
# Velocity S-wave (km/s) = 3.90037 4.06402 3.98303
# Velocity P-wave (km/s) = 7.35970 7.67871 7.52089
#
# Compressibility (1/GPa) = 0.01499829
#
# Stress axis : x y z
#
# Youngs Moduli (GPa) = 80.81136 95.57535 82.07209
#
# Poissons Ratio (x) = 0.36049 0.08522
# Poissons Ratio (y) = 0.30481 0.42691
# Poissons Ratio (z) = 0.08391 0.49715
#
# Static dielectric constant tensor:
#      x y z
#    x 1.695380 0.000000 0.000000 
#    y 0.000000 1.681150 0.000000 
#    z 0.000000 0.000000 1.727720 
# 
# From -- ./inp_files/27111.got.cif
#   From: 2010.05.17/outbox.cif.g08.bks.cpg/sg51_14_cif.got.tgz:27111.got - 2010.06.03 11:52:47.
