data_PCOD9406636
_publ_section_title
;
Structure prediction by ZEFSAII (Michael W. Deem and Ramdas Pophale) SiO2 
 PCOD9406636
Probable space group: P M M A
;
_chemical_formula_sum "Si O2"
_cell_formula_units_Z 30
_cell_length_a 9.345104
_cell_length_b 10.705721
_cell_length_c 15.213022
_cell_angle_alpha 90.000000
_cell_angle_beta 90.000000
_cell_angle_gamma 90.000000
_cell_volume 1522.003157
_symmetry_space_group_name_H-M "P M M A"
_symmetry_group_IT_number 51
_symmetry_cell_setting 'orthorhombic'
loop_
_space_group_symop_operation_xyz
x,y,z
1/2-x,-y,z
1/2+x,-y,-z
-x,y,-z
-x,-y,-z
1/2+x,y,-z
1/2-x,y,z
x,-y,z
loop_
_atom_site_type_symbol
_atom_site_label
_atom_site_fract_x
_atom_site_fract_y
_atom_site_fract_z
Si Si1 0.037690 0.000000 0.361446
Si Si2 0.080345 0.351067 0.907827
Si Si3 0.409839 0.352712 0.580351
Si Si4 0.250000 0.000000 0.529806
Si Si5 0.082910 0.256937 0.259462
O O1 0.071290 0.879942 0.301471
O O2 0.875835 0.000000 0.394689
O O3 0.130797 0.000000 0.449384
O O4 0.250000 0.322126 0.912537
O O5 0.068231 0.500000 0.888130
O O6 0.999497 0.275758 0.831728
O O7 0.000000 0.329481 0.000000
O O8 0.500000 0.296046 0.500000
O O9 0.250000 0.296529 0.584217
O O10 0.393782 0.500000 0.562988
O O11 0.498212 0.338860 0.668760
O O12 0.250000 0.292182 0.251733
#
# Coordination Sequence:
#
# PCOD9406636 Si02
#       5
#     4   8   8   2   8
#     4  11  26  42  63  92 122 168 216 262 310 361
#     4  10  22  42  68  97 127 161 204 254 313 376
#     4  10  22  37  54  81 117 156 199 249 307 367
#     4  10  24  46  64  82 124 170 220 264 304 356
#     4  12  24  39  61  89 124 160 207 256 306 370
#
# _framework density 19.710867
#
# number of rings (size 3 to 8) (size 9 to 14) (size 15 to 20)
#    0.000    1.333    1.333    3.200    7.467    6.400 
#    0.000    0.667    0.000    0.000    0.000    0.000 
#    0.000    0.000    0.000    0.000    0.000    0.000 
#
# Total GULP energy -167151.003774 kJ/mol
# GULP energy per Si atom -5571.700126 kJ/mol
# Density = 1.966600 g / cm^3
# Si number density = 19.710867 Si / 1000 Ang^3
#
#
#
# Elastic Constant Matrix: (Units=GPa)
#
#
# Indices 1 2 3 4 5 6 
#
# 1 240.4731 27.5647 85.8006 0.0000 0.0000 0.0000
# 2 27.5647 35.0447 23.6410 0.0000 0.0000 0.0000
# 3 85.8006 23.6410 145.7419 0.0000 0.0000 0.0000
# 4 0.0000 0.0000 0.0000 508.4362 0.0000 0.0000
# 5 0.0000 0.0000 0.0000 0.0000 42.4213 0.0000
# 6 0.0000 0.0000 0.0000 0.0000 0.0000 -0.7670
#
#
#
# Elastic Compliance Matrix: (Units=1/GPa)
#
#
# Indices 1 2 3 4 5 6 
#
# 1 0.005435 -0.002376 -0.002814 0.000000 0.000000 0.000000
# 2 -0.002376 0.033080 -0.003967 0.000000 0.000000 0.000000
# 3 -0.002814 -0.003967 0.009162 0.000000 0.000000 0.000000
# 4 0.000000 0.000000 0.000000 0.001967 0.000000 0.000000
# 5 0.000000 0.000000 0.000000 0.000000 0.023573 0.000000
# 6 0.000000 0.000000 0.000000 0.000000 0.000000 -1.303799
#
#
# Mechanical properties :
#
#
# Convention : Reuss Voigt Hill
#
# Bulk Modulus (GPa) = 34.05788 77.25248 55.65518
# Shear Modulus (GPa) = -4.15807 128.96831 62.40512
#
# Velocity S-wave (km/s) = -1.45400 8.09766 5.63285
# Velocity P-wave (km/s) = 3.80755 11.25644 8.40252
#
# Compressibility (1/GPa) = 0.02936178
#
# Stress axis : x y z
#
# Youngs Moduli (GPa) = 183.99372 30.22946 109.15046
#
# Poissons Ratio (x) = 0.07184 0.30717
# Poissons Ratio (y) = 0.43726 0.43299
# Poissons Ratio (z) = 0.51779 0.11992
#
# Static dielectric constant tensor:
#      x y z
#    x 1.712440 0.000000 0.000000 
#    y 0.000000 1.864920 0.000000 
#    z 0.000000 0.000000 1.645770 
# 
# From -- ./inp_files/20021.got.cif
#   From: 2010.05.17/outbox.cif.g08.bks.cpg/sg51_11_cif.got.tgz:20021.got - 2010.06.03 11:52:47.
