data_PCOD9406514
_publ_section_title
;
Structure prediction by ZEFSAII (Michael W. Deem and Ramdas Pophale) SiO2 
 PCOD9406514
Probable space group: P M M A
;
_chemical_formula_sum "Si O2"
_cell_formula_units_Z 64
_cell_length_a 8.779461
_cell_length_b 15.727994
_cell_length_c 25.313608
_cell_angle_alpha 90.000000
_cell_angle_beta 90.000000
_cell_angle_gamma 90.000000
_cell_volume 3495.386779
_symmetry_space_group_name_H-M "P M M A"
_symmetry_group_IT_number 51
_symmetry_cell_setting 'orthorhombic'
loop_
_space_group_symop_operation_xyz
x,y,z
1/2-x,-y,z
1/2+x,-y,-z
-x,y,-z
-x,-y,-z
1/2+x,y,-z
1/2-x,y,z
x,-y,z
loop_
_atom_site_type_symbol
_atom_site_label
_atom_site_fract_x
_atom_site_fract_y
_atom_site_fract_z
Si Si1 0.426029 0.370737 0.211211
Si Si2 0.430728 0.594218 0.899409
Si Si3 0.930753 0.225871 0.356483
Si Si4 0.433791 0.406101 0.331691
Si Si5 0.567546 0.765828 0.943321
Si Si6 0.932491 0.902499 0.558439
Si Si7 0.927016 0.177178 0.753911
Si Si8 0.935720 0.905658 0.858559
O O1 0.250000 0.395906 0.201400
O O2 0.527647 0.399311 0.162664
O O3 0.472196 0.403197 0.269104
O O4 0.428757 0.268764 0.217027
O O5 0.250000 0.603576 0.906394
O O6 0.476565 0.500000 0.918100
O O7 0.514870 0.671405 0.927775
O O8 0.750000 0.227053 0.360941
O O9 0.993053 0.322894 0.357604
O O10 0.001845 0.166566 0.401459
O O11 0.980638 0.187429 0.299767
O O12 0.250000 0.397399 0.334611
O O13 0.475914 0.500000 0.352348
O O14 0.750000 0.768208 0.945107
O O15 0.513936 0.832536 0.898701
O O16 0.500000 0.788697 0.000000
O O17 0.750000 0.895810 0.556563
O O18 0.000000 0.889652 0.500000
O O19 0.971213 0.000000 0.574616
O O20 0.750000 0.158735 0.740294
O O21 0.984252 0.112623 0.798340
O O22 0.750000 0.902158 0.857335
O O23 0.981189 0.000000 0.875512
#
# Coordination Sequence:
#
# PCOD9406514 Si02
#       8
#     8   8   8   8   8   8   8   8
#     4   9  16  30  52  78 107 143 184 224 269 322
#     4  11  23  36  53  79 108 139 176 219 270 328
#     4  11  22  34  53  85 123 159 193 236 286 339
#     4   9  18  33  53  78 112 155 200 240 279 330
#     4  11  23  41  61  81 104 136 175 221 275 330
#     4  10  21  39  63  88 115 151 196 245 293 342
#     4   9  17  33  54  79 112 150 190 225 268 326
#     4   9  18  35  60  85 108 138 178 221 268 328
#
# _framework density 18.309846
#
# number of rings (size 3 to 8) (size 9 to 14) (size 15 to 20)
#    0.000    2.125    1.250    3.375    0.000    5.500 
#    0.000    1.250    0.000    3.000    0.000    0.000 
#    0.000    0.000    0.000    0.000    0.000    0.000 
#
# Total GULP energy -357197.094031 kJ/mol
# GULP energy per Si atom -5581.204594 kJ/mol
# Density = 1.826817 g / cm^3
# Si number density = 18.309846 Si / 1000 Ang^3
#
#
#
# Elastic Constant Matrix: (Units=GPa)
#
#
# Indices 1 2 3 4 5 6 
#
# 1 55.9865 40.9872 34.6883 0.0000 0.0000 0.0000
# 2 40.9872 128.7476 67.3711 0.0000 0.0000 0.0000
# 3 34.6883 67.3711 83.1438 0.0000 0.0000 0.0000
# 4 0.0000 0.0000 0.0000 1.5869 0.0000 0.0000
# 5 0.0000 0.0000 0.0000 0.0000 30.2300 0.0000
# 6 0.0000 0.0000 0.0000 0.0000 0.0000 0.4596
#
#
#
# Elastic Compliance Matrix: (Units=1/GPa)
#
#
# Indices 1 2 3 4 5 6 
#
# 1 0.025460 -0.004422 -0.007039 0.000000 0.000000 0.000000
# 2 -0.004422 0.014253 -0.009704 0.000000 0.000000 0.000000
# 3 -0.007039 -0.009704 0.022827 0.000000 0.000000 0.000000
# 4 0.000000 0.000000 0.000000 0.630174 0.000000 0.000000
# 5 0.000000 0.000000 0.000000 0.000000 0.033080 0.000000
# 6 0.000000 0.000000 0.000000 0.000000 0.000000 2.175602
#
#
# Mechanical properties :
#
#
# Convention : Reuss Voigt Hill
#
# Bulk Modulus (GPa) = 49.48067 61.55233 55.51650
# Shear Modulus (GPa) = 1.69465 14.77740 8.23602
#
# Velocity S-wave (km/s) = 0.96309 2.84399 2.12318
# Velocity P-wave (km/s) = 5.32160 6.66891 6.03299
#
# Compressibility (1/GPa) = 0.02020991
#
# Stress axis : x y z
#
# Youngs Moduli (GPa) = 39.27745 70.16131 43.80701
#
# Poissons Ratio (x) = 0.31024 0.30836
# Poissons Ratio (y) = 0.17368 0.42511
# Poissons Ratio (z) = 0.27648 0.68086
#
# Static dielectric constant tensor:
#      x y z
#    x 1.611500 0.000000 0.000000 
#    y 0.000000 1.658130 0.000000 
#    z 0.000000 0.000000 1.607020 
# 
# From -- ./inp_files/34905.got.cif
#   From: 2010.05.17/outbox.cif.g08.bks.cpg/sg51_18_cif.got.tgz:34905.got - 2010.06.03 11:52:47.
