data_PCOD9406228
_publ_section_title
;
Structure prediction by ZEFSAII (Michael W. Deem and Ramdas Pophale) SiO2 
 PCOD9406228
Probable space group: P M M A
;
_chemical_formula_sum "Si O2"
_cell_formula_units_Z 48
_cell_length_a 9.069804
_cell_length_b 17.136357
_cell_length_c 16.251217
_cell_angle_alpha 90.000000
_cell_angle_beta 90.000000
_cell_angle_gamma 90.000000
_cell_volume 2525.819388
_symmetry_space_group_name_H-M "P M M A"
_symmetry_group_IT_number 51
_symmetry_cell_setting 'orthorhombic'
loop_
_space_group_symop_operation_xyz
x,y,z
1/2-x,-y,z
1/2+x,-y,-z
-x,y,-z
-x,-y,-z
1/2+x,y,-z
1/2-x,y,z
x,-y,z
loop_
_atom_site_type_symbol
_atom_site_label
_atom_site_fract_x
_atom_site_fract_y
_atom_site_fract_z
Si Si1 0.915742 0.592156 0.579750
Si Si2 0.921972 0.371473 0.915431
Si Si3 0.429044 0.806553 0.258374
Si Si4 0.081043 0.819151 0.081049
Si Si5 0.926441 0.909534 0.583734
Si Si6 0.426346 0.363002 0.745915
O O1 0.750000 0.625543 0.589228
O O2 0.899764 0.500000 0.564513
O O3 0.000000 0.625959 0.500000
O O4 0.007780 0.599677 0.663391
O O5 0.750000 0.393897 0.913565
O O6 0.927619 0.276108 0.916674
O O7 0.004020 0.395134 0.831229
O O8 0.000000 0.397812 0.000000
O O9 0.250000 0.791854 0.256009
O O10 0.470081 0.845540 0.171043
O O11 0.463445 0.858826 0.336766
O O12 0.517218 0.726044 0.261458
O O13 0.250000 0.840834 0.072522
O O14 0.000000 0.846633 0.000000
O O15 0.750000 0.907622 0.574285
O O16 0.000000 0.880173 0.500000
O O17 0.971144 0.000000 0.595326
O O18 0.250000 0.368483 0.748913
#
# Coordination Sequence:
#
# PCOD9406228 Si02
#       6
#     8   8   8   8   8   8
#     4  10  21  38  58  77  99 130 167 206 250 301
#     4   9  16  28  46  70 101 134 168 205 247 294
#     4   9  18  32  48  69  99 130 162 203 249 294
#     4   8  14  24  40  62  89 122 155 191 234 280
#     4   9  18  33  52  71  92 123 162 202 247 299
#     4  11  21  32  50  77 106 135 168 206 249 294
#
# _framework density 19.003734000000001
#
# number of rings (size 3 to 8) (size 9 to 14) (size 15 to 20)
#    0.000    2.667    0.000    3.500    0.000    6.333 
#    0.000    1.667    0.000    1.000    0.000    0.000 
#    0.000    0.000    0.000    0.000    0.000    1.833 
#
# Total GULP energy -267578.823202 kJ/mol
# GULP energy per Si atom -5574.558817 kJ/mol
# Density = 1.896048 g / cm^3
# Si number density = 19.003734 Si / 1000 Ang^3
#
#
#
# Elastic Constant Matrix: (Units=GPa)
#
#
# Indices 1 2 3 4 5 6 
#
# 1 113.2918 16.2975 84.8579 0.0000 0.0000 0.0000
# 2 16.2975 15.8090 28.6418 0.0000 0.0000 0.0000
# 3 84.8579 28.6418 196.3448 0.0000 0.0000 0.0000
# 4 0.0000 0.0000 0.0000 72.1533 0.0000 0.0000
# 5 0.0000 0.0000 0.0000 0.0000 38.2387 0.0000
# 6 0.0000 0.0000 0.0000 0.0000 0.0000 14.1902
#
#
#
# Elastic Compliance Matrix: (Units=1/GPa)
#
#
# Indices 1 2 3 4 5 6 
#
# 1 0.013281 -0.004475 -0.005087 0.000000 0.000000 0.000000
# 2 -0.004475 0.087486 -0.010828 0.000000 0.000000 0.000000
# 3 -0.005087 -0.010828 0.008871 0.000000 0.000000 0.000000
# 4 0.000000 0.000000 0.000000 0.013859 0.000000 0.000000
# 5 0.000000 0.000000 0.000000 0.000000 0.026152 0.000000
# 6 0.000000 0.000000 0.000000 0.000000 0.000000 0.070471
#
#
# Mechanical properties :
#
#
# Convention : Reuss Voigt Hill
#
# Bulk Modulus (GPa) = 14.52259 65.00443 39.76351
# Shear Modulus (GPa) = 17.61479 37.95966 27.78723
#
# Velocity S-wave (km/s) = 3.04783 4.47417 3.82802
# Velocity P-wave (km/s) = 4.47708 7.80841 6.36457
#
# Compressibility (1/GPa) = 0.06885824
#
# Stress axis : x y z
#
# Youngs Moduli (GPa) = 75.29682 11.43040 112.72442
#
# Poissons Ratio (x) = 0.05115 0.57343
# Poissons Ratio (y) = 0.33693 1.22059
# Poissons Ratio (z) = 0.38304 0.12377
#
# Static dielectric constant tensor:
#      x y z
#    x 1.654350 0.000000 0.000000 
#    y 0.000000 1.666950 0.000000 
#    z 0.000000 0.000000 1.679770 
# 
# From -- ./inp_files/21429.got.cif
#   From: 2010.05.17/outbox.cif.g08.bks.cpg/sg51_11_cif.got.tgz:21429.got - 2010.06.03 11:52:47.
