data_PCOD9406360
_publ_section_title
;
Structure prediction by ZEFSAII (Michael W. Deem and Ramdas Pophale) SiO2 
 PCOD9406360
Probable space group: P M M A
;
_chemical_formula_sum "Si O2"
_cell_formula_units_Z 48
_cell_length_a 9.279842
_cell_length_b 32.897937
_cell_length_c 7.336730
_cell_angle_alpha 90.000000
_cell_angle_beta 90.000000
_cell_angle_gamma 90.000000
_cell_volume 2239.813115
_symmetry_space_group_name_H-M "P M M A"
_symmetry_group_IT_number 51
_symmetry_cell_setting 'orthorhombic'
loop_
_space_group_symop_operation_xyz
x,y,z
1/2-x,-y,z
1/2+x,-y,-z
-x,y,-z
-x,-y,-z
1/2+x,y,-z
1/2-x,y,z
x,-y,z
loop_
_atom_site_type_symbol
_atom_site_label
_atom_site_fract_x
_atom_site_fract_y
_atom_site_fract_z
Si Si1 0.250000 0.108419 0.385195
Si Si2 0.575316 0.372351 0.692606
Si Si3 0.250000 0.168374 0.097786
Si Si4 0.076967 0.544595 0.806720
Si Si5 0.521704 0.044859 0.719213
Si Si6 0.250000 0.908664 0.818601
Si Si7 0.077665 0.706134 0.695837
Si Si8 0.500000 0.228873 0.000000
O O1 0.378690 0.083949 0.290793
O O2 0.250000 0.105725 0.604013
O O3 0.250000 0.152610 0.304264
O O4 0.500000 0.365218 0.500000
O O5 0.750000 0.372762 0.696732
O O6 0.509227 0.416386 0.736865
O O7 0.506513 0.332668 0.786931
O O8 0.250000 0.129881 0.954698
O O9 0.118203 0.197940 0.070063
O O10 0.250000 0.552635 0.818324
O O11 0.061715 0.500000 0.713323
O O12 0.000000 0.539809 0.000000
O O13 0.500000 0.039782 0.500000
O O14 0.384748 0.060719 0.829573
O O15 0.570757 0.000000 0.780881
O O16 0.250000 0.697634 0.669417
O O17 0.000000 0.715676 0.500000
O O18 0.057761 0.742904 0.836483
#
# Coordination Sequence:
#
# PCOD9406360 Si02
#       8
#     4   8   4   8   8   4   8   4
#     4  10  21  38  62  86 126 168 210 267 322 379
#     4  11  23  40  66  96 131 170 213 271 332 396
#     4  12  26  44  63  94 126 166 223 268 324 412
#     4  10  21  38  60  91 132 179 227 270 319 386
#     4   9  17  33  59  90 123 166 215 261 315 375
#     4  10  21  38  60  88 126 170 208 265 324 375
#     4  11  25  46  73 102 134 169 220 282 348 417
#     4  12  28  46  70  96 130 170 218 278 344 410
#
# _framework density 21.43036
#
# number of rings (size 3 to 8) (size 9 to 14) (size 15 to 20)
#    0.000    1.500    0.833    5.000    3.500    4.667 
#    0.000    2.500    0.000    0.000    0.000    0.000 
#    0.000    0.000    0.000    0.000    0.000    0.000 
#
# Total GULP energy -267221.987435 kJ/mol
# GULP energy per Si atom -5567.124738 kJ/mol
# Density = 2.138158 g / cm^3
# Si number density = 21.430360 Si / 1000 Ang^3
#
#
#
# Elastic Constant Matrix: (Units=GPa)
#
#
# Indices 1 2 3 4 5 6 
#
# 1 157.5842 44.4039 14.2039 0.0000 0.0000 0.0000
# 2 44.4039 143.2389 36.9038 0.0000 0.0000 0.0000
# 3 14.2039 36.9038 74.5993 0.0000 0.0000 0.0000
# 4 0.0000 0.0000 0.0000 37.5609 0.0000 0.0000
# 5 0.0000 0.0000 0.0000 0.0000 25.4878 0.0000
# 6 0.0000 0.0000 0.0000 0.0000 0.0000 51.2562
#
#
#
# Elastic Compliance Matrix: (Units=1/GPa)
#
#
# Indices 1 2 3 4 5 6 
#
# 1 0.006959 -0.002081 -0.000295 0.000000 0.000000 0.000000
# 2 -0.002081 0.008623 -0.003870 0.000000 0.000000 0.000000
# 3 -0.000295 -0.003870 0.015376 0.000000 0.000000 0.000000
# 4 0.000000 0.000000 0.000000 0.026623 0.000000 0.000000
# 5 0.000000 0.000000 0.000000 0.000000 0.039234 0.000000
# 6 0.000000 0.000000 0.000000 0.000000 0.000000 0.019510
#
#
# Mechanical properties :
#
#
# Convention : Reuss Voigt Hill
#
# Bulk Modulus (GPa) = 54.15580 62.93840 58.54710
# Shear Modulus (GPa) = 37.04438 41.52171 39.28304
#
# Velocity S-wave (km/s) = 4.16215 4.40650 4.28606
# Velocity P-wave (km/s) = 6.95869 7.43789 7.20228
#
# Compressibility (1/GPa) = 0.01846524
#
# Stress axis : x y z
#
# Youngs Moduli (GPa) = 143.70168 115.96261 65.03842
#
# Poissons Ratio (x) = 0.24133 0.01922
# Poissons Ratio (y) = 0.29906 0.25168
# Poissons Ratio (z) = 0.04246 0.44874
#
# Static dielectric constant tensor:
#      x y z
#    x 1.826190 0.000000 0.000000 
#    y 0.000000 1.900360 0.000000 
#    z 0.000000 0.000000 1.904950 
# 
# From -- ./inp_files/6328.got.cif
#   From: 2010.05.17/outbox.cif.g08.bks.cpg/sg51_4_cif.got.tgz:6328.got - 2010.06.03 11:52:47.
