data_PCOD9406078
_publ_section_title
;
Structure prediction by ZEFSAII (Michael W. Deem and Ramdas Pophale) SiO2 
 PCOD9406078
Probable space group: P M M A
;
_chemical_formula_sum "Si O2"
_cell_formula_units_Z 46
_cell_length_a 7.731778
_cell_length_b 12.927549
_cell_length_c 23.143272
_cell_angle_alpha 90.000000
_cell_angle_beta 90.000000
_cell_angle_gamma 90.000000
_cell_volume 2313.238053
_symmetry_space_group_name_H-M "P M M A"
_symmetry_group_IT_number 51
_symmetry_cell_setting 'orthorhombic'
loop_
_space_group_symop_operation_xyz
x,y,z
1/2-x,-y,z
1/2+x,-y,-z
-x,y,-z
-x,-y,-z
1/2+x,y,-z
1/2-x,y,z
x,-y,z
loop_
_atom_site_type_symbol
_atom_site_label
_atom_site_fract_x
_atom_site_fract_y
_atom_site_fract_z
Si Si1 0.456821 0.386280 0.432149
Si Si2 0.455808 0.114156 0.737377
Si Si3 0.545863 0.840739 0.394170
Si Si4 0.045787 0.000000 0.932016
Si Si5 0.041472 0.383097 0.064864
Si Si6 0.046746 0.201891 0.142239
Si Si7 0.750000 0.000000 0.566709
O O1 0.500000 0.385344 0.500000
O O2 0.250000 0.381104 0.424760
O O3 0.515117 0.500000 0.409659
O O4 0.534633 0.281203 0.407057
O O5 0.250000 0.106691 0.733904
O O6 0.509640 0.144316 0.672968
O O7 0.491745 0.185063 0.792022
O O8 0.528759 0.000000 0.750486
O O9 0.750000 0.872634 0.402006
O O10 0.406152 0.909152 0.429335
O O11 0.984941 0.101389 0.897472
O O12 0.250000 0.000000 0.928071
O O13 0.000000 0.000000 0.000000
O O14 0.250000 0.387032 0.069334
O O15 0.975298 0.500000 0.071890
O O16 0.969897 0.301757 0.110602
O O17 0.000000 0.347620 0.000000
O O18 0.250000 0.216931 0.144261
#
# Coordination Sequence:
#
# PCOD9406078 Si02
#       7
#     8   8   8   4   8   8   2
#     4  10  21  40  68  99 131 171 217 266 321 379
#     4  10  21  37  57  82 115 156 198 240 291 351
#     4  11  23  40  65  93 129 169 216 265 317 375
#     4  12  24  37  52  74 111 143 177 231 284 340
#     4   9  19  36  55  76 102 135 176 224 281 344
#     4  11  22  34  55  82 107 142 185 229 285 346
#     4  12  22  38  64  90 128 170 210 260 308 378
#
# _framework density 19.885543999999999
#
# number of rings (size 3 to 8) (size 9 to 14) (size 15 to 20)
#    0.000    1.565    2.609    2.609    1.217    3.826 
#    0.000    1.304    0.000    3.130    0.000    0.000 
#    0.000    0.000    0.000    0.000    0.000    0.000 
#
# Total GULP energy -256163.496696 kJ/mol
# GULP energy per Si atom -5568.771667 kJ/mol
# Density = 1.984028 g / cm^3
# Si number density = 19.885544 Si / 1000 Ang^3
#
#
#
# Elastic Constant Matrix: (Units=GPa)
#
#
# Indices 1 2 3 4 5 6 
#
# 1 74.4624 17.7447 2.0394 0.0000 0.0000 0.0000
# 2 17.7447 114.9201 20.0090 0.0000 0.0000 0.0000
# 3 2.0394 20.0090 28.0575 0.0000 0.0000 0.0000
# 4 0.0000 0.0000 0.0000 32.4926 0.0000 0.0000
# 5 0.0000 0.0000 0.0000 0.0000 23.7463 0.0000
# 6 0.0000 0.0000 0.0000 0.0000 0.0000 -3.9123
#
#
#
# Elastic Compliance Matrix: (Units=1/GPa)
#
#
# Indices 1 2 3 4 5 6 
#
# 1 0.013951 -0.002258 0.000596 0.000000 0.000000 0.000000
# 2 -0.002258 0.010301 -0.007182 0.000000 0.000000 0.000000
# 3 0.000596 -0.007182 0.040720 0.000000 0.000000 0.000000
# 4 0.000000 0.000000 0.000000 0.030776 0.000000 0.000000
# 5 0.000000 0.000000 0.000000 0.000000 0.042112 0.000000
# 6 0.000000 0.000000 0.000000 0.000000 0.000000 -0.255607
#
#
# Mechanical properties :
#
#
# Convention : Reuss Voigt Hill
#
# Bulk Modulus (GPa) = 21.14862 33.00290 27.07576
# Shear Modulus (GPa) = -59.31282 22.30846 -18.50218
#
# Velocity S-wave (km/s) = -5.46734 3.35303 -3.05361
# Velocity P-wave (km/s) = 5.40348 5.62342 1.10120
#
# Compressibility (1/GPa) = 0.04728441
#
# Stress axis : x y z
#
# Youngs Moduli (GPa) = 71.67754 97.07982 24.55826
#
# Poissons Ratio (x) = 0.21921 -0.01464
# Poissons Ratio (y) = 0.16185 0.17637
# Poissons Ratio (z) = -0.04274 0.69721
#
# Static dielectric constant tensor:
#      x y z
#    x 1.712410 0.000000 0.000000 
#    y 0.000000 1.754770 0.000000 
#    z 0.000000 0.000000 1.698120 
# 
# From -- ./inp_files/34590.got.cif
#   From: 2010.05.17/outbox.cif.g08.bks.cpg/sg51_18_cif.got.tgz:34590.got - 2010.06.03 11:52:47.
