data_PCOD9406873
_publ_section_title
;
Structure prediction by ZEFSAII (Michael W. Deem and Ramdas Pophale) SiO2 
 PCOD9406873
Probable space group: P M M A
;
_chemical_formula_sum "Si O2"
_cell_formula_units_Z 44
_cell_length_a 8.586314
_cell_length_b 28.999273
_cell_length_c 9.217773
_cell_angle_alpha 90.000000
_cell_angle_beta 90.000000
_cell_angle_gamma 90.000000
_cell_volume 2295.196568
_symmetry_space_group_name_H-M "P M M A"
_symmetry_group_IT_number 51
_symmetry_cell_setting 'orthorhombic'
loop_
_space_group_symop_operation_xyz
x,y,z
1/2-x,-y,z
1/2+x,-y,-z
-x,y,-z
-x,-y,-z
1/2+x,y,-z
1/2-x,y,z
x,-y,z
loop_
_atom_site_type_symbol
_atom_site_label
_atom_site_fract_x
_atom_site_fract_y
_atom_site_fract_z
Si Si1 0.062800 0.141220 0.838028
Si Si2 0.563688 0.500000 0.163662
Si Si3 0.562421 0.411681 0.663653
Si Si4 0.937695 0.680225 0.837037
Si Si5 0.062679 0.771576 0.337192
Si Si6 0.937952 0.051941 0.338199
O O1 0.250000 0.142623 0.839532
O O2 0.011602 0.092287 0.769656
O O3 0.000517 0.182503 0.738708
O O4 0.000000 0.146515 0.000000
O O5 0.750000 0.500000 0.161132
O O6 0.502917 0.455072 0.248110
O O7 0.500000 0.500000 0.000000
O O8 0.500000 0.412102 0.500000
O O9 0.750000 0.414003 0.661429
O O10 0.514407 0.364639 0.745196
O O11 0.750000 0.680361 0.842681
O O12 0.987519 0.726907 0.755683
O O13 0.000000 0.678323 0.000000
O O14 0.250000 0.772942 0.339854
O O15 0.000000 0.768005 0.500000
O O16 0.750000 0.052442 0.343300
O O17 0.000000 0.060993 0.500000
O O18 0.987807 0.000000 0.296118
#
# Coordination Sequence:
#
# PCOD9406873 Si02
#       6
#     8   4   8   8   8   8
#     4  11  23  38  57  83 115 151 191 237 288 343
#     4  12  25  42  63  90 122 158 198 244 295 348
#     4  11  23  41  63  90 121 157 199 243 291 344
#     4  10  23  40  61  88 119 154 194 239 289 343
#     4  11  23  40  61  87 117 152 193 238 288 343
#     4   9  19  36  57  81 110 145 187 234 284 339
#
# _framework density 19.170470999999999
#
# number of rings (size 3 to 8) (size 9 to 14) (size 15 to 20)
#    0.000    1.455    0.000    4.909    0.000    9.091 
#    0.000    0.000    0.000    0.000    0.000    0.000 
#    0.000    0.000    0.000    0.000    0.000    0.000 
#
# Total GULP energy -246065.460277 kJ/mol
# GULP energy per Si atom -5592.396824 kJ/mol
# Density = 1.912684 g / cm^3
# Si number density = 19.170471 Si / 1000 Ang^3
#
#
#
# Elastic Constant Matrix: (Units=GPa)
#
#
# Indices 1 2 3 4 5 6 
#
# 1 58.6048 47.1620 44.8354 0.0000 0.0000 0.0000
# 2 47.1620 168.3916 110.6368 0.0000 0.0000 0.0000
# 3 44.8354 110.6368 195.3199 0.0000 0.0000 0.0000
# 4 0.0000 0.0000 0.0000 47.5817 0.0000 0.0000
# 5 0.0000 0.0000 0.0000 0.0000 41.0277 0.0000
# 6 0.0000 0.0000 0.0000 0.0000 0.0000 56.9715
#
#
#
# Elastic Compliance Matrix: (Units=1/GPa)
#
#
# Indices 1 2 3 4 5 6 
#
# 1 0.022814 -0.004697 -0.002577 0.000000 0.000000 0.000000
# 2 -0.004697 0.010426 -0.004827 0.000000 0.000000 0.000000
# 3 -0.002577 -0.004827 0.008446 0.000000 0.000000 0.000000
# 4 0.000000 0.000000 0.000000 0.021016 0.000000 0.000000
# 5 0.000000 0.000000 0.000000 0.000000 0.024374 0.000000
# 6 0.000000 0.000000 0.000000 0.000000 0.000000 0.017553
#
#
# Mechanical properties :
#
#
# Convention : Reuss Voigt Hill
#
# Bulk Modulus (GPa) = 57.19440 91.95386 74.57413
# Shear Modulus (GPa) = 37.13106 43.76167 40.44637
#
# Velocity S-wave (km/s) = 4.40578 4.78301 4.59827
# Velocity P-wave (km/s) = 7.46864 8.86417 8.19616
#
# Compressibility (1/GPa) = 0.01748423
#
# Stress axis : x y z
#
# Youngs Moduli (GPa) = 43.83195 95.91703 118.40436
#
# Poissons Ratio (x) = 0.45051 0.30507
# Poissons Ratio (y) = 0.20587 0.57158
# Poissons Ratio (z) = 0.11293 0.46302
#
# Static dielectric constant tensor:
#      x y z
#    x 1.653050 0.000000 0.000000 
#    y 0.000000 1.660910 0.000000 
#    z 0.000000 0.000000 1.606300 
# 
# From -- ./inp_files/5836.got.cif
#   From: 2010.05.17/outbox.cif.g08.bks.cpg/sg51_3_cif.got.tgz:5836.got - 2010.06.03 11:52:47.
