data_PCOD9406793
_publ_section_title
;
Structure prediction by ZEFSAII (Michael W. Deem and Ramdas Pophale) SiO2 
 PCOD9406793
Probable space group: P M M A
;
_chemical_formula_sum "Si O2"
_cell_formula_units_Z 40
_cell_length_a 11.442995
_cell_length_b 8.188610
_cell_length_c 19.263928
_cell_angle_alpha 90.000000
_cell_angle_beta 90.000000
_cell_angle_gamma 90.000000
_cell_volume 1805.072883
_symmetry_space_group_name_H-M "P M M A"
_symmetry_group_IT_number 51
_symmetry_cell_setting 'orthorhombic'
loop_
_space_group_symop_operation_xyz
x,y,z
1/2-x,-y,z
1/2+x,-y,-z
-x,y,-z
-x,-y,-z
1/2+x,y,-z
1/2-x,y,z
x,-y,z
loop_
_atom_site_type_symbol
_atom_site_label
_atom_site_fract_x
_atom_site_fract_y
_atom_site_fract_z
Si Si1 0.012523 0.195277 0.420698
Si Si2 0.878604 0.307832 0.030930
Si Si3 0.502864 0.190307 0.158345
Si Si4 0.750000 0.802455 0.814538
Si Si5 0.116273 0.308222 0.708933
Si Si6 0.250000 0.304774 0.346434
O O1 0.136230 0.241834 0.386805
O O2 0.000000 0.251613 0.500000
O O3 0.916435 0.271246 0.369993
O O4 0.000024 0.000000 0.419681
O O5 0.750000 0.238186 0.013444
O O6 0.875926 0.500000 0.013478
O O7 0.903359 0.286432 0.112784
O O8 0.000000 0.236564 0.000000
O O9 0.370185 0.253848 0.149758
O O10 0.533950 0.210011 0.238959
O O11 0.508176 0.000000 0.139359
O O12 0.750000 0.752014 0.733781
O O13 0.750000 0.000000 0.816571
O O14 0.250000 0.264637 0.722641
O O15 0.098604 0.500000 0.722334
O O16 0.250000 0.500000 0.346241
#
# Coordination Sequence:
#
# PCOD9406793 Si02
#       6
#     8   8   8   4   8   4
#     4  11  25  43  63  88 122 165 210 259 317 383
#     4  10  23  43  66  95 131 170 212 263 319 379
#     4  11  23  40  65  94 127 167 211 260 316 379
#     4  10  22  40  62  92 128 165 208 265 320 378
#     4  11  24  41  62  91 124 160 207 263 318 377
#     4  12  24  40  66  94 124 161 206 263 324 380
#
# _framework density 22.159770000000002
#
# number of rings (size 3 to 8) (size 9 to 14) (size 15 to 20)
#    0.000    1.200    2.000    3.300    2.800    7.200 
#    0.000    0.000    0.000    0.000    0.000    0.000 
#    0.000    0.000    0.000    0.000    0.000    0.000 
#
# Total GULP energy -223682.944907 kJ/mol
# GULP energy per Si atom -5592.073623 kJ/mol
# Density = 2.210933 g / cm^3
# Si number density = 22.159770 Si / 1000 Ang^3
#
#
#
# Elastic Constant Matrix: (Units=GPa)
#
#
# Indices 1 2 3 4 5 6 
#
# 1 148.3538 25.4346 23.4487 0.0000 0.0000 0.0000
# 2 25.4346 23.5117 -8.3088 0.0000 0.0000 0.0000
# 3 23.4487 -8.3088 66.6437 0.0000 0.0000 0.0000
# 4 0.0000 0.0000 0.0000 31.3742 0.0000 0.0000
# 5 0.0000 0.0000 0.0000 0.0000 31.5840 0.0000
# 6 0.0000 0.0000 0.0000 0.0000 0.0000 21.5364
#
#
#
# Elastic Compliance Matrix: (Units=1/GPa)
#
#
# Indices 1 2 3 4 5 6 
#
# 1 0.009586 -0.012094 -0.004881 0.000000 0.000000 0.000000
# 2 -0.012094 0.059752 0.011705 0.000000 0.000000 0.000000
# 3 -0.004881 0.011705 0.018182 0.000000 0.000000 0.000000
# 4 0.000000 0.000000 0.000000 0.031873 0.000000 0.000000
# 5 0.000000 0.000000 0.000000 0.000000 0.031662 0.000000
# 6 0.000000 0.000000 0.000000 0.000000 0.000000 0.046433
#
#
# Mechanical properties :
#
#
# Convention : Reuss Voigt Hill
#
# Bulk Modulus (GPa) = 12.99050 35.51758 24.25404
# Shear Modulus (GPa) = 21.39619 30.09457 25.74538
#
# Velocity S-wave (km/s) = 3.11069 3.68920 3.41223
# Velocity P-wave (km/s) = 4.33322 5.84891 5.14716
#
# Compressibility (1/GPa) = 0.07697933
#
# Stress axis : x y z
#
# Youngs Moduli (GPa) = 104.32352 16.73592 55.00027
#
# Poissons Ratio (x) = 0.20241 0.26843
# Poissons Ratio (y) = 1.26172 -0.64378
# Poissons Ratio (z) = 0.50916 -0.19589
#
# Static dielectric constant tensor:
#      x y z
#    x 1.836110 0.000000 0.000000 
#    y 0.000000 1.774820 0.000000 
#    z 0.000000 0.000000 1.828140 
# 
# From -- ./inp_files/32838.got.cif
#   From: 2010.05.17/outbox.cif.g08.bks.cpg/sg51_17_cif.got.tgz:32838.got - 2010.06.03 11:52:47.
