data_PCOD9406428
_publ_section_title
;
Structure prediction by ZEFSAII (Michael W. Deem and Ramdas Pophale) SiO2 
 PCOD9406428
Probable space group: P M M A
;
_chemical_formula_sum "Si O2"
_cell_formula_units_Z 52
_cell_length_a 8.260435
_cell_length_b 15.485667
_cell_length_c 21.056161
_cell_angle_alpha 90.000000
_cell_angle_beta 90.000000
_cell_angle_gamma 90.000000
_cell_volume 2693.469282
_symmetry_space_group_name_H-M "P M M A"
_symmetry_group_IT_number 51
_symmetry_cell_setting 'orthorhombic'
loop_
_space_group_symop_operation_xyz
x,y,z
1/2-x,-y,z
1/2+x,-y,-z
-x,y,-z
-x,-y,-z
1/2+x,y,-z
1/2-x,y,z
x,-y,z
loop_
_atom_site_type_symbol
_atom_site_label
_atom_site_fract_x
_atom_site_fract_y
_atom_site_fract_z
Si Si1 0.556396 0.401806 0.070907
Si Si2 0.944685 0.000000 0.428810
Si Si3 0.054038 0.404900 0.706357
Si Si4 0.059634 0.170799 0.363243
Si Si5 0.052840 0.099834 0.225373
Si Si6 0.443138 0.721522 0.182928
Si Si7 0.938953 0.342227 0.427742
O O1 0.750000 0.403378 0.072218
O O2 0.497535 0.500000 0.084158
O O3 0.498174 0.335309 0.123643
O O4 0.500000 0.378896 0.000000
O O5 0.000000 0.000000 0.500000
O O6 0.026736 0.083434 0.399686
O O7 0.750000 0.000000 0.420535
O O8 0.250000 0.400945 0.705251
O O9 0.006739 0.500000 0.730666
O O10 0.994607 0.395109 0.633331
O O11 0.997287 0.329208 0.753104
O O12 0.250000 0.193811 0.361331
O O13 0.006364 0.143183 0.292669
O O14 0.967762 0.245510 0.401262
O O15 0.250000 0.094508 0.224669
O O16 0.001432 0.177970 0.178848
O O17 0.995252 0.000000 0.218348
O O18 0.250000 0.723667 0.184890
O O19 0.750000 0.361726 0.431307
O O20 0.000000 0.353055 0.500000
#
# Coordination Sequence:
#
# PCOD9406428 Si02
#       7
#     8   4   8   8   8   8   8
#     4  10  21  38  61  91 128 165 197 232 276 328
#     4  12  24  36  50  74 102 134 177 228 291 356
#     4  10  22  39  57  79 110 148 190 238 292 347
#     4  11  20  36  57  76 102 138 181 232 291 349
#     4   9  18  34  57  83 111 145 186 232 282 334
#     4  11  21  35  60  91 120 153 191 234 284 339
#     4  11  23  38  55  75 103 140 186 239 295 352
#
# _framework density 19.305958
#
# number of rings (size 3 to 8) (size 9 to 14) (size 15 to 20)
#    0.000    1.538    2.308    3.462    0.000    4.000 
#    0.000    0.000    0.000    0.462    0.000    0.000 
#    0.000    0.000    0.000    0.000    0.000    0.000 
#
# Total GULP energy -289939.762631 kJ/mol
# GULP energy per Si atom -5575.764666 kJ/mol
# Density = 1.926202 g / cm^3
# Si number density = 19.305958 Si / 1000 Ang^3
#
#
#
# Elastic Constant Matrix: (Units=GPa)
#
#
# Indices 1 2 3 4 5 6 
#
# 1 22.3061 8.8895 18.5100 0.0000 0.0000 0.0000
# 2 8.8895 135.0008 70.7338 0.0000 0.0000 0.0000
# 3 18.5100 70.7338 117.9725 0.0000 0.0000 0.0000
# 4 0.0000 0.0000 0.0000 36.4682 0.0000 0.0000
# 5 0.0000 0.0000 0.0000 0.0000 9.8134 0.0000
# 6 0.0000 0.0000 0.0000 0.0000 0.0000 19.3441
#
#
#
# Elastic Compliance Matrix: (Units=1/GPa)
#
#
# Indices 1 2 3 4 5 6 
#
# 1 0.051682 0.001233 -0.008848 0.000000 0.000000 0.000000
# 2 0.001233 0.010830 -0.006687 0.000000 0.000000 0.000000
# 3 -0.008848 -0.006687 0.013874 0.000000 0.000000 0.000000
# 4 0.000000 0.000000 0.000000 0.027421 0.000000 0.000000
# 5 0.000000 0.000000 0.000000 0.000000 0.101902 0.000000
# 6 0.000000 0.000000 0.000000 0.000000 0.000000 0.051695
#
#
# Mechanical properties :
#
#
# Convention : Reuss Voigt Hill
#
# Bulk Modulus (GPa) = 20.92855 52.39401 36.66128
# Shear Modulus (GPa) = 16.55985 24.93488 20.74737
#
# Velocity S-wave (km/s) = 2.93193 3.59773 3.28176
# Velocity P-wave (km/s) = 4.72500 6.66753 5.77847
#
# Compressibility (1/GPa) = 0.04778161
#
# Stress axis : x y z
#
# Youngs Moduli (GPa) = 19.34917 92.33894 72.07721
#
# Poissons Ratio (x) = -0.11384 0.63775
# Poissons Ratio (y) = -0.02385 0.48196
# Poissons Ratio (z) = 0.17120 0.61744
#
# Static dielectric constant tensor:
#      x y z
#    x 1.675700 0.000000 0.000000 
#    y 0.000000 1.691260 0.000000 
#    z 0.000000 0.000000 1.668910 
# 
# From -- ./inp_files/31727.got.cif
#   From: 2010.05.17/outbox.cif.g08.bks.cpg/sg51_16_cif.got.tgz:31727.got - 2010.06.03 11:52:47.
