data_PCOD9406244
_publ_section_title
;
Structure prediction by ZEFSAII (Michael W. Deem and Ramdas Pophale) SiO2 
 PCOD9406244
Probable space group: P M M A
;
_chemical_formula_sum "Si O2"
_cell_formula_units_Z 64
_cell_length_a 18.734369
_cell_length_b 28.635354
_cell_length_c 6.935349
_cell_angle_alpha 90.000000
_cell_angle_beta 90.000000
_cell_angle_gamma 90.000000
_cell_volume 3720.574001
_symmetry_space_group_name_H-M "P M M A"
_symmetry_group_IT_number 51
_symmetry_cell_setting 'orthorhombic'
loop_
_space_group_symop_operation_xyz
x,y,z
1/2-x,-y,z
1/2+x,-y,-z
-x,y,-z
-x,-y,-z
1/2+x,y,-z
1/2-x,y,z
x,-y,z
loop_
_atom_site_type_symbol
_atom_site_label
_atom_site_fract_x
_atom_site_fract_y
_atom_site_fract_z
Si Si1 0.079667 0.379605 0.566505
Si Si2 0.665962 0.370650 0.825240
Si Si3 0.419974 0.122291 0.583212
Si Si4 0.418128 0.055037 0.930767
Si Si5 0.422458 0.694789 0.900594
Si Si6 0.335077 0.871981 0.190593
Si Si7 0.834251 0.554986 0.147405
Si Si8 0.580892 0.195996 0.078313
O O1 0.125999 0.371223 0.376677
O O2 0.076755 0.333365 0.700191
O O3 0.116778 0.419488 0.695540
O O4 0.000000 0.392028 0.500000
O O5 0.750000 0.364888 0.797681
O O6 0.634307 0.330284 0.960951
O O7 0.653543 0.418551 0.944904
O O8 0.500000 0.122070 0.500000
O O9 0.410109 0.076973 0.718360
O O10 0.365851 0.125339 0.406162
O O11 0.411702 0.165863 0.727912
O O12 0.404280 0.000000 0.934676
O O13 0.500000 0.063146 0.000000
O O14 0.367152 0.084103 0.072376
O O15 0.406796 0.749542 0.883219
O O16 0.500000 0.689525 0.000000
O O17 0.250000 0.871741 0.187120
O O18 0.367233 0.826761 0.080736
O O19 0.750000 0.561711 0.195781
O O20 0.848137 0.500000 0.135277
O O21 0.500000 0.190197 0.000000
#
# Coordination Sequence:
#
# PCOD9406244 Si02
#       8
#     8   8   8   8   8   8   8   8
#     4  11  21  35  58  88 117 148 189 240 290 340
#     4  10  21  38  58  81 114 152 189 237 291 340
#     4  11  19  36  60  89 112 148 195 236 280 339
#     4  10  21  38  62  87 113 151 196 236 278 341
#     4  10  21  38  59  85 114 150 190 234 284 342
#     4  11  23  39  57  84 121 152 185 241 296 334
#     4   9  20  38  58  81 113 154 195 234 282 344
#     4  10  21  38  62  84 111 152 195 233 280 343
#
# _framework density 17.201647000000001
#
# number of rings (size 3 to 8) (size 9 to 14) (size 15 to 20)
#    0.000    1.750    3.750    1.125    0.000    6.250 
#    0.000    1.875    0.000    0.000    0.000    0.000 
#    0.000    0.000    0.000    0.000    0.000    0.000 
#
# Total GULP energy -357326.018394 kJ/mol
# GULP energy per Si atom -5583.219037 kJ/mol
# Density = 1.716250 g / cm^3
# Si number density = 17.201647 Si / 1000 Ang^3
#
#
#
# Elastic Constant Matrix: (Units=GPa)
#
#
# Indices 1 2 3 4 5 6 
#
# 1 128.9723 65.6541 74.1357 0.0000 0.0000 0.0000
# 2 65.6541 146.4395 67.4923 0.0000 0.0000 0.0000
# 3 74.1357 67.4923 142.0493 0.0000 0.0000 0.0000
# 4 0.0000 0.0000 0.0000 6.5440 0.0000 0.0000
# 5 0.0000 0.0000 0.0000 0.0000 32.6841 0.0000
# 6 0.0000 0.0000 0.0000 0.0000 0.0000 6.3823
#
#
#
# Elastic Compliance Matrix: (Units=1/GPa)
#
#
# Indices 1 2 3 4 5 6 
#
# 1 0.012168 -0.003237 -0.004812 0.000000 0.000000 0.000000
# 2 -0.003237 0.009605 -0.002874 0.000000 0.000000 0.000000
# 3 -0.004812 -0.002874 0.010917 0.000000 0.000000 0.000000
# 4 0.000000 0.000000 0.000000 0.152813 0.000000 0.000000
# 5 0.000000 0.000000 0.000000 0.000000 0.030596 0.000000
# 6 0.000000 0.000000 0.000000 0.000000 0.000000 0.156683
#
#
# Mechanical properties :
#
#
# Convention : Reuss Voigt Hill
#
# Bulk Modulus (GPa) = 92.23128 92.44726 92.33927
# Shear Modulus (GPa) = 12.55518 23.13401 17.84460
#
# Velocity S-wave (km/s) = 2.70456 3.67123 3.22433
# Velocity P-wave (km/s) = 7.96787 8.47529 8.22549
#
# Compressibility (1/GPa) = 0.01084231
#
# Stress axis : x y z
#
# Youngs Moduli (GPa) = 82.18465 104.11508 91.60188
#
# Poissons Ratio (x) = 0.33706 0.44080
# Poissons Ratio (y) = 0.26606 0.26326
# Poissons Ratio (z) = 0.39549 0.29922
#
# Static dielectric constant tensor:
#      x y z
#    x 1.566100 0.000000 0.000000 
#    y 0.000000 1.567280 0.000000 
#    z 0.000000 0.000000 1.562710 
# 
# From -- ./inp_files/2101.got.cif
#   From: 2010.05.17/outbox.cif.g08.bks.cpg/sg51_2_cif.got.tgz:2101.got - 2010.06.03 11:52:47.
