data_PCOD9406396
_publ_section_title
;
Structure prediction by ZEFSAII (Michael W. Deem and Ramdas Pophale) SiO2 
 PCOD9406396
Probable space group: P M M A
;
_chemical_formula_sum "Si O2"
_cell_formula_units_Z 34
_cell_length_a 9.300014
_cell_length_b 7.610494
_cell_length_c 23.076527
_cell_angle_alpha 90.000000
_cell_angle_beta 90.000000
_cell_angle_gamma 90.000000
_cell_volume 1633.303522
_symmetry_space_group_name_H-M "P M M A"
_symmetry_group_IT_number 51
_symmetry_cell_setting 'orthorhombic'
loop_
_space_group_symop_operation_xyz
x,y,z
1/2-x,-y,z
1/2+x,-y,-z
-x,y,-z
-x,-y,-z
1/2+x,y,-z
1/2-x,y,z
x,-y,z
loop_
_atom_site_type_symbol
_atom_site_label
_atom_site_fract_x
_atom_site_fract_y
_atom_site_fract_z
Si Si1 0.588630 0.208081 0.554325
Si Si2 0.586491 0.788999 0.784633
Si Si3 0.087654 0.292199 0.668542
Si Si4 0.921296 0.792335 0.097916
Si Si5 0.500000 0.500000 0.000000
O O1 0.500000 0.282876 0.500000
O O2 0.750000 0.281455 0.558781
O O3 0.502431 0.226146 0.613901
O O4 0.602838 0.000000 0.543782
O O5 0.750000 0.720647 0.782196
O O6 0.495551 0.740532 0.728267
O O7 0.506399 0.739806 0.843892
O O8 0.594115 0.000000 0.785214
O O9 0.250000 0.218870 0.670158
O O10 0.098039 0.500000 0.661135
O O11 0.750000 0.783110 0.107978
O O12 0.954897 0.000000 0.084636
O O13 0.961992 0.655837 0.047920
#
# Coordination Sequence:
#
# PCOD9406396 Si02
#       5
#     8   8   8   8   2
#     4  10  21  38  61  88 118 156 204 254 307 368
#     4  10  22  41  65  92 123 160 205 258 313 369
#     4  11  24  39  58  87 123 162 205 252 307 369
#     4  10  23  43  66  95 132 173 217 265 321 385
#     4  12  24  40  68 100 130 168 216 266 318 378
#
# _framework density 20.816706
#
# number of rings (size 3 to 8) (size 9 to 14) (size 15 to 20)
#    0.000    1.647    0.000    3.529    1.647    9.882 
#    0.000    2.353    0.000    0.000    0.000    0.000 
#    0.000    0.000    0.000    0.000    0.000    0.000 
#
# Total GULP energy -189428.217926 kJ/mol
# GULP energy per Si atom -5571.418174 kJ/mol
# Density = 2.076933 g / cm^3
# Si number density = 20.816706 Si / 1000 Ang^3
#
#
#
# Elastic Constant Matrix: (Units=GPa)
#
#
# Indices 1 2 3 4 5 6 
#
# 1 191.4851 40.8527 129.4665 0.0000 0.0000 0.0000
# 2 40.8527 75.2353 33.6706 0.0000 0.0000 0.0000
# 3 129.4665 33.6706 139.7635 0.0000 0.0000 0.0000
# 4 0.0000 0.0000 0.0000 72.3744 0.0000 0.0000
# 5 0.0000 0.0000 0.0000 0.0000 1.0449 0.0000
# 6 0.0000 0.0000 0.0000 0.0000 0.0000 13.9903
#
#
#
# Elastic Compliance Matrix: (Units=1/GPa)
#
#
# Indices 1 2 3 4 5 6 
#
# 1 0.014252 -0.002052 -0.012708 0.000000 0.000000 0.000000
# 2 -0.002052 0.015193 -0.001760 0.000000 0.000000 0.000000
# 3 -0.012708 -0.001760 0.019350 0.000000 0.000000 0.000000
# 4 0.000000 0.000000 0.000000 0.013817 0.000000 0.000000
# 5 0.000000 0.000000 0.000000 0.000000 0.957068 0.000000
# 6 0.000000 0.000000 0.000000 0.000000 0.000000 0.071478
#
#
# Mechanical properties :
#
#
# Convention : Reuss Voigt Hill
#
# Bulk Modulus (GPa) = 63.46229 90.49594 76.97911
# Shear Modulus (GPa) = 4.42694 30.98152 17.70423
#
# Velocity S-wave (km/s) = 1.45988 3.86204 2.91947
# Velocity P-wave (km/s) = 5.77876 7.96582 6.95875
#
# Compressibility (1/GPa) = 0.01575739
#
# Stress axis : x y z
#
# Youngs Moduli (GPa) = 70.16605 65.81889 51.67880
#
# Poissons Ratio (x) = 0.13504 0.65672
# Poissons Ratio (y) = 0.14395 0.09094
# Poissons Ratio (z) = 0.89165 0.11582
#
# Static dielectric constant tensor:
#      x y z
#    x 1.762430 0.000000 0.000000 
#    y 0.000000 1.767170 0.000000 
#    z 0.000000 0.000000 1.691580 
# 
# From -- ./inp_files/31174.got.cif
#   From: 2010.05.17/outbox.cif.g08.bks.cpg/sg51_16_cif.got.tgz:31174.got - 2010.06.03 11:52:47.
