data_PCOD9406962
_publ_section_title
;
Structure prediction by ZEFSAII (Michael W. Deem and Ramdas Pophale) SiO2 
 PCOD9406962
Probable space group: P M M A
;
_chemical_formula_sum "Si O2"
_cell_formula_units_Z 64
_cell_length_a 17.894698
_cell_length_b 14.502027
_cell_length_c 13.266371
_cell_angle_alpha 90.000000
_cell_angle_beta 90.000000
_cell_angle_gamma 90.000000
_cell_volume 3442.747893
_symmetry_space_group_name_H-M "P M M A"
_symmetry_group_IT_number 51
_symmetry_cell_setting 'orthorhombic'
loop_
_space_group_symop_operation_xyz
x,y,z
1/2-x,-y,z
1/2+x,-y,-z
-x,y,-z
-x,-y,-z
1/2+x,y,-z
1/2-x,y,z
x,-y,z
loop_
_atom_site_type_symbol
_atom_site_label
_atom_site_fract_x
_atom_site_fract_y
_atom_site_fract_z
Si Si1 0.440392 0.752483 0.420212
Si Si2 0.333559 0.107679 0.528288
Si Si3 0.556663 0.393151 0.873939
Si Si4 0.168826 0.609421 0.962518
Si Si5 0.663004 0.395216 0.681669
Si Si6 0.451667 0.255859 0.755325
Si Si7 0.835561 0.892481 0.228322
Si Si8 0.334482 0.606567 0.719517
O O1 0.500000 0.715390 0.500000
O O2 0.396260 0.834828 0.472876
O O3 0.382066 0.674861 0.387326
O O4 0.486410 0.783545 0.320903
O O5 0.250000 0.140532 0.501119
O O6 0.339467 0.113006 0.649668
O O7 0.339187 0.000000 0.502161
O O8 0.528821 0.500000 0.883475
O O9 0.596876 0.358744 0.975587
O O10 0.622239 0.394345 0.790042
O O11 0.494604 0.324686 0.830610
O O12 0.250000 0.648626 0.993951
O O13 0.170646 0.500000 0.985441
O O14 0.165289 0.615752 0.841780
O O15 0.750000 0.371557 0.690939
O O16 0.657419 0.500000 0.642704
O O17 0.399294 0.178537 0.806063
O O18 0.395969 0.320185 0.688499
O O19 0.750000 0.866431 0.199469
O O20 0.847111 0.000000 0.200484
O O21 0.250000 0.627034 0.684694
O O22 0.351669 0.500000 0.695390
#
# Coordination Sequence:
#
# PCOD9406962 Si02
#       8
#     8   8   8   8   8   8   8   8
#     4  11  21  32  46  68  94 125 157 195 236 280
#     4   9  18  34  55  74  90 112 148 196 247 295
#     4   9  17  28  46  72  99 126 155 190 236 284
#     4   8  14  27  48  72  97 126 160 196 233 277
#     4   9  18  32  47  62  87 126 168 203 228 260
#     4  11  20  30  45  69 101 128 152 188 240 286
#     4   9  18  33  52  70  88 116 156 198 237 282
#     4   9  18  32  49  70  98 130 162 195 232 278
#
# _framework density 18.589801000000001
#
# number of rings (size 3 to 8) (size 9 to 14) (size 15 to 20)
#    0.000    2.625    1.250    3.000    0.000    3.500 
#    0.000    1.875    0.000    1.500    0.000    1.750 
#    0.000    1.000    0.000    3.750    0.000    0.000 
#
# Total GULP energy -356985.189135 kJ/mol
# GULP energy per Si atom -5577.893580 kJ/mol
# Density = 1.854749 g / cm^3
# Si number density = 18.589801 Si / 1000 Ang^3
#
#
#
# Elastic Constant Matrix: (Units=GPa)
#
#
# Indices 1 2 3 4 5 6 
#
# 1 116.6670 52.8415 16.2106 0.0000 0.0000 0.0000
# 2 52.8415 61.1660 10.7080 0.0000 0.0000 0.0000
# 3 16.2106 10.7080 29.4989 0.0000 0.0000 0.0000
# 4 0.0000 0.0000 0.0000 7.1834 0.0000 0.0000
# 5 0.0000 0.0000 0.0000 0.0000 27.9194 0.0000
# 6 0.0000 0.0000 0.0000 0.0000 0.0000 33.6068
#
#
#
# Elastic Compliance Matrix: (Units=1/GPa)
#
#
# Indices 1 2 3 4 5 6 
#
# 1 0.014438 -0.011836 -0.003638 0.000000 0.000000 0.000000
# 2 -0.011836 0.027161 -0.003355 0.000000 0.000000 0.000000
# 3 -0.003638 -0.003355 0.037116 0.000000 0.000000 0.000000
# 4 0.000000 0.000000 0.000000 0.139210 0.000000 0.000000
# 5 0.000000 0.000000 0.000000 0.000000 0.035817 0.000000
# 6 0.000000 0.000000 0.000000 0.000000 0.000000 0.029756
#
#
# Mechanical properties :
#
#
# Convention : Reuss Voigt Hill
#
# Bulk Modulus (GPa) = 24.35579 40.76136 32.55857
# Shear Modulus (GPa) = 14.93239 22.24669 18.58954
#
# Velocity S-wave (km/s) = 2.83725 3.46311 3.16569
# Velocity P-wave (km/s) = 4.88503 6.16159 5.56007
#
# Compressibility (1/GPa) = 0.04105801
#
# Stress axis : x y z
#
# Youngs Moduli (GPa) = 69.26348 36.81686 26.94223
#
# Poissons Ratio (x) = 0.43576 0.09800
# Poissons Ratio (y) = 0.81980 0.09040
# Poissons Ratio (z) = 0.25195 0.12353
#
# Static dielectric constant tensor:
#      x y z
#    x 1.695840 0.000000 0.000000 
#    y 0.000000 1.638990 0.000000 
#    z 0.000000 0.000000 1.660980 
# 
# From -- ./inp_files/25340.got.cif
#   From: 2010.05.17/outbox.cif.g08.bks.cpg/sg51_13_cif.got.tgz:25340.got - 2010.06.03 11:52:47.
