data_PCOD9406439
_publ_section_title
;
Structure prediction by ZEFSAII (Michael W. Deem and Ramdas Pophale) SiO2 
 PCOD9406439
Probable space group: P M M A
;
_chemical_formula_sum "Si O2"
_cell_formula_units_Z 48
_cell_length_a 9.723244
_cell_length_b 14.525321
_cell_length_c 18.369674
_cell_angle_alpha 90.000000
_cell_angle_beta 90.000000
_cell_angle_gamma 90.000000
_cell_volume 2594.408582
_symmetry_space_group_name_H-M "P M M A"
_symmetry_group_IT_number 51
_symmetry_cell_setting 'orthorhombic'
loop_
_space_group_symop_operation_xyz
x,y,z
1/2-x,-y,z
1/2+x,-y,-z
-x,y,-z
-x,-y,-z
1/2+x,y,-z
1/2-x,y,z
x,-y,z
loop_
_atom_site_type_symbol
_atom_site_label
_atom_site_fract_x
_atom_site_fract_y
_atom_site_fract_z
Si Si1 0.408548 0.104629 0.067381
Si Si2 0.409115 0.267168 0.179731
Si Si3 0.981336 0.784088 0.655444
Si Si4 0.413458 0.602799 0.426005
Si Si5 0.912737 0.610854 0.073601
Si Si6 0.250000 0.889132 0.609781
Si Si7 0.750000 0.110312 0.564677
O O1 0.250000 0.104392 0.044101
O O2 0.422339 0.174989 0.132330
O O3 0.446410 0.000000 0.087923
O O4 0.500000 0.134012 0.000000
O O5 0.250000 0.300455 0.174944
O O6 0.438719 0.235338 0.261796
O O7 0.512926 0.339352 0.141776
O O8 0.120823 0.839956 0.646503
O O9 0.979738 0.682539 0.621248
O O10 0.877093 0.843825 0.606276
O O11 0.500000 0.601896 0.500000
O O12 0.250000 0.621705 0.437675
O O13 0.422717 0.500000 0.393479
O O14 0.750000 0.636276 0.066707
O O15 0.918830 0.500000 0.082340
O O16 0.000000 0.633411 0.000000
O O17 0.250000 0.870540 0.522108
O O18 0.250000 0.000000 0.618695
O O19 0.750000 0.000000 0.573133
#
# Coordination Sequence:
#
# PCOD9406439 Si02
#       7
#     8   8   8   8   8   4   4
#     4   9  19  36  57  82 113 152 197 239 285 347
#     4  11  23  39  60  92 126 166 207 255 317 375
#     4  12  24  41  62  95 128 167 211 268 332 386
#     4  10  21  38  62  91 121 158 204 254 311 377
#     4  10  22  41  67  97 130 171 216 262 312 371
#     4  11  26  44  65  93 124 165 219 277 333 394
#     4  11  22  42  69  91 120 165 221 273 331 398
#
# _framework density 18.501325999999999
#
# number of rings (size 3 to 8) (size 9 to 14) (size 15 to 20)
#    0.000    1.500    1.667    3.000    2.333    6.333 
#    0.000    0.000    0.000    0.000    0.000    0.000 
#    0.000    0.000    0.000    0.000    0.000    0.000 
#
# Total GULP energy -267856.987924 kJ/mol
# GULP energy per Si atom -5580.353915 kJ/mol
# Density = 1.845922 g / cm^3
# Si number density = 18.501326 Si / 1000 Ang^3
#
#
#
# Elastic Constant Matrix: (Units=GPa)
#
#
# Indices 1 2 3 4 5 6 
#
# 1 99.7952 48.5478 28.6098 0.0000 0.0000 0.0000
# 2 48.5478 95.8405 50.5227 0.0000 0.0000 0.0000
# 3 28.6098 50.5227 86.8175 0.0000 0.0000 0.0000
# 4 0.0000 0.0000 0.0000 -14.0168 0.0000 0.0000
# 5 0.0000 0.0000 0.0000 0.0000 28.9423 0.0000
# 6 0.0000 0.0000 0.0000 0.0000 0.0000 46.2308
#
#
#
# Elastic Compliance Matrix: (Units=1/GPa)
#
#
# Indices 1 2 3 4 5 6 
#
# 1 0.013324 -0.006397 -0.000668 0.000000 0.000000 0.000000
# 2 -0.006397 0.018123 -0.008438 0.000000 0.000000 0.000000
# 3 -0.000668 -0.008438 0.016649 0.000000 0.000000 0.000000
# 4 0.000000 0.000000 0.000000 -0.071343 0.000000 0.000000
# 5 0.000000 0.000000 0.000000 0.000000 0.034552 0.000000
# 6 0.000000 0.000000 0.000000 0.000000 0.000000 0.021631
#
#
# Mechanical properties :
#
#
# Convention : Reuss Voigt Hill
#
# Bulk Modulus (GPa) = 58.51695 59.75708 59.13701
# Shear Modulus (GPa) = 71.79945 22.54945 47.17445
#
# Velocity S-wave (km/s) = 6.23634 3.49492 5.05502
# Velocity P-wave (km/s) = 9.14074 6.97531 8.13044
#
# Compressibility (1/GPa) = 0.01708907
#
# Stress axis : x y z
#
# Youngs Moduli (GPa) = 75.05212 55.17939 60.06314
#
# Poissons Ratio (x) = 0.35299 0.04013
# Poissons Ratio (y) = 0.48012 0.50683
# Poissons Ratio (z) = 0.05014 0.46562
#
# Static dielectric constant tensor:
#      x y z
#    x 2.426430 0.000000 0.000000 
#    y 0.000000 1.643950 0.000000 
#    z 0.000000 0.000000 1.458290 
# 
# From -- ./inp_files/27625.got.cif
#   From: 2010.05.17/outbox.cif.g08.bks.cpg/sg51_14_cif.got.tgz:27625.got - 2010.06.03 11:52:47.
