data_PCOD9406882
_publ_section_title
;
Structure prediction by ZEFSAII (Michael W. Deem and Ramdas Pophale) SiO2 
 PCOD9406882
Probable space group: P M M A
;
_chemical_formula_sum "Si O2"
_cell_formula_units_Z 32
_cell_length_a 18.038004
_cell_length_b 14.172353
_cell_length_c 6.960860
_cell_angle_alpha 90.000000
_cell_angle_beta 90.000000
_cell_angle_gamma 90.000000
_cell_volume 1779.480934
_symmetry_space_group_name_H-M "P M M A"
_symmetry_group_IT_number 51
_symmetry_cell_setting 'orthorhombic'
loop_
_space_group_symop_operation_xyz
x,y,z
1/2-x,-y,z
1/2+x,-y,-z
-x,y,-z
-x,-y,-z
1/2+x,y,-z
1/2-x,y,z
x,-y,z
loop_
_atom_site_type_symbol
_atom_site_label
_atom_site_fract_x
_atom_site_fract_y
_atom_site_fract_z
Si Si1 0.838293 0.500000 0.194423
Si Si2 0.084322 0.346956 0.075080
Si Si3 0.837577 0.847522 0.810120
Si Si4 0.919379 0.500000 0.593019
Si Si5 0.167520 0.000000 0.860214
Si Si6 0.412732 0.000000 0.465439
O O1 0.750000 0.500000 0.172615
O O2 0.861685 0.500000 0.417745
O O3 0.873178 0.408497 0.087486
O O4 0.124549 0.250670 0.134390
O O5 0.085744 0.410976 0.265913
O O6 0.000000 0.332778 0.000000
O O7 0.750000 0.837550 0.758345
O O8 0.881177 0.908552 0.649331
O O9 0.841285 0.910959 0.001381
O O10 0.000000 0.500000 0.500000
O O11 0.250000 0.000000 0.779937
O O12 0.115999 0.000000 0.680574
O O13 0.500000 0.000000 0.500000
#
# Coordination Sequence:
#
# PCOD9406882 Si02
#       6
#     4   8   8   4   4   4
#     4  11  23  41  63  91 123 161 209 253 306 372
#     4  11  23  39  66  90 125 161 203 257 307 365
#     4  10  23  41  62  89 124 160 202 250 304 364
#     4  11  21  42  62  88 123 166 201 247 310 356
#     4   9  20  41  62  81 120 163 193 240 305 357
#     4  11  24  38  63  93 122 158 205 252 298 360
#
# _framework density 17.982773999999999
#
# number of rings (size 3 to 8) (size 9 to 14) (size 15 to 20)
#    0.000    1.500    2.500    3.375    3.500    7.000 
#    0.000    0.000    0.000    0.000    0.000    0.000 
#    0.000    0.000    0.000    0.000    0.000    0.000 
#
# Total GULP energy -178599.918546 kJ/mol
# GULP energy per Si atom -5581.247455 kJ/mol
# Density = 1.794184 g / cm^3
# Si number density = 17.982774 Si / 1000 Ang^3
#
#
#
# Elastic Constant Matrix: (Units=GPa)
#
#
# Indices 1 2 3 4 5 6 
#
# 1 192.0629 82.6511 73.6377 0.0000 0.0000 0.0000
# 2 82.6511 155.5197 28.1260 0.0000 0.0000 0.0000
# 3 73.6377 28.1260 76.7267 0.0000 0.0000 0.0000
# 4 0.0000 0.0000 0.0000 26.6580 0.0000 0.0000
# 5 0.0000 0.0000 0.0000 0.0000 35.2436 0.0000
# 6 0.0000 0.0000 0.0000 0.0000 0.0000 26.6025
#
#
#
# Elastic Compliance Matrix: (Units=1/GPa)
#
#
# Indices 1 2 3 4 5 6 
#
# 1 0.009994 -0.003831 -0.008188 0.000000 0.000000 0.000000
# 2 -0.003831 0.008355 0.000614 0.000000 0.000000 0.000000
# 3 -0.008188 0.000614 0.020666 0.000000 0.000000 0.000000
# 4 0.000000 0.000000 0.000000 0.037512 0.000000 0.000000
# 5 0.000000 0.000000 0.000000 0.000000 0.028374 0.000000
# 6 0.000000 0.000000 0.000000 0.000000 0.000000 0.037590
#
#
# Mechanical properties :
#
#
# Convention : Reuss Voigt Hill
#
# Bulk Modulus (GPa) = 61.70431 88.12653 74.91542
# Shear Modulus (GPa) = 29.29054 33.69378 31.49216
#
# Velocity S-wave (km/s) = 4.04023 4.33329 4.18932
# Velocity P-wave (km/s) = 7.49347 8.61098 8.07159
#
# Compressibility (1/GPa) = 0.01620632
#
# Stress axis : x y z
#
# Youngs Moduli (GPa) = 100.05683 119.69044 48.38784
#
# Poissons Ratio (x) = 0.45850 0.39619
# Poissons Ratio (y) = 0.38329 -0.02970
# Poissons Ratio (z) = 0.81924 -0.07347
#
# Static dielectric constant tensor:
#      x y z
#    x 1.582020 0.000000 0.000000 
#    y 0.000000 1.591850 0.000000 
#    z 0.000000 0.000000 1.586130 
# 
# From -- ./inp_files/1870.got.cif
#   From: 2010.05.17/outbox.cif.g08.bks.cpg/sg51_1_cif.got.tgz:1870.got - 2010.06.03 11:52:47.
