data_PCOD9406974
_publ_section_title
;
Structure prediction by ZEFSAII (Michael W. Deem and Ramdas Pophale) SiO2 
 PCOD9406974
Probable space group: P M M A
;
_chemical_formula_sum "Si O2"
_cell_formula_units_Z 48
_cell_length_a 14.588550
_cell_length_b 11.725130
_cell_length_c 17.262681
_cell_angle_alpha 90.000000
_cell_angle_beta 90.000000
_cell_angle_gamma 90.000000
_cell_volume 2952.827249
_symmetry_space_group_name_H-M "P M M A"
_symmetry_group_IT_number 51
_symmetry_cell_setting 'orthorhombic'
loop_
_space_group_symop_operation_xyz
x,y,z
1/2-x,-y,z
1/2+x,-y,-z
-x,y,-z
-x,-y,-z
1/2+x,y,-z
1/2-x,y,z
x,-y,z
loop_
_atom_site_type_symbol
_atom_site_label
_atom_site_fract_x
_atom_site_fract_y
_atom_site_fract_z
Si Si1 0.566307 0.741047 0.069500
Si Si2 0.250000 0.136694 0.145392
Si Si3 0.981445 0.862050 0.627388
Si Si4 0.639518 0.500000 0.008108
Si Si5 0.646220 0.138042 0.483146
Si Si6 0.750000 0.135813 0.035292
Si Si7 0.430645 0.744539 0.212884
Si Si8 0.859753 0.500000 0.822579
O O1 0.597143 0.612762 0.046693
O O2 0.658319 0.814533 0.072294
O O3 0.509147 0.750081 0.147817
O O4 0.500000 0.781854 0.000000
O O5 0.158896 0.186451 0.184239
O O6 0.250000 0.000000 0.149758
O O7 0.250000 0.172803 0.055188
O O8 0.902672 0.833177 0.564388
O O9 0.964180 0.797392 0.706862
O O10 0.077434 0.829981 0.586152
O O11 0.980174 0.000000 0.638742
O O12 0.750000 0.500000 0.017089
O O13 0.619991 0.500000 0.915524
O O14 0.750000 0.180972 0.476851
O O15 0.649234 0.000000 0.481675
O O16 0.750000 0.000000 0.038008
O O17 0.400251 0.613059 0.215541
O O18 0.750000 0.500000 0.815847
#
# Coordination Sequence:
#
# PCOD9406974 Si02
#       8
#     8   4   8   4   8   4   8   4
#     4  12  22  38  58  79 104 147 193 237 284 322
#     4  11  22  35  53  79 108 143 185 228 275 330
#     4   9  19  34  54  85 115 142 179 220 275 335
#     4  11  20  38  64  78  98 136 201 261 287 309
#     4   8  15  32  58  83 109 143 182 223 266 320
#     4  11  24  39  51  73 110 153 191 220 271 348
#     4  12  23  36  56  82 114 144 182 234 285 332
#     4  11  21  35  57  82 110 141 183 243 296 326
#
# _framework density 16.255607000000001
#
# number of rings (size 3 to 8) (size 9 to 14) (size 15 to 20)
#    0.000    1.500    5.000    2.250    1.167    1.667 
#    1.500    0.000    0.000    2.000    0.000    1.167 
#    0.000    0.000    0.000    0.000    0.000    0.000 
#
# Total GULP energy -267970.150542 kJ/mol
# GULP energy per Si atom -5582.711470 kJ/mol
# Density = 1.621861 g / cm^3
# Si number density = 16.255607 Si / 1000 Ang^3
#
#
#
# Elastic Constant Matrix: (Units=GPa)
#
#
# Indices 1 2 3 4 5 6 
#
# 1 159.1817 49.7761 78.3492 0.0000 0.0000 0.0000
# 2 49.7761 66.3339 58.3357 0.0000 0.0000 0.0000
# 3 78.3492 58.3357 136.1387 0.0000 0.0000 0.0000
# 4 0.0000 0.0000 0.0000 25.5693 0.0000 0.0000
# 5 0.0000 0.0000 0.0000 0.0000 9.3646 0.0000
# 6 0.0000 0.0000 0.0000 0.0000 0.0000 6.1382
#
#
#
# Elastic Compliance Matrix: (Units=1/GPa)
#
#
# Indices 1 2 3 4 5 6 
#
# 1 0.009282 -0.003638 -0.003783 0.000000 0.000000 0.000000
# 2 -0.003638 0.025618 -0.008883 0.000000 0.000000 0.000000
# 3 -0.003783 -0.008883 0.013329 0.000000 0.000000 0.000000
# 4 0.000000 0.000000 0.000000 0.039109 0.000000 0.000000
# 5 0.000000 0.000000 0.000000 0.000000 0.106785 0.000000
# 6 0.000000 0.000000 0.000000 0.000000 0.000000 0.162914
#
#
# Mechanical properties :
#
#
# Convention : Reuss Voigt Hill
#
# Bulk Modulus (GPa) = 64.02198 81.61959 72.82078
# Shear Modulus (GPa) = 12.66297 19.89397 16.27847
#
# Velocity S-wave (km/s) = 2.79407 3.50211 3.16793
# Velocity P-wave (km/s) = 7.06252 8.16530 7.63385
#
# Compressibility (1/GPa) = 0.01561964
#
# Stress axis : x y z
#
# Youngs Moduli (GPa) = 107.73960 39.03577 75.02463
#
# Poissons Ratio (x) = 0.14202 0.28380
# Poissons Ratio (y) = 0.39198 0.66647
# Poissons Ratio (z) = 0.40755 0.34677
#
# Static dielectric constant tensor:
#      x y z
#    x 1.557300 0.000000 0.000000 
#    y 0.000000 1.533950 0.000000 
#    z 0.000000 0.000000 1.519470 
# 
# From -- ./inp_files/24140.got.cif
#   From: 2010.05.17/outbox.cif.g08.bks.cpg/sg51_13_cif.got.tgz:24140.got - 2010.06.03 11:52:47.
