data_PCOD9406824
_publ_section_title
;
Structure prediction by ZEFSAII (Michael W. Deem and Ramdas Pophale) SiO2 
 PCOD9406824
Probable space group: P M M A
;
_chemical_formula_sum "Si O2"
_cell_formula_units_Z 30
_cell_length_a 7.239615
_cell_length_b 10.314466
_cell_length_c 18.120381
_cell_angle_alpha 90.000000
_cell_angle_beta 90.000000
_cell_angle_gamma 90.000000
_cell_volume 1353.098912
_symmetry_space_group_name_H-M "P M M A"
_symmetry_group_IT_number 51
_symmetry_cell_setting 'orthorhombic'
loop_
_space_group_symop_operation_xyz
x,y,z
1/2-x,-y,z
1/2+x,-y,-z
-x,y,-z
-x,-y,-z
1/2+x,y,-z
1/2-x,y,z
x,-y,z
loop_
_atom_site_type_symbol
_atom_site_label
_atom_site_fract_x
_atom_site_fract_y
_atom_site_fract_z
Si Si1 0.026313 0.855362 0.298514
Si Si2 0.030075 0.646773 0.415618
Si Si3 0.473709 0.787866 0.128896
Si Si4 0.532656 0.500000 0.912923
Si Si5 0.750000 0.000000 0.071305
O O1 0.250000 0.855595 0.302472
O O2 0.959139 0.747132 0.355293
O O3 0.982999 0.825842 0.213545
O O4 0.963268 0.000000 0.317404
O O5 0.250000 0.639401 0.405077
O O6 0.957722 0.500000 0.407960
O O7 0.000000 0.689377 0.500000
O O8 0.250000 0.800447 0.117323
O O9 0.531764 0.638541 0.117187
O O10 0.588553 0.886138 0.079096
O O11 0.750000 0.500000 0.896869
O O12 0.500000 0.500000 0.000000
#
# Coordination Sequence:
#
# PCOD9406824 Si02
#       5
#     8   8   8   4   2
#     4   9  17  33  56  78 112 150 196 249 300 366
#     4   9  18  32  50  73 105 149 195 247 303 361
#     4  10  22  41  65  96 127 167 212 258 316 376
#     4  10  24  44  72  94 131 170 210 262 311 371
#     4  12  22  38  70  94 136 166 200 264 320 370
#
# _framework density 22.171329
#
# number of rings (size 3 to 8) (size 9 to 14) (size 15 to 20)
#    0.000    2.400    1.333    0.400    3.733    0.533 
#    2.400    0.667    0.000    0.000    0.000    0.000 
#    0.000    0.000    0.000    0.000    0.000    0.000 
#
# Total GULP energy -167123.630653 kJ/mol
# GULP energy per Si atom -5570.787688 kJ/mol
# Density = 2.212087 g / cm^3
# Si number density = 22.171329 Si / 1000 Ang^3
#
#
#
# Elastic Constant Matrix: (Units=GPa)
#
#
# Indices 1 2 3 4 5 6 
#
# 1 128.3853 32.4951 9.9566 0.0000 0.0000 0.0000
# 2 32.4951 175.0555 55.7772 0.0000 0.0000 0.0000
# 3 9.9566 55.7772 95.5935 0.0000 0.0000 0.0000
# 4 0.0000 0.0000 0.0000 18.2430 0.0000 0.0000
# 5 0.0000 0.0000 0.0000 0.0000 9.8004 0.0000
# 6 0.0000 0.0000 0.0000 0.0000 0.0000 25.3127
#
#
#
# Elastic Compliance Matrix: (Units=1/GPa)
#
#
# Indices 1 2 3 4 5 6 
#
# 1 0.008173 -0.001530 0.000042 0.000000 0.000000 0.000000
# 2 -0.001530 0.007304 -0.004102 0.000000 0.000000 0.000000
# 3 0.000042 -0.004102 0.012850 0.000000 0.000000 0.000000
# 4 0.000000 0.000000 0.000000 0.054815 0.000000 0.000000
# 5 0.000000 0.000000 0.000000 0.000000 0.102036 0.000000
# 6 0.000000 0.000000 0.000000 0.000000 0.000000 0.039506
#
#
# Mechanical properties :
#
#
# Convention : Reuss Voigt Hill
#
# Bulk Modulus (GPa) = 58.32537 66.16578 62.24558
# Shear Modulus (GPa) = 20.69696 30.72492 25.71094
#
# Velocity S-wave (km/s) = 3.05864 3.72667 3.40906
# Velocity P-wave (km/s) = 6.23197 6.95882 6.60540
#
# Compressibility (1/GPa) = 0.01714520
#
# Stress axis : x y z
#
# Youngs Moduli (GPa) = 122.35125 136.91851 77.82018
#
# Poissons Ratio (x) = 0.20955 -0.00325
# Poissons Ratio (y) = 0.18725 0.31923
# Poissons Ratio (z) = -0.00510 0.56166
#
# Static dielectric constant tensor:
#      x y z
#    x 1.854870 0.000000 0.000000 
#    y 0.000000 1.820970 0.000000 
#    z 0.000000 0.000000 1.777310 
# 
# From -- ./inp_files/31119.got.cif
#   From: 2010.05.17/outbox.cif.g08.bks.cpg/sg51_16_cif.got.tgz:31119.got - 2010.06.03 11:52:47.
