data_PCOD9406324
_publ_section_title
;
Structure prediction by ZEFSAII (Michael W. Deem and Ramdas Pophale) SiO2 
 PCOD9406324
Probable space group: P M M A
;
_chemical_formula_sum "Si O2"
_cell_formula_units_Z 48
_cell_length_a 31.444225
_cell_length_b 7.270245
_cell_length_c 10.429303
_cell_angle_alpha 90.000000
_cell_angle_beta 90.000000
_cell_angle_gamma 90.000000
_cell_volume 2384.213961
_symmetry_space_group_name_H-M "P M M A"
_symmetry_group_IT_number 51
_symmetry_cell_setting 'orthorhombic'
loop_
_space_group_symop_operation_xyz
x,y,z
1/2-x,-y,z
1/2+x,-y,-z
-x,y,-z
-x,-y,-z
1/2+x,y,-z
1/2-x,y,z
x,-y,z
loop_
_atom_site_type_symbol
_atom_site_label
_atom_site_fract_x
_atom_site_fract_y
_atom_site_fract_z
Si Si1 0.298854 0.776073 0.323097
Si Si2 0.298490 0.223294 0.032659
Si Si3 0.957895 0.779545 0.581594
Si Si4 0.133032 0.222724 0.532213
Si Si5 0.063128 0.500000 0.910512
Si Si6 0.032453 0.500000 0.193983
Si Si7 0.867852 0.221584 0.176085
O O1 0.250000 0.721119 0.348981
O O2 0.332488 0.713228 0.428576
O O3 0.299233 0.000000 0.324272
O O4 0.310039 0.719949 0.177635
O O5 0.250000 0.281565 0.007214
O O6 0.331521 0.279009 0.924248
O O7 0.298346 0.000000 0.032592
O O8 0.914823 0.725063 0.507367
O O9 0.958931 0.675237 0.716188
O O10 0.000000 0.732168 0.500000
O O11 0.957539 0.000000 0.599186
O O12 0.142821 0.275131 0.677995
O O13 0.134006 0.000000 0.529053
O O14 0.089134 0.322729 0.863775
O O15 0.016490 0.500000 0.849985
O O16 0.059425 0.500000 0.064139
O O17 0.872466 0.000000 0.171071
#
# Coordination Sequence:
#
# PCOD9406324 Si02
#       7
#     8   8   8   8   4   4   8
#     4   8  14  26  47  80 118 149 188 241 283 336
#     4   8  15  29  53  84 116 155 196 233 285 347
#     4  10  21  38  62  89 117 151 196 243 293 353
#     4   9  18  31  53  86 115 149 195 237 289 347
#     4  11  26  42  57  86 117 148 199 242 290 356
#     4  11  25  42  60  84 116 153 193 243 297 350
#     4  10  21  38  60  84 119 158 191 240 290 343
#
# _framework density 20.132421000000001
#
# number of rings (size 3 to 8) (size 9 to 14) (size 15 to 20)
#    0.000    2.667    0.000    2.250    2.333    4.000 
#    0.000    5.417    0.000    0.000    0.000    1.750 
#    0.000    0.000    0.000    0.000    0.000    0.000 
#
# Total GULP energy -268113.410691 kJ/mol
# GULP energy per Si atom -5585.696056 kJ/mol
# Density = 2.008660 g / cm^3
# Si number density = 20.132421 Si / 1000 Ang^3
#
#
#
# Elastic Constant Matrix: (Units=GPa)
#
#
# Indices 1 2 3 4 5 6 
#
# 1 131.4080 15.7355 108.5865 0.0000 0.0000 0.0000
# 2 15.7355 90.2865 28.6393 0.0000 0.0000 0.0000
# 3 108.5865 28.6393 191.4386 0.0000 0.0000 0.0000
# 4 0.0000 0.0000 0.0000 12.6870 0.0000 0.0000
# 5 0.0000 0.0000 0.0000 0.0000 36.1330 0.0000
# 6 0.0000 0.0000 0.0000 0.0000 0.0000 62.3482
#
#
#
# Elastic Compliance Matrix: (Units=1/GPa)
#
#
# Indices 1 2 3 4 5 6 
#
# 1 0.014324 0.000085 -0.008137 0.000000 0.000000 0.000000
# 2 0.000085 0.011628 -0.001788 0.000000 0.000000 0.000000
# 3 -0.008137 -0.001788 0.010107 0.000000 0.000000 0.000000
# 4 0.000000 0.000000 0.000000 0.078821 0.000000 0.000000
# 5 0.000000 0.000000 0.000000 0.000000 0.027676 0.000000
# 6 0.000000 0.000000 0.000000 0.000000 0.000000 0.016039
#
#
# Mechanical properties :
#
#
# Convention : Reuss Voigt Hill
#
# Bulk Modulus (GPa) = 61.05683 79.89508 70.47596
# Shear Modulus (GPa) = 27.21324 39.57842 33.39583
#
# Velocity S-wave (km/s) = 3.68055 4.43866 4.07727
# Velocity P-wave (km/s) = 6.96099 8.12649 7.56622
#
# Compressibility (1/GPa) = 0.01637818
#
# Stress axis : x y z
#
# Youngs Moduli (GPa) = 69.81324 85.99829 98.94439
#
# Poissons Ratio (x) = -0.00729 0.80515
# Poissons Ratio (y) = -0.00592 0.17688
# Poissons Ratio (z) = 0.56810 0.15374
#
# Static dielectric constant tensor:
#      x y z
#    x 1.680360 0.000000 0.000000 
#    y 0.000000 1.743180 0.000000 
#    z 0.000000 0.000000 1.675590 
# 
# From -- ./inp_files/12969.got.cif
#   From: 2010.05.17/outbox.cif.g08.bks.cpg/sg51_7_cif.got.tgz:12969.got - 2010.06.03 11:52:47.
