data_PCOD9406048
_publ_section_title
;
Structure prediction by ZEFSAII (Michael W. Deem and Ramdas Pophale) SiO2 
 PCOD9406048
Probable space group: P M M A
;
_chemical_formula_sum "Si O2"
_cell_formula_units_Z 36
_cell_length_a 8.825852
_cell_length_b 23.516842
_cell_length_c 9.517005
_cell_angle_alpha 90.000000
_cell_angle_beta 90.000000
_cell_angle_gamma 90.000000
_cell_volume 1975.313079
_symmetry_space_group_name_H-M "P M M A"
_symmetry_group_IT_number 51
_symmetry_cell_setting 'orthorhombic'
loop_
_space_group_symop_operation_xyz
x,y,z
1/2-x,-y,z
1/2+x,-y,-z
-x,y,-z
-x,-y,-z
1/2+x,y,-z
1/2-x,y,z
x,-y,z
loop_
_atom_site_type_symbol
_atom_site_label
_atom_site_fract_x
_atom_site_fract_y
_atom_site_fract_z
Si Si1 0.067624 0.890807 0.655882
Si Si2 0.430705 0.661105 0.153811
Si Si3 0.931607 0.207778 0.844287
Si Si4 0.932112 0.000000 0.156045
Si Si5 0.068846 0.436540 0.655378
O O1 0.250000 0.888520 0.647365
O O2 0.024446 0.944482 0.753868
O O3 0.000000 0.896560 0.500000
O O4 0.004147 0.835112 0.733464
O O5 0.250000 0.654874 0.148869
O O6 0.464217 0.726529 0.195201
O O7 0.500894 0.614209 0.254544
O O8 0.500000 0.653053 0.000000
O O9 0.750000 0.200299 0.850031
O O10 0.000000 0.197716 0.000000
O O11 0.750000 0.000000 0.142875
O O12 0.000000 0.000000 0.000000
O O13 0.250000 0.431523 0.648477
O O14 0.032499 0.500000 0.712421
O O15 0.000000 0.433586 0.500000
#
# Coordination Sequence:
#
# PCOD9406048 Si02
#       5
#     8   8   8   4   8
#     4  11  23  39  59  85 116 150 188 232 280 329
#     4  10  21  37  58  83 112 146 185 230 278 329
#     4  10  21  38  59  84 113 147 187 230 277 331
#     4  10  23  40  60  86 114 148 189 230 277 332
#     4  10  21  37  57  81 110 145 185 229 278 333
#
# _framework density 18.224961
#
# number of rings (size 3 to 8) (size 9 to 14) (size 15 to 20)
#    0.000    1.778    0.000    3.667    0.000    8.889 
#    0.000    0.000    0.000    0.000    0.000    0.000 
#    0.000    0.000    0.000    0.000    0.000    0.000 
#
# Total GULP energy -201129.592423 kJ/mol
# GULP energy per Si atom -5586.933123 kJ/mol
# Density = 1.818348 g / cm^3
# Si number density = 18.224961 Si / 1000 Ang^3
#
#
#
# Elastic Constant Matrix: (Units=GPa)
#
#
# Indices 1 2 3 4 5 6 
#
# 1 79.2485 80.5498 65.1082 0.0000 0.0000 0.0000
# 2 80.5498 167.7495 121.1777 0.0000 0.0000 0.0000
# 3 65.1082 121.1777 144.4845 0.0000 0.0000 0.0000
# 4 0.0000 0.0000 0.0000 50.4790 0.0000 0.0000
# 5 0.0000 0.0000 0.0000 0.0000 40.9310 0.0000
# 6 0.0000 0.0000 0.0000 0.0000 0.0000 34.8254
#
#
#
# Elastic Compliance Matrix: (Units=1/GPa)
#
#
# Indices 1 2 3 4 5 6 
#
# 1 0.025171 -0.009877 -0.003059 0.000000 0.000000 0.000000
# 2 -0.009877 0.019000 -0.011484 0.000000 0.000000 0.000000
# 3 -0.003059 -0.011484 0.017931 0.000000 0.000000 0.000000
# 4 0.000000 0.000000 0.000000 0.019810 0.000000 0.000000
# 5 0.000000 0.000000 0.000000 0.000000 0.024431 0.000000
# 6 0.000000 0.000000 0.000000 0.000000 0.000000 0.028715
#
#
# Mechanical properties :
#
#
# Convention : Reuss Voigt Hill
#
# Bulk Modulus (GPa) = 75.40438 102.79488 89.09963
# Shear Modulus (GPa) = 26.55082 33.55686 30.05384
#
# Velocity S-wave (km/s) = 3.82100 4.29564 4.06525
# Velocity P-wave (km/s) = 7.80581 9.00717 8.42793
#
# Compressibility (1/GPa) = 0.01326183
#
# Stress axis : x y z
#
# Youngs Moduli (GPa) = 39.72904 52.63247 55.76825
#
# Poissons Ratio (x) = 0.51983 0.17060
# Poissons Ratio (y) = 0.39239 0.64045
# Poissons Ratio (z) = 0.12153 0.60444
#
# Static dielectric constant tensor:
#      x y z
#    x 1.607050 0.000000 0.000000 
#    y 0.000000 1.630200 0.000000 
#    z 0.000000 0.000000 1.575890 
# 
# From -- ./inp_files/5034.got.cif
#   From: 2010.05.17/outbox.cif.g08.bks.cpg/sg51_3_cif.got.tgz:5034.got - 2010.06.03 11:52:47.
