data_PCOD9406282
_publ_section_title
;
Structure prediction by ZEFSAII (Michael W. Deem and Ramdas Pophale) SiO2 
 PCOD9406282
Probable space group: P M M A
;
_chemical_formula_sum "Si O2"
_cell_formula_units_Z 56
_cell_length_a 8.820346
_cell_length_b 14.610947
_cell_length_c 24.295343
_cell_angle_alpha 90.000000
_cell_angle_beta 90.000000
_cell_angle_gamma 90.000000
_cell_volume 3131.028508
_symmetry_space_group_name_H-M "P M M A"
_symmetry_group_IT_number 51
_symmetry_cell_setting 'orthorhombic'
loop_
_space_group_symop_operation_xyz
x,y,z
1/2-x,-y,z
1/2+x,-y,-z
-x,y,-z
-x,-y,-z
1/2+x,y,-z
1/2-x,y,z
x,-y,z
loop_
_atom_site_type_symbol
_atom_site_label
_atom_site_fract_x
_atom_site_fract_y
_atom_site_fract_z
Si Si1 0.569389 0.250000 0.357738
Si Si2 0.928854 0.609050 0.559079
Si Si3 0.071146 0.890950 0.440921
Si Si4 0.568375 0.250000 0.060367
Si Si5 0.931045 0.750000 0.763700
Si Si6 0.066888 0.393401 0.847254
Si Si7 0.066888 0.106599 0.847254
O O1 0.750000 0.250000 0.353814
O O2 0.511601 0.336657 0.392780
O O3 0.511600 0.163343 0.392780
O O4 0.497007 0.250000 0.297484
O O5 0.750000 0.630389 0.559176
O O6 0.946743 0.500000 0.565968
O O7 0.000000 0.633961 0.500000
O O8 0.250000 0.869611 0.440824
O O9 0.000000 0.866039 0.500000
O O10 0.053257 0.000000 0.434032
O O11 0.750000 0.250000 0.055639
O O12 0.525008 0.338390 0.097128
O O13 0.525008 0.161610 0.097128
O O14 0.500000 0.250000 0.000000
O O15 0.750000 0.750000 0.762555
O O16 0.991533 0.661995 0.797400
O O17 0.991533 0.838005 0.797400
O O18 0.250000 0.386768 0.841546
O O19 0.025468 0.500000 0.848896
O O20 0.250000 0.113232 0.841546
O O21 0.025468 0.000000 0.848896
#
# Coordination Sequence:
#
# PCOD9406282 Si02
#       7
#     8   8   8   8   8   8   8
#     4  12  24  38  58  81 109 146 185 224 270 327
#     4  10  21  38  59  83 112 144 180 224 273 326
#     4  10  21  38  59  83 112 144 180 224 273 326
#     4   9  18  32  52  82 116 147 181 222 267 316
#     4  11  23  38  56  81 111 139 177 230 279 325
#     4   9  19  38  60  79 106 147 188 224 268 323
#     4   9  19  38  60  79 106 147 188 224 268 323
#
# _framework density 17.885496
#
# number of rings (size 3 to 8) (size 9 to 14) (size 15 to 20)
#    0.000    2.000    0.000    4.714    0.000    6.286 
#    0.000    0.000    0.000    0.000    0.000    0.000 
#    0.000    0.000    0.000    0.000    0.000    0.000 
#
# Total GULP energy -312803.056570 kJ/mol
# GULP energy per Si atom -5585.768867 kJ/mol
# Density = 1.784479 g / cm^3
# Si number density = 17.885496 Si / 1000 Ang^3
#
#
#
# Elastic Constant Matrix: (Units=GPa)
#
#
# Indices 1 2 3 4 5 6 
#
# 1 93.1119 66.1606 75.6958 0.0000 0.0000 0.0000
# 2 66.1606 155.1427 97.0598 0.0000 0.0000 0.0000
# 3 75.6958 97.0598 200.8928 0.0000 0.0000 0.0000
# 4 0.0000 0.0000 0.0000 9.3021 0.0000 0.0000
# 5 0.0000 0.0000 0.0000 0.0000 39.0449 0.0000
# 6 0.0000 0.0000 0.0000 0.0000 0.0000 48.7940
#
#
#
# Elastic Compliance Matrix: (Units=1/GPa)
#
#
# Indices 1 2 3 4 5 6 
#
# 1 0.017698 -0.004838 -0.004331 0.000000 0.000000 0.000000
# 2 -0.004838 0.010560 -0.003279 0.000000 0.000000 0.000000
# 3 -0.004331 -0.003279 0.008194 0.000000 0.000000 0.000000
# 4 0.000000 0.000000 0.000000 0.107502 0.000000 0.000000
# 5 0.000000 0.000000 0.000000 0.000000 0.025612 0.000000
# 6 0.000000 0.000000 0.000000 0.000000 0.000000 0.020494
#
#
# Mechanical properties :
#
#
# Convention : Reuss Voigt Hill
#
# Bulk Modulus (GPa) = 86.53421 102.99774 94.76598
# Shear Modulus (GPa) = 22.85089 33.44363 28.14726
#
# Velocity S-wave (km/s) = 3.57826 4.32890 3.97135
# Velocity P-wave (km/s) = 8.09687 9.09385 8.60980
#
# Compressibility (1/GPa) = 0.01155612
#
# Stress axis : x y z
#
# Youngs Moduli (GPa) = 56.50220 94.69430 122.03729
#
# Poissons Ratio (x) = 0.45810 0.52859
# Poissons Ratio (y) = 0.27334 0.40020
# Poissons Ratio (z) = 0.24473 0.31053
#
# Static dielectric constant tensor:
#      x y z
#    x 1.597300 0.000000 0.000000 
#    y 0.000000 1.614480 0.000000 
#    z 0.000000 0.000000 1.570640 
# 
# From -- ./inp_files/31932.got.cif
#   From: 2010.05.17/outbox.cif.g08.bks.cpg/sg51_16_cif.got.tgz:31932.got - 2010.06.03 11:52:47.
