data_PCOD9406613
_publ_section_title
;
Structure prediction by ZEFSAII (Michael W. Deem and Ramdas Pophale) SiO2 
 PCOD9406613
Probable space group: P M M A
;
_chemical_formula_sum "Si O2"
_cell_formula_units_Z 40
_cell_length_a 20.563934
_cell_length_b 7.954613
_cell_length_c 12.488305
_cell_angle_alpha 90.000000
_cell_angle_beta 90.000000
_cell_angle_gamma 90.000000
_cell_volume 2042.813663
_symmetry_space_group_name_H-M "P M M A"
_symmetry_group_IT_number 51
_symmetry_cell_setting 'orthorhombic'
loop_
_space_group_symop_operation_xyz
x,y,z
1/2-x,-y,z
1/2+x,-y,-z
-x,y,-z
-x,-y,-z
1/2+x,y,-z
1/2-x,y,z
x,-y,z
loop_
_atom_site_type_symbol
_atom_site_label
_atom_site_fract_x
_atom_site_fract_y
_atom_site_fract_z
Si Si1 0.959439 0.200832 0.395134
Si Si2 0.673304 0.197473 0.504622
Si Si3 0.325517 0.500000 0.099146
Si Si4 0.606320 0.813098 0.988107
Si Si5 0.171569 0.500000 0.337711
Si Si6 0.491689 0.697039 0.839958
O O1 0.882294 0.228640 0.415748
O O2 0.984748 0.282506 0.286460
O O3 0.000000 0.256463 0.500000
O O4 0.969168 0.000000 0.385027
O O5 0.750000 0.223494 0.475035
O O6 0.655937 0.329711 0.597984
O O7 0.667152 0.000000 0.536574
O O8 0.250000 0.500000 0.116399
O O9 0.344473 0.665240 0.035509
O O10 0.356689 0.500000 0.218350
O O11 0.552147 0.791081 0.894735
O O12 0.633371 0.000000 0.985596
O O13 0.570191 0.776554 0.099663
O O14 0.250000 0.500000 0.333030
O O15 0.495604 0.500000 0.868873
#
# Coordination Sequence:
#
# PCOD9406613 Si02
#       6
#     8   8   4   8   4   8
#     4  10  22  36  55  89 125 154 198 257 301 352
#     4   9  19  37  58  81 115 160 201 236 294 368
#     4  11  24  41  59  93 126 153 206 256 297 360
#     4  11  22  41  66  87 119 163 201 247 306 368
#     4   9  20  36  56  80 116 154 192 242 288 350
#     4  11  21  39  63  90 120 157 203 254 307 363
#
# _framework density 19.580836999999999
#
# number of rings (size 3 to 8) (size 9 to 14) (size 15 to 20)
#    0.000    1.800    2.000    3.000    4.200    1.600 
#    0.000    3.000    0.000    2.400    0.000    0.000 
#    0.000    0.000    0.000    0.000    0.000    0.000 
#
# Total GULP energy -223255.610280 kJ/mol
# GULP energy per Si atom -5581.390257 kJ/mol
# Density = 1.953627 g / cm^3
# Si number density = 19.580837 Si / 1000 Ang^3
#
#
#
# Elastic Constant Matrix: (Units=GPa)
#
#
# Indices 1 2 3 4 5 6 
#
# 1 52.8600 14.4550 23.3133 0.0000 0.0000 0.0000
# 2 14.4550 111.1000 25.6026 0.0000 0.0000 0.0000
# 3 23.3133 25.6026 106.5637 0.0000 0.0000 0.0000
# 4 0.0000 0.0000 0.0000 26.1342 0.0000 0.0000
# 5 0.0000 0.0000 0.0000 0.0000 20.4421 0.0000
# 6 0.0000 0.0000 0.0000 0.0000 0.0000 -7.3425
#
#
#
# Elastic Compliance Matrix: (Units=1/GPa)
#
#
# Indices 1 2 3 4 5 6 
#
# 1 0.021271 -0.001794 -0.004222 0.000000 0.000000 0.000000
# 2 -0.001794 0.009680 -0.001933 0.000000 0.000000 0.000000
# 3 -0.004222 -0.001933 0.010772 0.000000 0.000000 0.000000
# 4 0.000000 0.000000 0.000000 0.038264 0.000000 0.000000
# 5 0.000000 0.000000 0.000000 0.000000 0.048919 0.000000
# 6 0.000000 0.000000 0.000000 0.000000 0.000000 -0.136193
#
#
# Mechanical properties :
#
#
# Convention : Reuss Voigt Hill
#
# Bulk Modulus (GPa) = 38.72498 44.14061 41.43280
# Shear Modulus (GPa) = 290.36828 21.65696 156.01262
#
# Velocity S-wave (km/s) = 12.19073 3.32931 8.93583
# Velocity P-wave (km/s) = 14.76387 6.11316 11.29917
#
# Compressibility (1/GPa) = 0.02582312
#
# Stress axis : x y z
#
# Youngs Moduli (GPa) = 47.01272 103.30740 92.83135
#
# Poissons Ratio (x) = 0.18538 0.39197
# Poissons Ratio (y) = 0.08436 0.17945
# Poissons Ratio (z) = 0.19850 0.19970
#
# Static dielectric constant tensor:
#      x y z
#    x 1.693760 0.000000 0.000000 
#    y 0.000000 1.691950 0.000000 
#    z 0.000000 0.000000 1.675650 
# 
# From -- ./inp_files/17988.got.cif
#   From: 2010.05.17/outbox.cif.g08.bks.cpg/sg51_9_cif.got.tgz:17988.got - 2010.06.03 11:52:47.
