data_PCOD9406741
_publ_section_title
;
Structure prediction by ZEFSAII (Michael W. Deem and Ramdas Pophale) SiO2 
 PCOD9406741
Probable space group: P M M A
;
_chemical_formula_sum "Si O2"
_cell_formula_units_Z 40
_cell_length_a 16.746208
_cell_length_b 7.836119
_cell_length_c 12.488469
_cell_angle_alpha 90.000000
_cell_angle_beta 90.000000
_cell_angle_gamma 90.000000
_cell_volume 1638.802825
_symmetry_space_group_name_H-M "P M M A"
_symmetry_group_IT_number 51
_symmetry_cell_setting 'orthorhombic'
loop_
_space_group_symop_operation_xyz
x,y,z
1/2-x,-y,z
1/2+x,-y,-z
-x,y,-z
-x,-y,-z
1/2+x,y,-z
1/2-x,y,z
x,-y,z
loop_
_atom_site_type_symbol
_atom_site_label
_atom_site_fract_x
_atom_site_fract_y
_atom_site_fract_z
Si Si1 0.250000 0.791978 0.809932
Si Si2 0.392001 0.699725 0.965374
Si Si3 0.338718 0.802022 0.198118
Si Si4 0.488939 0.701121 0.777376
Si Si5 0.078085 0.705076 0.561493
Si Si6 0.250000 0.798221 0.563415
O O1 0.324754 0.718882 0.874491
O O2 0.250000 0.733836 0.686607
O O3 0.250000 0.000000 0.814215
O O4 0.403640 0.500000 0.995299
O O5 0.467585 0.767492 0.895987
O O6 0.357226 0.787729 0.070861
O O7 0.250000 0.729355 0.219007
O O8 0.417843 0.722174 0.249567
O O9 0.337421 0.000000 0.228401
O O10 0.472800 0.500000 0.784294
O O11 0.434591 0.773936 0.682462
O O12 0.072816 0.500000 0.565705
O O13 0.164993 0.745604 0.515210
O O14 0.000000 0.768374 0.500000
O O15 0.250000 0.000000 0.566407
#
# Coordination Sequence:
#
# PCOD9406741 Si02
#       6
#     4   8   8   8   8   4
#     4  11  21  33  55  88 121 156 197 241 294 354
#     4  11  21  35  59  87 117 156 199 250 297 345
#     4  11  24  39  55  81 120 165 205 245 296 361
#     4  10  22  39  60  88 117 152 201 251 302 358
#     4  10  22  43  69  95 124 159 205 259 310 365
#     4  11  23  39  65  96 127 162 199 249 316 376
#
# _framework density 24.408062000000001
#
# number of rings (size 3 to 8) (size 9 to 14) (size 15 to 20)
#    0.000    1.400    3.000    2.400    0.000    7.200 
#    1.800    0.000    0.000    0.000    0.000    0.000 
#    0.000    0.000    0.000    0.000    0.000    0.000 
#
# Total GULP energy -223528.101397 kJ/mol
# GULP energy per Si atom -5588.202535 kJ/mol
# Density = 2.435251 g / cm^3
# Si number density = 24.408062 Si / 1000 Ang^3
#
#
#
# Elastic Constant Matrix: (Units=GPa)
#
#
# Indices 1 2 3 4 5 6 
#
# 1 181.7968 -11.1863 14.9790 0.0000 0.0000 0.0000
# 2 -11.1863 41.3683 -3.5958 0.0000 0.0000 0.0000
# 3 14.9790 -3.5958 32.1452 0.0000 0.0000 0.0000
# 4 0.0000 0.0000 0.0000 122.9162 0.0000 0.0000
# 5 0.0000 0.0000 0.0000 0.0000 34.8543 0.0000
# 6 0.0000 0.0000 0.0000 0.0000 0.0000 49.5857
#
#
#
# Elastic Compliance Matrix: (Units=1/GPa)
#
#
# Indices 1 2 3 4 5 6 
#
# 1 0.005793 0.001345 -0.002549 0.000000 0.000000 0.000000
# 2 0.001345 0.024723 0.002139 0.000000 0.000000 0.000000
# 3 -0.002549 0.002139 0.032536 0.000000 0.000000 0.000000
# 4 0.000000 0.000000 0.000000 0.008136 0.000000 0.000000
# 5 0.000000 0.000000 0.000000 0.000000 0.028691 0.000000
# 6 0.000000 0.000000 0.000000 0.000000 0.000000 0.020167
#
#
# Mechanical properties :
#
#
# Convention : Reuss Voigt Hill
#
# Bulk Modulus (GPa) = 15.40327 28.41157 21.90742
# Shear Modulus (GPa) = 35.76105 58.47880 47.11992
#
# Velocity S-wave (km/s) = 3.83186 4.90008 4.39852
# Velocity P-wave (km/s) = 5.08940 6.60908 5.89838
#
# Compressibility (1/GPa) = 0.06492129
#
# Stress axis : x y z
#
# Youngs Moduli (GPa) = 172.60890 40.44864 30.73524
#
# Poissons Ratio (x) = -0.05440 0.07835
# Poissons Ratio (y) = -0.23216 -0.06574
# Poissons Ratio (z) = 0.44001 -0.08651
#
# Static dielectric constant tensor:
#      x y z
#    x 2.040000 0.000000 0.000000 
#    y 0.000000 1.856680 0.000000 
#    z 0.000000 0.000000 1.985850 
# 
# From -- ./inp_files/23727.got.cif
#   From: 2010.05.17/outbox.cif.g08.bks.cpg/sg51_12_cif.got.tgz:23727.got - 2010.06.03 11:52:47.
