data_PCOD9406740
_publ_section_title
;
Structure prediction by ZEFSAII (Michael W. Deem and Ramdas Pophale) SiO2 
 PCOD9406740
Probable space group: P M M A
;
_chemical_formula_sum "Si O2"
_cell_formula_units_Z 48
_cell_length_a 8.609384
_cell_length_b 14.824984
_cell_length_c 20.861867
_cell_angle_alpha 90.000000
_cell_angle_beta 90.000000
_cell_angle_gamma 90.000000
_cell_volume 2662.683116
_symmetry_space_group_name_H-M "P M M A"
_symmetry_group_IT_number 51
_symmetry_cell_setting 'orthorhombic'
loop_
_space_group_symop_operation_xyz
x,y,z
1/2-x,-y,z
1/2+x,-y,-z
-x,y,-z
-x,-y,-z
1/2+x,y,-z
1/2-x,y,z
x,-y,z
loop_
_atom_site_type_symbol
_atom_site_label
_atom_site_fract_x
_atom_site_fract_y
_atom_site_fract_z
Si Si1 0.436255 0.696790 0.810388
Si Si2 0.561040 0.000000 0.877287
Si Si3 0.936643 0.194141 0.930087
Si Si4 0.438870 0.000000 0.271118
Si Si5 0.563528 0.500000 0.237474
Si Si6 0.936957 0.803441 0.687029
Si Si7 0.435104 0.310699 0.569354
Si Si8 0.065134 0.500000 0.381231
O O1 0.250000 0.705909 0.809470
O O2 0.502138 0.739309 0.875235
O O3 0.474907 0.591430 0.800268
O O4 0.506439 0.750598 0.750109
O O5 0.511354 0.092164 0.911517
O O6 0.509627 0.000000 0.803135
O O7 0.750000 0.000000 0.876950
O O8 0.750000 0.195667 0.930152
O O9 0.000000 0.217312 0.000000
O O10 0.486477 0.092447 0.305044
O O11 0.250000 0.000000 0.269636
O O12 0.750000 0.500000 0.249345
O O13 0.480945 0.500000 0.306319
O O14 0.750000 0.799254 0.684494
O O15 0.005936 0.755838 0.624766
O O16 0.500000 0.284555 0.500000
O O17 0.250000 0.312029 0.568392
O O18 0.496522 0.410347 0.586876
O O19 0.250000 0.500000 0.387995
#
# Coordination Sequence:
#
# PCOD9406740 Si02
#       8
#     8   4   8   4   4   8   8   4
#     4  11  22  38  60  87 119 157 198 245 297 352
#     4   9  17  33  57  86 119 155 190 240 299 354
#     4  11  22  38  59  85 120 157 198 244 299 360
#     4   9  18  35  60  90 122 154 196 247 296 349
#     4  10  22  39  60  87 122 155 196 249 298 346
#     4  11  21  38  63  90 120 159 201 245 297 354
#     4  12  25  42  61  88 125 161 201 249 302 358
#     4  12  23  37  62  93 124 159 198 243 300 362
#
# _framework density 18.026928999999999
#
# number of rings (size 3 to 8) (size 9 to 14) (size 15 to 20)
#    0.000    1.167    3.333    4.250    0.000    0.667 
#    0.000    4.583    0.000    0.000    0.000    0.000 
#    0.000    0.000    0.000    0.000    0.000    0.000 
#
# Total GULP energy -268355.355465 kJ/mol
# GULP energy per Si atom -5590.736572 kJ/mol
# Density = 1.798590 g / cm^3
# Si number density = 18.026929 Si / 1000 Ang^3
#
#
#
# Elastic Constant Matrix: (Units=GPa)
#
#
# Indices 1 2 3 4 5 6 
#
# 1 90.8462 55.5827 59.6673 0.0000 0.0000 0.0000
# 2 55.5827 151.2048 88.6304 0.0000 0.0000 0.0000
# 3 59.6673 88.6304 181.9037 0.0000 0.0000 0.0000
# 4 0.0000 0.0000 0.0000 30.3867 0.0000 0.0000
# 5 0.0000 0.0000 0.0000 0.0000 34.6472 0.0000
# 6 0.0000 0.0000 0.0000 0.0000 0.0000 31.9108
#
#
#
# Elastic Compliance Matrix: (Units=1/GPa)
#
#
# Indices 1 2 3 4 5 6 
#
# 1 0.015440 -0.003789 -0.003218 0.000000 0.000000 0.000000
# 2 -0.003789 0.010187 -0.003721 0.000000 0.000000 0.000000
# 3 -0.003218 -0.003721 0.008366 0.000000 0.000000 0.000000
# 4 0.000000 0.000000 0.000000 0.032909 0.000000 0.000000
# 5 0.000000 0.000000 0.000000 0.000000 0.028862 0.000000
# 6 0.000000 0.000000 0.000000 0.000000 0.000000 0.031337
#
#
# Mechanical properties :
#
#
# Convention : Reuss Voigt Hill
#
# Bulk Modulus (GPa) = 79.76618 92.41284 86.08951
# Shear Modulus (GPa) = 32.73596 34.06056 33.39826
#
# Velocity S-wave (km/s) = 4.26602 4.35147 4.30895
# Velocity P-wave (km/s) = 8.28309 8.75341 8.52149
#
# Compressibility (1/GPa) = 0.01253664
#
# Stress axis : x y z
#
# Youngs Moduli (GPa) = 64.76818 98.16016 119.53230
#
# Poissons Ratio (x) = 0.37195 0.38468
# Poissons Ratio (y) = 0.24542 0.44475
# Poissons Ratio (z) = 0.20844 0.36523
#
# Static dielectric constant tensor:
#      x y z
#    x 1.607520 0.000000 0.000000 
#    y 0.000000 1.611510 0.000000 
#    z 0.000000 0.000000 1.581570 
# 
# From -- ./inp_files/27705.got.cif
#   From: 2010.05.17/outbox.cif.g08.bks.cpg/sg51_14_cif.got.tgz:27705.got - 2010.06.03 11:52:47.
