data_PCOD9406591
_publ_section_title
;
Structure prediction by ZEFSAII (Michael W. Deem and Ramdas Pophale) SiO2 
 PCOD9406591
Probable space group: P M M A
;
_chemical_formula_sum "Si O2"
_cell_formula_units_Z 44
_cell_length_a 9.476753
_cell_length_b 7.544641
_cell_length_c 30.753757
_cell_angle_alpha 90.000000
_cell_angle_beta 90.000000
_cell_angle_gamma 90.000000
_cell_volume 2198.853622
_symmetry_space_group_name_H-M "P M M A"
_symmetry_group_IT_number 51
_symmetry_cell_setting 'orthorhombic'
loop_
_space_group_symop_operation_xyz
x,y,z
1/2-x,-y,z
1/2+x,-y,-z
-x,y,-z
-x,-y,-z
1/2+x,y,-z
1/2-x,y,z
x,-y,z
loop_
_atom_site_type_symbol
_atom_site_label
_atom_site_fract_x
_atom_site_fract_y
_atom_site_fract_z
Si Si1 0.920143 0.000000 0.453941
Si Si2 0.911565 0.782902 0.219438
Si Si3 0.915385 0.703668 0.597802
Si Si4 0.089059 0.212305 0.136826
Si Si5 0.588291 0.785597 0.697358
Si Si6 0.410468 0.287356 0.040593
O O1 0.000000 0.000000 0.500000
O O2 0.979021 0.830494 0.427633
O O3 0.750000 0.000000 0.457898
O O4 0.750000 0.726780 0.218060
O O5 0.996263 0.722389 0.176868
O O6 0.987602 0.726843 0.263838
O O7 0.913761 0.000000 0.219319
O O8 0.750000 0.759070 0.592033
O O9 0.927561 0.500000 0.583709
O O10 0.944879 0.715681 0.649404
O O11 0.250000 0.281418 0.138816
O O12 0.030950 0.249676 0.088665
O O13 0.096485 0.000000 0.141085
O O14 0.750000 0.737170 0.707761
O O15 0.581674 0.000000 0.694736
O O16 0.250000 0.218326 0.039351
O O17 0.403887 0.500000 0.036564
O O18 0.500000 0.219290 0.000000
#
# Coordination Sequence:
#
# PCOD9406591 Si02
#       6
#     4   8   8   8   8   8
#     4  12  26  44  68  94 128 168 210 256 307 366
#     4   9  17  28  45  72 103 136 175 217 263 317
#     4  10  21  40  66  95 127 162 206 258 307 360
#     4   9  17  30  47  67  92 123 161 204 252 308
#     4   9  16  30  54  81 111 149 190 230 278 339
#     4   9  18  32  48  65  86 115 152 195 246 307
#
# _framework density 20.010427
#
# number of rings (size 3 to 8) (size 9 to 14) (size 15 to 20)
#    0.000    2.545    0.909    1.364    0.000    4.727 
#    0.000    0.909    0.000    5.455    0.000    0.000 
#    0.000    0.000    0.000    0.000    0.000    0.000 
#
# Total GULP energy -245641.230263 kJ/mol
# GULP energy per Si atom -5582.755233 kJ/mol
# Density = 1.996488 g / cm^3
# Si number density = 20.010427 Si / 1000 Ang^3
#
#
#
# Elastic Constant Matrix: (Units=GPa)
#
#
# Indices 1 2 3 4 5 6 
#
# 1 129.4387 33.6338 107.7861 0.0000 0.0000 0.0000
# 2 33.6338 66.6341 28.7444 0.0000 0.0000 0.0000
# 3 107.7861 28.7444 149.9137 0.0000 0.0000 0.0000
# 4 0.0000 0.0000 0.0000 54.9553 0.0000 0.0000
# 5 0.0000 0.0000 0.0000 0.0000 36.1458 0.0000
# 6 0.0000 0.0000 0.0000 0.0000 0.0000 6.3144
#
#
#
# Elastic Compliance Matrix: (Units=1/GPa)
#
#
# Indices 1 2 3 4 5 6 
#
# 1 0.020329 -0.004313 -0.013789 0.000000 0.000000 0.000000
# 2 -0.004313 0.017275 -0.000212 0.000000 0.000000 0.000000
# 3 -0.013789 -0.000212 0.016625 0.000000 0.000000 0.000000
# 4 0.000000 0.000000 0.000000 0.018197 0.000000 0.000000
# 5 0.000000 0.000000 0.000000 0.000000 0.027666 0.000000
# 6 0.000000 0.000000 0.000000 0.000000 0.000000 0.158368
#
#
# Mechanical properties :
#
#
# Convention : Reuss Voigt Hill
#
# Bulk Modulus (GPa) = 56.80999 76.25723 66.53361
# Shear Modulus (GPa) = 16.61378 31.20458 23.90918
#
# Velocity S-wave (km/s) = 2.88454 3.95323 3.46039
# Velocity P-wave (km/s) = 6.28856 7.68302 7.02050
#
# Compressibility (1/GPa) = 0.01760254
#
# Stress axis : x y z
#
# Youngs Moduli (GPa) = 49.19093 57.88555 60.14876
#
# Poissons Ratio (x) = 0.24964 0.82941
# Poissons Ratio (y) = 0.21215 0.01273
# Poissons Ratio (z) = 0.67831 0.01225
#
# Static dielectric constant tensor:
#      x y z
#    x 1.683360 0.000000 0.000000 
#    y 0.000000 1.458960 0.000000 
#    z 0.000000 0.000000 1.683000 
# 
# From -- ./inp_files/36743.got.cif
#   From: 2010.05.17/outbox.cif.g08.bks.cpg/sg51_19_cif.got.tgz:36743.got - 2010.06.03 11:52:47.
