data_PCOD9406572
_publ_section_title
;
Structure prediction by ZEFSAII (Michael W. Deem and Ramdas Pophale) SiO2 
 PCOD9406572
Probable space group: P M M A
;
_chemical_formula_sum "Si O2"
_cell_formula_units_Z 64
_cell_length_a 19.622710
_cell_length_b 25.568085
_cell_length_c 5.714404
_cell_angle_alpha 90.000000
_cell_angle_beta 90.000000
_cell_angle_gamma 90.000000
_cell_volume 2867.002873
_symmetry_space_group_name_H-M "P M M A"
_symmetry_group_IT_number 51
_symmetry_cell_setting 'orthorhombic'
loop_
_space_group_symop_operation_xyz
x,y,z
1/2-x,-y,z
1/2+x,-y,-z
-x,y,-z
-x,-y,-z
1/2+x,y,-z
1/2-x,y,z
x,-y,z
loop_
_atom_site_type_symbol
_atom_site_label
_atom_site_fract_x
_atom_site_fract_y
_atom_site_fract_z
Si Si1 0.441358 0.788283 0.172146
Si Si2 0.321481 0.143451 0.656508
Si Si3 0.832394 0.439889 0.220196
Si Si4 0.832428 0.385283 0.722078
Si Si5 0.825418 0.055925 0.960263
Si Si6 0.923484 0.303054 0.502738
Si Si7 0.561295 0.901388 0.652575
Si Si8 0.827758 0.255042 0.144714
O O1 0.437860 0.755321 0.407257
O O2 0.458920 0.848978 0.206598
O O3 0.500000 0.766351 0.000000
O O4 0.368441 0.774426 0.060208
O O5 0.250000 0.129477 0.538107
O O6 0.385960 0.124382 0.523361
O O7 0.320938 0.205316 0.683996
O O8 0.324085 0.109024 0.891425
O O9 0.750000 0.439877 0.218863
O O10 0.856106 0.500000 0.212274
O O11 0.850806 0.412113 0.971772
O O12 0.850325 0.415693 0.476482
O O13 0.750000 0.377672 0.719821
O O14 0.875543 0.332530 0.689444
O O15 0.750000 0.053910 0.846439
O O16 0.892588 0.060156 0.803453
O O17 0.830302 0.000000 0.094640
O O18 0.877004 0.297415 0.269224
O O19 0.000000 0.327537 0.500000
O O20 0.500000 0.923994 0.500000
O O21 0.750000 0.273672 0.094146
#
# Coordination Sequence:
#
# PCOD9406572 Si02
#       8
#     8   8   8   8   8   8   8   8
#     4  12  24  41  64  89 124 172 216 256 316 393
#     4  10  21  40  63  89 117 154 203 253 310 378
#     4   9  18  37  66  97 131 175 227 286 346 400
#     4  10  22  38  62  99 137 173 226 288 341 398
#     4  10  23  43  64  87 118 156 199 253 318 383
#     4  12  25  42  61  90 132 177 218 261 330 401
#     4  12  24  38  64  93 123 157 203 257 311 381
#     4  11  23  39  63  93 121 159 216 272 315 376
#
# _framework density 22.322963999999999
#
# number of rings (size 3 to 8) (size 9 to 14) (size 15 to 20)
#    0.000    1.250    3.750    2.250    1.750    3.750 
#    0.000    1.875    0.000    2.250    0.000    0.000 
#    0.000    0.000    0.000    0.000    0.000    0.000 
#
# Total GULP energy -356535.235865 kJ/mol
# GULP energy per Si atom -5570.863060 kJ/mol
# Density = 2.227216 g / cm^3
# Si number density = 22.322964 Si / 1000 Ang^3
#
#
#
# Elastic Constant Matrix: (Units=GPa)
#
#
# Indices 1 2 3 4 5 6 
#
# 1 117.7672 7.9086 33.6145 0.0000 0.0000 0.0000
# 2 7.9086 91.7374 27.2206 0.0000 0.0000 0.0000
# 3 33.6145 27.2206 81.4518 0.0000 0.0000 0.0000
# 4 0.0000 0.0000 0.0000 -12.9153 0.0000 0.0000
# 5 0.0000 0.0000 0.0000 0.0000 39.6424 0.0000
# 6 0.0000 0.0000 0.0000 0.0000 0.0000 15.2148
#
#
#
# Elastic Compliance Matrix: (Units=1/GPa)
#
#
# Indices 1 2 3 4 5 6 
#
# 1 0.009638 0.000388 -0.004107 0.000000 0.000000 0.000000
# 2 0.000388 0.012116 -0.004209 0.000000 0.000000 0.000000
# 3 -0.004107 -0.004209 0.015379 0.000000 0.000000 0.000000
# 4 0.000000 0.000000 0.000000 -0.077428 0.000000 0.000000
# 5 0.000000 0.000000 0.000000 0.000000 0.025226 0.000000
# 6 0.000000 0.000000 0.000000 0.000000 0.000000 0.065725
#
#
# Mechanical properties :
#
#
# Convention : Reuss Voigt Hill
#
# Bulk Modulus (GPa) = 47.00163 47.60486 47.30324
# Shear Modulus (GPa) = 67.93085 23.20258 45.56672
#
# Velocity S-wave (km/s) = 5.52241 3.22748 4.52292
# Velocity P-wave (km/s) = 7.85899 5.93806 6.96507
#
# Compressibility (1/GPa) = 0.02127586
#
# Stress axis : x y z
#
# Youngs Moduli (GPa) = 103.76104 82.53400 65.02467
#
# Poissons Ratio (x) = -0.03201 0.26705
# Poissons Ratio (y) = -0.04024 0.27370
# Poissons Ratio (z) = 0.42614 0.34740
#
# Static dielectric constant tensor:
#      x y z
#    x 1.854940 0.000000 0.000000 
#    y 0.000000 1.839490 0.000000 
#    z 0.000000 0.000000 2.015140 
# 
# From -- ./inp_files/2693.got.cif
#   From: 2010.05.17/outbox.cif.g08.bks.cpg/sg51_2_cif.got.tgz:2693.got - 2010.06.03 11:52:47.
