data_PCOD9406923
_publ_section_title
;
Structure prediction by ZEFSAII (Michael W. Deem and Ramdas Pophale) SiO2 
 PCOD9406923
Probable space group: P M M A
;
_chemical_formula_sum "Si O2"
_cell_formula_units_Z 48
_cell_length_a 15.325238
_cell_length_b 15.963426
_cell_length_c 10.296419
_cell_angle_alpha 90.000000
_cell_angle_beta 90.000000
_cell_angle_gamma 90.000000
_cell_volume 2518.949951
_symmetry_space_group_name_H-M "P M M A"
_symmetry_group_IT_number 51
_symmetry_cell_setting 'orthorhombic'
loop_
_space_group_symop_operation_xyz
x,y,z
1/2-x,-y,z
1/2+x,-y,-z
-x,y,-z
-x,-y,-z
1/2+x,y,-z
1/2-x,y,z
x,-y,z
loop_
_atom_site_type_symbol
_atom_site_label
_atom_site_fract_x
_atom_site_fract_y
_atom_site_fract_z
Si Si1 0.851791 0.797195 0.265420
Si Si2 0.910557 0.500000 0.077179
Si Si3 0.850493 0.500000 0.360923
Si Si4 0.104743 0.672574 0.503111
Si Si5 0.147578 0.234345 0.248880
Si Si6 0.510153 0.902844 0.655699
Si Si7 0.853213 0.313265 0.020239
O O1 0.750000 0.820805 0.248545
O O2 0.860303 0.740567 0.394319
O O3 0.918860 0.873023 0.282016
O O4 0.882685 0.738666 0.146064
O O5 0.868175 0.411819 0.037239
O O6 0.911795 0.500000 0.234022
O O7 0.000000 0.500000 0.000000
O O8 0.750000 0.500000 0.313042
O O9 0.866657 0.582223 0.445691
O O10 0.139402 0.696316 0.361718
O O11 0.000000 0.676924 0.500000
O O12 0.250000 0.210534 0.237363
O O13 0.113572 0.274363 0.114304
O O14 0.086696 0.157454 0.292856
O O15 0.500000 0.892444 0.500000
O O16 0.528175 0.000000 0.682716
O O17 0.750000 0.301427 0.016108
#
# Coordination Sequence:
#
# PCOD9406923 Si02
#       7
#     8   4   4   8   8   8   8
#     4  11  21  41  68  93 124 169 211 256 318 383
#     4  12  26  36  62  94 126 167 220 260 309 365
#     4  12  25  42  64  93 128 176 228 269 316 373
#     4  12  23  40  64  91 130 167 214 266 312 371
#     4  11  23  42  65  94 129 168 208 260 326 383
#     4  11  24  42  66  97 128 159 207 269 321 385
#     4  10  24  42  64  90 127 171 213 260 311 375
#
# _framework density 19.055558999999999
#
# number of rings (size 3 to 8) (size 9 to 14) (size 15 to 20)
#    0.000    0.833    5.000    2.500    4.667    1.333 
#    0.000    4.167    0.000    3.000    0.000    0.000 
#    0.000    0.000    0.000    0.000    0.000    0.000 
#
# Total GULP energy -268214.766381 kJ/mol
# GULP energy per Si atom -5587.807633 kJ/mol
# Density = 1.901219 g / cm^3
# Si number density = 19.055559 Si / 1000 Ang^3
#
#
#
# Elastic Constant Matrix: (Units=GPa)
#
#
# Indices 1 2 3 4 5 6 
#
# 1 93.0088 26.9548 17.4635 0.0000 0.0000 0.0000
# 2 26.9548 117.9942 39.9755 0.0000 0.0000 0.0000
# 3 17.4635 39.9755 115.6521 0.0000 0.0000 0.0000
# 4 0.0000 0.0000 0.0000 19.2097 0.0000 0.0000
# 5 0.0000 0.0000 0.0000 0.0000 -83.7191 0.0000
# 6 0.0000 0.0000 0.0000 0.0000 0.0000 -22.4509
#
#
#
# Elastic Compliance Matrix: (Units=1/GPa)
#
#
# Indices 1 2 3 4 5 6 
#
# 1 0.011605 -0.002330 -0.000947 0.000000 0.000000 0.000000
# 2 -0.002330 0.010067 -0.003128 0.000000 0.000000 0.000000
# 3 -0.000947 -0.003128 0.009871 0.000000 0.000000 0.000000
# 4 0.000000 0.000000 0.000000 0.052057 0.000000 0.000000
# 5 0.000000 0.000000 0.000000 0.000000 -0.011945 0.000000
# 6 0.000000 0.000000 0.000000 0.000000 0.000000 -0.044542
#
#
# Mechanical properties :
#
#
# Convention : Reuss Voigt Hill
#
# Bulk Modulus (GPa) = 53.38265 55.04917 54.21591
# Shear Modulus (GPa) = 108.30150 -1.24133 53.53009
#
# Velocity S-wave (km/s) = 7.54705 -0.80798 5.30590
# Velocity P-wave (km/s) = 10.19897 5.29915 8.12712
#
# Compressibility (1/GPa) = 0.01873268
#
# Stress axis : x y z
#
# Youngs Moduli (GPa) = 86.17140 99.33450 101.30945
#
# Poissons Ratio (x) = 0.23147 0.09593
# Poissons Ratio (y) = 0.20080 0.31688
# Poissons Ratio (z) = 0.08159 0.31070
#
# Static dielectric constant tensor:
#      x y z
#    x 1.681190 0.000000 0.000000 
#    y 0.000000 1.719890 0.000000 
#    z 0.000000 0.000000 1.679970 
# 
# From -- ./inp_files/8314.got.cif
#   From: 2010.05.17/outbox.cif.g08.bks.cpg/sg51_5_cif.got.tgz:8314.got - 2010.06.03 11:52:47.
