data_PCOD9406194
_publ_section_title
;
Structure prediction by ZEFSAII (Michael W. Deem and Ramdas Pophale) SiO2 
 PCOD9406194
Probable space group: P M M A
;
_chemical_formula_sum "Si O2"
_cell_formula_units_Z 56
_cell_length_a 21.443800
_cell_length_b 8.856543
_cell_length_c 15.134752
_cell_angle_alpha 90.000000
_cell_angle_beta 90.000000
_cell_angle_gamma 90.000000
_cell_volume 2874.360874
_symmetry_space_group_name_H-M "P M M A"
_symmetry_group_IT_number 51
_symmetry_cell_setting 'orthorhombic'
loop_
_space_group_symop_operation_xyz
x,y,z
1/2-x,-y,z
1/2+x,-y,-z
-x,y,-z
-x,-y,-z
1/2+x,y,-z
1/2-x,y,z
x,-y,z
loop_
_atom_site_type_symbol
_atom_site_label
_atom_site_fract_x
_atom_site_fract_y
_atom_site_fract_z
Si Si1 0.904202 0.242574 0.055595
Si Si2 0.973823 0.833115 0.881064
Si Si3 0.615539 0.176101 0.714573
Si Si4 0.321579 0.832517 0.780439
Si Si5 0.069421 0.174814 0.485260
Si Si6 0.821666 0.321315 0.399654
Si Si7 0.675603 0.500000 0.967404
Si Si8 0.675995 0.500000 0.759004
O O1 0.865563 0.170452 0.135051
O O2 0.970740 0.284641 0.100616
O O3 0.928698 0.163901 0.966000
O O4 0.856724 0.362224 0.016171
O O5 0.934774 0.810193 0.793078
O O6 0.003937 0.000000 0.875359
O O7 0.584689 0.177938 0.618442
O O8 0.653720 0.335205 0.721927
O O9 0.642650 0.000000 0.724519
O O10 0.250000 0.804215 0.808342
O O11 0.337327 0.717997 0.702149
O O12 0.324426 0.000000 0.740127
O O13 0.125694 0.252408 0.537720
O O14 0.000000 0.239916 0.500000
O O15 0.067610 0.000000 0.515082
O O16 0.750000 0.265301 0.415639
O O17 0.820998 0.500000 0.411913
O O18 0.750000 0.500000 0.975756
O O19 0.659526 0.500000 0.863481
O O20 0.750000 0.500000 0.750218
#
# Coordination Sequence:
#
# PCOD9406194 Si02
#       8
#     8   8   8   8   8   8   4   4
#     4  11  21  36  60  86 121 163 209 251 312 379
#     4  10  21  38  61  91 125 161 207 261 315 383
#     4  10  23  44  67  97 134 169 214 272 332 395
#     4  10  21  37  60  89 120 160 208 256 307 369
#     4  10  23  43  69  98 128 165 211 268 332 393
#     4  10  23  42  63  91 128 167 209 259 318 384
#     4  11  24  40  58  86 126 171 215 268 321 374
#     4  11  24  45  68  93 129 176 226 274 326 387
#
# _framework density 19.482590999999999
#
# number of rings (size 3 to 8) (size 9 to 14) (size 15 to 20)
#    0.000    1.714    1.429    2.571    4.000    3.714 
#    0.000    1.429    0.000    0.000    0.000    0.000 
#    0.000    0.000    0.000    0.000    0.000    0.000 
#
# Total GULP energy -311750.609381 kJ/mol
# GULP energy per Si atom -5566.975168 kJ/mol
# Density = 1.943825 g / cm^3
# Si number density = 19.482591 Si / 1000 Ang^3
#
#
#
# Elastic Constant Matrix: (Units=GPa)
#
#
# Indices 1 2 3 4 5 6 
#
# 1 105.3042 49.1972 68.6765 0.0000 0.0000 0.0000
# 2 49.1972 88.4698 29.8579 0.0000 0.0000 0.0000
# 3 68.6765 29.8579 102.9388 0.0000 0.0000 0.0000
# 4 0.0000 0.0000 0.0000 22.9038 0.0000 0.0000
# 5 0.0000 0.0000 0.0000 0.0000 25.1843 0.0000
# 6 0.0000 0.0000 0.0000 0.0000 0.0000 24.3244
#
#
#
# Elastic Compliance Matrix: (Units=1/GPa)
#
#
# Indices 1 2 3 4 5 6 
#
# 1 0.020515 -0.007526 -0.011504 0.000000 0.000000 0.000000
# 2 -0.007526 0.015291 0.000586 0.000000 0.000000 0.000000
# 3 -0.011504 0.000586 0.017219 0.000000 0.000000 0.000000
# 4 0.000000 0.000000 0.000000 0.043661 0.000000 0.000000
# 5 0.000000 0.000000 0.000000 0.000000 0.039707 0.000000
# 6 0.000000 0.000000 0.000000 0.000000 0.000000 0.041111
#
#
# Mechanical properties :
#
#
# Convention : Reuss Voigt Hill
#
# Bulk Modulus (GPa) = 61.96792 65.79733 63.88263
# Shear Modulus (GPa) = 22.75110 24.41459 23.58284
#
# Velocity S-wave (km/s) = 3.42097 3.54382 3.48294
# Velocity P-wave (km/s) = 6.89056 7.11271 7.00252
#
# Compressibility (1/GPa) = 0.01613738
#
# Stress axis : x y z
#
# Youngs Moduli (GPa) = 48.74600 65.40000 58.07414
#
# Poissons Ratio (x) = 0.49217 0.66806
# Poissons Ratio (y) = 0.36684 -0.03401
# Poissons Ratio (z) = 0.56075 -0.03830
#
# Static dielectric constant tensor:
#      x y z
#    x 1.682890 0.000000 0.000000 
#    y 0.000000 -2.644730 0.000000 
#    z 0.000000 0.000000 1.652020 
# 
# From -- ./inp_files/25870.got.cif
#   From: 2010.05.17/outbox.cif.g08.bks.cpg/sg51_13_cif.got.tgz:25870.got - 2010.06.03 11:52:47.
