data_PCOD9406329
_publ_section_title
;
Structure prediction by ZEFSAII (Michael W. Deem and Ramdas Pophale) SiO2 
 PCOD9406329
Probable space group: P M M A
;
_chemical_formula_sum "Si O2"
_cell_formula_units_Z 44
_cell_length_a 8.186036
_cell_length_b 29.925213
_cell_length_c 9.418261
_cell_angle_alpha 90.000000
_cell_angle_beta 90.000000
_cell_angle_gamma 90.000000
_cell_volume 2307.180763
_symmetry_space_group_name_H-M "P M M A"
_symmetry_group_IT_number 51
_symmetry_cell_setting 'orthorhombic'
loop_
_space_group_symop_operation_xyz
x,y,z
1/2-x,-y,z
1/2+x,-y,-z
-x,y,-z
-x,-y,-z
1/2+x,y,-z
1/2-x,y,z
x,-y,z
loop_
_atom_site_type_symbol
_atom_site_label
_atom_site_fract_x
_atom_site_fract_y
_atom_site_fract_z
Si Si1 0.947704 0.720114 0.162660
Si Si2 0.552744 0.096030 0.334883
Si Si3 0.447620 0.193535 0.664148
Si Si4 0.944590 0.365642 0.338358
Si Si5 0.947668 0.000000 0.334221
Si Si6 0.554835 0.449531 0.840145
O O1 0.750000 0.720102 0.167669
O O2 0.005842 0.764928 0.242453
O O3 0.007827 0.676120 0.245640
O O4 0.000000 0.719270 0.000000
O O5 0.500000 0.095940 0.500000
O O6 0.750000 0.095888 0.328264
O O7 0.496357 0.144537 0.280556
O O8 0.495323 0.048062 0.273842
O O9 0.500000 0.198560 0.500000
O O10 0.250000 0.193661 0.666378
O O11 0.750000 0.363617 0.335426
O O12 0.000000 0.362068 0.500000
O O13 0.996482 0.412214 0.268295
O O14 0.000000 0.000000 0.500000
O O15 0.750000 0.000000 0.329110
O O16 0.750000 0.450424 0.837616
O O17 0.494041 0.500000 0.809024
O O18 0.500000 0.438037 0.000000
#
# Coordination Sequence:
#
# PCOD9406329 Si02
#       6
#     8   8   8   8   4   8
#     4  10  22  37  53  74  99 129 166 206 249 298
#     4   8  13  21  35  56  85 117 149 187 231 281
#     4   9  17  30  47  69  96 125 158 198 244 292
#     4  11  23  38  57  81 108 138 172 212 257 304
#     4   8  12  18  30  52  81 114 148 182 226 278
#     4  10  21  38  60  85 113 145 179 214 252 296
#
# _framework density 19.070895
#
# number of rings (size 3 to 8) (size 9 to 14) (size 15 to 20)
#    0.000    2.545    0.000    2.182    0.000    5.091 
#    0.000    0.000    0.000    0.000    0.000    0.636 
#    0.000    0.000    0.000    0.000    0.000    0.000 
#
# Total GULP energy -245232.460806 kJ/mol
# GULP energy per Si atom -5573.465018 kJ/mol
# Density = 1.902749 g / cm^3
# Si number density = 19.070895 Si / 1000 Ang^3
#
#
#
# Elastic Constant Matrix: (Units=GPa)
#
#
# Indices 1 2 3 4 5 6 
#
# 1 17.7637 18.5601 8.4118 0.0000 0.0000 0.0000
# 2 18.5601 186.8509 100.6404 0.0000 0.0000 0.0000
# 3 8.4118 100.6404 104.1111 0.0000 0.0000 0.0000
# 4 0.0000 0.0000 0.0000 -10.8037 0.0000 0.0000
# 5 0.0000 0.0000 0.0000 0.0000 26.4370 0.0000
# 6 0.0000 0.0000 0.0000 0.0000 0.0000 202.9278
#
#
#
# Elastic Compliance Matrix: (Units=1/GPa)
#
#
# Indices 1 2 3 4 5 6 
#
# 1 0.063013 -0.007337 0.002001 0.000000 0.000000 0.000000
# 2 -0.007337 0.012019 -0.011026 0.000000 0.000000 0.000000
# 3 0.002001 -0.011026 0.020102 0.000000 0.000000 0.000000
# 4 0.000000 0.000000 0.000000 -0.092561 0.000000 0.000000
# 5 0.000000 0.000000 0.000000 0.000000 0.037826 0.000000
# 6 0.000000 0.000000 0.000000 0.000000 0.000000 0.004928
#
#
# Mechanical properties :
#
#
# Convention : Reuss Voigt Hill
#
# Bulk Modulus (GPa) = 16.02288 62.66113 39.34200
# Shear Modulus (GPa) = 50.57990 55.78644 53.18317
#
# Velocity S-wave (km/s) = 5.15554 5.41439 5.28655
# Velocity P-wave (km/s) = 6.62265 8.48621 7.61168
#
# Compressibility (1/GPa) = 0.06241075
#
# Stress axis : x y z
#
# Youngs Moduli (GPa) = 15.86973 83.19954 49.74714
#
# Poissons Ratio (x) = 0.61044 -0.09955
# Poissons Ratio (y) = 0.11644 0.54850
# Poissons Ratio (z) = -0.03176 0.91734
#
# Static dielectric constant tensor:
#      x y z
#    x 1.669890 0.000000 0.000000 
#    y 0.000000 1.743030 0.000000 
#    z 0.000000 0.000000 1.600170 
# 
# From -- ./inp_files/5865.got.cif
#   From: 2010.05.17/outbox.cif.g08.bks.cpg/sg51_3_cif.got.tgz:5865.got - 2010.06.03 11:52:47.
