data_PCOD9406915
_publ_section_title
;
Structure prediction by ZEFSAII (Michael W. Deem and Ramdas Pophale) SiO2 
 PCOD9406915
Probable space group: P M M A
;
_chemical_formula_sum "Si O2"
_cell_formula_units_Z 48
_cell_length_a 15.203821
_cell_length_b 15.917401
_cell_length_c 10.199736
_cell_angle_alpha 90.000000
_cell_angle_beta 90.000000
_cell_angle_gamma 90.000000
_cell_volume 2468.390330
_symmetry_space_group_name_H-M "P M M A"
_symmetry_group_IT_number 51
_symmetry_cell_setting 'orthorhombic'
loop_
_space_group_symop_operation_xyz
x,y,z
1/2-x,-y,z
1/2+x,-y,-z
-x,y,-z
-x,-y,-z
1/2+x,y,-z
1/2-x,y,z
x,-y,z
loop_
_atom_site_type_symbol
_atom_site_label
_atom_site_fract_x
_atom_site_fract_y
_atom_site_fract_z
Si Si1 0.580600 0.000000 0.901872
Si Si2 0.854413 0.815726 0.969151
Si Si3 0.485828 0.403545 0.656404
Si Si4 0.606627 0.177813 0.506220
Si Si5 0.147155 0.261135 0.757091
Si Si6 0.148095 0.694138 0.265212
Si Si7 0.415525 0.000000 0.404785
O O1 0.558439 0.000000 0.747629
O O2 0.500000 0.000000 0.000000
O O3 0.627607 0.912197 0.934385
O O4 0.750000 0.807175 0.975586
O O5 0.887287 0.782659 0.109751
O O6 0.883426 0.754580 0.852382
O O7 0.500000 0.391867 0.500000
O O8 0.460640 0.500000 0.679516
O O9 0.413724 0.338785 0.712130
O O10 0.579693 0.381199 0.720487
O O11 0.500000 0.182657 0.500000
O O12 0.640821 0.194497 0.361032
O O13 0.640463 0.249602 0.603578
O O14 0.632583 0.086933 0.562398
O O15 0.250000 0.285872 0.772222
O O16 0.250000 0.669825 0.246321
O O17 0.500000 0.000000 0.500000
#
# Coordination Sequence:
#
# PCOD9406915 Si02
#       7
#     4   8   8   8   8   8   4
#     4  12  25  37  63  91 122 173 215 251 307 362
#     4  10  25  42  61  90 129 168 209 258 305 366
#     4  11  24  42  66  96 126 156 201 263 316 377
#     4  11  20  38  62  88 128 163 209 261 300 362
#     4  11  23  42  65  92 126 166 206 254 316 375
#     4  11  21  40  65  92 123 164 206 251 311 368
#     4  10  24  37  55  95 130 162 215 269 300 353
#
# _framework density 19.445872000000001
#
# number of rings (size 3 to 8) (size 9 to 14) (size 15 to 20)
#    0.000    1.167    5.000    0.750    7.000    0.667 
#    0.000    5.833    0.000    3.000    0.000    0.000 
#    0.000    0.000    0.000    0.000    0.000    0.000 
#
# Total GULP energy -268063.647034 kJ/mol
# GULP energy per Si atom -5584.659313 kJ/mol
# Density = 1.940161 g / cm^3
# Si number density = 19.445872 Si / 1000 Ang^3
#
#
#
# Elastic Constant Matrix: (Units=GPa)
#
#
# Indices 1 2 3 4 5 6 
#
# 1 80.5443 22.5521 16.8562 0.0000 0.0000 0.0000
# 2 22.5521 102.2535 45.3623 0.0000 0.0000 0.0000
# 3 16.8562 45.3623 150.7025 0.0000 0.0000 0.0000
# 4 0.0000 0.0000 0.0000 23.2621 0.0000 0.0000
# 5 0.0000 0.0000 0.0000 0.0000 22.7206 0.0000
# 6 0.0000 0.0000 0.0000 0.0000 0.0000 17.2180
#
#
#
# Elastic Compliance Matrix: (Units=1/GPa)
#
#
# Indices 1 2 3 4 5 6 
#
# 1 0.013296 -0.002623 -0.000698 0.000000 0.000000 0.000000
# 2 -0.002623 0.011804 -0.003260 0.000000 0.000000 0.000000
# 3 -0.000698 -0.003260 0.007695 0.000000 0.000000 0.000000
# 4 0.000000 0.000000 0.000000 0.042988 0.000000 0.000000
# 5 0.000000 0.000000 0.000000 0.000000 0.044013 0.000000
# 6 0.000000 0.000000 0.000000 0.000000 0.000000 0.058079
#
#
# Mechanical properties :
#
#
# Convention : Reuss Voigt Hill
#
# Bulk Modulus (GPa) = 50.93127 55.89351 53.41239
# Shear Modulus (GPa) = 25.30613 29.22211 27.26412
#
# Velocity S-wave (km/s) = 3.61135 3.88073 3.74846
# Velocity P-wave (km/s) = 6.60586 6.99182 6.80158
#
# Compressibility (1/GPa) = 0.01963430
#
# Stress axis : x y z
#
# Youngs Moduli (GPa) = 75.21093 84.71549 129.95746
#
# Poissons Ratio (x) = 0.22220 0.09066
# Poissons Ratio (y) = 0.19727 0.42363
# Poissons Ratio (z) = 0.05247 0.27615
#
# Static dielectric constant tensor:
#      x y z
#    x 1.710350 0.000000 0.000000 
#    y 0.000000 1.827980 0.000000 
#    z 0.000000 0.000000 1.662160 
# 
# From -- ./inp_files/8329.got.cif
#   From: 2010.05.17/outbox.cif.g08.bks.cpg/sg51_5_cif.got.tgz:8329.got - 2010.06.03 11:52:47.
