data_PCOD9406178
_publ_section_title
;
Structure prediction by ZEFSAII (Michael W. Deem and Ramdas Pophale) SiO2 
 PCOD9406178
Probable space group: P M M A
;
_chemical_formula_sum "Si O2"
_cell_formula_units_Z 48
_cell_length_a 16.522715
_cell_length_b 8.812609
_cell_length_c 15.507496
_cell_angle_alpha 90.000000
_cell_angle_beta 90.000000
_cell_angle_gamma 90.000000
_cell_volume 2258.018996
_symmetry_space_group_name_H-M "P M M A"
_symmetry_group_IT_number 51
_symmetry_cell_setting 'orthorhombic'
loop_
_space_group_symop_operation_xyz
x,y,z
1/2-x,-y,z
1/2+x,-y,-z
-x,y,-z
-x,-y,-z
1/2+x,y,-z
1/2-x,y,z
x,-y,z
loop_
_atom_site_type_symbol
_atom_site_label
_atom_site_fract_x
_atom_site_fract_y
_atom_site_fract_z
Si Si1 0.344839 0.170121 0.913888
Si Si2 0.653718 0.669989 0.255214
Si Si3 0.844298 0.181472 0.774107
Si Si4 0.590051 0.180082 0.421508
Si Si5 0.575260 0.320368 0.938291
Si Si6 0.410247 0.318276 0.402081
O O1 0.250000 0.153456 0.895798
O O2 0.381792 0.254631 0.831106
O O3 0.378115 0.000000 0.926828
O O4 0.352826 0.272263 0.998014
O O5 0.750000 0.655469 0.244146
O O6 0.620175 0.500000 0.268377
O O7 0.638944 0.774832 0.336977
O O8 0.750000 0.216001 0.796173
O O9 0.905186 0.240863 0.847977
O O10 0.866008 0.257246 0.682738
O O11 0.852012 0.000000 0.766986
O O12 0.501002 0.249900 0.404536
O O13 0.625668 0.256478 0.507762
O O14 0.584653 0.000000 0.432958
O O15 0.569073 0.500000 0.924591
O O16 0.500000 0.272431 0.000000
O O17 0.412628 0.500000 0.402533
#
# Coordination Sequence:
#
# PCOD9406178 Si02
#       6
#     8   8   8   8   8   8
#     4  10  21  38  60  87 120 159 202 251 308 367
#     4  10  21  37  59  88 122 161 204 251 304 363
#     4  11  25  45  68  95 128 167 214 266 320 381
#     4  11  22  39  63  91 127 166 208 259 312 369
#     4  11  25  42  62  91 125 163 208 259 313 374
#     4  11  23  41  65  92 124 164 209 257 311 374
#
# _framework density 21.257572
#
# number of rings (size 3 to 8) (size 9 to 14) (size 15 to 20)
#    0.000    1.333    0.000    6.500    2.333    7.333 
#    0.000    0.000    0.000    0.000    0.000    0.000 
#    0.000    0.000    0.000    0.000    0.000    0.000 
#
# Total GULP energy -268149.045601 kJ/mol
# GULP energy per Si atom -5586.438450 kJ/mol
# Density = 2.120919 g / cm^3
# Si number density = 21.257572 Si / 1000 Ang^3
#
#
#
# Elastic Constant Matrix: (Units=GPa)
#
#
# Indices 1 2 3 4 5 6 
#
# 1 35.8986 26.3713 10.7061 0.0000 0.0000 0.0000
# 2 26.3713 119.3260 30.5711 0.0000 0.0000 0.0000
# 3 10.7061 30.5711 125.7609 0.0000 0.0000 0.0000
# 4 0.0000 0.0000 0.0000 32.7931 0.0000 0.0000
# 5 0.0000 0.0000 0.0000 0.0000 18.6383 0.0000
# 6 0.0000 0.0000 0.0000 0.0000 0.0000 17.1476
#
#
#
# Elastic Compliance Matrix: (Units=1/GPa)
#
#
# Indices 1 2 3 4 5 6 
#
# 1 0.033402 -0.007095 -0.001119 0.000000 0.000000 0.000000
# 2 -0.007095 0.010444 -0.001935 0.000000 0.000000 0.000000
# 3 -0.001119 -0.001935 0.008517 0.000000 0.000000 0.000000
# 4 0.000000 0.000000 0.000000 0.030494 0.000000 0.000000
# 5 0.000000 0.000000 0.000000 0.000000 0.053653 0.000000
# 6 0.000000 0.000000 0.000000 0.000000 0.000000 0.058317
#
#
# Mechanical properties :
#
#
# Convention : Reuss Voigt Hill
#
# Bulk Modulus (GPa) = 31.18596 46.25361 38.71979
# Shear Modulus (GPa) = 22.14209 27.93826 25.04018
#
# Velocity S-wave (km/s) = 3.23090 3.62922 3.43584
# Velocity P-wave (km/s) = 5.34983 6.27436 5.83045
#
# Compressibility (1/GPa) = 0.03206571
#
# Stress axis : x y z
#
# Youngs Moduli (GPa) = 29.93819 95.74712 117.40976
#
# Poissons Ratio (x) = 0.67936 0.13135
# Poissons Ratio (y) = 0.21242 0.22717
# Poissons Ratio (z) = 0.03349 0.18526
#
# Static dielectric constant tensor:
#      x y z
#    x 1.836110 0.000000 0.000000 
#    y 0.000000 1.755730 0.000000 
#    z 0.000000 0.000000 1.756310 
# 
# From -- ./inp_files/24748.got.cif
#   From: 2010.05.17/outbox.cif.g08.bks.cpg/sg51_13_cif.got.tgz:24748.got - 2010.06.03 11:52:47.
