data_PCOD9406726
_publ_section_title
;
Structure prediction by ZEFSAII (Michael W. Deem and Ramdas Pophale) SiO2 
 PCOD9406726
Probable space group: P M M A
;
_chemical_formula_sum "Si O2"
_cell_formula_units_Z 40
_cell_length_a 11.026730
_cell_length_b 18.026743
_cell_length_c 9.436246
_cell_angle_alpha 90.000000
_cell_angle_beta 90.000000
_cell_angle_gamma 90.000000
_cell_volume 1875.699498
_symmetry_space_group_name_H-M "P M M A"
_symmetry_group_IT_number 51
_symmetry_cell_setting 'orthorhombic'
loop_
_space_group_symop_operation_xyz
x,y,z
1/2-x,-y,z
1/2+x,-y,-z
-x,y,-z
-x,-y,-z
1/2+x,y,-z
1/2-x,y,z
x,-y,z
loop_
_atom_site_type_symbol
_atom_site_label
_atom_site_fract_x
_atom_site_fract_y
_atom_site_fract_z
Si Si1 0.387035 0.828979 0.904605
Si Si2 0.385957 0.414243 0.256041
Si Si3 0.619051 0.343440 0.162436
Si Si4 0.876095 0.702848 0.488638
Si Si5 0.889549 0.914572 0.389210
O O1 0.250000 0.850001 0.953014
O O2 0.389998 0.739116 0.900439
O O3 0.400942 0.859899 0.745239
O O4 0.500000 0.854337 0.000000
O O5 0.250000 0.406554 0.195937
O O6 0.404997 0.500000 0.294266
O O7 0.493393 0.387783 0.153624
O O8 0.385551 0.362848 0.396184
O O9 0.750000 0.376931 0.120600
O O10 0.628256 0.330045 0.332195
O O11 0.750000 0.743252 0.516483
O O12 0.000000 0.747377 0.500000
O O13 0.750000 0.906626 0.445246
O O14 0.000000 0.906671 0.500000
O O15 0.897408 0.000000 0.336303
#
# Coordination Sequence:
#
# PCOD9406726 Si02
#       5
#     8   8   8   8   8
#     4  10  22  39  58  83 116 154 198 245 289 338
#     4   9  17  28  44  71 105 137 173 223 284 348
#     4   9  18  31  46  67  97 134 177 224 274 328
#     4   8  14  24  38  59  90 125 159 201 257 318
#     4   9  19  37  61  91 126 159 192 234 284 340
#
# _framework density 21.325377
#
# number of rings (size 3 to 8) (size 9 to 14) (size 15 to 20)
#    0.000    3.000    0.000    0.000    0.000    8.400 
#    0.000    6.000    0.000    0.600    0.000    0.000 
#    0.000    0.000    0.000    0.000    0.000    0.000 
#
# Total GULP energy -222811.121710 kJ/mol
# GULP energy per Si atom -5570.278043 kJ/mol
# Density = 2.127684 g / cm^3
# Si number density = 21.325377 Si / 1000 Ang^3
#
#
#
# Elastic Constant Matrix: (Units=GPa)
#
#
# Indices 1 2 3 4 5 6 
#
# 1 240.2064 25.3452 35.8894 0.0000 0.0000 0.0000
# 2 25.3452 72.0107 -3.4915 0.0000 0.0000 0.0000
# 3 35.8894 -3.4915 72.5014 0.0000 0.0000 0.0000
# 4 0.0000 0.0000 0.0000 2.5495 0.0000 0.0000
# 5 0.0000 0.0000 0.0000 0.0000 0.5048 0.0000
# 6 0.0000 0.0000 0.0000 0.0000 0.0000 -39.6592
#
#
#
# Elastic Compliance Matrix: (Units=1/GPa)
#
#
# Indices 1 2 3 4 5 6 
#
# 1 0.004712 -0.001776 -0.002418 0.000000 0.000000 0.000000
# 2 -0.001776 0.014588 0.001581 0.000000 0.000000 0.000000
# 3 -0.002418 0.001581 0.015066 0.000000 0.000000 0.000000
# 4 0.000000 0.000000 0.000000 0.392235 0.000000 0.000000
# 5 0.000000 0.000000 0.000000 0.000000 1.981057 0.000000
# 6 0.000000 0.000000 0.000000 0.000000 0.000000 -0.025215
#
#
# Mechanical properties :
#
#
# Convention : Reuss Voigt Hill
#
# Bulk Modulus (GPa) = 34.31464 55.57830 44.94647
# Shear Modulus (GPa) = 2.08561 14.47738 8.28149
#
# Velocity S-wave (km/s) = 0.99001 2.60836 1.97277
# Velocity P-wave (km/s) = 4.17525 5.93212 5.12946
#
# Compressibility (1/GPa) = 0.02914208
#
# Stress axis : x y z
#
# Youngs Moduli (GPa) = 212.23807 68.54742 66.37518
#
# Poissons Ratio (x) = 0.12171 0.16049
# Poissons Ratio (y) = 0.37685 -0.10497
# Poissons Ratio (z) = 0.51316 -0.10841
#
# Static dielectric constant tensor:
#      x y z
#    x 1.899100 0.000000 0.000000 
#    y 0.000000 1.733490 0.000000 
#    z 0.000000 0.000000 1.749240 
# 
# From -- ./inp_files/6870.got.cif
#   From: 2010.05.17/outbox.cif.g08.bks.cpg/sg51_4_cif.got.tgz:6870.got - 2010.06.03 11:52:47.
