data_PCOD9406742
_publ_section_title
;
Structure prediction by ZEFSAII (Michael W. Deem and Ramdas Pophale) SiO2 
 PCOD9406742
Probable space group: P M M A
;
_chemical_formula_sum "Si O2"
_cell_formula_units_Z 64
_cell_length_a 24.115600
_cell_length_b 8.899239
_cell_length_c 15.746538
_cell_angle_alpha 90.000000
_cell_angle_beta 90.000000
_cell_angle_gamma 90.000000
_cell_volume 3379.372205
_symmetry_space_group_name_H-M "P M M A"
_symmetry_group_IT_number 51
_symmetry_cell_setting 'orthorhombic'
loop_
_space_group_symop_operation_xyz
x,y,z
1/2-x,-y,z
1/2+x,-y,-z
-x,y,-z
-x,-y,-z
1/2+x,y,-z
1/2-x,y,z
x,-y,z
loop_
_atom_site_type_symbol
_atom_site_label
_atom_site_fract_x
_atom_site_fract_y
_atom_site_fract_z
Si Si1 0.387244 0.679339 0.409283
Si Si2 0.314911 0.319748 0.243849
Si Si3 0.503546 0.679543 0.845186
Si Si4 0.116609 0.178860 0.090459
Si Si5 0.620595 0.179702 0.414554
Si Si6 0.119071 0.321455 0.912655
Si Si7 0.999089 0.179771 0.657549
Si Si8 0.184514 0.179547 0.756692
O O1 0.394274 0.500000 0.410340
O O2 0.347169 0.718383 0.330627
O O3 0.364652 0.736329 0.499110
O O4 0.446292 0.757464 0.392345
O O5 0.250000 0.283127 0.249751
O O6 0.320225 0.500000 0.231694
O O7 0.343941 0.238127 0.165304
O O8 0.511739 0.500000 0.841692
O O9 0.555696 0.753901 0.891174
O O10 0.445569 0.710301 0.891967
O O11 0.500213 0.744677 0.750147
O O12 0.114438 0.000000 0.091286
O O13 0.135558 0.238828 0.999019
O O14 0.556776 0.212608 0.389700
O O15 0.657781 0.222315 0.333642
O O16 0.625543 0.000000 0.427220
O O17 0.125186 0.500000 0.923019
O O18 0.154366 0.264339 0.832990
O O19 0.994536 0.000000 0.666864
O O20 0.250000 0.207547 0.757135
O O21 0.175192 0.000000 0.767122
#
# Coordination Sequence:
#
# PCOD9406742 Si02
#       8
#     8   8   8   8   8   8   8   8
#     4  11  23  38  61  91 123 160 203 251 304 363
#     4  10  23  44  65  86 119 162 206 256 308 357
#     4  11  22  38  62  92 125 160 198 245 303 366
#     4  12  25  40  64  94 124 160 202 249 303 365
#     4  10  22  39  60  89 125 162 202 248 303 364
#     4  11  24  41  64  92 125 162 201 249 304 363
#     4  11  21  36  61  90 123 162 199 245 305 365
#     4  10  22  42  65  89 121 162 208 257 306 358
#
# _framework density 18.938427999999998
#
# number of rings (size 3 to 8) (size 9 to 14) (size 15 to 20)
#    0.000    1.250    2.500    3.375    0.000    8.000 
#    0.000    0.000    0.000    0.000    0.000    0.000 
#    0.000    0.000    0.000    0.000    0.000    0.000 
#
# Total GULP energy -357975.642851 kJ/mol
# GULP energy per Si atom -5593.369420 kJ/mol
# Density = 1.889532 g / cm^3
# Si number density = 18.938428 Si / 1000 Ang^3
#
#
#
# Elastic Constant Matrix: (Units=GPa)
#
#
# Indices 1 2 3 4 5 6 
#
# 1 102.3753 56.2737 49.4890 0.0000 0.0000 0.0000
# 2 56.2737 58.8121 57.7026 0.0000 0.0000 0.0000
# 3 49.4890 57.7026 149.3483 0.0000 0.0000 0.0000
# 4 0.0000 0.0000 0.0000 31.0476 0.0000 0.0000
# 5 0.0000 0.0000 0.0000 0.0000 -2.3410 0.0000
# 6 0.0000 0.0000 0.0000 0.0000 0.0000 21.2558
#
#
#
# Elastic Compliance Matrix: (Units=1/GPa)
#
#
# Indices 1 2 3 4 5 6 
#
# 1 0.020757 -0.021118 0.001281 0.000000 0.000000 0.000000
# 2 -0.021118 0.048869 -0.011883 0.000000 0.000000 0.000000
# 3 0.001281 -0.011883 0.010863 0.000000 0.000000 0.000000
# 4 0.000000 0.000000 0.000000 0.032209 0.000000 0.000000
# 5 0.000000 0.000000 0.000000 0.000000 -0.427172 0.000000
# 6 0.000000 0.000000 0.000000 0.000000 0.000000 0.047046
#
#
# Mechanical properties :
#
#
# Convention : Reuss Voigt Hill
#
# Bulk Modulus (GPa) = 58.65815 70.82959 64.74387
# Shear Modulus (GPa) = -25.21341 19.79719 -2.70811
#
# Velocity S-wave (km/s) = -3.65271 3.23669 -1.19711
# Velocity P-wave (km/s) = 3.64014 7.17282 5.68770
#
# Compressibility (1/GPa) = 0.01704793
#
# Stress axis : x y z
#
# Youngs Moduli (GPa) = 48.17720 20.46301 92.05943
#
# Poissons Ratio (x) = 0.43213 -0.11793
# Poissons Ratio (y) = 1.01739 1.09397
# Poissons Ratio (z) = -0.06171 0.24317
#
# Static dielectric constant tensor:
#      x y z
#    x 1.636660 0.000000 0.000000 
#    y 0.000000 1.633610 0.000000 
#    z 0.000000 0.000000 1.641760 
# 
# From -- ./inp_files/26354.got.cif
#   From: 2010.05.17/outbox.cif.g08.bks.cpg/sg51_14_cif.got.tgz:26354.got - 2010.06.03 11:52:47.
