data_PCOD9406851
_publ_section_title
;
Structure prediction by ZEFSAII (Michael W. Deem and Ramdas Pophale) SiO2 
 PCOD9406851
Probable space group: P M M A
;
_chemical_formula_sum "Si O2"
_cell_formula_units_Z 56
_cell_length_a 20.288913
_cell_length_b 15.924991
_cell_length_c 9.653401
_cell_angle_alpha 90.000000
_cell_angle_beta 90.000000
_cell_angle_gamma 90.000000
_cell_volume 3119.021170
_symmetry_space_group_name_H-M "P M M A"
_symmetry_group_IT_number 51
_symmetry_cell_setting 'orthorhombic'
loop_
_space_group_symop_operation_xyz
x,y,z
1/2-x,-y,z
1/2+x,-y,-z
-x,y,-z
-x,-y,-z
1/2+x,y,-z
1/2-x,y,z
x,-y,z
loop_
_atom_site_type_symbol
_atom_site_label
_atom_site_fract_x
_atom_site_fract_y
_atom_site_fract_z
Si Si1 0.673411 0.719577 0.568733
Si Si2 0.500951 0.270982 0.166973
Si Si3 0.675086 0.903695 0.070029
Si Si4 0.170775 0.000000 0.356164
Si Si5 0.375370 0.833102 0.202094
Si Si6 0.933864 0.000000 0.410395
Si Si7 0.886895 0.175030 0.316667
Si Si8 0.446077 0.400618 0.379396
O O1 0.750000 0.701943 0.536364
O O2 0.668229 0.764011 0.718976
O O3 0.641823 0.784587 0.456796
O O4 0.623374 0.641264 0.576545
O O5 0.449707 0.198613 0.214796
O O6 0.570260 0.243737 0.233706
O O7 0.473341 0.354125 0.242365
O O8 0.500000 0.277203 0.000000
O O9 0.750000 0.907619 0.021081
O O10 0.670221 0.859435 0.217419
O O11 0.650306 0.000000 0.077649
O O12 0.636737 0.848697 0.959038
O O13 0.143936 0.080490 0.275017
O O14 0.250000 0.000000 0.364600
O O15 0.134333 0.000000 0.502566
O O16 0.930592 0.909353 0.337212
O O17 0.000000 0.000000 0.500000
O O18 0.500000 0.384455 0.500000
O O19 0.439660 0.500000 0.360196
#
# Coordination Sequence:
#
# PCOD9406851 Si02
#       8
#     8   8   8   4   8   4   8   8
#     4  11  23  39  64  91 120 155 198 250 301 360
#     4  11  23  40  62  88 121 156 198 247 300 365
#     4  11  22  36  52  77 116 162 210 255 295 342
#     4  12  22  35  55  79 115 162 213 258 301 353
#     4  11  22  36  56  84 117 157 206 251 298 344
#     4  12  26  37  55  82 123 164 207 262 304 343
#     4  12  23  39  55  86 118 161 206 248 300 345
#     4  10  22  42  69  96 121 149 188 241 305 372
#
# _framework density 17.954350000000002
#
# number of rings (size 3 to 8) (size 9 to 14) (size 15 to 20)
#    0.000    0.857    5.714    2.571    2.000    1.143 
#    0.000    1.429    0.000    0.000    0.000    0.000 
#    0.000    0.000    0.000    0.000    0.000    0.000 
#
# Total GULP energy -312387.100942 kJ/mol
# GULP energy per Si atom -5578.341088 kJ/mol
# Density = 1.791348 g / cm^3
# Si number density = 17.954350 Si / 1000 Ang^3
#
#
#
# Elastic Constant Matrix: (Units=GPa)
#
#
# Indices 1 2 3 4 5 6 
#
# 1 92.0226 49.3697 20.5884 0.0000 0.0000 0.0000
# 2 49.3697 105.9293 35.1235 0.0000 0.0000 0.0000
# 3 20.5884 35.1235 70.4391 0.0000 0.0000 0.0000
# 4 0.0000 0.0000 0.0000 22.3218 0.0000 0.0000
# 5 0.0000 0.0000 0.0000 0.0000 24.2244 0.0000
# 6 0.0000 0.0000 0.0000 0.0000 0.0000 14.2546
#
#
#
# Elastic Compliance Matrix: (Units=1/GPa)
#
#
# Indices 1 2 3 4 5 6 
#
# 1 0.014554 -0.006437 -0.001044 0.000000 0.000000 0.000000
# 2 -0.006437 0.014157 -0.005178 0.000000 0.000000 0.000000
# 3 -0.001044 -0.005178 0.017084 0.000000 0.000000 0.000000
# 4 0.000000 0.000000 0.000000 0.044799 0.000000 0.000000
# 5 0.000000 0.000000 0.000000 0.000000 0.041281 0.000000
# 6 0.000000 0.000000 0.000000 0.000000 0.000000 0.070153
#
#
# Mechanical properties :
#
#
# Convention : Reuss Voigt Hill
#
# Bulk Modulus (GPa) = 48.83565 53.17272 51.00419
# Shear Modulus (GPa) = 21.35196 23.04745 22.19971
#
# Velocity S-wave (km/s) = 3.45227 3.58672 3.52014
# Velocity P-wave (km/s) = 6.56885 6.84343 6.70755
#
# Compressibility (1/GPa) = 0.02047684
#
# Stress axis : x y z
#
# Youngs Moduli (GPa) = 68.71053 70.63630 58.53517
#
# Poissons Ratio (x) = 0.45467 0.06113
# Poissons Ratio (y) = 0.44227 0.30309
# Poissons Ratio (z) = 0.07175 0.36574
#
# Static dielectric constant tensor:
#      x y z
#    x 1.629600 0.000000 0.000000 
#    y 0.000000 1.618920 0.000000 
#    z 0.000000 0.000000 1.661750 
# 
# From -- ./inp_files/11046.got.cif
#   From: 2010.05.17/outbox.cif.g08.bks.cpg/sg51_6_cif.got.tgz:11046.got - 2010.06.03 11:52:47.
