data_PCOD9406908
_publ_section_title
;
Structure prediction by ZEFSAII (Michael W. Deem and Ramdas Pophale) SiO2 
 PCOD9406908
Probable space group: P M M A
;
_chemical_formula_sum "Si O2"
_cell_formula_units_Z 34
_cell_length_a 25.360166
_cell_length_b 11.126342
_cell_length_c 5.219002
_cell_angle_alpha 90.000000
_cell_angle_beta 90.000000
_cell_angle_gamma 90.000000
_cell_volume 1472.624293
_symmetry_space_group_name_H-M "P M M A"
_symmetry_group_IT_number 51
_symmetry_cell_setting 'orthorhombic'
loop_
_space_group_symop_operation_xyz
x,y,z
1/2-x,-y,z
1/2+x,-y,-z
-x,y,-z
-x,-y,-z
1/2+x,y,-z
1/2-x,y,z
x,-y,z
loop_
_atom_site_type_symbol
_atom_site_label
_atom_site_fract_x
_atom_site_fract_y
_atom_site_fract_z
Si Si1 0.562477 0.870443 0.062688
Si Si2 0.840617 0.790791 0.766345
Si Si3 0.687628 0.357685 0.278021
Si Si4 0.750000 0.000000 0.727660
Si Si5 0.463449 0.370942 0.746870
O O1 0.601638 0.846895 0.825176
O O2 0.567685 0.752383 0.234361
O O3 0.577368 0.000000 0.177632
O O4 0.500000 0.876393 0.000000
O O5 0.826581 0.713360 0.019340
O O6 0.796726 0.894467 0.731691
O O7 0.838935 0.701498 0.526589
O O8 0.750000 0.340778 0.319254
O O9 0.678709 0.500000 0.253575
O O10 0.500000 0.365953 0.500000
O O11 0.434980 0.500000 0.741784
O O12 0.500000 0.373542 0.000000
#
# Coordination Sequence:
#
# PCOD9406908 Si02
#       5
#     8   8   8   2   8
#     4  10  23  44  67 100 139 182 227 281 345 415
#     4  12  25  44  72 103 140 182 229 287 349 418
#     4  11  24  45  72 104 139 179 232 293 352 411
#     4  12  24  46  68 106 136 186 232 290 340 426
#     4   9  19  37  61  87 122 168 215 263 316 385
#
# _framework density 23.088035999999999
#
# number of rings (size 3 to 8) (size 9 to 14) (size 15 to 20)
#    0.000    1.412    3.529    0.706    0.000    9.882 
#    0.000    9.412    0.000    0.000    0.000    0.000 
#    0.000    0.000    0.000    0.000    0.000    0.000 
#
# Total GULP energy -189428.177033 kJ/mol
# GULP energy per Si atom -5571.416972 kJ/mol
# Density = 2.303549 g / cm^3
# Si number density = 23.088036 Si / 1000 Ang^3
#
#
#
# Elastic Constant Matrix: (Units=GPa)
#
#
# Indices 1 2 3 4 5 6 
#
# 1 126.1881 -10.0885 3.1797 0.0000 0.0000 0.0000
# 2 -10.0885 224.6106 27.3597 0.0000 0.0000 0.0000
# 3 3.1797 27.3597 93.4343 0.0000 0.0000 0.0000
# 4 0.0000 0.0000 0.0000 -49.0825 0.0000 0.0000
# 5 0.0000 0.0000 0.0000 0.0000 21.6808 0.0000
# 6 0.0000 0.0000 0.0000 0.0000 0.0000 -21.5048
#
#
#
# Elastic Compliance Matrix: (Units=1/GPa)
#
#
# Indices 1 2 3 4 5 6 
#
# 1 0.007967 0.000405 -0.000390 0.000000 0.000000 0.000000
# 2 0.000405 0.004637 -0.001372 0.000000 0.000000 0.000000
# 3 -0.000390 -0.001372 0.011118 0.000000 0.000000 0.000000
# 4 0.000000 0.000000 0.000000 -0.020374 0.000000 0.000000
# 5 0.000000 0.000000 0.000000 0.000000 0.046124 0.000000
# 6 0.000000 0.000000 0.000000 0.000000 0.000000 -0.046501
#
#
# Mechanical properties :
#
#
# Convention : Reuss Voigt Hill
#
# Bulk Modulus (GPa) = 47.59746 53.90388 50.75067
# Shear Modulus (GPa) = 394.13053 18.47085 206.30069
#
# Velocity S-wave (km/s) = 13.07969 2.83153 9.46298
# Velocity P-wave (km/s) = 15.77228 5.83848 11.89228
#
# Compressibility (1/GPa) = 0.02100952
#
# Stress axis : x y z
#
# Youngs Moduli (GPa) = 125.51930 215.63594 89.94706
#
# Poissons Ratio (x) = -0.08740 0.03506
# Poissons Ratio (y) = -0.05088 0.12338
# Poissons Ratio (z) = 0.04893 0.29580
#
# Static dielectric constant tensor:
#      x y z
#    x 1.910450 0.000000 0.000000 
#    y 0.000000 1.884440 0.000000 
#    z 0.000000 0.000000 1.804860 
# 
# From -- ./inp_files/2922.got.cif
#   From: 2010.05.17/outbox.cif.g08.bks.cpg/sg51_2_cif.got.tgz:2922.got - 2010.06.03 11:52:47.
