data_PCOD9406221
_publ_section_title
;
Structure prediction by ZEFSAII (Michael W. Deem and Ramdas Pophale) SiO2 
 PCOD9406221
Probable space group: P M M A
;
_chemical_formula_sum "Si O2"
_cell_formula_units_Z 64
_cell_length_a 18.844915
_cell_length_b 20.043960
_cell_length_c 9.733027
_cell_angle_alpha 90.000000
_cell_angle_beta 90.000000
_cell_angle_gamma 90.000000
_cell_volume 3676.424388
_symmetry_space_group_name_H-M "P M M A"
_symmetry_group_IT_number 51
_symmetry_cell_setting 'orthorhombic'
loop_
_space_group_symop_operation_xyz
x,y,z
1/2-x,-y,z
1/2+x,-y,-z
-x,y,-z
-x,-y,-z
1/2+x,y,-z
1/2-x,y,z
x,-y,z
loop_
_atom_site_type_symbol
_atom_site_label
_atom_site_fract_x
_atom_site_fract_y
_atom_site_fract_z
Si Si1 0.930035 0.822837 0.905208
Si Si2 0.832770 0.682154 0.569027
Si Si3 0.664958 0.076819 0.073571
Si Si4 0.833120 0.859771 0.359390
Si Si5 0.330825 0.705612 0.736297
Si Si6 0.928938 0.812550 0.588425
Si Si7 0.416324 0.324964 0.001728
Si Si8 0.334571 0.422794 0.197197
O O1 0.944242 0.835191 0.744075
O O2 0.904143 0.746460 0.924118
O O3 0.873494 0.873465 0.969531
O O4 0.000000 0.828575 0.000000
O O5 0.750000 0.702679 0.590913
O O6 0.839529 0.667496 0.407345
O O7 0.884261 0.743903 0.599584
O O8 0.847811 0.619073 0.663914
O O9 0.750000 0.086059 0.065287
O O10 0.644998 0.094382 0.231356
O O11 0.647942 0.000000 0.043766
O O12 0.750000 0.871435 0.390851
O O13 0.839294 0.783769 0.302101
O O14 0.880526 0.861851 0.495847
O O15 0.250000 0.696769 0.787193
O O16 0.386396 0.684226 0.849232
O O17 0.000000 0.801238 0.500000
O O18 0.375579 0.383392 0.079123
O O19 0.500000 0.337241 0.000000
O O20 0.250000 0.420060 0.171224
O O21 0.355334 0.500000 0.208006
#
# Coordination Sequence:
#
# PCOD9406221 Si02
#       8
#     8   8   8   8   8   8   8   8
#     4  11  23  37  55  86 117 153 191 236 288 339
#     4   9  19  34  54  80 106 141 182 230 284 332
#     4  10  21  38  61  86 117 156 191 231 285 343
#     4   9  18  34  54  80 110 142 183 231 283 334
#     4   9  17  32  55  80 107 138 181 232 279 326
#     4  11  21  33  57  83 112 145 185 242 281 333
#     4  11  22  34  55  84 113 149 188 235 281 332
#     4  10  21  38  57  80 113 150 187 230 287 345
#
# _framework density 17.408218999999999
#
# number of rings (size 3 to 8) (size 9 to 14) (size 15 to 20)
#    0.000    2.000    2.500    2.250    5.250    2.000 
#    0.000    1.250    0.000    7.875    0.000    0.000 
#    0.000    0.000    0.000    0.000    0.000    0.000 
#
# Total GULP energy -357050.701899 kJ/mol
# GULP energy per Si atom -5578.917217 kJ/mol
# Density = 1.736860 g / cm^3
# Si number density = 17.408219 Si / 1000 Ang^3
#
#
#
# Elastic Constant Matrix: (Units=GPa)
#
#
# Indices 1 2 3 4 5 6 
#
# 1 61.2333 27.3206 50.0775 0.0000 0.0000 0.0000
# 2 27.3206 67.3555 27.2471 0.0000 0.0000 0.0000
# 3 50.0775 27.2471 116.3454 0.0000 0.0000 0.0000
# 4 0.0000 0.0000 0.0000 19.9544 0.0000 0.0000
# 5 0.0000 0.0000 0.0000 0.0000 26.9052 0.0000
# 6 0.0000 0.0000 0.0000 0.0000 0.0000 -47.8115
#
#
#
# Elastic Compliance Matrix: (Units=1/GPa)
#
#
# Indices 1 2 3 4 5 6 
#
# 1 0.028018 -0.007165 -0.010382 0.000000 0.000000 0.000000
# 2 -0.007165 0.018233 -0.001186 0.000000 0.000000 0.000000
# 3 -0.010382 -0.001186 0.013341 0.000000 0.000000 0.000000
# 4 0.000000 0.000000 0.000000 0.050114 0.000000 0.000000
# 5 0.000000 0.000000 0.000000 0.000000 0.037167 0.000000
# 6 0.000000 0.000000 0.000000 0.000000 0.000000 -0.020915
#
#
# Mechanical properties :
#
#
# Convention : Reuss Voigt Hill
#
# Bulk Modulus (GPa) = 45.19393 50.46942 47.83168
# Shear Modulus (GPa) = 29.27418 9.16222 19.21820
#
# Velocity S-wave (km/s) = 4.10522 2.29665 3.32621
# Velocity P-wave (km/s) = 6.96333 6.00728 6.50290
#
# Compressibility (1/GPa) = 0.02212686
#
# Stress axis : x y z
#
# Youngs Moduli (GPa) = 35.69129 54.84676 74.95530
#
# Poissons Ratio (x) = 0.39298 0.77815
# Poissons Ratio (y) = 0.25573 0.08889
# Poissons Ratio (z) = 0.37053 0.06505
#
# Static dielectric constant tensor:
#      x y z
#    x 1.603230 0.000000 0.000000 
#    y 0.000000 1.568080 0.000000 
#    z 0.000000 0.000000 1.599510 
# 
# From -- ./inp_files/11258.got.cif
#   From: 2010.05.17/outbox.cif.g08.bks.cpg/sg51_6_cif.got.tgz:11258.got - 2010.06.03 11:52:47.
