data_PCOD9406307
_publ_section_title
;
Structure prediction by ZEFSAII (Michael W. Deem and Ramdas Pophale) SiO2 
 PCOD9406307
Probable space group: P M M A
;
_chemical_formula_sum "Si O2"
_cell_formula_units_Z 46
_cell_length_a 15.085668
_cell_length_b 25.518277
_cell_length_c 5.263112
_cell_angle_alpha 90.000000
_cell_angle_beta 90.000000
_cell_angle_gamma 90.000000
_cell_volume 2026.088936
_symmetry_space_group_name_H-M "P M M A"
_symmetry_group_IT_number 51
_symmetry_cell_setting 'orthorhombic'
loop_
_space_group_symop_operation_xyz
x,y,z
1/2-x,-y,z
1/2+x,-y,-z
-x,y,-z
-x,-y,-z
1/2+x,y,-z
1/2-x,y,z
x,-y,z
loop_
_atom_site_type_symbol
_atom_site_label
_atom_site_fract_x
_atom_site_fract_y
_atom_site_fract_z
Si Si1 0.155643 0.419263 0.157070
Si Si2 0.000000 0.591913 0.500000
Si Si3 0.910222 0.325373 0.130667
Si Si4 0.439168 0.058061 0.250988
Si Si5 0.145148 0.218016 0.637771
Si Si6 0.144147 0.166336 0.139325
Si Si7 0.750000 0.500000 0.142197
O O1 0.250000 0.428470 0.301678
O O2 0.173555 0.454398 0.909056
O O3 0.070010 0.435924 0.315150
O O4 0.144478 0.358750 0.076940
O O5 0.058933 0.630522 0.672094
O O6 0.865308 0.277407 0.270573
O O7 0.000000 0.305412 0.000000
O O8 0.500000 0.064300 0.500000
O O9 0.375152 0.107300 0.222823
O O10 0.396767 0.000000 0.266730
O O11 0.500000 0.058544 0.000000
O O12 0.250000 0.207223 0.617567
O O13 0.108108 0.204546 0.360507
O O14 0.107566 0.181228 0.862046
O O15 0.250000 0.173927 0.119905
#
# Coordination Sequence:
#
# PCOD9406307 Si02
#       7
#     8   4   8   8   8   8   2
#     4   9  20  40  62  89 125 161 206 255 322 382
#     4  10  22  39  60  94 124 154 213 268 304 404
#     4  10  22  38  57  86 119 162 204 257 315 388
#     4  10  21  38  59  86 119 161 209 257 314 374
#     4  10  22  38  59  87 122 162 205 259 314 380
#     4  10  22  39  58  89 122 159 209 259 315 373
#     4   8  20  42  64  94 120 170 210 256 320 398
#
# _framework density 22.703841000000001
#
# number of rings (size 3 to 8) (size 9 to 14) (size 15 to 20)
#    0.522    1.739    0.000    1.565    4.870    4.174 
#    0.000    5.652    0.000    6.261    0.000    0.000 
#    0.000    0.000    0.000    0.000    0.000    0.000 
#
# Total GULP energy -256169.457072 kJ/mol
# GULP energy per Si atom -5568.901241 kJ/mol
# Density = 2.265217 g / cm^3
# Si number density = 22.703841 Si / 1000 Ang^3
#
#
#
# Elastic Constant Matrix: (Units=GPa)
#
#
# Indices 1 2 3 4 5 6 
#
# 1 31.1082 8.0564 20.4715 0.0000 0.0000 0.0000
# 2 8.0564 71.8863 4.1247 0.0000 0.0000 0.0000
# 3 20.4715 4.1247 87.6486 0.0000 0.0000 0.0000
# 4 0.0000 0.0000 0.0000 61.3820 0.0000 0.0000
# 5 0.0000 0.0000 0.0000 0.0000 17.5090 0.0000
# 6 0.0000 0.0000 0.0000 0.0000 0.0000 46.3983
#
#
#
# Elastic Compliance Matrix: (Units=1/GPa)
#
#
# Indices 1 2 3 4 5 6 
#
# 1 0.039024 -0.003861 -0.008933 0.000000 0.000000 0.000000
# 2 -0.003861 0.014331 0.000227 0.000000 0.000000 0.000000
# 3 -0.008933 0.000227 0.013485 0.000000 0.000000 0.000000
# 4 0.000000 0.000000 0.000000 0.016291 0.000000 0.000000
# 5 0.000000 0.000000 0.000000 0.000000 0.057114 0.000000
# 6 0.000000 0.000000 0.000000 0.000000 0.000000 0.021553
#
#
# Mechanical properties :
#
#
# Convention : Reuss Voigt Hill
#
# Bulk Modulus (GPa) = 23.97697 28.43869 26.20783
# Shear Modulus (GPa) = 24.89638 35.59057 30.24347
#
# Velocity S-wave (km/s) = 3.31504 3.96359 3.65374
# Velocity P-wave (km/s) = 5.02358 5.78791 5.41924
#
# Compressibility (1/GPa) = 0.04170669
#
# Stress axis : x y z
#
# Youngs Moduli (GPa) = 25.62509 69.78123 74.15704
#
# Poissons Ratio (x) = 0.26942 0.66244
# Poissons Ratio (y) = 0.09894 -0.01686
# Poissons Ratio (z) = 0.22891 -0.01587
#
# Static dielectric constant tensor:
#      x y z
#    x 1.852400 0.000000 0.000000 
#    y 0.000000 1.812870 0.000000 
#    z 0.000000 0.000000 2.031240 
# 
# From -- ./inp_files/2063.got.cif
#   From: 2010.05.17/outbox.cif.g08.bks.cpg/sg51_2_cif.got.tgz:2063.got - 2010.06.03 11:52:47.
