data_PCOD9406257
_publ_section_title
;
Structure prediction by ZEFSAII (Michael W. Deem and Ramdas Pophale) SiO2 
 PCOD9406257
Probable space group: P M M A
;
_chemical_formula_sum "Si O2"
_cell_formula_units_Z 32
_cell_length_a 13.088428
_cell_length_b 7.982222
_cell_length_c 12.887423
_cell_angle_alpha 90.000000
_cell_angle_beta 90.000000
_cell_angle_gamma 90.000000
_cell_volume 1346.410140
_symmetry_space_group_name_H-M "P M M A"
_symmetry_group_IT_number 51
_symmetry_cell_setting 'orthorhombic'
loop_
_space_group_symop_operation_xyz
x,y,z
1/2-x,-y,z
1/2+x,-y,-z
-x,y,-z
-x,-y,-z
1/2+x,y,-z
1/2-x,y,z
x,-y,z
loop_
_atom_site_type_symbol
_atom_site_label
_atom_site_fract_x
_atom_site_fract_y
_atom_site_fract_z
Si Si1 0.637220 0.692536 0.090226
Si Si2 0.913081 0.810896 0.872380
Si Si3 0.079764 0.702282 0.349962
Si Si4 0.859149 0.703961 0.419993
O O1 0.750000 0.755135 0.119417
O O2 0.628220 0.500000 0.126670
O O3 0.536269 0.787989 0.126578
O O4 0.628993 0.697086 0.964782
O O5 0.876933 0.770115 0.757017
O O6 0.886940 0.000000 0.900655
O O7 0.082432 0.500000 0.344451
O O8 0.131498 0.750572 0.458494
O O9 0.961608 0.758272 0.362900
O O10 0.750000 0.760805 0.378286
O O11 0.860908 0.500000 0.417147
#
# Coordination Sequence:
#
# PCOD9406257 Si02
#       4
#     8   8   8   8
#     4  10  21  38  59  79 100 132 177 223 260 301
#     4  11  22  35  53  78 111 143 169 207 260 318
#     4   9  17  31  51  74 100 131 173 217 252 298
#     4   8  15  29  50  74  98 128 170 219 260 291
#
# _framework density 23.766902000000002
#
# number of rings (size 3 to 8) (size 9 to 14) (size 15 to 20)
#    0.000    2.500    0.000    6.000    0.000    4.000 
#    0.000    7.500    0.000    1.500    0.000    0.000 
#    0.000    0.000    0.000    0.000    0.000    0.000 
#
# Total GULP energy -178831.648982 kJ/mol
# GULP energy per Si atom -5588.489031 kJ/mol
# Density = 2.371281 g / cm^3
# Si number density = 23.766902 Si / 1000 Ang^3
#
#
#
# Elastic Constant Matrix: (Units=GPa)
#
#
# Indices 1 2 3 4 5 6 
#
# 1 119.2809 -0.7955 -6.8491 0.0000 0.0000 0.0000
# 2 -0.7955 42.9675 -5.3592 0.0000 0.0000 0.0000
# 3 -6.8491 -5.3592 111.3861 0.0000 0.0000 0.0000
# 4 0.0000 0.0000 0.0000 56.9334 0.0000 0.0000
# 5 0.0000 0.0000 0.0000 0.0000 -15.0193 0.0000
# 6 0.0000 0.0000 0.0000 0.0000 0.0000 -63.1472
#
#
#
# Elastic Compliance Matrix: (Units=1/GPa)
#
#
# Indices 1 2 3 4 5 6 
#
# 1 0.008415 0.000222 0.000528 0.000000 0.000000 0.000000
# 2 0.000222 0.023420 0.001140 0.000000 0.000000 0.000000
# 3 0.000528 0.001140 0.009065 0.000000 0.000000 0.000000
# 4 0.000000 0.000000 0.000000 0.017564 0.000000 0.000000
# 5 0.000000 0.000000 0.000000 0.000000 -0.066581 0.000000
# 6 0.000000 0.000000 0.000000 0.000000 0.000000 -0.015836
#
#
# Mechanical properties :
#
#
# Convention : Reuss Voigt Hill
#
# Bulk Modulus (GPa) = 22.38100 27.51408 24.94754
# Shear Modulus (GPa) = -389.43458 14.86259 -187.28599
#
# Velocity S-wave (km/s) = -12.81451 2.50341 -8.88663
# Velocity P-wave (km/s) = 14.47451 4.46742 9.73534
#
# Compressibility (1/GPa) = 0.04468075
#
# Stress axis : x y z
#
# Youngs Moduli (GPa) = 118.83010 42.69903 110.31281
#
# Poissons Ratio (x) = -0.00947 -0.05826
# Poissons Ratio (y) = -0.02634 -0.12581
# Poissons Ratio (z) = -0.06276 -0.04870
#
# Static dielectric constant tensor:
#      x y z
#    x 1.930040 0.000000 0.000000 
#    y 0.000000 1.841740 0.000000 
#    z 0.000000 0.000000 1.889270 
# 
# From -- ./inp_files/15898.got.cif
#   From: 2010.05.17/outbox.cif.g08.bks.cpg/sg51_8_cif.got.tgz:15898.got - 2010.06.03 11:52:47.
