data_PCOD9406143
_publ_section_title
;
Structure prediction by ZEFSAII (Michael W. Deem and Ramdas Pophale) SiO2 
 PCOD9406143
Probable space group: P M M A
;
_chemical_formula_sum "Si O2"
_cell_formula_units_Z 64
_cell_length_a 29.177213
_cell_length_b 8.613013
_cell_length_c 12.982163
_cell_angle_alpha 90.000000
_cell_angle_beta 90.000000
_cell_angle_gamma 90.000000
_cell_volume 3262.465789
_symmetry_space_group_name_H-M "P M M A"
_symmetry_group_IT_number 51
_symmetry_cell_setting 'orthorhombic'
loop_
_space_group_symop_operation_xyz
x,y,z
1/2-x,-y,z
1/2+x,-y,-z
-x,y,-z
-x,-y,-z
1/2+x,y,-z
1/2-x,y,z
x,-y,z
loop_
_atom_site_type_symbol
_atom_site_label
_atom_site_fract_x
_atom_site_fract_y
_atom_site_fract_z
Si Si1 0.805405 0.823403 0.816511
Si Si2 0.387254 0.314173 0.852395
Si Si3 0.394802 0.814794 0.463969
Si Si4 0.950291 0.688764 0.957835
Si Si5 0.547933 0.313881 0.724112
Si Si6 0.696719 0.812222 0.044102
Si Si7 0.552091 0.185895 0.331081
Si Si8 0.697573 0.316099 0.597132
O O1 0.750000 0.832610 0.823305
O O2 0.685059 0.723250 0.716010
O O3 0.677498 0.000000 0.801401
O O4 0.680732 0.762109 0.928792
O O5 0.390870 0.500000 0.841729
O O6 0.335383 0.261752 0.870357
O O7 0.412357 0.234098 0.757412
O O8 0.413707 0.264607 0.956707
O O9 0.417343 0.752873 0.359399
O O10 0.426245 0.763997 0.559906
O O11 0.342450 0.757689 0.470721
O O12 0.394826 0.000000 0.462106
O O13 0.950554 0.500000 0.954889
O O14 0.942480 0.741968 0.840972
O O15 0.000000 0.738136 0.000000
O O16 0.550781 0.500000 0.723083
O O17 0.496605 0.263434 0.693139
O O18 0.750000 0.770493 0.056939
O O19 0.693580 0.000000 0.045586
O O20 0.545937 0.000000 0.332768
O O21 0.750000 0.259054 0.579537
O O22 0.697407 0.500000 0.583408
#
# Coordination Sequence:
#
# PCOD9406143 Si02
#       8
#     8   8   8   8   8   8   8   8
#     4   8  15  30  52  77 110 152 191 231 285 347
#     4  11  22  37  61  88 119 158 201 248 297 353
#     4  11  25  42  61  87 119 157 202 249 298 358
#     4   9  18  36  58  86 122 154 186 231 291 353
#     4  11  22  39  65  92 122 157 196 245 301 356
#     4   9  19  36  56  82 119 160 201 245 294 352
#     4  11  24  43  62  84 118 159 203 250 302 357
#     4  10  21  37  58  86 118 151 193 247 301 353
#
# _framework density 19.617063000000002
#
# number of rings (size 3 to 8) (size 9 to 14) (size 15 to 20)
#    0.000    2.000    1.250    3.000    1.750    5.000 
#    0.000    4.375    0.000    0.750    0.000    0.000 
#    0.000    0.000    0.000    0.000    0.000    0.000 
#
# Total GULP energy -357417.590770 kJ/mol
# GULP energy per Si atom -5584.649856 kJ/mol
# Density = 1.957241 g / cm^3
# Si number density = 19.617063 Si / 1000 Ang^3
#
#
#
# Elastic Constant Matrix: (Units=GPa)
#
#
# Indices 1 2 3 4 5 6 
#
# 1 56.4190 0.2181 25.2828 0.0000 0.0000 0.0000
# 2 0.2181 20.6569 9.9957 0.0000 0.0000 0.0000
# 3 25.2828 9.9957 93.9251 0.0000 0.0000 0.0000
# 4 0.0000 0.0000 0.0000 31.6938 0.0000 0.0000
# 5 0.0000 0.0000 0.0000 0.0000 13.9405 0.0000
# 6 0.0000 0.0000 0.0000 0.0000 0.0000 25.4912
#
#
#
# Elastic Compliance Matrix: (Units=1/GPa)
#
#
# Indices 1 2 3 4 5 6 
#
# 1 0.020283 0.002560 -0.005732 0.000000 0.000000 0.000000
# 2 0.002560 0.051361 -0.006155 0.000000 0.000000 0.000000
# 3 -0.005732 -0.006155 0.012845 0.000000 0.000000 0.000000
# 4 0.000000 0.000000 0.000000 0.031552 0.000000 0.000000
# 5 0.000000 0.000000 0.000000 0.000000 0.071733 0.000000
# 6 0.000000 0.000000 0.000000 0.000000 0.000000 0.039229
#
#
# Mechanical properties :
#
#
# Convention : Reuss Voigt Hill
#
# Bulk Modulus (GPa) = 15.18964 26.88823 21.03894
# Shear Modulus (GPa) = 18.68431 23.25872 20.97152
#
# Velocity S-wave (km/s) = 3.08953 3.44704 3.27317
# Velocity P-wave (km/s) = 4.52624 5.43867 5.00330
#
# Compressibility (1/GPa) = 0.06583434
#
# Stress axis : x y z
#
# Youngs Moduli (GPa) = 49.30134 19.46991 77.85240
#
# Poissons Ratio (x) = -0.04984 0.44627
# Poissons Ratio (y) = -0.12619 0.47918
# Poissons Ratio (z) = 0.28261 0.11984
#
# Static dielectric constant tensor:
#      x y z
#    x 1.697770 0.000000 0.000000 
#    y 0.000000 1.669030 0.000000 
#    z 0.000000 0.000000 1.683490 
# 
# From -- ./inp_files/19452.got.cif
#   From: 2010.05.17/outbox.cif.g08.bks.cpg/sg51_10_cif.got.tgz:19452.got - 2010.06.03 11:52:47.
