data_PCOD9406440
_publ_section_title
;
Structure prediction by ZEFSAII (Michael W. Deem and Ramdas Pophale) SiO2 
 PCOD9406440
Probable space group: P M M A
;
_chemical_formula_sum "Si O2"
_cell_formula_units_Z 48
_cell_length_a 8.746736
_cell_length_b 15.445524
_cell_length_c 19.434678
_cell_angle_alpha 90.000000
_cell_angle_beta 90.000000
_cell_angle_gamma 90.000000
_cell_volume 2625.584589
_symmetry_space_group_name_H-M "P M M A"
_symmetry_group_IT_number 51
_symmetry_cell_setting 'orthorhombic'
loop_
_space_group_symop_operation_xyz
x,y,z
1/2-x,-y,z
1/2+x,-y,-z
-x,y,-z
-x,-y,-z
1/2+x,y,-z
1/2-x,y,z
x,-y,z
loop_
_atom_site_type_symbol
_atom_site_label
_atom_site_fract_x
_atom_site_fract_y
_atom_site_fract_z
Si Si1 0.566006 0.000000 0.923802
Si Si2 0.566810 0.899318 0.325369
Si Si3 0.434203 0.500000 0.923834
Si Si4 0.933411 0.246516 0.576279
Si Si5 0.933683 0.845265 0.822691
Si Si6 0.066112 0.599489 0.321199
Si Si7 0.066583 0.342772 0.825282
O O1 0.520107 0.084337 0.879787
O O2 0.750000 0.000000 0.927930
O O3 0.500000 0.000000 0.000000
O O4 0.750000 0.889869 0.324560
O O5 0.496651 0.835703 0.381951
O O6 0.501491 0.872752 0.250972
O O7 0.529657 0.000000 0.338527
O O8 0.250000 0.500000 0.927232
O O9 0.480713 0.584698 0.880480
O O10 0.500000 0.500000 0.000000
O O11 0.750000 0.241932 0.573588
O O12 0.976495 0.332375 0.619694
O O13 0.000000 0.249370 0.500000
O O14 0.750000 0.844713 0.817417
O O15 0.993509 0.750084 0.840191
O O16 0.250000 0.604958 0.311827
O O17 0.027542 0.500000 0.337968
O O18 0.987753 0.626700 0.249973
O O19 0.250000 0.335811 0.825580
#
# Coordination Sequence:
#
# PCOD9406440 Si02
#       7
#     4   8   4   8   8   8   8
#     4  10  24  42  62  88 125 162 201 250 306 362
#     4  11  23  39  63  93 122 158 203 252 304 361
#     4  10  24  42  60  88 125 162 203 252 309 361
#     4  11  24  41  62  90 126 164 203 252 306 360
#     4  11  22  39  62  91 122 160 204 249 302 363
#     4  10  21  38  62  91 121 159 205 248 299 363
#     4  11  22  38  61  91 122 157 205 254 300 359
#
# _framework density 18.281642000000002
#
# number of rings (size 3 to 8) (size 9 to 14) (size 15 to 20)
#    0.000    1.333    3.333    2.000    0.000    5.667 
#    0.000    3.333    0.000    0.000    0.000    0.000 
#    0.000    0.000    0.000    0.000    0.000    0.000 
#
# Total GULP energy -268329.053897 kJ/mol
# GULP energy per Si atom -5590.188623 kJ/mol
# Density = 1.824003 g / cm^3
# Si number density = 18.281642 Si / 1000 Ang^3
#
#
#
# Elastic Constant Matrix: (Units=GPa)
#
#
# Indices 1 2 3 4 5 6 
#
# 1 47.4828 65.7659 55.2486 0.0000 0.0000 0.0000
# 2 65.7659 213.0942 117.6549 0.0000 0.0000 0.0000
# 3 55.2486 117.6549 193.4594 0.0000 0.0000 0.0000
# 4 0.0000 0.0000 0.0000 32.7588 0.0000 0.0000
# 5 0.0000 0.0000 0.0000 0.0000 38.0409 0.0000
# 6 0.0000 0.0000 0.0000 0.0000 0.0000 28.2903
#
#
#
# Elastic Compliance Matrix: (Units=1/GPa)
#
#
# Indices 1 2 3 4 5 6 
#
# 1 0.040992 -0.009316 -0.006041 0.000000 0.000000 0.000000
# 2 -0.009316 0.009182 -0.002924 0.000000 0.000000 0.000000
# 3 -0.006041 -0.002924 0.008672 0.000000 0.000000 0.000000
# 4 0.000000 0.000000 0.000000 0.030526 0.000000 0.000000
# 5 0.000000 0.000000 0.000000 0.000000 0.026287 0.000000
# 6 0.000000 0.000000 0.000000 0.000000 0.000000 0.035348
#
#
# Mechanical properties :
#
#
# Convention : Reuss Voigt Hill
#
# Bulk Modulus (GPa) = 44.87255 103.48614 74.17935
# Shear Modulus (GPa) = 25.64130 34.17581 29.90855
#
# Velocity S-wave (km/s) = 3.74915 4.32835 4.04912
# Velocity P-wave (km/s) = 6.58331 9.03930 7.90724
#
# Compressibility (1/GPa) = 0.02228534
#
# Stress axis : x y z
#
# Youngs Moduli (GPa) = 24.39494 108.90742 115.30725
#
# Poissons Ratio (x) = 1.01454 0.69660
# Poissons Ratio (y) = 0.22725 0.33714
# Poissons Ratio (z) = 0.14738 0.31843
#
# Static dielectric constant tensor:
#      x y z
#    x 1.615770 0.000000 0.000000 
#    y 0.000000 1.626130 0.000000 
#    z 0.000000 0.000000 1.580120 
# 
# From -- ./inp_files/27607.got.cif
#   From: 2010.05.17/outbox.cif.g08.bks.cpg/sg51_14_cif.got.tgz:27607.got - 2010.06.03 11:52:47.
