data_PCOD9406571
_publ_section_title
;
Structure prediction by ZEFSAII (Michael W. Deem and Ramdas Pophale) SiO2 
 PCOD9406571
Probable space group: P M M A
;
_chemical_formula_sum "Si O2"
_cell_formula_units_Z 40
_cell_length_a 15.844036
_cell_length_b 8.492262
_cell_length_c 15.812827
_cell_angle_alpha 90.000000
_cell_angle_beta 90.000000
_cell_angle_gamma 90.000000
_cell_volume 2127.642831
_symmetry_space_group_name_H-M "P M M A"
_symmetry_group_IT_number 51
_symmetry_cell_setting 'orthorhombic'
loop_
_space_group_symop_operation_xyz
x,y,z
1/2-x,-y,z
1/2+x,-y,-z
-x,y,-z
-x,-y,-z
1/2+x,y,-z
1/2-x,y,z
x,-y,z
loop_
_atom_site_type_symbol
_atom_site_label
_atom_site_fract_x
_atom_site_fract_y
_atom_site_fract_z
Si Si1 0.927124 0.689450 0.773585
Si Si2 0.008446 0.681829 0.407545
Si Si3 0.750000 0.687131 0.033181
Si Si4 0.841995 0.675501 0.305783
Si Si5 0.250000 0.186796 0.156012
Si Si6 0.095756 0.180572 0.856692
O O1 0.932806 0.500000 0.772053
O O2 0.943541 0.745727 0.676110
O O3 0.835672 0.742954 0.804335
O O4 0.002766 0.748333 0.835832
O O5 0.039125 0.500000 0.419336
O O6 0.000000 0.758247 0.500000
O O7 0.913040 0.677833 0.374884
O O8 0.750000 0.500000 0.022801
O O9 0.663445 0.736162 0.081725
O O10 0.750000 0.770539 0.942786
O O11 0.750000 0.693293 0.342774
O O12 0.846847 0.500000 0.264165
O O13 0.859563 0.802429 0.234508
O O14 0.250000 0.000000 0.167710
O O15 0.086221 0.000000 0.882941
#
# Coordination Sequence:
#
# PCOD9406571 Si02
#       6
#     8   8   4   8   4   8
#     4  10  21  40  63  87 118 158 200 241 294 351
#     4   8  15  30  53  84 115 144 190 245 286 331
#     4  12  24  40  62  89 120 153 196 245 292 349
#     4   9  16  28  49  77 111 150 189 232 287 344
#     4  12  26  44  62  85 118 157 200 243 290 347
#     4  11  21  35  58  89 119 152 191 239 295 346
#
# _framework density 18.800149000000001
#
# number of rings (size 3 to 8) (size 9 to 14) (size 15 to 20)
#    0.000    2.000    1.000    5.400    0.000    0.800 
#    1.800    4.000    0.000   15.000    0.000    0.000 
#    0.000    0.000    0.000    0.000    0.000    0.000 
#
# Total GULP energy -222736.854619 kJ/mol
# GULP energy per Si atom -5568.421365 kJ/mol
# Density = 1.875736 g / cm^3
# Si number density = 18.800149 Si / 1000 Ang^3
#
#
#
# Elastic Constant Matrix: (Units=GPa)
#
#
# Indices 1 2 3 4 5 6 
#
# 1 136.9593 15.3116 51.3358 0.0000 0.0000 0.0000
# 2 15.3116 50.6930 -8.5162 0.0000 0.0000 0.0000
# 3 51.3358 -8.5162 84.3657 0.0000 0.0000 0.0000
# 4 0.0000 0.0000 0.0000 -17.4578 0.0000 0.0000
# 5 0.0000 0.0000 0.0000 0.0000 -23.7612 0.0000
# 6 0.0000 0.0000 0.0000 0.0000 0.0000 22.3921
#
#
#
# Elastic Compliance Matrix: (Units=1/GPa)
#
#
# Indices 1 2 3 4 5 6 
#
# 1 0.010278 -0.004227 -0.006681 0.000000 0.000000 0.000000
# 2 -0.004227 0.021805 0.004773 0.000000 0.000000 0.000000
# 3 -0.006681 0.004773 0.016400 0.000000 0.000000 0.000000
# 4 0.000000 0.000000 0.000000 -0.057281 0.000000 0.000000
# 5 0.000000 0.000000 0.000000 0.000000 -0.042085 0.000000
# 6 0.000000 0.000000 0.000000 0.000000 0.000000 0.044659
#
#
# Mechanical properties :
#
#
# Convention : Reuss Voigt Hill
#
# Bulk Modulus (GPa) = 27.61338 43.14229 35.37783
# Shear Modulus (GPa) = 275.99824 10.49376 143.24600
#
# Velocity S-wave (km/s) = 12.12951 2.36513 8.73839
# Velocity P-wave (km/s) = 14.52193 5.51871 10.98505
#
# Compressibility (1/GPa) = 0.03621433
#
# Stress axis : x y z
#
# Youngs Moduli (GPa) = 97.29398 45.86076 60.97484
#
# Poissons Ratio (x) = 0.19385 0.40736
# Poissons Ratio (y) = 0.41124 -0.29104
# Poissons Ratio (z) = 0.65000 -0.21890
#
# Static dielectric constant tensor:
#      x y z
#    x 1.661670 0.000000 0.000000 
#    y 0.000000 1.682150 0.000000 
#    z 0.000000 0.000000 1.659470 
# 
# From -- ./inp_files/23769.got.cif
#   From: 2010.05.17/outbox.cif.g08.bks.cpg/sg51_12_cif.got.tgz:23769.got - 2010.06.03 11:52:47.
