data_PCOD9406264
_publ_section_title
;
Structure prediction by ZEFSAII (Michael W. Deem and Ramdas Pophale) SiO2 
 PCOD9406264
Probable space group: P M M A
;
_chemical_formula_sum "Si O2"
_cell_formula_units_Z 64
_cell_length_a 9.045840
_cell_length_b 14.168827
_cell_length_c 24.693868
_cell_angle_alpha 90.000000
_cell_angle_beta 90.000000
_cell_angle_gamma 90.000000
_cell_volume 3164.986936
_symmetry_space_group_name_H-M "P M M A"
_symmetry_group_IT_number 51
_symmetry_cell_setting 'orthorhombic'
loop_
_space_group_symop_operation_xyz
x,y,z
1/2-x,-y,z
1/2+x,-y,-z
-x,y,-z
-x,-y,-z
1/2+x,y,-z
1/2-x,y,z
x,-y,z
loop_
_atom_site_type_symbol
_atom_site_label
_atom_site_fract_x
_atom_site_fract_y
_atom_site_fract_z
Si Si1 0.573537 0.225357 0.055229
Si Si2 0.578458 0.613864 0.668365
Si Si3 0.072383 0.106961 0.390661
Si Si4 0.077418 0.612349 0.111478
Si Si5 0.427759 0.705383 0.444930
Si Si6 0.579835 0.115130 0.278921
Si Si7 0.417532 0.385052 0.776933
Si Si8 0.070042 0.108723 0.839147
O O1 0.750000 0.221975 0.050952
O O2 0.517531 0.330413 0.068276
O O3 0.525537 0.165899 0.107983
O O4 0.500000 0.190886 0.000000
O O5 0.750000 0.642545 0.676145
O O6 0.574487 0.500000 0.667799
O O7 0.529022 0.650588 0.609817
O O8 0.482496 0.646956 0.719460
O O9 0.250000 0.105541 0.389103
O O10 0.027613 0.185842 0.433712
O O11 0.014822 0.137892 0.331599
O O12 0.019686 0.000000 0.401582
O O13 0.250000 0.636274 0.106530
O O14 0.060921 0.500000 0.105084
O O15 0.017403 0.637541 0.171345
O O16 0.500000 0.670080 0.500000
O O17 0.250000 0.699703 0.449451
O O18 0.750000 0.144986 0.286772
O O19 0.523431 0.146967 0.219910
O O20 0.580919 0.000000 0.275457
O O21 0.250000 0.351217 0.785672
O O22 0.413586 0.500000 0.774618
O O23 0.250000 0.109175 0.837217
O O24 0.022471 0.000000 0.844342
#
# Coordination Sequence:
#
# PCOD9406264 Si02
#       8
#     8   8   8   8   8   8   8   8
#     4  11  23  38  56  79 108 143 185 229 268 313
#     4   9  18  34  54  75 103 137 168 204 255 310
#     4   9  18  33  51  72 101 132 160 200 255 306
#     4  10  21  38  59  81 108 143 179 219 270 323
#     4  10  22  37  51  71  98 131 174 217 255 301
#     4   8  14  28  52  79 103 129 165 205 247 302
#     4   9  17  31  54  84 112 136 168 211 259 314
#     4   8  16  33  56  81 110 142 174 213 263 316
#
# _framework density 20.221252
#
# number of rings (size 3 to 8) (size 9 to 14) (size 15 to 20)
#    0.000    2.750    0.000    1.875    0.000    5.250 
#    0.000    3.750    0.000    2.625    0.000    0.000 
#    0.000    0.000    0.000    0.000    0.000    0.000 
#
# Total GULP energy -357287.618884 kJ/mol
# GULP energy per Si atom -5582.619045 kJ/mol
# Density = 2.017523 g / cm^3
# Si number density = 20.221252 Si / 1000 Ang^3
#
#
#
# Elastic Constant Matrix: (Units=GPa)
#
#
# Indices 1 2 3 4 5 6 
#
# 1 29.6595 8.2398 15.8789 0.0000 0.0000 0.0000
# 2 8.2398 32.8294 6.8567 0.0000 0.0000 0.0000
# 3 15.8789 6.8567 92.5795 0.0000 0.0000 0.0000
# 4 0.0000 0.0000 0.0000 26.9009 0.0000 0.0000
# 5 0.0000 0.0000 0.0000 0.0000 37.2637 0.0000
# 6 0.0000 0.0000 0.0000 0.0000 0.0000 12.7474
#
#
#
# Elastic Compliance Matrix: (Units=1/GPa)
#
#
# Indices 1 2 3 4 5 6 
#
# 1 0.039382 -0.008607 -0.006117 0.000000 0.000000 0.000000
# 2 -0.008607 0.032820 -0.000955 0.000000 0.000000 0.000000
# 3 -0.006117 -0.000955 0.011921 0.000000 0.000000 0.000000
# 4 0.000000 0.000000 0.000000 0.037174 0.000000 0.000000
# 5 0.000000 0.000000 0.000000 0.000000 0.026836 0.000000
# 6 0.000000 0.000000 0.000000 0.000000 0.000000 0.078447
#
#
# Mechanical properties :
#
#
# Convention : Reuss Voigt Hill
#
# Bulk Modulus (GPa) = 18.95142 24.11323 21.53232
# Shear Modulus (GPa) = 18.14711 23.65527 20.90119
#
# Velocity S-wave (km/s) = 2.99896 3.42398 3.21849
# Velocity P-wave (km/s) = 4.62429 5.25186 4.94804
#
# Compressibility (1/GPa) = 0.05276649
#
# Stress axis : x y z
#
# Youngs Moduli (GPa) = 25.39231 30.46913 83.88254
#
# Poissons Ratio (x) = 0.26224 0.51313
# Poissons Ratio (y) = 0.21855 0.08007
# Poissons Ratio (z) = 0.15533 0.02908
#
# Static dielectric constant tensor:
#      x y z
#    x 1.683150 0.000000 0.000000 
#    y 0.000000 1.780300 0.000000 
#    z 0.000000 0.000000 1.693360 
# 
# From -- ./inp_files/34976.got.cif
#   From: 2010.05.17/outbox.cif.g08.bks.cpg/sg51_18_cif.got.tgz:34976.got - 2010.06.03 11:52:47.
