data_PCOD9406189
_publ_section_title
;
Structure prediction by ZEFSAII (Michael W. Deem and Ramdas Pophale) SiO2 
 PCOD9406189
Probable space group: P M M A
;
_chemical_formula_sum "Si O2"
_cell_formula_units_Z 48
_cell_length_a 10.057265
_cell_length_b 8.906916
_cell_length_c 29.503168
_cell_angle_alpha 90.000000
_cell_angle_beta 90.000000
_cell_angle_gamma 90.000000
_cell_volume 2642.870616
_symmetry_space_group_name_H-M "P M M A"
_symmetry_group_IT_number 51
_symmetry_cell_setting 'orthorhombic'
loop_
_space_group_symop_operation_xyz
x,y,z
1/2-x,-y,z
1/2+x,-y,-z
-x,y,-z
-x,-y,-z
1/2+x,y,-z
1/2-x,y,z
x,-y,z
loop_
_atom_site_type_symbol
_atom_site_label
_atom_site_fract_x
_atom_site_fract_y
_atom_site_fract_z
Si Si1 0.407469 0.321003 0.769115
Si Si2 0.250000 0.822223 0.462888
Si Si3 0.911343 0.827830 0.136292
Si Si4 0.750000 0.178018 0.428730
Si Si5 0.597686 0.822202 0.694629
Si Si6 0.094417 0.319220 0.958457
Si Si7 0.526879 0.679512 0.598740
O O1 0.250000 0.286564 0.763295
O O2 0.423004 0.500000 0.766124
O O3 0.449554 0.263509 0.818890
O O4 0.494460 0.240639 0.731073
O O5 0.250000 0.803760 0.516831
O O6 0.377776 0.746655 0.439966
O O7 0.250000 0.000000 0.452615
O O8 0.750000 0.827317 0.135792
O O9 0.951139 0.753387 0.088842
O O10 0.956130 0.000000 0.139435
O O11 0.619644 0.255745 0.408934
O O12 0.750000 0.000000 0.418836
O O13 0.750000 0.799869 0.710064
O O14 0.578466 0.737645 0.647111
O O15 0.577029 0.000000 0.687592
O O16 0.250000 0.279273 0.966455
O O17 0.088617 0.500000 0.954081
O O18 0.000000 0.274222 0.000000
O O19 0.528213 0.500000 0.597124
#
# Coordination Sequence:
#
# PCOD9406189 Si02
#       7
#     8   4   8   4   8   8   8
#     4  10  21  37  60  88 116 146 188 240 291 342
#     4  11  23  43  67  91 121 161 201 235 288 353
#     4   9  17  31  52  78 108 143 185 230 280 336
#     4  11  25  43  65  91 123 159 197 243 290 343
#     4  11  24  42  63  85 116 156 195 233 287 353
#     4   9  17  30  49  73 103 140 182 227 277 332
#     4  12  25  41  64  92 123 156 196 244 292 344
#
# _framework density 18.162068999999999
#
# number of rings (size 3 to 8) (size 9 to 14) (size 15 to 20)
#    0.000    1.667    0.833    4.000    1.167    7.667 
#    0.000    0.833    0.000    3.000    0.000    0.000 
#    0.000    0.000    0.000    0.000    0.000    0.000 
#
# Total GULP energy -268172.400594 kJ/mol
# GULP energy per Si atom -5586.925012 kJ/mol
# Density = 1.812073 g / cm^3
# Si number density = 18.162069 Si / 1000 Ang^3
#
#
#
# Elastic Constant Matrix: (Units=GPa)
#
#
# Indices 1 2 3 4 5 6 
#
# 1 83.7170 50.6872 30.6401 0.0000 0.0000 0.0000
# 2 50.6872 112.1138 55.7851 0.0000 0.0000 0.0000
# 3 30.6401 55.7851 84.1340 0.0000 0.0000 0.0000
# 4 0.0000 0.0000 0.0000 36.9205 0.0000 0.0000
# 5 0.0000 0.0000 0.0000 0.0000 30.3323 0.0000
# 6 0.0000 0.0000 0.0000 0.0000 0.0000 35.7289
#
#
#
# Elastic Compliance Matrix: (Units=1/GPa)
#
#
# Indices 1 2 3 4 5 6 
#
# 1 0.016589 -0.006707 -0.001595 0.000000 0.000000 0.000000
# 2 -0.006707 0.016022 -0.008181 0.000000 0.000000 0.000000
# 3 -0.001595 -0.008181 0.017891 0.000000 0.000000 0.000000
# 4 0.000000 0.000000 0.000000 0.027085 0.000000 0.000000
# 5 0.000000 0.000000 0.000000 0.000000 0.032968 0.000000
# 6 0.000000 0.000000 0.000000 0.000000 0.000000 0.027989
#
#
# Mechanical properties :
#
#
# Convention : Reuss Voigt Hill
#
# Bulk Modulus (GPa) = 57.01997 61.57662 59.29830
# Shear Modulus (GPa) = 28.19197 30.11985 29.15591
#
# Velocity S-wave (km/s) = 3.94413 4.07676 4.01099
# Velocity P-wave (km/s) = 7.22529 7.49250 7.36010
#
# Compressibility (1/GPa) = 0.01753772
#
# Stress axis : x y z
#
# Youngs Moduli (GPa) = 60.28013 62.41275 55.89360
#
# Poissons Ratio (x) = 0.41858 0.08913
# Poissons Ratio (y) = 0.40427 0.45728
# Poissons Ratio (z) = 0.09613 0.51061
#
# Static dielectric constant tensor:
#      x y z
#    x 1.627900 0.000000 0.000000 
#    y 0.000000 1.607270 0.000000 
#    z 0.000000 0.000000 1.596030 
# 
# From -- ./inp_files/37158.got.cif
#   From: 2010.05.17/outbox.cif.g08.bks.cpg/sg51_19_cif.got.tgz:37158.got - 2010.06.03 11:52:47.
