data_PCOD9406153
_publ_section_title
;
Structure prediction by ZEFSAII (Michael W. Deem and Ramdas Pophale) SiO2 
 PCOD9406153
Probable space group: P M M A
;
_chemical_formula_sum "Si O2"
_cell_formula_units_Z 40
_cell_length_a 15.802191
_cell_length_b 8.836734
_cell_length_c 15.088265
_cell_angle_alpha 90.000000
_cell_angle_beta 90.000000
_cell_angle_gamma 90.000000
_cell_volume 2106.921681
_symmetry_space_group_name_H-M "P M M A"
_symmetry_group_IT_number 51
_symmetry_cell_setting 'orthorhombic'
loop_
_space_group_symop_operation_xyz
x,y,z
1/2-x,-y,z
1/2+x,-y,-z
-x,y,-z
-x,-y,-z
1/2+x,y,-z
1/2-x,y,z
x,-y,z
loop_
_atom_site_type_symbol
_atom_site_label
_atom_site_fract_x
_atom_site_fract_y
_atom_site_fract_z
Si Si1 0.250000 0.180779 0.721114
Si Si2 0.910291 0.680779 0.602583
Si Si3 0.250000 0.681511 0.918362
Si Si4 0.109477 0.682968 0.594132
Si Si5 0.849274 0.826183 0.780322
Si Si6 0.904748 0.817112 0.969308
O O1 0.250000 0.254091 0.818517
O O2 0.330888 0.237240 0.664763
O O3 0.250000 0.000000 0.728878
O O4 0.904895 0.500000 0.601404
O O5 0.872978 0.731279 0.507758
O O6 0.865745 0.742158 0.689183
O O7 0.010223 0.717847 0.607789
O O8 0.250000 0.500000 0.916849
O O9 0.166953 0.741805 0.970074
O O10 0.120351 0.500000 0.600572
O O11 0.750000 0.824121 0.801120
O O12 0.876391 0.000000 0.767818
O O13 0.894926 0.764637 0.867577
O O14 0.891105 0.000000 0.971027
O O15 0.000000 0.786532 0.000000
#
# Coordination Sequence:
#
# PCOD9406153 Si02
#       6
#     4   8   4   8   8   8
#     4  12  26  40  61  88 119 160 203 246 300 358
#     4   9  20  38  62  87 119 157 197 244 298 355
#     4  12  26  44  65  92 125 160 205 260 308 368
#     4   9  20  41  61  85 119 157 198 248 299 346
#     4  10  21  37  58  88 125 157 193 245 299 354
#     4  10  22  43  68  91 122 163 206 254 310 367
#
# _framework density 18.985043000000001
#
# number of rings (size 3 to 8) (size 9 to 14) (size 15 to 20)
#    0.000    2.000    1.000    3.000    4.200    3.200 
#    0.000    2.000    0.000    0.000    0.000    0.000 
#    0.000    0.000    0.000    0.000    0.000    0.000 
#
# Total GULP energy -223348.535088 kJ/mol
# GULP energy per Si atom -5583.713377 kJ/mol
# Density = 1.894183 g / cm^3
# Si number density = 18.985043 Si / 1000 Ang^3
#
#
#
# Elastic Constant Matrix: (Units=GPa)
#
#
# Indices 1 2 3 4 5 6 
#
# 1 63.5648 31.6925 40.7623 0.0000 0.0000 0.0000
# 2 31.6925 44.2249 23.8082 0.0000 0.0000 0.0000
# 3 40.7623 23.8082 121.0980 0.0000 0.0000 0.0000
# 4 0.0000 0.0000 0.0000 32.1847 0.0000 0.0000
# 5 0.0000 0.0000 0.0000 0.0000 35.2876 0.0000
# 6 0.0000 0.0000 0.0000 0.0000 0.0000 62.5848
#
#
#
# Elastic Compliance Matrix: (Units=1/GPa)
#
#
# Indices 1 2 3 4 5 6 
#
# 1 0.028038 -0.016789 -0.006137 0.000000 0.000000 0.000000
# 2 -0.016789 0.035341 -0.001297 0.000000 0.000000 0.000000
# 3 -0.006137 -0.001297 0.010579 0.000000 0.000000 0.000000
# 4 0.000000 0.000000 0.000000 0.031071 0.000000 0.000000
# 5 0.000000 0.000000 0.000000 0.000000 0.028339 0.000000
# 6 0.000000 0.000000 0.000000 0.000000 0.000000 0.015978
#
#
# Mechanical properties :
#
#
# Convention : Reuss Voigt Hill
#
# Bulk Modulus (GPa) = 39.19711 46.82373 43.01042
# Shear Modulus (GPa) = 24.23705 34.85306 29.54505
#
# Velocity S-wave (km/s) = 3.57688 4.28929 3.94919
# Velocity P-wave (km/s) = 6.14410 7.01767 6.59536
#
# Compressibility (1/GPa) = 0.02551208
#
# Stress axis : x y z
#
# Youngs Moduli (GPa) = 35.66549 28.29553 94.53111
#
# Poissons Ratio (x) = 0.47505 0.58015
# Poissons Ratio (y) = 0.59879 0.12260
# Poissons Ratio (z) = 0.21888 0.03670
#
# Static dielectric constant tensor:
#      x y z
#    x 1.656180 0.000000 0.000000 
#    y 0.000000 1.650130 0.000000 
#    z 0.000000 0.000000 1.648640 
# 
# From -- ./inp_files/23792.got.cif
#   From: 2010.05.17/outbox.cif.g08.bks.cpg/sg51_12_cif.got.tgz:23792.got - 2010.06.03 11:52:47.
