data_PCOD9406107
_publ_section_title
;
Structure prediction by ZEFSAII (Michael W. Deem and Ramdas Pophale) SiO2 
 PCOD9406107
Probable space group: P M M A
;
_chemical_formula_sum "Si O2"
_cell_formula_units_Z 64
_cell_length_a 8.577283
_cell_length_b 24.449027
_cell_length_c 15.928122
_cell_angle_alpha 90.000000
_cell_angle_beta 90.000000
_cell_angle_gamma 90.000000
_cell_volume 3340.226315
_symmetry_space_group_name_H-M "P M M A"
_symmetry_group_IT_number 51
_symmetry_cell_setting 'orthorhombic'
loop_
_space_group_symop_operation_xyz
x,y,z
1/2-x,-y,z
1/2+x,-y,-z
-x,y,-z
-x,-y,-z
1/2+x,y,-z
1/2-x,y,z
x,-y,z
loop_
_atom_site_type_symbol
_atom_site_label
_atom_site_fract_x
_atom_site_fract_y
_atom_site_fract_z
Si Si1 0.438124 0.436800 0.591486
Si Si2 0.561034 0.365101 0.249633
Si Si3 0.561698 0.175689 0.588580
Si Si4 0.937443 0.061409 0.850830
Si Si5 0.436898 0.757602 0.246615
Si Si6 0.061113 0.059775 0.348427
Si Si7 0.938056 0.563193 0.090650
Si Si8 0.565640 0.174580 0.089458
O O1 0.500000 0.420458 0.500000
O O2 0.250000 0.436076 0.589571
O O3 0.486484 0.500000 0.606968
O O4 0.489683 0.397456 0.666643
O O5 0.750000 0.363774 0.249797
O O6 0.498395 0.303930 0.246730
O O7 0.510729 0.398962 0.167395
O O8 0.500000 0.196480 0.500000
O O9 0.750000 0.175144 0.587114
O O10 0.512054 0.211523 0.668278
O O11 0.504556 0.113345 0.603697
O O12 0.750000 0.066637 0.859857
O O13 0.972182 0.065671 0.751000
O O14 0.018453 0.111245 0.897056
O O15 0.982259 0.000000 0.878146
O O16 0.250000 0.757816 0.245208
O O17 0.495793 0.791006 0.166207
O O18 0.250000 0.059148 0.354907
O O19 0.003189 0.000000 0.376634
O O20 0.750000 0.563783 0.088670
O O21 0.987496 0.500000 0.103843
O O22 0.000000 0.581213 0.000000
O O23 0.750000 0.179897 0.089999
O O24 0.500000 0.193311 0.000000
#
# Coordination Sequence:
#
# PCOD9406107 Si02
#       8
#     8   8   8   8   8   8   8   8
#     4   9  18  34  57  85 118 154 192 237 288 344
#     4  10  21  37  58  83 113 151 193 234 284 342
#     4  10  21  37  58  82 111 147 189 234 285 343
#     4   9  17  34  61  88 117 152 188 231 287 348
#     4  11  24  43  61  81 113 152 198 246 292 341
#     4   8  14  29  55  82 110 145 181 222 279 340
#     4   9  18  34  57  85 117 150 183 222 271 329
#     4  12  25  41  63  87 115 150 192 242 293 349
#
# _framework density 19.160378999999999
#
# number of rings (size 3 to 8) (size 9 to 14) (size 15 to 20)
#    0.000    2.250    1.250    2.625    0.000    5.250 
#    0.000    3.750    0.000    3.750    0.000    0.000 
#    0.000    0.000    0.000    0.000    0.000    0.000 
#
# Total GULP energy -357344.520921 kJ/mol
# GULP energy per Si atom -5583.508139 kJ/mol
# Density = 1.911677 g / cm^3
# Si number density = 19.160379 Si / 1000 Ang^3
#
#
#
# Elastic Constant Matrix: (Units=GPa)
#
#
# Indices 1 2 3 4 5 6 
#
# 1 22.4688 29.6955 33.5662 0.0000 0.0000 0.0000
# 2 29.6955 131.1968 103.4902 0.0000 0.0000 0.0000
# 3 33.5662 103.4902 173.5552 0.0000 0.0000 0.0000
# 4 0.0000 0.0000 0.0000 -10.0201 0.0000 0.0000
# 5 0.0000 0.0000 0.0000 0.0000 28.4288 0.0000
# 6 0.0000 0.0000 0.0000 0.0000 0.0000 27.2342
#
#
#
# Elastic Compliance Matrix: (Units=1/GPa)
#
#
# Indices 1 2 3 4 5 6 
#
# 1 0.068360 -0.009523 -0.007542 0.000000 0.000000 0.000000
# 2 -0.009523 0.015718 -0.007531 0.000000 0.000000 0.000000
# 3 -0.007542 -0.007531 0.011711 0.000000 0.000000 0.000000
# 4 0.000000 0.000000 0.000000 -0.099799 0.000000 0.000000
# 5 0.000000 0.000000 0.000000 0.000000 0.035176 0.000000
# 6 0.000000 0.000000 0.000000 0.000000 0.000000 0.036719
#
#
# Mechanical properties :
#
#
# Convention : Reuss Voigt Hill
#
# Bulk Modulus (GPa) = 21.46090 73.41384 47.43737
# Shear Modulus (GPa) = 37.70479 19.82651 28.76565
#
# Velocity S-wave (km/s) = 4.44086 3.22027 3.87888
# Velocity P-wave (km/s) = 6.12535 7.22672 6.69871
#
# Compressibility (1/GPa) = 0.04659638
#
# Stress axis : x y z
#
# Youngs Moduli (GPa) = 14.62843 63.62110 85.38874
#
# Poissons Ratio (x) = 0.60588 0.64404
# Poissons Ratio (y) = 0.13931 0.64304
# Poissons Ratio (z) = 0.11033 0.47912
#
# Static dielectric constant tensor:
#      x y z
#    x 1.651180 0.000000 0.000000 
#    y 0.000000 1.657380 0.000000 
#    z 0.000000 0.000000 1.665510 
# 
# From -- ./inp_files/22363.got.cif
#   From: 2010.05.17/outbox.cif.g08.bks.cpg/sg51_12_cif.got.tgz:22363.got - 2010.06.03 11:52:47.
