data_PCOD9406677
_publ_section_title
;
Structure prediction by ZEFSAII (Michael W. Deem and Ramdas Pophale) SiO2 
 PCOD9406677
Probable space group: P M M A
;
_chemical_formula_sum "Si O2"
_cell_formula_units_Z 44
_cell_length_a 7.557435
_cell_length_b 8.011105
_cell_length_c 32.308269
_cell_angle_alpha 90.000000
_cell_angle_beta 90.000000
_cell_angle_gamma 90.000000
_cell_volume 1956.052625
_symmetry_space_group_name_H-M "P M M A"
_symmetry_group_IT_number 51
_symmetry_cell_setting 'orthorhombic'
loop_
_space_group_symop_operation_xyz
x,y,z
1/2-x,-y,z
1/2+x,-y,-z
-x,y,-z
-x,-y,-z
1/2+x,y,-z
1/2-x,y,z
x,-y,z
loop_
_atom_site_type_symbol
_atom_site_label
_atom_site_fract_x
_atom_site_fract_y
_atom_site_fract_z
Si Si1 0.456828 0.188775 0.599917
Si Si2 0.047219 0.200285 0.307889
Si Si3 0.036847 0.500000 0.548488
Si Si4 0.037452 0.192225 0.044532
Si Si5 0.953098 0.302172 0.779827
Si Si6 0.454703 0.200877 0.132656
O O1 0.250000 0.173892 0.589644
O O2 0.467731 0.245863 0.647839
O O3 0.532937 0.332329 0.570673
O O4 0.533264 0.000000 0.596644
O O5 0.250000 0.262418 0.308552
O O6 0.965055 0.256750 0.264446
O O7 0.046990 0.000000 0.306734
O O8 0.250000 0.500000 0.554332
O O9 0.000000 0.500000 0.500000
O O10 0.250000 0.185238 0.048291
O O11 0.971776 0.263487 0.088499
O O12 0.969826 0.000000 0.042039
O O13 0.000000 0.272764 0.000000
O O14 0.750000 0.231252 0.778711
O O15 0.943233 0.500000 0.781901
O O16 0.036427 0.243607 0.823018
O O17 0.250000 0.261396 0.135056
O O18 0.452066 0.000000 0.129397
#
# Coordination Sequence:
#
# PCOD9406677 Si02
#       6
#     8   8   4   8   8   8
#     4   9  19  36  55  75 103 137 169 202 242 291
#     4   9  17  29  47  72  98 124 157 197 239 279
#     4  10  22  38  56  80 106 136 172 208 247 288
#     4   8  13  21  35  55  75  97 130 172 216 261
#     4   9  16  24  37  61  90 117 146 185 228 269
#     4   8  13  22  36  53  76 107 140 175 218 268
#
# _framework density 22.494282999999999
#
# number of rings (size 3 to 8) (size 9 to 14) (size 15 to 20)
#    0.000    3.273    0.000    1.636    1.273    3.273 
#    0.000    0.000    0.000    1.636    0.000    5.091 
#    0.000    0.000    0.000    0.000    0.000    0.000 
#
# Total GULP energy -245080.183559 kJ/mol
# GULP energy per Si atom -5570.004172 kJ/mol
# Density = 2.244308 g / cm^3
# Si number density = 22.494283 Si / 1000 Ang^3
#
#
#
# Elastic Constant Matrix: (Units=GPa)
#
#
# Indices 1 2 3 4 5 6 
#
# 1 52.0049 6.8760 2.4001 0.0000 0.0000 0.0000
# 2 6.8760 60.0125 82.6642 0.0000 0.0000 0.0000
# 3 2.4001 82.6642 245.5600 0.0000 0.0000 0.0000
# 4 0.0000 0.0000 0.0000 125.3731 0.0000 0.0000
# 5 0.0000 0.0000 0.0000 0.0000 15.3661 0.0000
# 6 0.0000 0.0000 0.0000 0.0000 0.0000 -3.1261
#
#
#
# Elastic Compliance Matrix: (Units=1/GPa)
#
#
# Indices 1 2 3 4 5 6 
#
# 1 0.019671 -0.003709 0.001056 0.000000 0.000000 0.000000
# 2 -0.003709 0.031770 -0.010659 0.000000 0.000000 0.000000
# 3 0.001056 -0.010659 0.007650 0.000000 0.000000 0.000000
# 4 0.000000 0.000000 0.000000 0.007976 0.000000 0.000000
# 5 0.000000 0.000000 0.000000 0.000000 0.065078 0.000000
# 6 0.000000 0.000000 0.000000 0.000000 0.000000 -0.319890
#
#
# Mechanical properties :
#
#
# Convention : Reuss Voigt Hill
#
# Bulk Modulus (GPa) = 30.79919 60.16198 45.48059
# Shear Modulus (GPa) = -33.26671 45.23177 5.98253
#
# Velocity S-wave (km/s) = -3.84981 4.48907 1.63259
# Velocity P-wave (km/s) = 2.45758 7.32615 4.88021
#
# Compressibility (1/GPa) = 0.03246839
#
# Stress axis : x y z
#
# Youngs Moduli (GPa) = 50.83737 31.47644 130.71797
#
# Poissons Ratio (x) = 0.11673 -0.13806
# Poissons Ratio (y) = 0.18854 1.39327
# Poissons Ratio (z) = -0.05369 0.33549
#
# Static dielectric constant tensor:
#      x y z
#    x 1.907330 0.000000 0.000000 
#    y 0.000000 1.826630 0.000000 
#    z 0.000000 0.000000 1.881540 
# 
# From -- ./inp_files/36812.got.cif
#   From: 2010.05.17/outbox.cif.g08.bks.cpg/sg51_19_cif.got.tgz:36812.got - 2010.06.03 11:52:47.
