data_PCOD9406789
_publ_section_title
;
Structure prediction by ZEFSAII (Michael W. Deem and Ramdas Pophale) SiO2 
 PCOD9406789
Probable space group: P M M A
;
_chemical_formula_sum "Si O2"
_cell_formula_units_Z 56
_cell_length_a 22.033412
_cell_length_b 14.543454
_cell_length_c 9.616251
_cell_angle_alpha 90.000000
_cell_angle_beta 90.000000
_cell_angle_gamma 90.000000
_cell_volume 3081.449875
_symmetry_space_group_name_H-M "P M M A"
_symmetry_group_IT_number 51
_symmetry_cell_setting 'orthorhombic'
loop_
_space_group_symop_operation_xyz
x,y,z
1/2-x,-y,z
1/2+x,-y,-z
-x,y,-z
-x,-y,-z
1/2+x,y,-z
1/2-x,y,z
x,-y,z
loop_
_atom_site_type_symbol
_atom_site_label
_atom_site_fract_x
_atom_site_fract_y
_atom_site_fract_z
Si Si1 0.679189 0.891065 0.002785
Si Si2 0.891299 0.609320 0.291035
Si Si3 0.369216 0.250000 0.217001
Si Si4 0.179189 0.608935 0.997214
Si Si5 0.891299 0.109320 0.291035
Si Si6 0.179422 0.750000 0.522400
Si Si7 0.995127 0.750000 0.332256
O O1 0.750000 0.864339 0.015297
O O2 0.644141 0.873228 0.146848
O O3 0.676830 0.000000 0.977600
O O4 0.648027 0.836512 0.878362
O O5 0.896091 0.500000 0.312761
O O6 0.853363 0.661286 0.410640
O O7 0.955805 0.660947 0.288659
O O8 0.855859 0.626772 0.146848
O O9 0.351973 0.336512 0.121638
O O10 0.330529 0.250000 0.357966
O O11 0.439129 0.250000 0.263408
O O12 0.250000 0.635661 0.984702
O O13 0.176829 0.500000 0.022400
O O14 0.853363 0.161286 0.410639
O O15 0.955805 0.160947 0.288659
O O16 0.896091 0.000000 0.312761
O O17 0.250000 0.750000 0.558056
O O18 0.000000 0.750000 0.500000
#
# Coordination Sequence:
#
# PCOD9406789 Si02
#       7
#     8   8   8   8   8   8   8
#     4  10  22  40  62  91 123 155 196 248 306 363
#     4  10  22  41  65  88 117 162 206 248 296 353
#     4  12  23  39  60  86 125 162 194 244 308 355
#     4  10  22  40  62  91 123 155 196 248 306 363
#     4  10  22  41  65  88 117 162 206 248 296 353
#     4  11  22  37  60  92 122 155 202 248 300 361
#     4  11  23  43  58  88 124 162 204 250 297 351
#
# _framework density 18.173262000000001
#
# number of rings (size 3 to 8) (size 9 to 14) (size 15 to 20)
#    0.000    1.429    2.857    3.857    0.000    6.857 
#    0.000    2.857    0.000    0.000    0.000    0.000 
#    0.000    0.000    0.000    0.000    0.000    0.000 
#
# Total GULP energy -312895.930653 kJ/mol
# GULP energy per Si atom -5587.427333 kJ/mol
# Density = 1.813190 g / cm^3
# Si number density = 18.173262 Si / 1000 Ang^3
#
#
#
# Elastic Constant Matrix: (Units=GPa)
#
#
# Indices 1 2 3 4 5 6 
#
# 1 135.7607 46.3812 40.2622 0.0000 0.0000 0.0000
# 2 46.3812 120.5278 61.8961 0.0000 0.0000 0.0000
# 3 40.2622 61.8961 128.6495 0.0000 0.0000 0.0000
# 4 0.0000 0.0000 0.0000 77.6439 0.0000 0.0000
# 5 0.0000 0.0000 0.0000 0.0000 36.9414 0.0000
# 6 0.0000 0.0000 0.0000 0.0000 0.0000 44.0992
#
#
#
# Elastic Compliance Matrix: (Units=1/GPa)
#
#
# Indices 1 2 3 4 5 6 
#
# 1 0.008687 -0.002585 -0.001475 0.000000 0.000000 0.000000
# 2 -0.002585 0.011789 -0.004863 0.000000 0.000000 0.000000
# 3 -0.001475 -0.004863 0.010574 0.000000 0.000000 0.000000
# 4 0.000000 0.000000 0.000000 0.012879 0.000000 0.000000
# 5 0.000000 0.000000 0.000000 0.000000 0.027070 0.000000
# 6 0.000000 0.000000 0.000000 0.000000 0.000000 0.022676
#
#
# Mechanical properties :
#
#
# Convention : Reuss Voigt Hill
#
# Bulk Modulus (GPa) = 75.73496 75.77966 75.75731
# Shear Modulus (GPa) = 43.13239 47.49680 45.31459
#
# Velocity S-wave (km/s) = 4.87704 5.11784 4.99889
# Velocity P-wave (km/s) = 8.57195 8.75854 8.66575
#
# Compressibility (1/GPa) = 0.01320394
#
# Stress axis : x y z
#
# Youngs Moduli (GPa) = 115.12097 84.82461 94.57010
#
# Poissons Ratio (x) = 0.21931 0.13945
# Poissons Ratio (y) = 0.29764 0.45988
# Poissons Ratio (z) = 0.16976 0.41249
#
# Static dielectric constant tensor:
#      x y z
#    x 1.617640 0.000000 0.000000 
#    y 0.000000 1.609930 0.000000 
#    z 0.000000 0.000000 1.591900 
# 
# From -- ./inp_files/10974.got.cif
#   From: 2010.05.17/outbox.cif.g08.bks.cpg/sg51_6_cif.got.tgz:10974.got - 2010.06.03 11:52:47.
