data_PCOD9406769
_publ_section_title
;
Structure prediction by ZEFSAII (Michael W. Deem and Ramdas Pophale) SiO2 
 PCOD9406769
Probable space group: P M M A
;
_chemical_formula_sum "Si O2"
_cell_formula_units_Z 48
_cell_length_a 15.592029
_cell_length_b 16.855871
_cell_length_c 9.847006
_cell_angle_alpha 90.000000
_cell_angle_beta 90.000000
_cell_angle_gamma 90.000000
_cell_volume 2587.962835
_symmetry_space_group_name_H-M "P M M A"
_symmetry_group_IT_number 51
_symmetry_cell_setting 'orthorhombic'
loop_
_space_group_symop_operation_xyz
x,y,z
1/2-x,-y,z
1/2+x,-y,-z
-x,y,-z
-x,-y,-z
1/2+x,y,-z
1/2-x,y,z
x,-y,z
loop_
_atom_site_type_symbol
_atom_site_label
_atom_site_fract_x
_atom_site_fract_y
_atom_site_fract_z
Si Si1 0.847085 0.343003 0.252789
Si Si2 0.100601 0.772408 0.980989
Si Si3 0.853186 0.091643 0.225402
Si Si4 0.655277 0.725163 0.728572
Si Si5 0.018554 0.588172 0.338954
Si Si6 0.400192 0.204799 0.537635
O O1 0.750000 0.373395 0.267776
O O2 0.857184 0.295368 0.112408
O O3 0.866423 0.277721 0.370081
O O4 0.926271 0.402545 0.266948
O O5 0.112505 0.853393 0.896574
O O6 0.141068 0.769071 0.129327
O O7 0.000000 0.756496 0.000000
O O8 0.750000 0.097674 0.223990
O O9 0.884824 0.128866 0.367743
O O10 0.877889 0.000000 0.211404
O O11 0.750000 0.688832 0.724648
O O12 0.582796 0.657660 0.707217
O O13 0.646935 0.787256 0.605363
O O14 0.053880 0.500000 0.313714
O O15 0.000000 0.595550 0.500000
O O16 0.500000 0.212324 0.500000
#
# Coordination Sequence:
#
# PCOD9406769 Si02
#       6
#     8   8   8   8   8   8
#     4  11  20  38  61  85 115 158 206 241 286 353
#     4  11  21  38  62  86 117 154 199 246 292 354
#     4  10  22  40  59  85 120 158 199 242 292 354
#     4  12  21  36  60  90 119 154 201 246 295 348
#     4  11  23  39  59  90 124 155 195 248 303 346
#     4  11  19  36  60  85 115 154 201 245 285 343
#
# _framework density 18.547405999999999
#
# number of rings (size 3 to 8) (size 9 to 14) (size 15 to 20)
#    0.000    1.000    5.000    5.000    0.000    1.333 
#    0.000    4.167    0.000    5.000    0.000    0.000 
#    0.000    0.000    0.000    0.000    0.000    0.000 
#
# Total GULP energy -267968.160383 kJ/mol
# GULP energy per Si atom -5582.670008 kJ/mol
# Density = 1.850519 g / cm^3
# Si number density = 18.547406 Si / 1000 Ang^3
#
#
#
# Elastic Constant Matrix: (Units=GPa)
#
#
# Indices 1 2 3 4 5 6 
#
# 1 128.3885 18.8229 21.8185 0.0000 0.0000 0.0000
# 2 18.8229 84.1544 38.6932 0.0000 0.0000 0.0000
# 3 21.8185 38.6932 144.4456 0.0000 0.0000 0.0000
# 4 0.0000 0.0000 0.0000 13.1553 0.0000 0.0000
# 5 0.0000 0.0000 0.0000 0.0000 14.8478 0.0000
# 6 0.0000 0.0000 0.0000 0.0000 0.0000 14.8145
#
#
#
# Elastic Compliance Matrix: (Units=1/GPa)
#
#
# Indices 1 2 3 4 5 6 
#
# 1 0.008143 -0.001432 -0.000846 0.000000 0.000000 0.000000
# 2 -0.001432 0.013804 -0.003481 0.000000 0.000000 0.000000
# 3 -0.000846 -0.003481 0.007983 0.000000 0.000000 0.000000
# 4 0.000000 0.000000 0.000000 0.076015 0.000000 0.000000
# 5 0.000000 0.000000 0.000000 0.000000 0.067350 0.000000
# 6 0.000000 0.000000 0.000000 0.000000 0.000000 0.067502
#
#
# Mechanical properties :
#
#
# Convention : Reuss Voigt Hill
#
# Bulk Modulus (GPa) = 54.31734 57.29529 55.80631
# Shear Modulus (GPa) = 19.34584 27.07376 23.20980
#
# Velocity S-wave (km/s) = 3.23313 3.82475 3.54132
# Velocity P-wave (km/s) = 6.57927 7.10375 6.84654
#
# Compressibility (1/GPa) = 0.01841033
#
# Stress axis : x y z
#
# Youngs Moduli (GPa) = 122.81019 72.44298 125.25942
#
# Poissons Ratio (x) = 0.10375 0.10601
# Poissons Ratio (y) = 0.17588 0.43608
# Poissons Ratio (z) = 0.10394 0.25220
#
# Static dielectric constant tensor:
#      x y z
#    x 1.659520 0.000000 0.000000 
#    y 0.000000 1.625740 0.000000 
#    z 0.000000 0.000000 1.641630 
# 
# From -- ./inp_files/8201.got.cif
#   From: 2010.05.17/outbox.cif.g08.bks.cpg/sg51_5_cif.got.tgz:8201.got - 2010.06.03 11:52:47.
