data_PCOD9406896
_publ_section_title
;
Structure prediction by ZEFSAII (Michael W. Deem and Ramdas Pophale) SiO2 
 PCOD9406896
Probable space group: P M M A
;
_chemical_formula_sum "Si O2"
_cell_formula_units_Z 18
_cell_length_a 10.880482
_cell_length_b 7.321636
_cell_length_c 9.681767
_cell_angle_alpha 90.000000
_cell_angle_beta 90.000000
_cell_angle_gamma 90.000000
_cell_volume 771.277914
_symmetry_space_group_name_H-M "P M M A"
_symmetry_group_IT_number 51
_symmetry_cell_setting 'orthorhombic'
loop_
_space_group_symop_operation_xyz
x,y,z
1/2-x,-y,z
1/2+x,-y,-z
-x,y,-z
-x,-y,-z
1/2+x,y,-z
1/2-x,y,z
x,-y,z
loop_
_atom_site_type_symbol
_atom_site_label
_atom_site_fract_x
_atom_site_fract_y
_atom_site_fract_z
Si Si1 0.885070 0.719653 0.088023
Si Si2 0.750000 0.500000 0.719918
Si Si3 0.035684 0.787631 0.344078
O O1 0.750000 0.786391 0.048110
O O2 0.882088 0.500000 0.070387
O O3 0.917708 0.763399 0.245542
O O4 0.000000 0.789761 0.000000
O O5 0.641965 0.341682 0.713317
O O6 0.000000 0.735236 0.500000
O O7 0.072342 0.000000 0.344134
#
# Coordination Sequence:
#
# PCOD9406896 Si02
#       3
#     8   2   8
#     4  10  23  42  70 103 142 189 237 287 352 421
#     4  12  24  44  72 100 140 190 222 300 350 424
#     4  11  26  44  70 105 139 183 238 290 349 421
#
# _framework density 23.337889000000001
#
# number of rings (size 3 to 8) (size 9 to 14) (size 15 to 20)
#    0.000    1.333    2.222    1.333    6.222    1.778 
#    0.000    0.000    0.000    0.000    0.000    0.000 
#    0.000    0.000    0.000    0.000    0.000    0.000 
#
# Total GULP energy -100252.090183 kJ/mol
# GULP energy per Si atom -5569.560566 kJ/mol
# Density = 2.328477 g / cm^3
# Si number density = 23.337889 Si / 1000 Ang^3
#
#
#
# Elastic Constant Matrix: (Units=GPa)
#
#
# Indices 1 2 3 4 5 6 
#
# 1 186.0793 41.3530 62.5697 0.0000 0.0000 0.0000
# 2 41.3530 134.9255 -17.5460 0.0000 0.0000 0.0000
# 3 62.5697 -17.5460 107.3041 0.0000 0.0000 0.0000
# 4 0.0000 0.0000 0.0000 8.9694 0.0000 0.0000
# 5 0.0000 0.0000 0.0000 0.0000 8.5899 0.0000
# 6 0.0000 0.0000 0.0000 0.0000 0.0000 -33.9504
#
#
#
# Elastic Compliance Matrix: (Units=1/GPa)
#
#
# Indices 1 2 3 4 5 6 
#
# 1 0.007725 -0.003018 -0.004998 0.000000 0.000000 0.000000
# 2 -0.003018 0.008751 0.003191 0.000000 0.000000 0.000000
# 3 -0.004998 0.003191 0.012755 0.000000 0.000000 0.000000
# 4 0.000000 0.000000 0.000000 0.111490 0.000000 0.000000
# 5 0.000000 0.000000 0.000000 0.000000 0.116415 0.000000
# 6 0.000000 0.000000 0.000000 0.000000 0.000000 -0.029455
#
#
# Mechanical properties :
#
#
# Convention : Reuss Voigt Hill
#
# Bulk Modulus (GPa) = 51.06809 66.78469 58.92639
# Shear Modulus (GPa) = 20.50353 19.51726 20.01040
#
# Velocity S-wave (km/s) = 2.96725 2.89501 2.93135
# Velocity P-wave (km/s) = 5.80250 6.31295 6.06310
#
# Compressibility (1/GPa) = 0.01958170
#
# Stress axis : x y z
#
# Youngs Moduli (GPa) = 129.44455 114.26879 78.39773
#
# Poissons Ratio (x) = 0.34483 0.39184
# Poissons Ratio (y) = 0.39062 -0.25014
# Poissons Ratio (z) = 0.64698 -0.36459
#
# Static dielectric constant tensor:
#      x y z
#    x 1.832040 0.000000 0.000000 
#    y 0.000000 1.853290 0.000000 
#    z 0.000000 0.000000 1.921530 
# 
# From -- ./inp_files/6398.got.cif
#   From: 2010.05.17/outbox.cif.g08.bks.cpg/sg51_4_cif.got.tgz:6398.got - 2010.06.03 11:52:47.
