data_PCOD9406400
_publ_section_title
;
Structure prediction by ZEFSAII (Michael W. Deem and Ramdas Pophale) SiO2 
 PCOD9406400
Probable space group: P M M A
;
_chemical_formula_sum "Si O2"
_cell_formula_units_Z 48
_cell_length_a 23.705663
_cell_length_b 8.777144
_cell_length_c 12.944812
_cell_angle_alpha 90.000000
_cell_angle_beta 90.000000
_cell_angle_gamma 90.000000
_cell_volume 2693.401373
_symmetry_space_group_name_H-M "P M M A"
_symmetry_group_IT_number 51
_symmetry_cell_setting 'orthorhombic'
loop_
_space_group_symop_operation_xyz
x,y,z
1/2-x,-y,z
1/2+x,-y,-z
-x,y,-z
-x,-y,-z
1/2+x,y,-z
1/2-x,y,z
x,-y,z
loop_
_atom_site_type_symbol
_atom_site_label
_atom_site_fract_x
_atom_site_fract_y
_atom_site_fract_z
Si Si1 0.316359 0.180770 0.494838
Si Si2 0.816316 0.818353 0.110725
Si Si3 0.874978 0.318509 0.307715
Si Si4 0.889880 0.682715 0.689771
Si Si5 0.506558 0.817778 0.377993
Si Si6 0.684701 0.316867 0.886994
O O1 0.250000 0.204752 0.477561
O O2 0.334648 0.245237 0.605495
O O3 0.352733 0.262718 0.407175
O O4 0.328133 0.000000 0.491955
O O5 0.750000 0.782227 0.129223
O O6 0.853929 0.737124 0.196418
O O7 0.823086 0.000000 0.118147
O O8 0.829564 0.762085 0.995189
O O9 0.872775 0.500000 0.314598
O O10 0.937608 0.259997 0.333566
O O11 0.895475 0.500000 0.687056
O O12 0.856636 0.726139 0.794003
O O13 0.950817 0.758947 0.679189
O O14 0.500000 0.780636 0.500000
O O15 0.511573 0.000000 0.369245
O O16 0.750000 0.278499 0.860984
O O17 0.681902 0.500000 0.900078
#
# Coordination Sequence:
#
# PCOD9406400 Si02
#       6
#     8   8   8   8   8   8
#     4  11  23  37  55  83 119 154 190 236 289 347
#     4  10  21  38  61  88 119 155 194 237 288 347
#     4  12  24  38  60  86 115 151 195 243 292 346
#     4  11  22  37  60  88 118 152 195 242 290 345
#     4  11  23  40  61  83 115 157 197 240 292 347
#     4   9  19  37  60  87 120 155 191 235 288 344
#
# _framework density 17.821332999999999
#
# number of rings (size 3 to 8) (size 9 to 14) (size 15 to 20)
#    0.000    1.333    1.667    4.500    0.000    7.000 
#    0.000    2.500    0.000    5.000    0.000    0.000 
#    0.000    0.000    0.000    0.000    0.000    0.000 
#
# Total GULP energy -268368.822161 kJ/mol
# GULP energy per Si atom -5591.017128 kJ/mol
# Density = 1.778077 g / cm^3
# Si number density = 17.821333 Si / 1000 Ang^3
#
#
#
# Elastic Constant Matrix: (Units=GPa)
#
#
# Indices 1 2 3 4 5 6 
#
# 1 45.3444 12.6470 18.1904 0.0000 0.0000 0.0000
# 2 12.6470 29.9478 7.0698 0.0000 0.0000 0.0000
# 3 18.1904 7.0698 64.9932 0.0000 0.0000 0.0000
# 4 0.0000 0.0000 0.0000 -4.3895 0.0000 0.0000
# 5 0.0000 0.0000 0.0000 0.0000 12.4454 0.0000
# 6 0.0000 0.0000 0.0000 0.0000 0.0000 20.1457
#
#
#
# Elastic Compliance Matrix: (Units=1/GPa)
#
#
# Indices 1 2 3 4 5 6 
#
# 1 0.027508 -0.010058 -0.006605 0.000000 0.000000 0.000000
# 2 -0.010058 0.037949 -0.001313 0.000000 0.000000 0.000000
# 3 -0.006605 -0.001313 0.017378 0.000000 0.000000 0.000000
# 4 0.000000 0.000000 0.000000 -0.227814 0.000000 0.000000
# 5 0.000000 0.000000 0.000000 0.000000 0.080351 0.000000
# 6 0.000000 0.000000 0.000000 0.000000 0.000000 0.049638
#
#
# Mechanical properties :
#
#
# Convention : Reuss Voigt Hill
#
# Bulk Modulus (GPa) = 21.32948 24.01109 22.67029
# Shear Modulus (GPa) = 136.65225 12.46551 74.55888
#
# Velocity S-wave (km/s) = 8.76616 2.64762 6.47516
# Velocity P-wave (km/s) = 10.69837 4.78006 8.28566
#
# Compressibility (1/GPa) = 0.04688347
#
# Stress axis : x y z
#
# Youngs Moduli (GPa) = 36.35272 26.35134 57.54506
#
# Poissons Ratio (x) = 0.26503 0.38009
# Poissons Ratio (y) = 0.36562 0.07556
# Poissons Ratio (z) = 0.24011 0.03460
#
# Static dielectric constant tensor:
#      x y z
#    x 1.588890 0.000000 0.000000 
#    y 0.000000 1.596010 0.000000 
#    z 0.000000 0.000000 1.576980 
# 
# From -- ./inp_files/18566.got.cif
#   From: 2010.05.17/outbox.cif.g08.bks.cpg/sg51_10_cif.got.tgz:18566.got - 2010.06.03 11:52:47.
