data_PCOD9406013
_publ_section_title
;
Structure prediction by ZEFSAII (Michael W. Deem and Ramdas Pophale) SiO2 
 PCOD9406013
Probable space group: P M M A
;
_chemical_formula_sum "Si O2"
_cell_formula_units_Z 48
_cell_length_a 19.145144
_cell_length_b 9.030499
_cell_length_c 15.625469
_cell_angle_alpha 90.000000
_cell_angle_beta 90.000000
_cell_angle_gamma 90.000000
_cell_volume 2701.490519
_symmetry_space_group_name_H-M "P M M A"
_symmetry_group_IT_number 51
_symmetry_cell_setting 'orthorhombic'
loop_
_space_group_symop_operation_xyz
x,y,z
1/2-x,-y,z
1/2+x,-y,-z
-x,y,-z
-x,-y,-z
1/2+x,y,-z
1/2-x,y,z
x,-y,z
loop_
_atom_site_type_symbol
_atom_site_label
_atom_site_fract_x
_atom_site_fract_y
_atom_site_fract_z
Si Si1 0.169261 0.321818 0.402567
Si Si2 0.080110 0.178242 0.253653
Si Si3 0.917163 0.177358 0.247881
Si Si4 0.832301 0.323375 0.094082
Si Si5 0.331817 0.822887 0.087348
Si Si6 0.167706 0.322926 0.600340
O O1 0.250000 0.278347 0.385688
O O2 0.165619 0.500000 0.395917
O O3 0.118110 0.248583 0.334991
O O4 0.152961 0.283854 0.501377
O O5 0.120682 0.222740 0.167142
O O6 0.998808 0.218677 0.249088
O O7 0.084995 0.000000 0.259942
O O8 0.878497 0.248363 0.166789
O O9 0.879430 0.236700 0.332841
O O10 0.911926 0.000000 0.243333
O O11 0.750000 0.290650 0.109597
O O12 0.840967 0.500000 0.095818
O O13 0.849779 0.259677 0.000463
O O14 0.250000 0.793905 0.106636
O O15 0.339502 0.000000 0.074561
O O16 0.250000 0.293900 0.616166
O O17 0.157420 0.500000 0.610245
#
# Coordination Sequence:
#
# PCOD9406013 Si02
#       6
#     8   8   8   8   8   8
#     4   9  19  36  58  82 106 136 177 223 267 312
#     4  10  22  37  53  78 112 146 177 214 262 314
#     4  11  23  36  52  78 111 144 178 217 262 314
#     4  10  21  37  57  80 105 135 174 221 269 315
#     4   9  18  35  58  79 101 135 177 217 259 310
#     4   9  19  37  58  79 105 138 178 223 268 314
#
# _framework density 17.767969999999998
#
# number of rings (size 3 to 8) (size 9 to 14) (size 15 to 20)
#    0.000    2.333    0.000    3.000    0.000    8.333 
#    0.000   10.000    0.000    0.000    0.000    0.000 
#    0.000    0.000    0.000    0.000    0.000    0.000 
#
# Total GULP energy -268010.827381 kJ/mol
# GULP energy per Si atom -5583.558904 kJ/mol
# Density = 1.772753 g / cm^3
# Si number density = 17.767970 Si / 1000 Ang^3
#
#
#
# Elastic Constant Matrix: (Units=GPa)
#
#
# Indices 1 2 3 4 5 6 
#
# 1 133.9998 65.3579 131.8424 0.0000 0.0000 0.0000
# 2 65.3579 41.0021 67.8360 0.0000 0.0000 0.0000
# 3 131.8424 67.8360 172.5954 0.0000 0.0000 0.0000
# 4 0.0000 0.0000 0.0000 39.1303 0.0000 0.0000
# 5 0.0000 0.0000 0.0000 0.0000 3.9865 0.0000
# 6 0.0000 0.0000 0.0000 0.0000 0.0000 27.5987
#
#
#
# Elastic Compliance Matrix: (Units=1/GPa)
#
#
# Indices 1 2 3 4 5 6 
#
# 1 0.048769 -0.046045 -0.019156 0.000000 0.000000 0.000000
# 2 -0.046045 0.113207 -0.009321 0.000000 0.000000 0.000000
# 3 -0.019156 -0.009321 0.024091 0.000000 0.000000 0.000000
# 4 0.000000 0.000000 0.000000 0.025556 0.000000 0.000000
# 5 0.000000 0.000000 0.000000 0.000000 0.250848 0.000000
# 6 0.000000 0.000000 0.000000 0.000000 0.000000 0.036234
#
#
# Mechanical properties :
#
#
# Convention : Reuss Voigt Hill
#
# Bulk Modulus (GPa) = 27.01157 97.51887 62.26522
# Shear Modulus (GPa) = 7.57472 19.64717 13.61094
#
# Velocity S-wave (km/s) = 2.06697 3.32891 2.77074
# Velocity P-wave (km/s) = 4.57514 8.35340 6.73466
#
# Compressibility (1/GPa) = 0.03702117
#
# Stress axis : x y z
#
# Youngs Moduli (GPa) = 20.50479 8.83336 41.50975
#
# Poissons Ratio (x) = 0.40673 0.79518
# Poissons Ratio (y) = 0.94415 0.38693
# Poissons Ratio (z) = 0.39280 0.08234
#
# Static dielectric constant tensor:
#      x y z
#    x 1.588520 0.000000 0.000000 
#    y 0.000000 1.592710 0.000000 
#    z 0.000000 0.000000 1.578350 
# 
# From -- ./inp_files/24699.got.cif
#   From: 2010.05.17/outbox.cif.g08.bks.cpg/sg51_13_cif.got.tgz:24699.got - 2010.06.03 11:52:47.
