data_PCOD9406822
_publ_section_title
;
Structure prediction by ZEFSAII (Michael W. Deem and Ramdas Pophale) SiO2 
 PCOD9406822
Probable space group: P M M A
;
_chemical_formula_sum "Si O2"
_cell_formula_units_Z 48
_cell_length_a 8.822114
_cell_length_b 17.724174
_cell_length_c 15.387646
_cell_angle_alpha 90.000000
_cell_angle_beta 90.000000
_cell_angle_gamma 90.000000
_cell_volume 2406.084398
_symmetry_space_group_name_H-M "P M M A"
_symmetry_group_IT_number 51
_symmetry_cell_setting 'orthorhombic'
loop_
_space_group_symop_operation_xyz
x,y,z
1/2-x,-y,z
1/2+x,-y,-z
-x,y,-z
-x,-y,-z
1/2+x,y,-z
1/2-x,y,z
x,-y,z
loop_
_atom_site_type_symbol
_atom_site_label
_atom_site_fract_x
_atom_site_fract_y
_atom_site_fract_z
Si Si1 0.075450 0.586182 0.358872
Si Si2 0.432577 0.000000 0.597794
Si Si3 0.576503 0.351742 0.836160
Si Si4 0.932109 0.195944 0.096015
Si Si5 0.932407 0.143237 0.282263
Si Si6 0.066958 0.740635 0.412987
Si Si7 0.926991 0.500000 0.092090
O O1 0.250000 0.578418 0.388670
O O2 0.012897 0.500000 0.357007
O O3 0.083547 0.627105 0.265383
O O4 0.001347 0.654929 0.410630
O O5 0.500000 0.000000 0.500000
O O6 0.474611 0.071888 0.657845
O O7 0.250000 0.000000 0.588649
O O8 0.750000 0.350462 0.868740
O O9 0.495893 0.276379 0.869737
O O10 0.485456 0.423620 0.867326
O O11 0.750000 0.199204 0.087776
O O12 0.969266 0.141279 0.178844
O O13 0.000000 0.178984 0.000000
O O14 0.750000 0.152552 0.287449
O O15 0.012095 0.213747 0.328929
O O16 0.250000 0.739975 0.415539
O O17 0.000000 0.777906 0.500000
O O18 0.750000 0.500000 0.090243
O O19 0.000000 0.500000 0.000000
#
# Coordination Sequence:
#
# PCOD9406822 Si02
#       7
#     8   4   8   8   8   8   4
#     4   9  18  34  56  80 109 149 197 247 301 355
#     4  10  22  42  67  98 130 162 197 244 303 360
#     4  11  20  36  58  80 109 150 199 254 308 362
#     4  11  23  39  60  88 121 158 201 248 298 359
#     4  10  22  41  65  92 125 160 200 249 301 360
#     4  11  22  37  60  88 119 157 200 249 304 365
#     4  12  24  36  50  76 109 148 197 254 313 367
#
# _framework density 19.949425000000002
#
# number of rings (size 3 to 8) (size 9 to 14) (size 15 to 20)
#    0.000    1.500    2.500    3.250    0.000    3.000 
#    0.000    0.417    0.000    0.000    0.000    0.000 
#    0.000    0.000    0.000    0.000    0.000    0.000 
#
# Total GULP energy -267361.127242 kJ/mol
# GULP energy per Si atom -5570.023484 kJ/mol
# Density = 1.990402 g / cm^3
# Si number density = 19.949425 Si / 1000 Ang^3
#
#
#
# Elastic Constant Matrix: (Units=GPa)
#
#
# Indices 1 2 3 4 5 6 
#
# 1 61.0984 30.1070 48.1358 0.0000 0.0000 0.0000
# 2 30.1070 118.5704 55.0316 0.0000 0.0000 0.0000
# 3 48.1358 55.0316 151.1761 0.0000 0.0000 0.0000
# 4 0.0000 0.0000 0.0000 -2.2514 0.0000 0.0000
# 5 0.0000 0.0000 0.0000 0.0000 13.8941 0.0000
# 6 0.0000 0.0000 0.0000 0.0000 0.0000 19.6252
#
#
#
# Elastic Compliance Matrix: (Units=1/GPa)
#
#
# Indices 1 2 3 4 5 6 
#
# 1 0.022643 -0.002892 -0.006157 0.000000 0.000000 0.000000
# 2 -0.002892 0.010518 -0.002908 0.000000 0.000000 0.000000
# 3 -0.006157 -0.002908 0.009634 0.000000 0.000000 0.000000
# 4 0.000000 0.000000 0.000000 -0.444159 0.000000 0.000000
# 5 0.000000 0.000000 0.000000 0.000000 0.071973 0.000000
# 6 0.000000 0.000000 0.000000 0.000000 0.000000 0.050955
#
#
# Mechanical properties :
#
#
# Convention : Reuss Voigt Hill
#
# Bulk Modulus (GPa) = 52.96359 66.37710 59.67034
# Shear Modulus (GPa) = -20.14257 19.42494 -0.35881
#
# Velocity S-wave (km/s) = -3.18100 3.12382 -0.42456
# Velocity P-wave (km/s) = 3.62145 6.80852 5.45302
#
# Compressibility (1/GPa) = 0.01888090
#
# Stress axis : x y z
#
# Youngs Moduli (GPa) = 44.16434 95.07766 103.80123
#
# Poissons Ratio (x) = 0.27494 0.63910
# Poissons Ratio (y) = 0.12771 0.30185
# Poissons Ratio (z) = 0.27192 0.27648
#
# Static dielectric constant tensor:
#      x y z
#    x 1.674400 0.000000 0.000000 
#    y 0.000000 1.698260 0.000000 
#    z 0.000000 0.000000 1.804500 
# 
# From -- ./inp_files/21156.got.cif
#   From: 2010.05.17/outbox.cif.g08.bks.cpg/sg51_11_cif.got.tgz:21156.got - 2010.06.03 11:52:47.
