data_PCOD9406887
_publ_section_title
;
Structure prediction by ZEFSAII (Michael W. Deem and Ramdas Pophale) SiO2 
 PCOD9406887
Probable space group: P M M A
;
_chemical_formula_sum "Si O2"
_cell_formula_units_Z 40
_cell_length_a 8.511117
_cell_length_b 12.023785
_cell_length_c 21.127764
_cell_angle_alpha 90.000000
_cell_angle_beta 90.000000
_cell_angle_gamma 90.000000
_cell_volume 2162.127496
_symmetry_space_group_name_H-M "P M M A"
_symmetry_group_IT_number 51
_symmetry_cell_setting 'orthorhombic'
loop_
_space_group_symop_operation_xyz
x,y,z
1/2-x,-y,z
1/2+x,-y,-z
-x,y,-z
-x,-y,-z
1/2+x,y,-z
1/2-x,y,z
x,-y,z
loop_
_atom_site_type_symbol
_atom_site_label
_atom_site_fract_x
_atom_site_fract_y
_atom_site_fract_z
Si Si1 0.562867 0.742515 0.433897
Si Si2 0.939458 0.869889 0.306480
Si Si3 0.438526 0.628690 0.068542
Si Si4 0.067668 0.500000 0.726292
Si Si5 0.561889 0.711517 0.797967
Si Si6 0.568329 0.500000 0.590849
O O1 0.500000 0.790945 0.500000
O O2 0.750000 0.748475 0.434629
O O3 0.507692 0.803887 0.369759
O O4 0.511037 0.614041 0.430909
O O5 0.750000 0.856973 0.301922
O O6 0.015362 0.817378 0.243792
O O7 0.975005 0.000000 0.312774
O O8 0.250000 0.626109 0.065787
O O9 0.491549 0.500000 0.079983
O O10 0.482201 0.705935 0.127890
O O11 0.500000 0.663614 0.000000
O O12 0.250000 0.500000 0.705627
O O13 0.028595 0.391208 0.766169
O O14 0.954441 0.500000 0.666192
O O15 0.750000 0.693453 0.793599
O O16 0.750000 0.500000 0.572175
#
# Coordination Sequence:
#
# PCOD9406887 Si02
#       6
#     8   8   8   4   8   4
#     4  11  23  39  59  84 115 150 188 231 284 342
#     4  10  23  42  61  82 110 147 194 242 286 337
#     4   9  18  32  50  80 119 154 185 223 272 331
#     4  12  22  33  54  85 116 151 188 227 282 345
#     4  11  21  36  58  85 117 150 189 236 282 334
#     4  12  23  37  58  85 118 149 184 231 280 341
#
# _framework density 18.500295999999999
#
# number of rings (size 3 to 8) (size 9 to 14) (size 15 to 20)
#    0.000    1.400    3.000    3.300    0.000    3.200 
#    0.000    0.000    0.000    0.600    0.000    0.000 
#    0.000    0.000    0.000    0.000    0.000    0.000 
#
# Total GULP energy -223368.542643 kJ/mol
# GULP energy per Si atom -5584.213566 kJ/mol
# Density = 1.845819 g / cm^3
# Si number density = 18.500296 Si / 1000 Ang^3
#
#
#
# Elastic Constant Matrix: (Units=GPa)
#
#
# Indices 1 2 3 4 5 6 
#
# 1 38.5248 19.9145 23.3810 0.0000 0.0000 0.0000
# 2 19.9145 85.4213 55.3187 0.0000 0.0000 0.0000
# 3 23.3810 55.3187 172.3672 0.0000 0.0000 0.0000
# 4 0.0000 0.0000 0.0000 14.2745 0.0000 0.0000
# 5 0.0000 0.0000 0.0000 0.0000 32.9073 0.0000
# 6 0.0000 0.0000 0.0000 0.0000 0.0000 13.7884
#
#
#
# Elastic Compliance Matrix: (Units=1/GPa)
#
#
# Indices 1 2 3 4 5 6 
#
# 1 0.030232 -0.005545 -0.002321 0.000000 0.000000 0.000000
# 2 -0.005545 0.015795 -0.004317 0.000000 0.000000 0.000000
# 3 -0.002321 -0.004317 0.007502 0.000000 0.000000 0.000000
# 4 0.000000 0.000000 0.000000 0.070055 0.000000 0.000000
# 5 0.000000 0.000000 0.000000 0.000000 0.030388 0.000000
# 6 0.000000 0.000000 0.000000 0.000000 0.000000 0.072525
#
#
# Mechanical properties :
#
#
# Convention : Reuss Voigt Hill
#
# Bulk Modulus (GPa) = 34.29013 54.83796 44.56405
# Shear Modulus (GPa) = 19.18757 25.37397 22.28077
#
# Velocity S-wave (km/s) = 3.22397 3.70745 3.47413
# Velocity P-wave (km/s) = 5.69507 6.93058 6.34298
#
# Compressibility (1/GPa) = 0.02916291
#
# Stress axis : x y z
#
# Youngs Moduli (GPa) = 33.07699 63.31074 133.29862
#
# Poissons Ratio (x) = 0.35105 0.30944
# Poissons Ratio (y) = 0.18341 0.57546
# Poissons Ratio (z) = 0.07678 0.27332
#
# Static dielectric constant tensor:
#      x y z
#    x 1.652730 0.000000 0.000000 
#    y 0.000000 1.618990 0.000000 
#    z 0.000000 0.000000 1.665780 
# 
# From -- ./inp_files/31417.got.cif
#   From: 2010.05.17/outbox.cif.g08.bks.cpg/sg51_16_cif.got.tgz:31417.got - 2010.06.03 11:52:47.
