data_PCOD9406507
_publ_section_title
;
Structure prediction by ZEFSAII (Michael W. Deem and Ramdas Pophale) SiO2 
 PCOD9406507
Probable space group: P M M A
;
_chemical_formula_sum "Si O2"
_cell_formula_units_Z 64
_cell_length_a 24.222630
_cell_length_b 8.726061
_cell_length_c 15.785165
_cell_angle_alpha 90.000000
_cell_angle_beta 90.000000
_cell_angle_gamma 90.000000
_cell_volume 3336.481076
_symmetry_space_group_name_H-M "P M M A"
_symmetry_group_IT_number 51
_symmetry_cell_setting 'orthorhombic'
loop_
_space_group_symop_operation_xyz
x,y,z
1/2-x,-y,z
1/2+x,-y,-z
-x,y,-z
-x,-y,-z
1/2+x,y,-z
1/2-x,y,z
x,-y,z
loop_
_atom_site_type_symbol
_atom_site_label
_atom_site_fract_x
_atom_site_fract_y
_atom_site_fract_z
Si Si1 0.115523 0.182075 0.095312
Si Si2 0.622744 0.183043 0.589187
Si Si3 0.121028 0.315346 0.915687
Si Si4 0.313146 0.313323 0.748195
Si Si5 0.685266 0.683022 0.749397
Si Si6 0.999508 0.316576 0.848272
Si Si7 0.000981 0.816619 0.340922
Si Si8 0.610580 0.316103 0.409721
O O1 0.151153 0.252533 0.171381
O O2 0.052833 0.240224 0.107351
O O3 0.116949 0.000000 0.101113
O O4 0.136180 0.238911 0.004170
O O5 0.661596 0.243932 0.663662
O O6 0.559654 0.219531 0.616386
O O7 0.633957 0.260715 0.499216
O O8 0.627540 0.000000 0.582013
O O9 0.124902 0.500000 0.924130
O O10 0.158725 0.266717 0.836510
O O11 0.057618 0.278241 0.892084
O O12 0.250000 0.261431 0.741319
O O13 0.312982 0.500000 0.748071
O O14 0.350546 0.266772 0.668521
O O15 0.750000 0.717261 0.758848
O O16 0.678030 0.500000 0.745651
O O17 0.992980 0.500000 0.850553
O O18 0.001410 0.260849 0.751277
O O19 0.949615 0.756254 0.394980
O O20 0.997382 0.000000 0.331593
O O21 0.606094 0.500000 0.408238
#
# Coordination Sequence:
#
# PCOD9406507 Si02
#       8
#     8   8   8   8   8   8   8   8
#     4  12  25  40  61  93 128 163 198 245 312 374
#     4  11  24  41  62  92 126 162 200 251 315 371
#     4  10  21  39  62  91 122 160 207 254 303 357
#     4   9  19  38  62  87 117 155 204 257 302 347
#     4  11  25  45  68  91 117 159 213 261 304 360
#     4  11  21  37  63  92 123 159 205 254 301 364
#     4  11  22  37  60  90 126 163 200 249 313 374
#     4  11  22  38  62  93 124 163 209 254 305 365
#
# _framework density 19.181885999999999
#
# number of rings (size 3 to 8) (size 9 to 14) (size 15 to 20)
#    0.000    1.250    2.500    3.750    0.000    7.500 
#    0.000    2.500    0.000    2.625    0.000    0.000 
#    0.000    0.000    0.000    0.000    0.000    0.000 
#
# Total GULP energy -357955.342151 kJ/mol
# GULP energy per Si atom -5593.052221 kJ/mol
# Density = 1.913823 g / cm^3
# Si number density = 19.181886 Si / 1000 Ang^3
#
#
#
# Elastic Constant Matrix: (Units=GPa)
#
#
# Indices 1 2 3 4 5 6 
#
# 1 77.2726 27.6491 8.8632 0.0000 0.0000 0.0000
# 2 27.6491 25.6104 6.9225 0.0000 0.0000 0.0000
# 3 8.8632 6.9225 95.6162 0.0000 0.0000 0.0000
# 4 0.0000 0.0000 0.0000 -98.2151 0.0000 0.0000
# 5 0.0000 0.0000 0.0000 0.0000 3.0565 0.0000
# 6 0.0000 0.0000 0.0000 0.0000 0.0000 -20.6149
#
#
#
# Elastic Compliance Matrix: (Units=1/GPa)
#
#
# Indices 1 2 3 4 5 6 
#
# 1 0.021096 -0.022691 -0.000313 0.000000 0.000000 0.000000
# 2 -0.022691 0.064233 -0.002547 0.000000 0.000000 0.000000
# 3 -0.000313 -0.002547 0.010672 0.000000 0.000000 0.000000
# 4 0.000000 0.000000 0.000000 -0.010182 0.000000 0.000000
# 5 0.000000 0.000000 0.000000 0.000000 0.327167 0.000000
# 6 0.000000 0.000000 0.000000 0.000000 0.000000 -0.048509
#
#
# Mechanical properties :
#
#
# Convention : Reuss Voigt Hill
#
# Bulk Modulus (GPa) = 22.27216 31.70763 26.98990
# Shear Modulus (GPa) = 11.61319 -12.81707 -0.60194
#
# Velocity S-wave (km/s) = 2.46321 -2.58773 -0.56079
# Velocity P-wave (km/s) = 4.44141 2.76358 3.69888
#
# Compressibility (1/GPa) = 0.04489910
#
# Stress axis : x y z
#
# Youngs Moduli (GPa) = 47.40184 15.56842 93.70430
#
# Poissons Ratio (x) = 0.35326 0.02930
# Poissons Ratio (y) = 1.07560 0.23866
# Poissons Ratio (z) = 0.01482 0.03965
#
# Static dielectric constant tensor:
#      x y z
#    x 1.651690 0.000000 0.000000 
#    y 0.000000 1.643180 0.000000 
#    z 0.000000 0.000000 1.653190 
# 
# From -- ./inp_files/26235.got.cif
#   From: 2010.05.17/outbox.cif.g08.bks.cpg/sg51_14_cif.got.tgz:26235.got - 2010.06.03 11:52:47.
