data_PCOD9406478
_publ_section_title
;
Structure prediction by ZEFSAII (Michael W. Deem and Ramdas Pophale) SiO2 
 PCOD9406478
Probable space group: P M M A
;
_chemical_formula_sum "Si O2"
_cell_formula_units_Z 40
_cell_length_a 14.734767
_cell_length_b 8.590772
_cell_length_c 17.707610
_cell_angle_alpha 90.000000
_cell_angle_beta 90.000000
_cell_angle_gamma 90.000000
_cell_volume 2241.482818
_symmetry_space_group_name_H-M "P M M A"
_symmetry_group_IT_number 51
_symmetry_cell_setting 'orthorhombic'
loop_
_space_group_symop_operation_xyz
x,y,z
1/2-x,-y,z
1/2+x,-y,-z
-x,y,-z
-x,-y,-z
1/2+x,y,-z
1/2-x,y,z
x,-y,z
loop_
_atom_site_type_symbol
_atom_site_label
_atom_site_fract_x
_atom_site_fract_y
_atom_site_fract_z
Si Si1 0.250000 0.313960 0.477281
Si Si2 0.250000 0.686683 0.652787
Si Si3 0.014257 0.311747 0.878099
Si Si4 0.559491 0.812182 0.572524
Si Si5 0.938679 0.186505 0.285667
Si Si6 0.353551 0.689506 0.013173
O O1 0.250000 0.500000 0.477571
O O2 0.250000 0.260111 0.565069
O O3 0.159710 0.253457 0.437201
O O4 0.250000 0.500000 0.653871
O O5 0.340153 0.747322 0.693347
O O6 0.014812 0.500000 0.873457
O O7 0.029533 0.242891 0.796017
O O8 0.919805 0.263993 0.918193
O O9 0.094931 0.265768 0.935923
O O10 0.500000 0.762856 0.500000
O O11 0.508447 0.762665 0.648648
O O12 0.563955 0.000000 0.571842
O O13 0.934083 0.000000 0.287035
O O14 0.250000 0.744889 0.017841
O O15 0.351675 0.500000 0.013673
#
# Coordination Sequence:
#
# PCOD9406478 Si02
#       6
#     4   4   8   8   8   8
#     4  11  23  37  59  87 110 139 188 247 289 322
#     4  11  23  37  57  85 114 143 180 233 289 334
#     4   9  18  33  55  82 110 142 184 229 274 327
#     4  10  21  39  60  78 109 157 193 221 271 341
#     4  11  23  38  57  83 114 149 188 230 275 332
#     4   8  15  31  55  80 108 145 185 222 270 336
#
# _framework density 17.845330000000001
#
# number of rings (size 3 to 8) (size 9 to 14) (size 15 to 20)
#    0.000    2.200    2.000    2.400    1.400    2.800 
#    1.800    2.000    0.000    1.200    0.000    0.000 
#    0.000    0.000    0.000    0.000    0.000    0.000 
#
# Total GULP energy -223271.559866 kJ/mol
# GULP energy per Si atom -5581.788997 kJ/mol
# Density = 1.780471 g / cm^3
# Si number density = 17.845330 Si / 1000 Ang^3
#
#
#
# Elastic Constant Matrix: (Units=GPa)
#
#
# Indices 1 2 3 4 5 6 
#
# 1 204.6309 33.5491 113.5050 0.0000 0.0000 0.0000
# 2 33.5491 21.6948 37.1773 0.0000 0.0000 0.0000
# 3 113.5050 37.1773 186.2184 0.0000 0.0000 0.0000
# 4 0.0000 0.0000 0.0000 28.4134 0.0000 0.0000
# 5 0.0000 0.0000 0.0000 0.0000 12.7006 0.0000
# 6 0.0000 0.0000 0.0000 0.0000 0.0000 1.4606
#
#
#
# Elastic Compliance Matrix: (Units=1/GPa)
#
#
# Indices 1 2 3 4 5 6 
#
# 1 0.007865 -0.006000 -0.003596 0.000000 0.000000 0.000000
# 2 -0.006000 0.074642 -0.011244 0.000000 0.000000 0.000000
# 3 -0.003596 -0.011244 0.009807 0.000000 0.000000 0.000000
# 4 0.000000 0.000000 0.000000 0.035195 0.000000 0.000000
# 5 0.000000 0.000000 0.000000 0.000000 0.078736 0.000000
# 6 0.000000 0.000000 0.000000 0.000000 0.000000 0.684631
#
#
# Mechanical properties :
#
#
# Convention : Reuss Voigt Hill
#
# Bulk Modulus (GPa) = 19.75021 86.77854 53.26437
# Shear Modulus (GPa) = 5.26629 23.73578 14.50103
#
# Velocity S-wave (km/s) = 1.71973 3.65099 2.85370
# Velocity P-wave (km/s) = 3.87747 8.15516 6.38520
#
# Compressibility (1/GPa) = 0.05063238
#
# Stress axis : x y z
#
# Youngs Moduli (GPa) = 127.13981 13.39723 101.96928
#
# Poissons Ratio (x) = 0.08039 0.36670
# Poissons Ratio (y) = 0.76290 1.14658
# Poissons Ratio (z) = 0.45722 0.15064
#
# Static dielectric constant tensor:
#      x y z
#    x 1.590480 0.000000 0.000000 
#    y 0.000000 1.602390 0.000000 
#    z 0.000000 0.000000 1.590350 
# 
# From -- ./inp_files/23762.got.cif
#   From: 2010.05.17/outbox.cif.g08.bks.cpg/sg51_12_cif.got.tgz:23762.got - 2010.06.03 11:52:47.
