data_PCOD9406397
_publ_section_title
;
Structure prediction by ZEFSAII (Michael W. Deem and Ramdas Pophale) SiO2 
 PCOD9406397
Probable space group: P M M A
;
_chemical_formula_sum "Si O2"
_cell_formula_units_Z 48
_cell_length_a 8.634559
_cell_length_b 32.393234
_cell_length_c 9.308882
_cell_angle_alpha 90.000000
_cell_angle_beta 90.000000
_cell_angle_gamma 90.000000
_cell_volume 2603.706305
_symmetry_space_group_name_H-M "P M M A"
_symmetry_group_IT_number 51
_symmetry_cell_setting 'orthorhombic'
loop_
_space_group_symop_operation_xyz
x,y,z
1/2-x,-y,z
1/2+x,-y,-z
-x,y,-z
-x,-y,-z
1/2+x,y,-z
1/2-x,y,z
x,-y,z
loop_
_atom_site_type_symbol
_atom_site_label
_atom_site_fract_x
_atom_site_fract_y
_atom_site_fract_z
Si Si1 0.434819 0.280346 0.837446
Si Si2 0.064619 0.877863 0.159365
Si Si3 0.064467 0.047375 0.659170
Si Si4 0.063034 0.544395 0.163328
Si Si5 0.436458 0.633758 0.163627
Si Si6 0.563876 0.796759 0.660692
O O1 0.250000 0.280166 0.843591
O O2 0.492891 0.324288 0.774615
O O3 0.496900 0.242480 0.744751
O O4 0.500000 0.276680 0.000000
O O5 0.250000 0.879473 0.154745
O O6 0.018535 0.838596 0.256048
O O7 0.001698 0.919545 0.230817
O O8 0.000000 0.872772 0.000000
O O9 0.250000 0.050027 0.656085
O O10 0.000000 0.056231 0.500000
O O11 0.020936 0.000000 0.695088
O O12 0.250000 0.544586 0.157176
O O13 0.014332 0.500000 0.228482
O O14 0.018180 0.588949 0.228299
O O15 0.000000 0.544268 0.000000
O O16 0.250000 0.637124 0.161423
O O17 0.500000 0.632700 0.000000
O O18 0.500000 0.797852 0.500000
O O19 0.750000 0.794228 0.658751
#
# Coordination Sequence:
#
# PCOD9406397 Si02
#       6
#     8   8   8   8   8   8
#     4  11  21  34  53  76 104 138 176 219 266 317
#     4  11  24  40  61  87 116 149 185 227 272 321
#     4  10  21  38  61  88 119 155 193 232 274 321
#     4   8  13  20  31  50  79 117 159 201 247 300
#     4   9  15  24  39  60  89 125 165 209 256 308
#     4  11  24  41  60  83 109 139 176 218 268 323
#
# _framework density 18.43526
#
# number of rings (size 3 to 8) (size 9 to 14) (size 15 to 20)
#    0.000    2.000    0.000    5.500    0.000    7.333 
#    0.000    0.000    0.000    0.000    0.000    0.000 
#    0.000    0.667    0.000    1.833    0.000    8.500 
#
# Total GULP energy -267766.911651 kJ/mol
# GULP energy per Si atom -5578.477326 kJ/mol
# Density = 1.839330 g / cm^3
# Si number density = 18.435260 Si / 1000 Ang^3
#
#
#
# Elastic Constant Matrix: (Units=GPa)
#
#
# Indices 1 2 3 4 5 6 
#
# 1 70.3245 56.0767 35.1415 0.0000 0.0000 0.0000
# 2 56.0767 176.6346 85.3111 0.0000 0.0000 0.0000
# 3 35.1415 85.3111 87.1292 0.0000 0.0000 0.0000
# 4 0.0000 0.0000 0.0000 -26.0286 0.0000 0.0000
# 5 0.0000 0.0000 0.0000 0.0000 25.5651 0.0000
# 6 0.0000 0.0000 0.0000 0.0000 0.0000 74.5055
#
#
#
# Elastic Compliance Matrix: (Units=1/GPa)
#
#
# Indices 1 2 3 4 5 6 
#
# 1 0.019566 -0.004554 -0.003433 0.000000 0.000000 0.000000
# 2 -0.004554 0.011801 -0.009718 0.000000 0.000000 0.000000
# 3 -0.003433 -0.009718 0.022377 0.000000 0.000000 0.000000
# 4 0.000000 0.000000 0.000000 -0.038419 0.000000 0.000000
# 5 0.000000 0.000000 0.000000 0.000000 0.039116 0.000000
# 6 0.000000 0.000000 0.000000 0.000000 0.000000 0.013422
#
#
# Mechanical properties :
#
#
# Convention : Reuss Voigt Hill
#
# Bulk Modulus (GPa) = 54.54058 76.34965 65.44512
# Shear Modulus (GPa) = 45.71120 25.31232 35.51176
#
# Velocity S-wave (km/s) = 4.98491 3.70947 4.39372
# Velocity P-wave (km/s) = 7.92349 7.73640 7.83050
#
# Compressibility (1/GPa) = 0.01833497
#
# Stress axis : x y z
#
# Youngs Moduli (GPa) = 51.10799 84.74186 44.68942
#
# Poissons Ratio (x) = 0.38590 0.15341
# Poissons Ratio (y) = 0.23273 0.43428
# Poissons Ratio (z) = 0.17545 0.82349
#
# Static dielectric constant tensor:
#      x y z
#    x 1.617820 0.000000 0.000000 
#    y 0.000000 1.689910 0.000000 
#    z 0.000000 0.000000 1.597160 
# 
# From -- ./inp_files/6083.got.cif
#   From: 2010.05.17/outbox.cif.g08.bks.cpg/sg51_4_cif.got.tgz:6083.got - 2010.06.03 11:52:47.
