data_PCOD9406072
_publ_section_title
;
Structure prediction by ZEFSAII (Michael W. Deem and Ramdas Pophale) SiO2 
 PCOD9406072
Probable space group: P M M A
;
_chemical_formula_sum "Si O2"
_cell_formula_units_Z 40
_cell_length_a 17.397464
_cell_length_b 9.279172
_cell_length_c 12.961559
_cell_angle_alpha 90.000000
_cell_angle_beta 90.000000
_cell_angle_gamma 90.000000
_cell_volume 2092.437104
_symmetry_space_group_name_H-M "P M M A"
_symmetry_group_IT_number 51
_symmetry_cell_setting 'orthorhombic'
loop_
_space_group_symop_operation_xyz
x,y,z
1/2-x,-y,z
1/2+x,-y,-z
-x,y,-z
-x,-y,-z
1/2+x,y,-z
1/2-x,y,z
x,-y,z
loop_
_atom_site_type_symbol
_atom_site_label
_atom_site_fract_x
_atom_site_fract_y
_atom_site_fract_z
Si Si1 0.661110 0.669565 0.013556
Si Si2 0.342381 0.831675 0.565505
Si Si3 0.157446 0.668858 0.357664
Si Si4 0.603703 0.830935 0.208020
Si Si5 0.422400 0.830828 0.168749
O O1 0.750000 0.687223 0.981229
O O2 0.643159 0.500000 0.012986
O O3 0.649673 0.735341 0.126818
O O4 0.607144 0.753956 0.934310
O O5 0.250000 0.820923 0.577678
O O6 0.365321 0.735915 0.467945
O O7 0.380401 0.789451 0.673688
O O8 0.360716 0.000000 0.544809
O O9 0.250000 0.683062 0.348772
O O10 0.138403 0.500000 0.351651
O O11 0.118102 0.755521 0.265697
O O12 0.513869 0.817833 0.181711
O O13 0.625854 0.000000 0.197587
O O14 0.402951 0.000000 0.165175
#
# Coordination Sequence:
#
# PCOD9406072 Si02
#       5
#     8   8   8   8   8
#     4  11  24  40  59  84 113 146 186 231 279 333
#     4   9  18  35  59  83 109 145 187 229 274 326
#     4  10  21  37  57  82 113 148 188 233 278 328
#     4  10  22  39  59  85 115 147 186 231 278 331
#     4  11  23  38  58  84 114 148 187 231 279 332
#
# _framework density 19.116464000000001
#
# number of rings (size 3 to 8) (size 9 to 14) (size 15 to 20)
#    0.000    1.800    0.000    3.600    0.000   11.600 
#    0.000    6.000    0.000    0.000    0.000    0.000 
#    0.000    0.000    0.000    0.000    0.000    0.000 
#
# Total GULP energy -223606.729471 kJ/mol
# GULP energy per Si atom -5590.168237 kJ/mol
# Density = 1.907295 g / cm^3
# Si number density = 19.116464 Si / 1000 Ang^3
#
#
#
# Elastic Constant Matrix: (Units=GPa)
#
#
# Indices 1 2 3 4 5 6 
#
# 1 20.0084 33.1285 14.2071 0.0000 0.0000 0.0000
# 2 33.1285 88.5568 40.1594 0.0000 0.0000 0.0000
# 3 14.2071 40.1594 81.0535 0.0000 0.0000 0.0000
# 4 0.0000 0.0000 0.0000 231.5970 0.0000 0.0000
# 5 0.0000 0.0000 0.0000 0.0000 10.2188 0.0000
# 6 0.0000 0.0000 0.0000 0.0000 0.0000 13.2530
#
#
#
# Elastic Compliance Matrix: (Units=1/GPa)
#
#
# Indices 1 2 3 4 5 6 
#
# 1 0.131498 -0.049967 0.001708 0.000000 0.000000 0.000000
# 2 -0.049967 0.033551 -0.007865 0.000000 0.000000 0.000000
# 3 0.001708 -0.007865 0.015935 0.000000 0.000000 0.000000
# 4 0.000000 0.000000 0.000000 0.004318 0.000000 0.000000
# 5 0.000000 0.000000 0.000000 0.000000 0.097859 0.000000
# 6 0.000000 0.000000 0.000000 0.000000 0.000000 0.075455
#
#
# Mechanical properties :
#
#
# Convention : Reuss Voigt Hill
#
# Bulk Modulus (GPa) = 14.54848 40.51208 27.53028
# Shear Modulus (GPa) = 10.12602 57.82199 33.97401
#
# Velocity S-wave (km/s) = 2.30402 5.50571 4.22027
# Velocity P-wave (km/s) = 3.83471 7.85210 6.17901
#
# Compressibility (1/GPa) = 0.06873571
#
# Stress axis : x y z
#
# Youngs Moduli (GPa) = 7.60467 29.80503 62.75430
#
# Poissons Ratio (x) = 1.48927 -0.10718
# Poissons Ratio (y) = 0.37998 0.49358
# Poissons Ratio (z) = -0.01299 0.23443
#
# Static dielectric constant tensor:
#      x y z
#    x 1.655140 0.000000 0.000000 
#    y 0.000000 1.637970 0.000000 
#    z 0.000000 0.000000 1.635590 
# 
# From -- ./inp_files/17050.got.cif
#   From: 2010.05.17/outbox.cif.g08.bks.cpg/sg51_9_cif.got.tgz:17050.got - 2010.06.03 11:52:47.
