data_PCOD9406762
_publ_section_title
;
Structure prediction by ZEFSAII (Michael W. Deem and Ramdas Pophale) SiO2 
 PCOD9406762
Probable space group: P M M A
;
_chemical_formula_sum "Si O2"
_cell_formula_units_Z 40
_cell_length_a 18.115831
_cell_length_b 7.702662
_cell_length_c 12.967984
_cell_angle_alpha 90.000000
_cell_angle_beta 90.000000
_cell_angle_gamma 90.000000
_cell_volume 1809.554083
_symmetry_space_group_name_H-M "P M M A"
_symmetry_group_IT_number 51
_symmetry_cell_setting 'orthorhombic'
loop_
_space_group_symop_operation_xyz
x,y,z
1/2-x,-y,z
1/2+x,-y,-z
-x,y,-z
-x,-y,-z
1/2+x,y,-z
1/2-x,y,z
x,-y,z
loop_
_atom_site_type_symbol
_atom_site_label
_atom_site_fract_x
_atom_site_fract_y
_atom_site_fract_z
Si Si1 0.055778 0.799955 0.655589
Si Si2 0.605234 0.299962 0.717214
Si Si3 0.669238 0.202633 0.506226
Si Si4 0.663411 0.289568 0.162122
Si Si5 0.836018 0.289033 0.931549
O O1 0.101074 0.722992 0.558989
O O2 0.112177 0.789776 0.750852
O O3 0.980139 0.709733 0.686418
O O4 0.035466 0.000000 0.632765
O O5 0.629451 0.500000 0.718238
O O6 0.651830 0.212478 0.626828
O O7 0.619010 0.228486 0.832003
O O8 0.750000 0.279266 0.483491
O O9 0.672021 0.000000 0.476137
O O10 0.750000 0.247127 0.177058
O O11 0.657087 0.500000 0.167962
O O12 0.641533 0.232302 0.046305
O O13 0.750000 0.243600 0.916944
O O14 0.840284 0.500000 0.935028
#
# Coordination Sequence:
#
# PCOD9406762 Si02
#       5
#     8   8   8   8   8
#     4  11  23  38  55  78 113 151 183 219 269 326
#     4  11  22  36  57  84 112 142 181 228 273 319
#     4  10  22  40  59  78 105 143 182 221 272 331
#     4   9  18  35  59  83 107 139 182 228 270 318
#     4   8  16  33  56  81 109 141 177 221 275 327
#
# _framework density 22.104892
#
# number of rings (size 3 to 8) (size 9 to 14) (size 15 to 20)
#    0.000    2.200    0.000    4.200    0.000    7.200 
#    0.000    6.000    0.000    2.400    0.000    0.000 
#    0.000    0.000    0.000    0.000    0.000    0.000 
#
# Total GULP energy -223457.214529 kJ/mol
# GULP energy per Si atom -5586.430363 kJ/mol
# Density = 2.205458 g / cm^3
# Si number density = 22.104892 Si / 1000 Ang^3
#
#
#
# Elastic Constant Matrix: (Units=GPa)
#
#
# Indices 1 2 3 4 5 6 
#
# 1 41.1231 -6.5559 13.0611 0.0000 0.0000 0.0000
# 2 -6.5559 36.8887 -6.0564 0.0000 0.0000 0.0000
# 3 13.0611 -6.0564 92.1842 0.0000 0.0000 0.0000
# 4 0.0000 0.0000 0.0000 25.8629 0.0000 0.0000
# 5 0.0000 0.0000 0.0000 0.0000 279.5321 0.0000
# 6 0.0000 0.0000 0.0000 0.0000 0.0000 9.4941
#
#
#
# Elastic Compliance Matrix: (Units=1/GPa)
#
#
# Indices 1 2 3 4 5 6 
#
# 1 0.026053 0.004068 -0.003424 0.000000 0.000000 0.000000
# 2 0.004068 0.028039 0.001266 0.000000 0.000000 0.000000
# 3 -0.003424 0.001266 0.011416 0.000000 0.000000 0.000000
# 4 0.000000 0.000000 0.000000 0.038665 0.000000 0.000000
# 5 0.000000 0.000000 0.000000 0.000000 0.003577 0.000000
# 6 0.000000 0.000000 0.000000 0.000000 0.000000 0.105328
#
#
# Mechanical properties :
#
#
# Convention : Reuss Voigt Hill
#
# Bulk Modulus (GPa) = 14.42412 19.01041 16.71726
# Shear Modulus (GPa) = 21.51740 74.29429 47.90584
#
# Velocity S-wave (km/s) = 3.12336 5.80369 4.66038
# Velocity P-wave (km/s) = 4.42116 7.31637 6.04466
#
# Compressibility (1/GPa) = 0.06932830
#
# Stress axis : x y z
#
# Youngs Moduli (GPa) = 38.38287 35.66413 87.59526
#
# Poissons Ratio (x) = -0.14508 0.29993
# Poissons Ratio (y) = -0.15614 -0.11087
# Poissons Ratio (z) = 0.13143 -0.04514
#
# Static dielectric constant tensor:
#      x y z
#    x 1.787810 0.000000 0.000000 
#    y 0.000000 1.822900 0.000000 
#    z 0.000000 0.000000 1.814460 
# 
# From -- ./inp_files/17062.got.cif
#   From: 2010.05.17/outbox.cif.g08.bks.cpg/sg51_9_cif.got.tgz:17062.got - 2010.06.03 11:52:47.
