data_PCOD9406552
_publ_section_title
;
Structure prediction by ZEFSAII (Michael W. Deem and Ramdas Pophale) SiO2 
 PCOD9406552
Probable space group: P M M A
;
_chemical_formula_sum "Si O2"
_cell_formula_units_Z 56
_cell_length_a 22.310066
_cell_length_b 14.147971
_cell_length_c 9.242073
_cell_angle_alpha 90.000000
_cell_angle_beta 90.000000
_cell_angle_gamma 90.000000
_cell_volume 2917.187947
_symmetry_space_group_name_H-M "P M M A"
_symmetry_group_IT_number 51
_symmetry_cell_setting 'orthorhombic'
loop_
_space_group_symop_operation_xyz
x,y,z
1/2-x,-y,z
1/2+x,-y,-z
-x,y,-z
-x,-y,-z
1/2+x,y,-z
1/2-x,y,z
x,-y,z
loop_
_atom_site_type_symbol
_atom_site_label
_atom_site_fract_x
_atom_site_fract_y
_atom_site_fract_z
Si Si1 0.012391 0.250523 0.170741
Si Si2 0.589572 0.886751 0.260870
Si Si3 0.953062 0.603014 0.371848
Si Si4 0.750000 0.389468 0.922894
Si Si5 0.184225 0.112173 0.985669
Si Si6 0.750000 0.614623 0.270935
Si Si7 0.347039 0.736093 0.555743
Si Si8 0.344622 0.254691 0.223853
O O1 0.083051 0.255417 0.206607
O O2 0.975060 0.164062 0.245131
O O3 0.981963 0.344404 0.235753
O O4 0.000000 0.243556 0.000000
O O5 0.628662 0.863135 0.117304
O O6 0.629888 0.836587 0.383631
O O7 0.584800 0.000000 0.276302
O O8 0.928832 0.500000 0.331450
O O9 0.904946 0.670765 0.442000
O O10 0.000000 0.592677 0.500000
O O11 0.750000 0.500000 0.886916
O O12 0.691092 0.339081 0.856405
O O13 0.750000 0.379412 0.096930
O O14 0.250000 0.139224 0.923849
O O15 0.183460 0.000000 0.000739
O O16 0.176705 0.162375 0.138086
O O17 0.750000 0.500000 0.307213
O O18 0.695772 0.675511 0.339328
O O19 0.326110 0.745157 0.391298
#
# Coordination Sequence:
#
# PCOD9406552 Si02
#       8
#     8   8   8   4   8   4   8   8
#     4  11  23  39  64  94 127 167 212 267 317 380
#     4  10  23  42  66  96 130 171 216 260 320 384
#     4  10  21  40  62  87 122 164 208 257 319 383
#     4  11  27  45  66  93 128 169 215 264 320 383
#     4  10  21  39  64  90 122 167 212 260 313 373
#     4  11  25  45  68  95 124 169 219 266 320 383
#     4  11  24  40  65  93 129 166 208 265 321 381
#     4  12  23  41  64  95 131 162 210 264 321 377
#
# _framework density 19.196570000000001
#
# number of rings (size 3 to 8) (size 9 to 14) (size 15 to 20)
#    0.000    1.286    3.571    1.714    3.000    4.000 
#    0.000    0.714    0.000    0.000    0.000    0.000 
#    0.000    0.000    0.000    0.000    0.000    0.000 
#
# Total GULP energy -312293.747135 kJ/mol
# GULP energy per Si atom -5576.674056 kJ/mol
# Density = 1.915288 g / cm^3
# Si number density = 19.196570 Si / 1000 Ang^3
#
#
#
# Elastic Constant Matrix: (Units=GPa)
#
#
# Indices 1 2 3 4 5 6 
#
# 1 103.5744 33.5362 28.9956 0.0000 0.0000 0.0000
# 2 33.5362 83.6468 38.7655 0.0000 0.0000 0.0000
# 3 28.9956 38.7655 106.4660 0.0000 0.0000 0.0000
# 4 0.0000 0.0000 0.0000 23.0283 0.0000 0.0000
# 5 0.0000 0.0000 0.0000 0.0000 24.0375 0.0000
# 6 0.0000 0.0000 0.0000 0.0000 0.0000 11.5671
#
#
#
# Elastic Compliance Matrix: (Units=1/GPa)
#
#
# Indices 1 2 3 4 5 6 
#
# 1 0.011353 -0.003752 -0.001726 0.000000 0.000000 0.000000
# 2 -0.003752 0.015622 -0.004666 0.000000 0.000000 0.000000
# 3 -0.001726 -0.004666 0.011562 0.000000 0.000000 0.000000
# 4 0.000000 0.000000 0.000000 0.043425 0.000000 0.000000
# 5 0.000000 0.000000 0.000000 0.000000 0.041602 0.000000
# 6 0.000000 0.000000 0.000000 0.000000 0.000000 0.086452
#
#
# Mechanical properties :
#
#
# Convention : Reuss Voigt Hill
#
# Bulk Modulus (GPa) = 54.79902 55.14244 54.97073
# Shear Modulus (GPa) = 21.15187 24.55257 22.85222
#
# Velocity S-wave (km/s) = 3.32302 3.58020 3.45401
# Velocity P-wave (km/s) = 6.58267 6.77333 6.67868
#
# Compressibility (1/GPa) = 0.01824850
#
# Stress axis : x y z
#
# Youngs Moduli (GPa) = 88.08374 64.01314 86.49220
#
# Poissons Ratio (x) = 0.24017 0.14927
# Poissons Ratio (y) = 0.33048 0.40360
# Poissons Ratio (z) = 0.15202 0.29870
#
# Static dielectric constant tensor:
#      x y z
#    x 1.731760 0.000000 0.000000 
#    y 0.000000 1.659750 0.000000 
#    z 0.000000 0.000000 1.701410 
# 
# From -- ./inp_files/11059.got.cif
#   From: 2010.05.17/outbox.cif.g08.bks.cpg/sg51_6_cif.got.tgz:11059.got - 2010.06.03 11:52:47.
