data_PCOD9406291
_publ_section_title
;
Structure prediction by ZEFSAII (Michael W. Deem and Ramdas Pophale) SiO2 
 PCOD9406291
Probable space group: P M M A
;
_chemical_formula_sum "Si O2"
_cell_formula_units_Z 56
_cell_length_a 7.458623
_cell_length_b 21.407385
_cell_length_c 15.629416
_cell_angle_alpha 90.000000
_cell_angle_beta 90.000000
_cell_angle_gamma 90.000000
_cell_volume 2495.542822
_symmetry_space_group_name_H-M "P M M A"
_symmetry_group_IT_number 51
_symmetry_cell_setting 'orthorhombic'
loop_
_space_group_symop_operation_xyz
x,y,z
1/2-x,-y,z
1/2+x,-y,-z
-x,y,-z
-x,-y,-z
1/2+x,y,-z
1/2-x,y,z
x,-y,z
loop_
_atom_site_type_symbol
_atom_site_label
_atom_site_fract_x
_atom_site_fract_y
_atom_site_fract_z
Si Si1 0.037501 0.070319 0.245322
Si Si2 0.536679 0.296058 0.400449
Si Si3 0.967592 0.566541 0.834669
Si Si4 0.036565 0.699223 0.100288
Si Si5 0.965515 0.835492 0.898364
Si Si6 0.037481 0.838076 0.601393
Si Si7 0.458848 0.566828 0.634969
O O1 0.250000 0.065286 0.230575
O O2 0.965760 0.111638 0.166100
O O3 0.017016 0.107300 0.334488
O O4 0.964211 0.000000 0.249132
O O5 0.500000 0.286832 0.500000
O O6 0.750000 0.299802 0.381173
O O7 0.465694 0.229777 0.365186
O O8 0.460156 0.365151 0.383809
O O9 0.750000 0.567668 0.837546
O O10 0.023590 0.500000 0.875996
O O11 0.035664 0.632815 0.868374
O O12 0.028617 0.563804 0.736998
O O13 0.250000 0.698276 0.116880
O O14 0.966881 0.766622 0.130605
O O15 0.000000 0.700511 0.000000
O O16 0.750000 0.833434 0.890957
O O17 0.000000 0.845303 0.000000
O O18 0.250000 0.832871 0.606606
O O19 0.000000 0.848774 0.500000
O O20 0.250000 0.568074 0.607671
O O21 0.535379 0.500000 0.603083
#
# Coordination Sequence:
#
# PCOD9406291 Si02
#       7
#     8   8   8   8   8   8   8
#     4  10  22  39  59  85 114 145 182 222 270 329
#     4   9  19  34  51  75 103 133 172 215 259 308
#     4   9  18  31  46  68  98 131 170 214 257 304
#     4   9  18  32  49  71  98 131 170 212 258 307
#     4   9  19  36  56  80 111 145 181 223 271 321
#     4  10  21  38  59  84 114 147 184 227 273 323
#     4   9  18  32  48  69 100 135 170 211 259 307
#
# _framework density 22.440010000000001
#
# number of rings (size 3 to 8) (size 9 to 14) (size 15 to 20)
#    0.000    2.714    0.000    0.429    2.000    3.714 
#    0.000    0.000    0.000    0.000    0.000    0.000 
#    0.000    0.000    0.000    0.000    0.000    0.000 
#
# Total GULP energy -311932.495407 kJ/mol
# GULP energy per Si atom -5570.223132 kJ/mol
# Density = 2.238894 g / cm^3
# Si number density = 22.440010 Si / 1000 Ang^3
#
#
#
# Elastic Constant Matrix: (Units=GPa)
#
#
# Indices 1 2 3 4 5 6 
#
# 1 75.0005 13.0761 -10.1907 0.0000 0.0000 0.0000
# 2 13.0761 273.6442 91.3121 0.0000 0.0000 0.0000
# 3 -10.1907 91.3121 73.7586 0.0000 0.0000 0.0000
# 4 0.0000 0.0000 0.0000 46.8088 0.0000 0.0000
# 5 0.0000 0.0000 0.0000 0.0000 54.7020 0.0000
# 6 0.0000 0.0000 0.0000 0.0000 0.0000 11.7183
#
#
#
# Elastic Compliance Matrix: (Units=1/GPa)
#
#
# Indices 1 2 3 4 5 6 
#
# 1 0.014392 -0.002302 0.004839 0.000000 0.000000 0.000000
# 2 -0.002302 0.006595 -0.008483 0.000000 0.000000 0.000000
# 3 0.004839 -0.008483 0.024728 0.000000 0.000000 0.000000
# 4 0.000000 0.000000 0.000000 0.021364 0.000000 0.000000
# 5 0.000000 0.000000 0.000000 0.000000 0.018281 0.000000
# 6 0.000000 0.000000 0.000000 0.000000 0.000000 0.085337
#
#
# Mechanical properties :
#
#
# Convention : Reuss Voigt Hill
#
# Bulk Modulus (GPa) = 29.56630 67.86648 48.71639
# Shear Modulus (GPa) = 25.79150 44.52620 35.15885
#
# Velocity S-wave (km/s) = 3.39389 4.45931 3.96257
# Velocity P-wave (km/s) = 5.34437 7.53811 6.53396
#
# Compressibility (1/GPa) = 0.03382229
#
# Stress axis : x y z
#
# Youngs Moduli (GPa) = 69.48251 151.63171 40.44074
#
# Poissons Ratio (x) = 0.34911 -0.19568
# Poissons Ratio (y) = 0.15997 0.34304
# Poissons Ratio (z) = -0.33621 1.28622
#
# Static dielectric constant tensor:
#      x y z
#    x -0.387320 0.000000 0.000000 
#    y 0.000000 1.947450 0.000000 
#    z 0.000000 0.000000 1.784430 
# 
# From -- ./inp_files/21786.got.cif
#   From: 2010.05.17/outbox.cif.g08.bks.cpg/sg51_11_cif.got.tgz:21786.got - 2010.06.03 11:52:47.
