data_PCOD9406493
_publ_section_title
;
Structure prediction by ZEFSAII (Michael W. Deem and Ramdas Pophale) SiO2 
 PCOD9406493
Probable space group: P M M A
;
_chemical_formula_sum "Si O2"
_cell_formula_units_Z 48
_cell_length_a 10.067542
_cell_length_b 8.430866
_cell_length_c 29.498342
_cell_angle_alpha 90.000000
_cell_angle_beta 90.000000
_cell_angle_gamma 90.000000
_cell_volume 2503.763150
_symmetry_space_group_name_H-M "P M M A"
_symmetry_group_IT_number 51
_symmetry_cell_setting 'orthorhombic'
loop_
_space_group_symop_operation_xyz
x,y,z
1/2-x,-y,z
1/2+x,-y,-z
-x,y,-z
-x,-y,-z
1/2+x,y,-z
1/2-x,y,z
x,-y,z
loop_
_atom_site_type_symbol
_atom_site_label
_atom_site_fract_x
_atom_site_fract_y
_atom_site_fract_z
Si Si1 0.750000 0.689914 0.965075
Si Si2 0.903149 0.808247 0.642468
Si Si3 0.970455 0.188419 0.897129
Si Si4 0.750000 0.690653 0.069752
Si Si5 0.902818 0.691604 0.279563
Si Si6 0.102327 0.308500 0.202132
Si Si7 0.401406 0.193427 0.461063
O O1 0.750000 0.500000 0.965039
O O2 0.622439 0.748476 0.937462
O O3 0.750000 0.743882 0.017147
O O4 0.750000 0.759430 0.652697
O O5 0.933729 0.759499 0.590554
O O6 0.010195 0.742035 0.677275
O O7 0.906101 0.000000 0.644279
O O8 0.919809 0.252239 0.848995
O O9 0.118844 0.246980 0.906043
O O10 0.964212 0.000000 0.896758
O O11 0.750000 0.500000 0.070594
O O12 0.750000 0.748186 0.280594
O O13 0.899157 0.500000 0.278105
O O14 0.985950 0.747488 0.235562
O O15 0.250000 0.257629 0.217660
O O16 0.100208 0.500000 0.202241
O O17 0.500000 0.250398 0.500000
O O18 0.250000 0.241149 0.470604
O O19 0.404474 0.000000 0.461411
#
# Coordination Sequence:
#
# PCOD9406493 Si02
#       7
#     4   8   8   4   8   8   8
#     4  11  23  43  67  91 119 161 207 237 276 345
#     4   9  18  33  53  79 111 147 187 233 285 340
#     4  12  25  40  62  94 126 154 190 244 301 342
#     4  11  25  43  65  89 121 163 203 239 280 343
#     4  10  22  38  57  84 113 145 187 235 284 336
#     4  10  21  39  62  83 109 150 195 232 276 346
#     4   8  14  25  43  70 104 141 182 228 278 335
#
# _framework density 19.171142
#
# number of rings (size 3 to 8) (size 9 to 14) (size 15 to 20)
#    0.000    2.000    0.833    4.000    1.167    6.000 
#    0.000    1.667    0.000    0.500    0.000    0.000 
#    0.000    0.000    0.000    0.000    0.000    0.000 
#
# Total GULP energy -268073.949653 kJ/mol
# GULP energy per Si atom -5584.873951 kJ/mol
# Density = 1.912751 g / cm^3
# Si number density = 19.171142 Si / 1000 Ang^3
#
#
#
# Elastic Constant Matrix: (Units=GPa)
#
#
# Indices 1 2 3 4 5 6 
#
# 1 151.4867 24.2623 70.1324 0.0000 0.0000 0.0000
# 2 24.2623 10.8790 13.1091 0.0000 0.0000 0.0000
# 3 70.1324 13.1091 109.4005 0.0000 0.0000 0.0000
# 4 0.0000 0.0000 0.0000 24.0208 0.0000 0.0000
# 5 0.0000 0.0000 0.0000 0.0000 37.1036 0.0000
# 6 0.0000 0.0000 0.0000 0.0000 0.0000 29.1869
#
#
#
# Elastic Compliance Matrix: (Units=1/GPa)
#
#
# Indices 1 2 3 4 5 6 
#
# 1 0.012577 -0.021428 -0.005495 0.000000 0.000000 0.000000
# 2 -0.021428 0.143940 -0.003511 0.000000 0.000000 0.000000
# 3 -0.005495 -0.003511 0.013084 0.000000 0.000000 0.000000
# 4 0.000000 0.000000 0.000000 0.041631 0.000000 0.000000
# 5 0.000000 0.000000 0.000000 0.000000 0.026952 0.000000
# 6 0.000000 0.000000 0.000000 0.000000 0.000000 0.034262
#
#
# Mechanical properties :
#
#
# Convention : Reuss Voigt Hill
#
# Bulk Modulus (GPa) = 9.19688 54.08597 31.64142
# Shear Modulus (GPa) = 13.52968 29.01309 21.27139
#
# Velocity S-wave (km/s) = 2.65944 3.89443 3.33461
# Velocity P-wave (km/s) = 3.77331 6.96387 5.60060
#
# Compressibility (1/GPa) = 0.10873256
#
# Stress axis : x y z
#
# Youngs Moduli (GPa) = 79.50887 6.94735 76.42833
#
# Poissons Ratio (x) = 0.14887 0.41998
# Poissons Ratio (y) = 1.70372 0.26834
# Poissons Ratio (z) = 0.43691 0.02439
#
# Static dielectric constant tensor:
#      x y z
#    x 1.658680 0.000000 0.000000 
#    y 0.000000 1.662250 0.000000 
#    z 0.000000 0.000000 1.647510 
# 
# From -- ./inp_files/37130.got.cif
#   From: 2010.05.17/outbox.cif.g08.bks.cpg/sg51_19_cif.got.tgz:37130.got - 2010.06.03 11:52:47.
