data_PCOD9406320
_publ_section_title
;
Structure prediction by ZEFSAII (Michael W. Deem and Ramdas Pophale) SiO2 
 PCOD9406320
Probable space group: P M M A
;
_chemical_formula_sum "Si O2"
_cell_formula_units_Z 40
_cell_length_a 8.547676
_cell_length_b 25.901041
_cell_length_c 9.933422
_cell_angle_alpha 90.000000
_cell_angle_beta 90.000000
_cell_angle_gamma 90.000000
_cell_volume 2199.197115
_symmetry_space_group_name_H-M "P M M A"
_symmetry_group_IT_number 51
_symmetry_cell_setting 'orthorhombic'
loop_
_space_group_symop_operation_xyz
x,y,z
1/2-x,-y,z
1/2+x,-y,-z
-x,y,-z
-x,-y,-z
1/2+x,y,-z
1/2-x,y,z
x,-y,z
loop_
_atom_site_type_symbol
_atom_site_label
_atom_site_fract_x
_atom_site_fract_y
_atom_site_fract_z
Si Si1 0.061031 0.557879 0.349227
Si Si2 0.061167 0.235366 0.149473
Si Si3 0.437608 0.855252 0.348390
Si Si4 0.060982 0.353018 0.148835
Si Si5 0.437342 0.939730 0.853494
O O1 0.250000 0.559100 0.351605
O O2 0.013551 0.500000 0.304444
O O3 0.005634 0.603630 0.252676
O O4 0.000000 0.565281 0.500000
O O5 0.250000 0.234137 0.144654
O O6 0.008943 0.194486 0.261273
O O7 0.011955 0.294215 0.182050
O O8 0.000000 0.222537 0.000000
O O9 0.500000 0.854582 0.500000
O O10 0.250000 0.855099 0.352303
O O11 0.494536 0.904822 0.264674
O O12 0.250000 0.353730 0.147507
O O13 0.000000 0.364591 0.000000
O O14 0.250000 0.936069 0.853734
O O15 0.481541 0.000000 0.836590
O O16 0.500000 0.922697 0.000000
#
# Coordination Sequence:
#
# PCOD9406320 Si02
#       5
#     8   8   8   8   8
#     4   9  18  32  49  70  98 132 168 206 249 299
#     4   9  19  35  54  75 100 133 170 209 254 305
#     4  11  23  37  54  78 108 140 175 215 260 308
#     4   9  18  33  51  73 101 130 165 209 255 302
#     4  10  21  38  60  84 109 139 175 213 255 305
#
# _framework density 18.188457
#
# number of rings (size 3 to 8) (size 9 to 14) (size 15 to 20)
#    0.000    2.400    0.000    1.800    0.000    6.800 
#    0.000    0.000    0.000    0.000    0.000    0.000 
#    0.000    0.000    0.000    0.000    0.000    0.000 
#
# Total GULP energy -223226.334599 kJ/mol
# GULP energy per Si atom -5580.658365 kJ/mol
# Density = 1.814706 g / cm^3
# Si number density = 18.188457 Si / 1000 Ang^3
#
#
#
# Elastic Constant Matrix: (Units=GPa)
#
#
# Indices 1 2 3 4 5 6 
#
# 1 17.1406 31.9087 29.9434 0.0000 0.0000 0.0000
# 2 31.9087 139.5412 120.1224 0.0000 0.0000 0.0000
# 3 29.9434 120.1224 160.5839 0.0000 0.0000 0.0000
# 4 0.0000 0.0000 0.0000 -49.2608 0.0000 0.0000
# 5 0.0000 0.0000 0.0000 0.0000 35.2453 0.0000
# 6 0.0000 0.0000 0.0000 0.0000 0.0000 -23.5802
#
#
#
# Elastic Compliance Matrix: (Units=1/GPa)
#
#
# Indices 1 2 3 4 5 6 
#
# 1 0.102702 -0.019658 -0.004446 0.000000 0.000000 0.000000
# 2 -0.019658 0.023889 -0.014204 0.000000 0.000000 0.000000
# 3 -0.004446 -0.014204 0.017682 0.000000 0.000000 0.000000
# 4 0.000000 0.000000 0.000000 -0.020300 0.000000 0.000000
# 5 0.000000 0.000000 0.000000 0.000000 0.028373 0.000000
# 6 0.000000 0.000000 0.000000 0.000000 0.000000 -0.042408
#
#
# Mechanical properties :
#
#
# Convention : Reuss Voigt Hill
#
# Bulk Modulus (GPa) = 14.78038 75.69052 45.23545
# Shear Modulus (GPa) = 23.91136 1.50028 12.70582
#
# Velocity S-wave (km/s) = 3.62974 0.90920 2.64591
# Velocity P-wave (km/s) = 5.07056 6.54272 5.85310
#
# Compressibility (1/GPa) = 0.06765726
#
# Stress axis : x y z
#
# Youngs Moduli (GPa) = 9.73688 41.85988 56.55559
#
# Poissons Ratio (x) = 0.82287 0.25144
# Poissons Ratio (y) = 0.19140 0.80334
# Poissons Ratio (z) = 0.04329 0.59460
#
# Static dielectric constant tensor:
#      x y z
#    x 1.618210 0.000000 0.000000 
#    y 0.000000 1.647280 0.000000 
#    z 0.000000 0.000000 1.575220 
# 
# From -- ./inp_files/5218.got.cif
#   From: 2010.05.17/outbox.cif.g08.bks.cpg/sg51_3_cif.got.tgz:5218.got - 2010.06.03 11:52:47.
