data_PCOD9406537
_publ_section_title
;
Structure prediction by ZEFSAII (Michael W. Deem and Ramdas Pophale) SiO2 
 PCOD9406537
Probable space group: P M M A
;
_chemical_formula_sum "Si O2"
_cell_formula_units_Z 40
_cell_length_a 8.630993
_cell_length_b 25.848537
_cell_length_c 9.385559
_cell_angle_alpha 90.000000
_cell_angle_beta 90.000000
_cell_angle_gamma 90.000000
_cell_volume 2093.904528
_symmetry_space_group_name_H-M "P M M A"
_symmetry_group_IT_number 51
_symmetry_cell_setting 'orthorhombic'
loop_
_space_group_symop_operation_xyz
x,y,z
1/2-x,-y,z
1/2+x,-y,-z
-x,y,-z
-x,-y,-z
1/2+x,y,-z
1/2-x,y,z
x,-y,z
loop_
_atom_site_type_symbol
_atom_site_label
_atom_site_fract_x
_atom_site_fract_y
_atom_site_fract_z
Si Si1 0.936762 0.058685 0.342864
Si Si2 0.936601 0.156689 0.159279
Si Si3 0.435353 0.747455 0.340097
Si Si4 0.564898 0.439282 0.657235
Si Si5 0.934808 0.651886 0.159090
O O1 0.750000 0.058996 0.349584
O O2 0.984172 0.102050 0.230107
O O3 0.000000 0.071232 0.500000
O O4 0.987121 0.000000 0.307096
O O5 0.750000 0.159710 0.157766
O O6 0.002564 0.202620 0.256032
O O7 0.000000 0.161253 0.000000
O O8 0.500000 0.747468 0.500000
O O9 0.250000 0.747812 0.343011
O O10 0.494816 0.697000 0.256943
O O11 0.500000 0.426755 0.500000
O O12 0.750000 0.431573 0.658580
O O13 0.533143 0.500000 0.683858
O O14 0.486135 0.402353 0.771853
O O15 0.750000 0.656209 0.157221
O O16 0.000000 0.656723 0.000000
#
# Coordination Sequence:
#
# PCOD9406537 Si02
#       5
#     8   8   8   8   8
#     4   9  19  36  58  84 115 152 195 242 291 346
#     4  11  23  39  59  86 120 156 196 242 295 351
#     4  12  25  43  65  89 118 153 196 242 293 351
#     4  10  21  39  63  91 123 160 202 246 293 347
#     4  12  25  42  63  89 122 158 198 244 297 352
#
# _framework density 19.103066999999999
#
# number of rings (size 3 to 8) (size 9 to 14) (size 15 to 20)
#    0.000    1.200    0.000    6.600    0.000    5.200 
#    0.000    0.000    0.000    0.000    0.000    0.000 
#    0.000    0.000    0.000    0.000    0.000    0.000 
#
# Total GULP energy -223784.937082 kJ/mol
# GULP energy per Si atom -5594.623427 kJ/mol
# Density = 1.905959 g / cm^3
# Si number density = 19.103067 Si / 1000 Ang^3
#
#
#
# Elastic Constant Matrix: (Units=GPa)
#
#
# Indices 1 2 3 4 5 6 
#
# 1 127.2864 63.4748 74.4820 0.0000 0.0000 0.0000
# 2 63.4748 108.3339 103.0347 0.0000 0.0000 0.0000
# 3 74.4820 103.0347 193.2920 0.0000 0.0000 0.0000
# 4 0.0000 0.0000 0.0000 28.5138 0.0000 0.0000
# 5 0.0000 0.0000 0.0000 0.0000 39.7674 0.0000
# 6 0.0000 0.0000 0.0000 0.0000 0.0000 132.3089
#
#
#
# Elastic Compliance Matrix: (Units=1/GPa)
#
#
# Indices 1 2 3 4 5 6 
#
# 1 0.011363 -0.005057 -0.001683 0.000000 0.000000 0.000000
# 2 -0.005057 0.020974 -0.009231 0.000000 0.000000 0.000000
# 3 -0.001683 -0.009231 0.010743 0.000000 0.000000 0.000000
# 4 0.000000 0.000000 0.000000 0.035071 0.000000 0.000000
# 5 0.000000 0.000000 0.000000 0.000000 0.025146 0.000000
# 6 0.000000 0.000000 0.000000 0.000000 0.000000 0.007558
#
#
# Mechanical properties :
#
#
# Convention : Reuss Voigt Hill
#
# Bulk Modulus (GPa) = 89.79409 101.21058 95.50234
# Shear Modulus (GPa) = 34.12759 52.64608 43.38684
#
# Velocity S-wave (km/s) = 4.23128 5.25536 4.77088
# Velocity P-wave (km/s) = 8.42489 9.48269 8.96940
#
# Compressibility (1/GPa) = 0.01113659
#
# Stress axis : x y z
#
# Youngs Moduli (GPa) = 88.00559 47.67893 93.08690
#
# Poissons Ratio (x) = 0.24113 0.15664
# Poissons Ratio (y) = 0.44508 0.85931
# Poissons Ratio (z) = 0.14809 0.44014
#
# Static dielectric constant tensor:
#      x y z
#    x 1.640640 0.000000 0.000000 
#    y 0.000000 1.663130 0.000000 
#    z 0.000000 0.000000 1.611630 
# 
# From -- ./inp_files/5212.got.cif
#   From: 2010.05.17/outbox.cif.g08.bks.cpg/sg51_3_cif.got.tgz:5212.got - 2010.06.03 11:52:47.
