data_PCOD9406356
_publ_section_title
;
Structure prediction by ZEFSAII (Michael W. Deem and Ramdas Pophale) SiO2 
 PCOD9406356
Probable space group: P M M A
;
_chemical_formula_sum "Si O2"
_cell_formula_units_Z 56
_cell_length_a 14.679437
_cell_length_b 8.882113
_cell_length_c 22.773739
_cell_angle_alpha 90.000000
_cell_angle_beta 90.000000
_cell_angle_gamma 90.000000
_cell_volume 2969.340710
_symmetry_space_group_name_H-M "P M M A"
_symmetry_group_IT_number 51
_symmetry_cell_setting 'orthorhombic'
loop_
_space_group_symop_operation_xyz
x,y,z
1/2-x,-y,z
1/2+x,-y,-z
-x,y,-z
-x,-y,-z
1/2+x,y,-z
1/2-x,y,z
x,-y,z
loop_
_atom_site_type_symbol
_atom_site_label
_atom_site_fract_x
_atom_site_fract_y
_atom_site_fract_z
Si Si1 0.065313 0.180792 0.333543
Si Si2 0.061110 0.180704 0.555952
Si Si3 0.139284 0.672985 0.985305
Si Si4 0.858191 0.178340 0.137717
Si Si5 0.016071 0.320484 0.208480
Si Si6 0.250000 0.680964 0.383868
Si Si7 0.750000 0.320484 0.477851
Si Si8 0.140510 0.178309 0.108157
O O1 0.036483 0.248867 0.271493
O O2 0.160830 0.250482 0.353917
O O3 0.992127 0.216900 0.384377
O O4 0.073045 0.000000 0.329472
O O5 0.159187 0.255466 0.551086
O O6 0.000000 0.228293 0.500000
O O7 0.071491 0.000000 0.552574
O O8 0.250000 0.672094 0.986319
O O9 0.108624 0.500000 0.981821
O O10 0.110923 0.750678 0.045910
O O11 0.113996 0.763844 0.926994
O O12 0.750000 0.205300 0.144678
O O13 0.918249 0.266024 0.184743
O O14 0.874398 0.000000 0.142241
O O15 0.020714 0.500000 0.211144
O O16 0.088675 0.258143 0.161184
O O17 0.250000 0.500000 0.378818
O O18 0.250000 0.721616 0.452982
O O19 0.750000 0.500000 0.474148
O O20 0.250000 0.198381 0.113727
O O21 0.121770 0.000000 0.108602
#
# Coordination Sequence:
#
# PCOD9406356 Si02
#       8
#     8   8   8   8   8   4   4   8
#     4  11  24  43  66  91 123 165 210 253 298 357
#     4  10  21  40  66  94 125 164 209 256 300 356
#     4   9  17  32  57  89 122 154 193 247 311 365
#     4  10  21  40  65  89 116 154 203 254 305 366
#     4  12  26  42  61  87 122 160 203 252 306 366
#     4  11  23  39  63  97 131 165 200 243 302 363
#     4  11  23  37  63  99 133 165 198 249 312 363
#     4  10  21  38  60  87 121 160 203 249 301 362
#
# _framework density 18.859406
#
# number of rings (size 3 to 8) (size 9 to 14) (size 15 to 20)
#    0.000    1.571    1.429    3.429    1.000    6.000 
#    1.286    2.857    0.000    0.000    0.000    0.000 
#    0.000    0.000    0.000    0.000    0.000    0.000 
#
# Total GULP energy -313178.126732 kJ/mol
# GULP energy per Si atom -5592.466549 kJ/mol
# Density = 1.881648 g / cm^3
# Si number density = 18.859406 Si / 1000 Ang^3
#
#
#
# Elastic Constant Matrix: (Units=GPa)
#
#
# Indices 1 2 3 4 5 6 
#
# 1 122.7372 57.3495 74.2210 0.0000 0.0000 0.0000
# 2 57.3495 107.4928 76.5799 0.0000 0.0000 0.0000
# 3 74.2210 76.5799 161.8663 0.0000 0.0000 0.0000
# 4 0.0000 0.0000 0.0000 32.0125 0.0000 0.0000
# 5 0.0000 0.0000 0.0000 0.0000 19.9517 0.0000
# 6 0.0000 0.0000 0.0000 0.0000 0.0000 3.7122
#
#
#
# Elastic Compliance Matrix: (Units=1/GPa)
#
#
# Indices 1 2 3 4 5 6 
#
# 1 0.012230 -0.003816 -0.003802 0.000000 0.000000 0.000000
# 2 -0.003816 0.015223 -0.005452 0.000000 0.000000 0.000000
# 3 -0.003802 -0.005452 0.010501 0.000000 0.000000 0.000000
# 4 0.000000 0.000000 0.000000 0.031238 0.000000 0.000000
# 5 0.000000 0.000000 0.000000 0.000000 0.050121 0.000000
# 6 0.000000 0.000000 0.000000 0.000000 0.000000 0.269382
#
#
# Mechanical properties :
#
#
# Convention : Reuss Voigt Hill
#
# Bulk Modulus (GPa) = 84.65615 89.82190 87.23902
# Shear Modulus (GPa) = 11.93961 23.39835 17.66898
#
# Velocity S-wave (km/s) = 2.51885 3.52614 3.06417
# Velocity P-wave (km/s) = 7.31060 8.01927 7.67312
#
# Compressibility (1/GPa) = 0.01181249
#
# Stress axis : x y z
#
# Youngs Moduli (GPa) = 81.76675 65.68886 95.22812
#
# Poissons Ratio (x) = 0.25066 0.36210
# Poissons Ratio (y) = 0.31202 0.51923
# Poissons Ratio (z) = 0.31092 0.35817
#
# Static dielectric constant tensor:
#      x y z
#    x 1.658090 0.000000 0.000000 
#    y 0.000000 1.625700 0.000000 
#    z 0.000000 0.000000 1.617300 
# 
# From -- ./inp_files/33497.got.cif
#   From: 2010.05.17/outbox.cif.g08.bks.cpg/sg51_17_cif.got.tgz:33497.got - 2010.06.03 11:52:47.
