data_PCOD9406739
_publ_section_title
;
Structure prediction by ZEFSAII (Michael W. Deem and Ramdas Pophale) SiO2 
 PCOD9406739
Probable space group: P M M A
;
_chemical_formula_sum "Si O2"
_cell_formula_units_Z 24
_cell_length_a 10.492831
_cell_length_b 16.815316
_cell_length_c 6.577044
_cell_angle_alpha 90.000000
_cell_angle_beta 90.000000
_cell_angle_gamma 90.000000
_cell_volume 1160.455413
_symmetry_space_group_name_H-M "P M M A"
_symmetry_group_IT_number 51
_symmetry_cell_setting 'orthorhombic'
loop_
_space_group_symop_operation_xyz
x,y,z
1/2-x,-y,z
1/2+x,-y,-z
-x,y,-z
-x,-y,-z
1/2+x,y,-z
1/2-x,y,z
x,-y,z
loop_
_atom_site_type_symbol
_atom_site_label
_atom_site_fract_x
_atom_site_fract_y
_atom_site_fract_z
Si Si1 0.395386 0.675486 0.320206
Si Si2 0.106230 0.500000 0.327843
Si Si3 0.391867 0.093902 0.663111
Si Si4 0.000000 0.202563 0.000000
O O1 0.500000 0.682138 0.500000
O O2 0.250000 0.683723 0.398611
O O3 0.406249 0.586155 0.224790
O O4 0.422217 0.740971 0.151411
O O5 0.250000 0.500000 0.416125
O O6 0.000000 0.500000 0.500000
O O7 0.500000 0.114416 0.500000
O O8 0.250000 0.106865 0.578734
O O9 0.404678 0.000000 0.710743
O O10 0.412633 0.146293 0.861820
#
# Coordination Sequence:
#
# PCOD9406739 Si02
#       4
#     8   4   8   4
#     4  10  22  39  60  86 118 156 197 241 288 340
#     4   8  16  35  58  80 111 153 197 237 281 335
#     4  10  23  43  64  86 115 153 195 238 287 346
#     4  12  23  35  60  92 122 150 188 239 295 348
#
# _framework density 20.681536000000001
#
# number of rings (size 3 to 8) (size 9 to 14) (size 15 to 20)
#    0.000    2.000    0.000    2.500    0.000    8.667 
#    0.000    3.333    0.000    6.000    0.000    0.000 
#    0.000    0.000    0.000    0.000    0.000    0.000 
#
# Total GULP energy -133938.921461 kJ/mol
# GULP energy per Si atom -5580.788394 kJ/mol
# Density = 2.063446 g / cm^3
# Si number density = 20.681536 Si / 1000 Ang^3
#
#
#
# Elastic Constant Matrix: (Units=GPa)
#
#
# Indices 1 2 3 4 5 6 
#
# 1 167.6740 58.7657 63.9454 0.0000 0.0000 0.0000
# 2 58.7657 122.2236 61.2224 0.0000 0.0000 0.0000
# 3 63.9454 61.2224 81.9609 0.0000 0.0000 0.0000
# 4 0.0000 0.0000 0.0000 10.2631 0.0000 0.0000
# 5 0.0000 0.0000 0.0000 0.0000 25.7319 0.0000
# 6 0.0000 0.0000 0.0000 0.0000 0.0000 117.6993
#
#
#
# Elastic Compliance Matrix: (Units=1/GPa)
#
#
# Indices 1 2 3 4 5 6 
#
# 1 0.008606 -0.001238 -0.005790 0.000000 0.000000 0.000000
# 2 -0.001238 0.013251 -0.008933 0.000000 0.000000 0.000000
# 3 -0.005790 -0.008933 0.023390 0.000000 0.000000 0.000000
# 4 0.000000 0.000000 0.000000 0.097436 0.000000 0.000000
# 5 0.000000 0.000000 0.000000 0.000000 0.038862 0.000000
# 6 0.000000 0.000000 0.000000 0.000000 0.000000 0.008496
#
#
# Mechanical properties :
#
#
# Convention : Reuss Voigt Hill
#
# Bulk Modulus (GPa) = 75.03312 82.19173 78.61242
# Shear Modulus (GPa) = 22.08435 43.26719 32.67577
#
# Velocity S-wave (km/s) = 3.27131 4.57888 3.97917
# Velocity P-wave (km/s) = 7.11531 8.23302 7.69449
#
# Compressibility (1/GPa) = 0.01332745
#
# Stress axis : x y z
#
# Youngs Moduli (GPa) = 116.20221 75.46478 42.75242
#
# Poissons Ratio (x) = 0.09339 0.24752
# Poissons Ratio (y) = 0.14381 0.38190
# Poissons Ratio (z) = 0.67277 0.67411
#
# Static dielectric constant tensor:
#      x y z
#    x 1.744470 0.000000 0.000000 
#    y 0.000000 1.792890 0.000000 
#    z 0.000000 0.000000 1.688450 
# 
# From -- ./inp_files/510.got.cif
#   From: 2010.05.17/outbox.cif.g08.bks.cpg/sg51_1_cif.got.tgz:510.got - 2010.06.03 11:52:47.
