data_PCOD9406852
_publ_section_title
;
Structure prediction by ZEFSAII (Michael W. Deem and Ramdas Pophale) SiO2 
 PCOD9406852
Probable space group: P M M A
;
_chemical_formula_sum "Si O2"
_cell_formula_units_Z 36
_cell_length_a 8.468297
_cell_length_b 11.311010
_cell_length_c 18.987513
_cell_angle_alpha 90.000000
_cell_angle_beta 90.000000
_cell_angle_gamma 90.000000
_cell_volume 1818.718782
_symmetry_space_group_name_H-M "P M M A"
_symmetry_group_IT_number 51
_symmetry_cell_setting 'orthorhombic'
loop_
_space_group_symop_operation_xyz
x,y,z
1/2-x,-y,z
1/2+x,-y,-z
-x,y,-z
-x,-y,-z
1/2+x,y,-z
1/2-x,y,z
x,-y,z
loop_
_atom_site_type_symbol
_atom_site_label
_atom_site_fract_x
_atom_site_fract_y
_atom_site_fract_z
Si Si1 0.060389 0.000000 0.578987
Si Si2 0.060638 0.367273 0.080086
Si Si3 0.562396 0.134245 0.160730
Si Si4 0.561855 0.192233 0.685891
Si Si5 0.559916 0.633735 0.573173
O O1 0.000000 0.000000 0.500000
O O2 0.988718 0.892039 0.622446
O O3 0.250000 0.000000 0.581455
O O4 0.250000 0.366090 0.080866
O O5 0.010819 0.500000 0.106796
O O6 0.004505 0.249339 0.120509
O O7 0.000000 0.359528 0.000000
O O8 0.750000 0.133752 0.150294
O O9 0.522903 0.155244 0.242832
O O10 0.504251 0.000000 0.141525
O O11 0.750000 0.186360 0.698227
O O12 0.517492 0.315732 0.649785
O O13 0.500000 0.691799 0.500000
O O14 0.750000 0.637773 0.569532
O O15 0.501373 0.500000 0.571553
#
# Coordination Sequence:
#
# PCOD9406852 Si02
#       5
#     4   8   8   8   8
#     4  12  24  38  56  80 111 150 199 252 306 364
#     4  10  22  42  69  99 130 166 210 259 311 373
#     4  11  24  41  62  91 129 169 209 258 313 375
#     4  11  22  37  58  83 114 153 197 248 305 365
#     4   9  19  35  54  78 108 143 187 241 299 361
#
# _framework density 19.794153999999999
#
# number of rings (size 3 to 8) (size 9 to 14) (size 15 to 20)
#    0.000    1.556    1.111    3.667    0.000    7.556 
#    0.000    2.222    0.000    0.000    0.000    0.000 
#    0.000    0.000    0.000    0.000    0.000    0.000 
#
# Total GULP energy -200682.174452 kJ/mol
# GULP energy per Si atom -5574.504846 kJ/mol
# Density = 1.974910 g / cm^3
# Si number density = 19.794154 Si / 1000 Ang^3
#
#
#
# Elastic Constant Matrix: (Units=GPa)
#
#
# Indices 1 2 3 4 5 6 
#
# 1 27.3274 30.4407 7.1448 0.0000 0.0000 0.0000
# 2 30.4407 154.7337 69.2384 0.0000 0.0000 0.0000
# 3 7.1448 69.2384 84.6909 0.0000 0.0000 0.0000
# 4 0.0000 0.0000 0.0000 18.2552 0.0000 0.0000
# 5 0.0000 0.0000 0.0000 0.0000 38.3374 0.0000
# 6 0.0000 0.0000 0.0000 0.0000 0.0000 30.2781
#
#
#
# Elastic Compliance Matrix: (Units=1/GPa)
#
#
# Indices 1 2 3 4 5 6 
#
# 1 0.048643 -0.012194 0.005866 0.000000 0.000000 0.000000
# 2 -0.012194 0.013248 -0.009802 0.000000 0.000000 0.000000
# 3 0.005866 -0.009802 0.019326 0.000000 0.000000 0.000000
# 4 0.000000 0.000000 0.000000 0.054779 0.000000 0.000000
# 5 0.000000 0.000000 0.000000 0.000000 0.026084 0.000000
# 6 0.000000 0.000000 0.000000 0.000000 0.000000 0.033027
#
#
# Mechanical properties :
#
#
# Convention : Reuss Voigt Hill
#
# Bulk Modulus (GPa) = 20.42642 53.37775 36.90208
# Shear Modulus (GPa) = 20.51812 28.03600 24.27706
#
# Velocity S-wave (km/s) = 3.22308 3.76756 3.50591
# Velocity P-wave (km/s) = 4.91862 6.77872 5.92215
#
# Compressibility (1/GPa) = 0.04895621
#
# Stress axis : x y z
#
# Youngs Moduli (GPa) = 20.55784 75.48503 51.74333
#
# Poissons Ratio (x) = 0.92048 -0.30350
# Poissons Ratio (y) = 0.25069 0.50718
# Poissons Ratio (z) = -0.12058 0.73989
#
# Static dielectric constant tensor:
#      x y z
#    x 1.668190 0.000000 0.000000 
#    y 0.000000 1.977600 0.000000 
#    z 0.000000 0.000000 1.649150 
# 
# From -- ./inp_files/27007.got.cif
#   From: 2010.05.17/outbox.cif.g08.bks.cpg/sg51_14_cif.got.tgz:27007.got - 2010.06.03 11:52:47.
