data_PCOD9406510
_publ_section_title
;
Structure prediction by ZEFSAII (Michael W. Deem and Ramdas Pophale) SiO2 
 PCOD9406510
Probable space group: P M M A
;
_chemical_formula_sum "Si O2"
_cell_formula_units_Z 40
_cell_length_a 15.904461
_cell_length_b 8.667102
_cell_length_c 14.932603
_cell_angle_alpha 90.000000
_cell_angle_beta 90.000000
_cell_angle_gamma 90.000000
_cell_volume 2058.393407
_symmetry_space_group_name_H-M "P M M A"
_symmetry_group_IT_number 51
_symmetry_cell_setting 'orthorhombic'
loop_
_space_group_symop_operation_xyz
x,y,z
1/2-x,-y,z
1/2+x,-y,-z
-x,y,-z
-x,-y,-z
1/2+x,y,-z
1/2-x,y,z
x,-y,z
loop_
_atom_site_type_symbol
_atom_site_label
_atom_site_fract_x
_atom_site_fract_y
_atom_site_fract_z
Si Si1 0.907758 0.813316 0.033233
Si Si2 0.250000 0.684947 0.077044
Si Si3 0.585473 0.681969 0.404328
Si Si4 0.397780 0.184066 0.408384
Si Si5 0.848804 0.178840 0.225880
Si Si6 0.250000 0.685580 0.286444
O O1 0.895609 0.766735 0.136630
O O2 0.901450 0.000000 0.030518
O O3 0.832844 0.747158 0.972974
O O4 0.000000 0.767815 0.000000
O O5 0.250000 0.500000 0.072563
O O6 0.250000 0.730490 0.181812
O O7 0.584482 0.500000 0.421215
O O8 0.625451 0.766210 0.490312
O O9 0.490156 0.743882 0.394304
O O10 0.632244 0.722568 0.313083
O O11 0.331321 0.249116 0.337815
O O12 0.402350 0.000000 0.402394
O O13 0.750000 0.181587 0.205243
O O14 0.872762 0.000000 0.244299
O O15 0.250000 0.500000 0.292149
#
# Coordination Sequence:
#
# PCOD9406510 Si02
#       6
#     8   4   8   8   8   4
#     4  10  22  42  68  95 124 164 212 262 313 369
#     4  11  25  43  64  93 130 165 205 260 316 381
#     4  11  23  40  63  91 128 164 201 254 312 367
#     4  11  23  42  65  91 121 162 211 254 301 365
#     4  10  21  39  62  91 126 162 208 259 307 368
#     4  11  25  43  62  91 128 163 203 252 314 367
#
# _framework density 19.43263
#
# number of rings (size 3 to 8) (size 9 to 14) (size 15 to 20)
#    0.000    1.400    1.000    5.400    4.200    3.200 
#    0.000    0.000    0.000    0.000    0.000    0.000 
#    0.000    0.000    0.000    0.000    0.000    0.000 
#
# Total GULP energy -223659.130782 kJ/mol
# GULP energy per Si atom -5591.478270 kJ/mol
# Density = 1.938840 g / cm^3
# Si number density = 19.432630 Si / 1000 Ang^3
#
#
#
# Elastic Constant Matrix: (Units=GPa)
#
#
# Indices 1 2 3 4 5 6 
#
# 1 70.2906 5.9068 29.8295 0.0000 0.0000 0.0000
# 2 5.9068 63.3086 7.4909 0.0000 0.0000 0.0000
# 3 29.8295 7.4909 97.8916 0.0000 0.0000 0.0000
# 4 0.0000 0.0000 0.0000 30.3415 0.0000 0.0000
# 5 0.0000 0.0000 0.0000 0.0000 34.3698 0.0000
# 6 0.0000 0.0000 0.0000 0.0000 0.0000 25.7835
#
#
#
# Elastic Compliance Matrix: (Units=1/GPa)
#
#
# Indices 1 2 3 4 5 6 
#
# 1 0.016396 -0.000947 -0.004924 0.000000 0.000000 0.000000
# 2 -0.000947 0.015995 -0.000935 0.000000 0.000000 0.000000
# 3 -0.004924 -0.000935 0.011787 0.000000 0.000000 0.000000
# 4 0.000000 0.000000 0.000000 0.032958 0.000000 0.000000
# 5 0.000000 0.000000 0.000000 0.000000 0.029095 0.000000
# 6 0.000000 0.000000 0.000000 0.000000 0.000000 0.038784
#
#
# Mechanical properties :
#
#
# Convention : Reuss Voigt Hill
#
# Bulk Modulus (GPa) = 32.71667 35.32723 34.02195
# Shear Modulus (GPa) = 29.61800 30.64987 30.13393
#
# Velocity S-wave (km/s) = 3.90826 3.97575 3.94215
# Velocity P-wave (km/s) = 6.10233 6.26852 6.18598
#
# Compressibility (1/GPa) = 0.03056546
#
# Stress axis : x y z
#
# Youngs Moduli (GPa) = 60.99161 62.52073 84.83720
#
# Poissons Ratio (x) = 0.05922 0.41771
# Poissons Ratio (y) = 0.05777 0.07935
# Poissons Ratio (z) = 0.30030 0.05848
#
# Static dielectric constant tensor:
#      x y z
#    x 1.663730 0.000000 0.000000 
#    y 0.000000 1.661970 0.000000 
#    z 0.000000 0.000000 1.669410 
# 
# From -- ./inp_files/23781.got.cif
#   From: 2010.05.17/outbox.cif.g08.bks.cpg/sg51_12_cif.got.tgz:23781.got - 2010.06.03 11:52:47.
