data_PCOD9406713
_publ_section_title
;
Structure prediction by ZEFSAII (Michael W. Deem and Ramdas Pophale) SiO2 
 PCOD9406713
Probable space group: P M M A
;
_chemical_formula_sum "Si O2"
_cell_formula_units_Z 34
_cell_length_a 23.898174
_cell_length_b 7.511066
_cell_length_c 7.437645
_cell_angle_alpha 90.000000
_cell_angle_beta 90.000000
_cell_angle_gamma 90.000000
_cell_volume 1335.062946
_symmetry_space_group_name_H-M "P M M A"
_symmetry_group_IT_number 51
_symmetry_cell_setting 'orthorhombic'
loop_
_space_group_symop_operation_xyz
x,y,z
1/2-x,-y,z
1/2+x,-y,-z
-x,y,-z
-x,-y,-z
1/2+x,y,-z
1/2-x,y,z
x,-y,z
loop_
_atom_site_type_symbol
_atom_site_label
_atom_site_fract_x
_atom_site_fract_y
_atom_site_fract_z
Si Si1 0.308396 0.288745 0.743157
Si Si2 0.829735 0.703088 0.670185
Si Si3 0.066609 0.790908 0.849701
Si Si4 0.250000 0.000000 0.175715
Si Si5 0.453187 0.784976 0.260951
O O1 0.250000 0.209216 0.818283
O O2 0.307114 0.500000 0.773189
O O3 0.307793 0.257369 0.529694
O O4 0.368821 0.230010 0.806352
O O5 0.816412 0.500000 0.721371
O O6 0.896938 0.716422 0.648684
O O7 0.799832 0.843731 0.799687
O O8 0.017924 0.724897 0.713334
O O9 0.055569 0.000000 0.857431
O O10 0.057096 0.729168 0.052839
O O11 0.450405 0.000000 0.285294
#
# Coordination Sequence:
#
# PCOD9406713 Si02
#       5
#     8   8   8   2   8
#     4  10  22  39  55  83 122 157 196 247 301 360
#     4  11  23  39  63  91 120 158 203 246 298 360
#     4   9  20  37  63  86 118 157 203 250 300 356
#     4  12  22  40  64  84 128 162 196 244 304 352
#     4   9  19  40  60  88 120 158 202 252 299 354
#
# _framework density 25.466963
#
# number of rings (size 3 to 8) (size 9 to 14) (size 15 to 20)
#    0.000    2.118    2.353    1.765    1.647    3.294 
#    2.118    7.059    0.000    0.000    0.000    0.000 
#    0.000    0.000    0.000    0.000    0.000    0.000 
#
# Total GULP energy -189383.322092 kJ/mol
# GULP energy per Si atom -5570.097709 kJ/mol
# Density = 2.540900 g / cm^3
# Si number density = 25.466963 Si / 1000 Ang^3
#
#
#
# Elastic Constant Matrix: (Units=GPa)
#
#
# Indices 1 2 3 4 5 6 
#
# 1 265.2865 22.3593 31.7065 0.0000 0.0000 0.0000
# 2 22.3593 74.3223 5.6040 0.0000 0.0000 0.0000
# 3 31.7065 5.6040 20.5641 0.0000 0.0000 0.0000
# 4 0.0000 0.0000 0.0000 2.9001 0.0000 0.0000
# 5 0.0000 0.0000 0.0000 0.0000 45.5024 0.0000
# 6 0.0000 0.0000 0.0000 0.0000 0.0000 1.6637
#
#
#
# Elastic Compliance Matrix: (Units=1/GPa)
#
#
# Indices 1 2 3 4 5 6 
#
# 1 0.004677 -0.000881 -0.006971 0.000000 0.000000 0.000000
# 2 -0.000881 0.013903 -0.002430 0.000000 0.000000 0.000000
# 3 -0.006971 -0.002430 0.060038 0.000000 0.000000 0.000000
# 4 0.000000 0.000000 0.000000 0.344810 0.000000 0.000000
# 5 0.000000 0.000000 0.000000 0.000000 0.021977 0.000000
# 6 0.000000 0.000000 0.000000 0.000000 0.000000 0.601059
#
#
# Mechanical properties :
#
#
# Convention : Reuss Voigt Hill
#
# Bulk Modulus (GPa) = 17.22523 53.27917 35.25220
# Shear Modulus (GPa) = 4.60244 30.04681 17.32462
#
# Velocity S-wave (km/s) = 1.34579 3.43860 2.61104
# Velocity P-wave (km/s) = 3.03204 6.06066 4.79191
#
# Compressibility (1/GPa) = 0.05805437
#
# Stress axis : x y z
#
# Youngs Moduli (GPa) = 213.81499 71.92539 16.65600
#
# Poissons Ratio (x) = 0.06340 0.11611
# Poissons Ratio (y) = 0.18846 0.04047
# Poissons Ratio (z) = 1.49048 0.17477
#
# Static dielectric constant tensor:
#      x y z
#    x 2.104650 0.000000 0.000000 
#    y 0.000000 1.970920 0.000000 
#    z 0.000000 0.000000 2.075390 
# 
# From -- ./inp_files/10377.got.cif
#   From: 2010.05.17/outbox.cif.g08.bks.cpg/sg51_6_cif.got.tgz:10377.got - 2010.06.03 11:52:47.
