data_PCOD9406141
_publ_section_title
;
Structure prediction by ZEFSAII (Michael W. Deem and Ramdas Pophale) SiO2 
 PCOD9406141
Probable space group: P M M A
;
_chemical_formula_sum "Si O2"
_cell_formula_units_Z 64
_cell_length_a 8.940818
_cell_length_b 20.360754
_cell_length_c 20.361986
_cell_angle_alpha 90.000000
_cell_angle_beta 90.000000
_cell_angle_gamma 90.000000
_cell_volume 3706.732499
_symmetry_space_group_name_H-M "P M M A"
_symmetry_group_IT_number 51
_symmetry_cell_setting 'orthorhombic'
loop_
_space_group_symop_operation_xyz
x,y,z
1/2-x,-y,z
1/2+x,-y,-z
-x,y,-z
-x,-y,-z
1/2+x,y,-z
1/2-x,y,z
x,-y,z
loop_
_atom_site_type_symbol
_atom_site_label
_atom_site_fract_x
_atom_site_fract_y
_atom_site_fract_z
Si Si1 0.926148 0.392775 0.567237
Si Si2 0.429854 0.572313 0.705715
Si Si3 0.926433 0.711039 0.244099
Si Si4 0.574468 0.889973 0.432711
Si Si5 0.929514 0.831556 0.819129
Si Si6 0.923681 0.261261 0.398004
Si Si7 0.429469 0.075364 0.927776
Si Si8 0.428000 0.072598 0.297479
O O1 0.750000 0.403748 0.566292
O O2 0.000000 0.417559 0.500000
O O3 0.997923 0.421436 0.633628
O O4 0.965814 0.315218 0.572713
O O5 0.250000 0.577875 0.697637
O O6 0.464192 0.500000 0.732735
O O7 0.475968 0.634945 0.749378
O O8 0.750000 0.713294 0.228219
O O9 0.943044 0.737591 0.319056
O O10 0.014536 0.757856 0.194665
O O11 0.500000 0.912567 0.500000
O O12 0.750000 0.902973 0.434638
O O13 0.551771 0.811332 0.424925
O O14 0.504846 0.920287 0.367513
O O15 0.750000 0.833438 0.824708
O O16 0.976218 0.872911 0.754388
O O17 0.002400 0.870172 0.879633
O O18 0.750000 0.280774 0.411096
O O19 0.250000 0.081556 0.930768
O O20 0.464267 0.000000 0.905850
O O21 0.500000 0.082767 0.000000
O O22 0.250000 0.079446 0.306903
O O23 0.458036 0.000000 0.270247
#
# Coordination Sequence:
#
# PCOD9406141 Si02
#       8
#     8   8   8   8   8   8   8   8
#     4  11  21  31  46  67  92 122 160 205 257 320
#     4   9  19  36  54  71  97 132 167 210 265 321
#     4   9  17  32  53  77 103 130 169 215 259 309
#     4  11  22  35  51  69  90 120 161 213 271 327
#     4  11  21  34  56  83 112 144 179 219 263 309
#     4   9  18  33  50  69  93 121 158 207 262 319
#     4  10  21  37  58  85 119 157 192 225 263 309
#     4  10  22  38  53  71  97 130 170 215 262 314
#
# _framework density 17.265879999999999
#
# number of rings (size 3 to 8) (size 9 to 14) (size 15 to 20)
#    0.000    2.000    1.250    3.750    0.000    6.750 
#    0.000    0.000    0.000    0.000    0.000    0.000 
#    0.000    0.500    0.000    1.375    0.000    2.000 
#
# Total GULP energy -357324.487158 kJ/mol
# GULP energy per Si atom -5583.195112 kJ/mol
# Density = 1.722658 g / cm^3
# Si number density = 17.265880 Si / 1000 Ang^3
#
#
#
# Elastic Constant Matrix: (Units=GPa)
#
#
# Indices 1 2 3 4 5 6 
#
# 1 44.1762 46.5201 33.3375 0.0000 0.0000 0.0000
# 2 46.5201 113.1764 50.2560 0.0000 0.0000 0.0000
# 3 33.3375 50.2560 74.6973 0.0000 0.0000 0.0000
# 4 0.0000 0.0000 0.0000 27.4372 0.0000 0.0000
# 5 0.0000 0.0000 0.0000 0.0000 24.8251 0.0000
# 6 0.0000 0.0000 0.0000 0.0000 0.0000 17.8118
#
#
#
# Elastic Compliance Matrix: (Units=1/GPa)
#
#
# Indices 1 2 3 4 5 6 
#
# 1 0.045486 -0.013807 -0.011011 0.000000 0.000000 0.000000
# 2 -0.013807 0.016791 -0.005135 0.000000 0.000000 0.000000
# 3 -0.011011 -0.005135 0.021756 0.000000 0.000000 0.000000
# 4 0.000000 0.000000 0.000000 0.036447 0.000000 0.000000
# 5 0.000000 0.000000 0.000000 0.000000 0.040282 0.000000
# 6 0.000000 0.000000 0.000000 0.000000 0.000000 0.056143
#
#
# Mechanical properties :
#
#
# Convention : Reuss Voigt Hill
#
# Bulk Modulus (GPa) = 41.44691 54.69745 48.07218
# Shear Modulus (GPa) = 17.55295 20.81060 19.18177
#
# Velocity S-wave (km/s) = 3.19192 3.47551 3.33673
# Velocity P-wave (km/s) = 6.13528 6.91765 6.53818
#
# Compressibility (1/GPa) = 0.02412725
#
# Stress axis : x y z
#
# Youngs Moduli (GPa) = 21.98500 59.55516 45.96369
#
# Poissons Ratio (x) = 0.82228 0.50610
# Poissons Ratio (y) = 0.30355 0.23602
# Poissons Ratio (z) = 0.24208 0.30581
#
# Static dielectric constant tensor:
#      x y z
#    x 1.575930 0.000000 0.000000 
#    y 0.000000 1.626890 0.000000 
#    z 0.000000 0.000000 1.562180 
# 
# From -- ./inp_files/28409.got.cif
#   From: 2010.05.17/outbox.cif.g08.bks.cpg/sg51_15_cif.got.tgz:28409.got - 2010.06.03 11:52:47.
