data_PCOD9406443
_publ_section_title
;
Structure prediction by ZEFSAII (Michael W. Deem and Ramdas Pophale) SiO2 
 PCOD9406443
Probable space group: P M M A
;
_chemical_formula_sum "Si O2"
_cell_formula_units_Z 40
_cell_length_a 9.021720
_cell_length_b 16.303666
_cell_length_c 14.571226
_cell_angle_alpha 90.000000
_cell_angle_beta 90.000000
_cell_angle_gamma 90.000000
_cell_volume 2143.239516
_symmetry_space_group_name_H-M "P M M A"
_symmetry_group_IT_number 51
_symmetry_cell_setting 'orthorhombic'
loop_
_space_group_symop_operation_xyz
x,y,z
1/2-x,-y,z
1/2+x,-y,-z
-x,y,-z
-x,-y,-z
1/2+x,y,-z
1/2-x,y,z
x,-y,z
loop_
_atom_site_type_symbol
_atom_site_label
_atom_site_fract_x
_atom_site_fract_y
_atom_site_fract_z
Si Si1 0.581124 0.854343 0.908129
Si Si2 0.577846 0.598695 0.096742
Si Si3 0.928376 0.000000 0.195826
Si Si4 0.582701 0.194492 0.403496
Si Si5 0.581980 0.710643 0.760205
Si Si6 0.038230 0.000000 0.608763
O O1 0.750000 0.884345 0.925357
O O2 0.476279 0.922555 0.863203
O O3 0.590183 0.780880 0.837093
O O4 0.500000 0.827096 0.000000
O O5 0.750000 0.623665 0.092411
O O6 0.569712 0.500000 0.103161
O O7 0.502890 0.638413 0.186366
O O8 0.500000 0.621755 0.000000
O O9 0.029966 0.000000 0.288309
O O10 0.750000 0.000000 0.218170
O O11 0.500000 0.203716 0.500000
O O12 0.750000 0.224740 0.410316
O O13 0.499265 0.245811 0.325159
O O14 0.592096 0.095694 0.385008
O O15 0.750000 0.686500 0.734852
O O16 0.000000 0.000000 0.500000
#
# Coordination Sequence:
#
# PCOD9406443 Si02
#       6
#     8   8   4   8   8   4
#     4  11  24  39  54  78 109 149 192 237 285 339
#     4  10  21  38  62  92 124 157 192 234 286 346
#     4  12  22  38  58  79 107 148 193 237 290 343
#     4  11  22  39  60  86 118 154 198 247 299 350
#     4  11  23  38  59  87 117 152 194 239 291 346
#     4  10  22  38  59  87 113 152 199 249 302 350
#
# _framework density 18.663336999999999
#
# number of rings (size 3 to 8) (size 9 to 14) (size 15 to 20)
#    0.000    1.200    2.000    4.500    0.000    5.200 
#    0.000    3.500    0.000    0.600    0.000    0.000 
#    0.000    0.000    0.000    0.000    0.000    0.000 
#
# Total GULP energy -222692.112919 kJ/mol
# GULP energy per Si atom -5567.302823 kJ/mol
# Density = 1.862086 g / cm^3
# Si number density = 18.663337 Si / 1000 Ang^3
#
#
#
# Elastic Constant Matrix: (Units=GPa)
#
#
# Indices 1 2 3 4 5 6 
#
# 1 147.5200 40.2022 76.3131 0.0000 0.0000 0.0000
# 2 40.2022 52.7219 34.1591 0.0000 0.0000 0.0000
# 3 76.3131 34.1591 138.4967 0.0000 0.0000 0.0000
# 4 0.0000 0.0000 0.0000 41.1595 0.0000 0.0000
# 5 0.0000 0.0000 0.0000 0.0000 27.1063 0.0000
# 6 0.0000 0.0000 0.0000 0.0000 0.0000 -463.7312
#
#
#
# Elastic Compliance Matrix: (Units=1/GPa)
#
#
# Indices 1 2 3 4 5 6 
#
# 1 0.010510 -0.005072 -0.004540 0.000000 0.000000 0.000000
# 2 -0.005072 0.025023 -0.003377 0.000000 0.000000 0.000000
# 3 -0.004540 -0.003377 0.010555 0.000000 0.000000 0.000000
# 4 0.000000 0.000000 0.000000 0.024296 0.000000 0.000000
# 5 0.000000 0.000000 0.000000 0.000000 0.036892 0.000000
# 6 0.000000 0.000000 0.000000 0.000000 0.000000 -0.002156
#
#
# Mechanical properties :
#
#
# Convention : Reuss Voigt Hill
#
# Bulk Modulus (GPa) = 49.72806 71.12081 60.42444
# Shear Modulus (GPa) = 36.28452 -66.55545 -15.13546
#
# Velocity S-wave (km/s) = 4.41405 -5.97817 -2.85085
# Velocity P-wave (km/s) = 7.25817 3.07593 4.64864
#
# Compressibility (1/GPa) = 0.02010937
#
# Stress axis : x y z
#
# Youngs Moduli (GPa) = 95.15145 39.96287 94.74442
#
# Poissons Ratio (x) = 0.20271 0.43012
# Poissons Ratio (y) = 0.48266 0.31993
# Poissons Ratio (z) = 0.43197 0.13495
#
# Static dielectric constant tensor:
#      x y z
#    x 1.694280 0.000000 0.000000 
#    y 0.000000 1.643250 0.000000 
#    z 0.000000 0.000000 1.620500 
# 
# From -- ./inp_files/20534.got.cif
#   From: 2010.05.17/outbox.cif.g08.bks.cpg/sg51_11_cif.got.tgz:20534.got - 2010.06.03 11:52:47.
