data_PCOD9406576
_publ_section_title
;
Structure prediction by ZEFSAII (Michael W. Deem and Ramdas Pophale) SiO2 
 PCOD9406576
Probable space group: P M M A
;
_chemical_formula_sum "Si O2"
_cell_formula_units_Z 56
_cell_length_a 14.649149
_cell_length_b 19.858119
_cell_length_c 9.477214
_cell_angle_alpha 90.000000
_cell_angle_beta 90.000000
_cell_angle_gamma 90.000000
_cell_volume 2756.964618
_symmetry_space_group_name_H-M "P M M A"
_symmetry_group_IT_number 51
_symmetry_cell_setting 'orthorhombic'
loop_
_space_group_symop_operation_xyz
x,y,z
1/2-x,-y,z
1/2+x,-y,-z
-x,y,-z
-x,-y,-z
1/2+x,y,-z
1/2-x,y,z
x,-y,z
loop_
_atom_site_type_symbol
_atom_site_label
_atom_site_fract_x
_atom_site_fract_y
_atom_site_fract_z
Si Si1 0.108443 0.423349 0.485331
Si Si2 0.476575 0.845488 0.649731
Si Si3 0.638880 0.694421 0.026659
Si Si4 0.096850 0.076240 0.917781
Si Si5 0.856490 0.714265 0.347740
Si Si6 0.858620 0.426886 0.843783
Si Si7 0.352692 0.822990 0.150582
O O1 0.141869 0.500000 0.524487
O O2 0.139083 0.356638 0.568706
O O3 0.131128 0.412328 0.321394
O O4 0.000000 0.425573 0.500000
O O5 0.500000 0.880009 0.500000
O O6 0.417797 0.885920 0.768123
O O7 0.421929 0.776486 0.610963
O O8 0.573382 0.834608 0.728341
O O9 0.750000 0.693830 0.025357
O O10 0.612925 0.697938 0.188379
O O11 0.603856 0.629951 0.944304
O O12 0.612066 0.759506 0.938778
O O13 0.129319 0.000000 0.895815
O O14 0.152411 0.118683 0.032613
O O15 0.000000 0.073038 0.000000
O O16 0.750000 0.736186 0.349100
O O17 0.750000 0.430144 0.870429
O O18 0.899627 0.500000 0.871162
O O19 0.250000 0.810251 0.205531
#
# Coordination Sequence:
#
# PCOD9406576 Si02
#       7
#     8   8   8   8   8   8   8
#     4  10  22  39  55  78 114 155 204 257 315 387
#     4  11  24  39  60  94 132 168 206 257 318 374
#     4   9  19  34  55  82 112 147 195 255 305 359
#     4   9  19  39  66  92 121 161 205 250 301 364
#     4  11  23  38  58  86 122 162 208 261 317 377
#     4   9  18  34  55  77 104 144 193 244 303 367
#     4  10  21  40  63  91 124 165 213 255 307 376
#
# _framework density 20.312193000000001
#
# number of rings (size 3 to 8) (size 9 to 14) (size 15 to 20)
#    0.000    2.143    1.429    0.857    4.000    2.571 
#    0.000    1.429    0.000    2.571    0.000    2.000 
#    0.000    0.000    0.000    0.000    0.000    0.000 
#
# Total GULP energy -312291.503146 kJ/mol
# GULP energy per Si atom -5576.633985 kJ/mol
# Density = 2.026596 g / cm^3
# Si number density = 20.312193 Si / 1000 Ang^3
#
#
#
# Elastic Constant Matrix: (Units=GPa)
#
#
# Indices 1 2 3 4 5 6 
#
# 1 80.7057 19.1633 17.5990 0.0000 0.0000 0.0000
# 2 19.1633 82.0684 36.8794 0.0000 0.0000 0.0000
# 3 17.5990 36.8794 82.1223 0.0000 0.0000 0.0000
# 4 0.0000 0.0000 0.0000 19.4558 0.0000 0.0000
# 5 0.0000 0.0000 0.0000 0.0000 20.4010 0.0000
# 6 0.0000 0.0000 0.0000 0.0000 0.0000 14.7677
#
#
#
# Elastic Compliance Matrix: (Units=1/GPa)
#
#
# Indices 1 2 3 4 5 6 
#
# 1 0.013334 -0.002292 -0.001828 0.000000 0.000000 0.000000
# 2 -0.002292 0.015660 -0.006541 0.000000 0.000000 0.000000
# 3 -0.001828 -0.006541 0.015506 0.000000 0.000000 0.000000
# 4 0.000000 0.000000 0.000000 0.051399 0.000000 0.000000
# 5 0.000000 0.000000 0.000000 0.000000 0.049017 0.000000
# 6 0.000000 0.000000 0.000000 0.000000 0.000000 0.067715
#
#
# Mechanical properties :
#
#
# Convention : Reuss Voigt Hill
#
# Bulk Modulus (GPa) = 43.14660 43.57555 43.36108
# Shear Modulus (GPa) = 20.68864 22.34189 21.51526
#
# Velocity S-wave (km/s) = 3.19491 3.32011 3.25811
# Velocity P-wave (km/s) = 5.90743 6.01639 5.96216
#
# Compressibility (1/GPa) = 0.02317680
#
# Stress axis : x y z
#
# Youngs Moduli (GPa) = 74.99874 63.85864 64.49002
#
# Poissons Ratio (x) = 0.14636 0.11790
# Poissons Ratio (y) = 0.17189 0.42184
# Poissons Ratio (z) = 0.13711 0.41771
#
# Static dielectric constant tensor:
#      x y z
#    x 1.761590 0.000000 0.000000 
#    y 0.000000 1.751530 0.000000 
#    z 0.000000 0.000000 1.698580 
# 
# From -- ./inp_files/8470.got.cif
#   From: 2010.05.17/outbox.cif.g08.bks.cpg/sg51_5_cif.got.tgz:8470.got - 2010.06.03 11:52:47.
