data_PCOD9406654
_publ_section_title
;
Structure prediction by ZEFSAII (Michael W. Deem and Ramdas Pophale) SiO2 
 PCOD9406654
Probable space group: P M M A
;
_chemical_formula_sum "Si O2"
_cell_formula_units_Z 48
_cell_length_a 14.211209
_cell_length_b 8.785082
_cell_length_c 21.530372
_cell_angle_alpha 90.000000
_cell_angle_beta 90.000000
_cell_angle_gamma 90.000000
_cell_volume 2687.994524
_symmetry_space_group_name_H-M "P M M A"
_symmetry_group_IT_number 51
_symmetry_cell_setting 'orthorhombic'
loop_
_space_group_symop_operation_xyz
x,y,z
1/2-x,-y,z
1/2+x,-y,-z
-x,y,-z
-x,-y,-z
1/2+x,y,-z
1/2-x,y,z
x,-y,z
loop_
_atom_site_type_symbol
_atom_site_label
_atom_site_fract_x
_atom_site_fract_y
_atom_site_fract_z
Si Si1 0.355928 0.685079 0.467364
Si Si2 0.863326 0.676511 0.039700
Si Si3 0.454300 0.316032 0.596483
Si Si4 0.142220 0.683563 0.100655
Si Si5 0.858993 0.815966 0.281517
Si Si6 0.035371 0.181149 0.843470
O O1 0.250000 0.739210 0.454803
O O2 0.354558 0.500000 0.465847
O O3 0.438865 0.732056 0.420395
O O4 0.390536 0.726460 0.536703
O O5 0.750000 0.679719 0.043635
O O6 0.893803 0.500000 0.045984
O O7 0.907399 0.770337 0.095291
O O8 0.886653 0.729371 0.969764
O O9 0.452757 0.500000 0.600930
O O10 0.413209 0.245938 0.658691
O O11 0.250000 0.732170 0.111355
O O12 0.140890 0.500000 0.101349
O O13 0.067729 0.747922 0.148705
O O14 0.750000 0.766325 0.282180
O O15 0.910037 0.766053 0.218080
O O16 0.859931 0.000000 0.282818
O O17 0.028046 0.000000 0.841161
#
# Coordination Sequence:
#
# PCOD9406654 Si02
#       6
#     8   8   8   8   8   8
#     4   8  14  27  49  78 109 132 154 197 252 292
#     4   9  18  33  53  76 101 129 162 204 254 303
#     4   9  17  30  52  79 101 128 168 205 237 283
#     4   9  19  36  55  74  98 128 163 206 255 303
#     4  10  22  38  51  67  99 137 165 197 246 295
#     4  11  22  34  50  73 101 133 168 206 249 298
#
# _framework density 17.857178999999999
#
# number of rings (size 3 to 8) (size 9 to 14) (size 15 to 20)
#    0.000    2.667    0.000    4.000    0.000    6.333 
#    0.000    4.167    0.000    4.500    0.000    0.000 
#    0.000    0.000    0.000    0.000    0.000    0.000 
#
# Total GULP energy -267753.261822 kJ/mol
# GULP energy per Si atom -5578.192955 kJ/mol
# Density = 1.781653 g / cm^3
# Si number density = 17.857179 Si / 1000 Ang^3
#
#
#
# Elastic Constant Matrix: (Units=GPa)
#
#
# Indices 1 2 3 4 5 6 
#
# 1 159.2082 24.9209 99.5238 0.0000 0.0000 0.0000
# 2 24.9209 9.1211 27.5878 0.0000 0.0000 0.0000
# 3 99.5238 27.5878 126.5004 0.0000 0.0000 0.0000
# 4 0.0000 0.0000 0.0000 33.4467 0.0000 0.0000
# 5 0.0000 0.0000 0.0000 0.0000 25.1442 0.0000
# 6 0.0000 0.0000 0.0000 0.0000 0.0000 14.3802
#
#
#
# Elastic Compliance Matrix: (Units=1/GPa)
#
#
# Indices 1 2 3 4 5 6 
#
# 1 0.012891 -0.013354 -0.007229 0.000000 0.000000 0.000000
# 2 -0.013354 0.335934 -0.062756 0.000000 0.000000 0.000000
# 3 -0.007229 -0.062756 0.027279 0.000000 0.000000 0.000000
# 4 0.000000 0.000000 0.000000 0.029898 0.000000 0.000000
# 5 0.000000 0.000000 0.000000 0.000000 0.039771 0.000000
# 6 0.000000 0.000000 0.000000 0.000000 0.000000 0.069540
#
#
# Mechanical properties :
#
#
# Convention : Reuss Voigt Hill
#
# Bulk Modulus (GPa) = 4.77497 66.54387 35.65942
# Shear Modulus (GPa) = 6.65071 24.11402 15.38236
#
# Velocity S-wave (km/s) = 1.93196 3.67874 2.93816
# Velocity P-wave (km/s) = 2.76702 7.44242 5.61453
#
# Compressibility (1/GPa) = 0.20942525
#
# Stress axis : x y z
#
# Youngs Moduli (GPa) = 77.57630 2.97677 36.65843
#
# Poissons Ratio (x) = 0.03975 0.26501
# Poissons Ratio (y) = 1.03595 2.30054
# Poissons Ratio (z) = 0.56082 0.18681
#
# Static dielectric constant tensor:
#      x y z
#    x 1.635310 0.000000 0.000000 
#    y 0.000000 1.601250 0.000000 
#    z 0.000000 0.000000 1.582110 
# 
# From -- ./inp_files/29443.got.cif
#   From: 2010.05.17/outbox.cif.g08.bks.cpg/sg51_15_cif.got.tgz:29443.got - 2010.06.03 11:52:47.
