data_PCOD9406979
_publ_section_title
;
Structure prediction by ZEFSAII (Michael W. Deem and Ramdas Pophale) SiO2 
 PCOD9406979
Probable space group: P M M A
;
_chemical_formula_sum "Si O2"
_cell_formula_units_Z 56
_cell_length_a 9.298889
_cell_length_b 13.795847
_cell_length_c 29.747884
_cell_angle_alpha 90.000000
_cell_angle_beta 90.000000
_cell_angle_gamma 90.000000
_cell_volume 3816.238532
_symmetry_space_group_name_H-M "P M M A"
_symmetry_group_IT_number 51
_symmetry_cell_setting 'orthorhombic'
loop_
_space_group_symop_operation_xyz
x,y,z
1/2-x,-y,z
1/2+x,-y,-z
-x,y,-z
-x,-y,-z
1/2+x,y,-z
1/2-x,y,z
x,-y,z
loop_
_atom_site_type_symbol
_atom_site_label
_atom_site_fract_x
_atom_site_fract_y
_atom_site_fract_z
Si Si1 0.584957 0.381782 0.955475
Si Si2 0.920226 0.801522 0.454671
Si Si3 0.078741 0.112154 0.641636
Si Si4 0.415584 0.617780 0.867529
Si Si5 0.077710 0.706979 0.318323
Si Si6 0.578751 0.616194 0.234198
Si Si7 0.921486 0.610817 0.401724
O O1 0.750000 0.351847 0.957875
O O2 0.581636 0.500000 0.955179
O O3 0.511924 0.349204 0.909047
O O4 0.500000 0.350799 0.000000
O O5 0.750000 0.807367 0.462256
O O6 0.954030 0.865993 0.410858
O O7 0.955536 0.691232 0.439298
O O8 0.000000 0.828805 0.500000
O O9 0.250000 0.132638 0.647563
O O10 0.985594 0.186880 0.670384
O O11 0.052957 0.000000 0.652007
O O12 0.250000 0.646815 0.874751
O O13 0.417569 0.500000 0.867655
O O14 0.459094 0.645872 0.816977
O O15 0.250000 0.705490 0.319333
O O16 0.014809 0.669517 0.271328
O O17 0.011233 0.638915 0.357571
O O18 0.750000 0.634165 0.240696
O O19 0.558254 0.500000 0.238211
O O20 0.750000 0.620614 0.391612
O O21 0.948444 0.500000 0.415114
#
# Coordination Sequence:
#
# PCOD9406979 Si02
#       7
#     8   8   8   8   8   8   8
#     4   9  15  21  30  44  64  93 130 173 217 255
#     4   9  18  31  47  69  92 112 136 166 202 243
#     4   9  19  37  56  68  82 109 141 168 198 245
#     4   8  14  24  36  50  69  96 134 176 212 245
#     4  11  21  30  44  68  92 109 132 172 215 251
#     4   9  17  29  44  60  82 115 148 175 207 251
#     4   9  18  33  49  62  83 118 152 175 197 234
#
# _framework density 14.674135
#
# number of rings (size 3 to 8) (size 9 to 14) (size 15 to 20)
#    0.000    2.857    0.000    3.857    0.000    7.714 
#    0.000    1.429    0.000    0.000    0.000    0.000 
#    0.000    0.000    0.000    0.000    0.000    0.714 
#
# Total GULP energy -311985.167324 kJ/mol
# GULP energy per Si atom -5571.163702 kJ/mol
# Density = 1.464074 g / cm^3
# Si number density = 14.674135 Si / 1000 Ang^3
#
#
#
# Elastic Constant Matrix: (Units=GPa)
#
#
# Indices 1 2 3 4 5 6 
#
# 1 68.9285 15.0755 59.7376 0.0000 0.0000 0.0000
# 2 15.0755 36.0227 5.6074 0.0000 0.0000 0.0000
# 3 59.7376 5.6074 99.4906 0.0000 0.0000 0.0000
# 4 0.0000 0.0000 0.0000 8.1583 0.0000 0.0000
# 5 0.0000 0.0000 0.0000 0.0000 27.0308 0.0000
# 6 0.0000 0.0000 0.0000 0.0000 0.0000 10.5659
#
#
#
# Elastic Compliance Matrix: (Units=1/GPa)
#
#
# Indices 1 2 3 4 5 6 
#
# 1 0.034223 -0.011222 -0.019916 0.000000 0.000000 0.000000
# 2 -0.011222 0.031686 0.004952 0.000000 0.000000 0.000000
# 3 -0.019916 0.004952 0.021730 0.000000 0.000000 0.000000
# 4 0.000000 0.000000 0.000000 0.122575 0.000000 0.000000
# 5 0.000000 0.000000 0.000000 0.000000 0.036995 0.000000
# 6 0.000000 0.000000 0.000000 0.000000 0.000000 0.094644
#
#
# Mechanical properties :
#
#
# Convention : Reuss Voigt Hill
#
# Bulk Modulus (GPa) = 28.35488 40.58698 34.47093
# Shear Modulus (GPa) = 12.31587 17.41906 14.86747
#
# Velocity S-wave (km/s) = 2.90020 3.44911 3.18649
# Velocity P-wave (km/s) = 5.52990 6.60157 6.08936
#
# Compressibility (1/GPa) = 0.03526730
#
# Stress axis : x y z
#
# Youngs Moduli (GPa) = 29.22050 31.55987 46.01864
#
# Poissons Ratio (x) = 0.35416 0.91650
# Poissons Ratio (y) = 0.32791 -0.22789
# Poissons Ratio (z) = 0.58195 -0.15629
#
# Static dielectric constant tensor:
#      x y z
#    x 1.487730 0.000000 0.000000 
#    y 0.000000 1.469590 0.000000 
#    z 0.000000 0.000000 1.482910 
# 
# From -- ./inp_files/37460.got.cif
#   From: 2010.05.17/outbox.cif.g08.bks.cpg/sg51_19_cif.got.tgz:37460.got - 2010.06.03 11:52:47.
