data_PCOD9406597
_publ_section_title
;
Structure prediction by ZEFSAII (Michael W. Deem and Ramdas Pophale) SiO2 
 PCOD9406597
Probable space group: P M M A
;
_chemical_formula_sum "Si O2"
_cell_formula_units_Z 56
_cell_length_a 14.550199
_cell_length_b 20.942848
_cell_length_c 6.913326
_cell_angle_alpha 90.000000
_cell_angle_beta 90.000000
_cell_angle_gamma 90.000000
_cell_volume 2106.646715
_symmetry_space_group_name_H-M "P M M A"
_symmetry_group_IT_number 51
_symmetry_cell_setting 'orthorhombic'
loop_
_space_group_symop_operation_xyz
x,y,z
1/2-x,-y,z
1/2+x,-y,-z
-x,y,-z
-x,-y,-z
1/2+x,y,-z
1/2-x,y,z
x,-y,z
loop_
_atom_site_type_symbol
_atom_site_label
_atom_site_fract_x
_atom_site_fract_y
_atom_site_fract_z
Si Si1 0.148464 0.574809 0.137577
Si Si2 0.346087 0.929696 0.275703
Si Si3 0.443432 0.574032 0.727948
Si Si4 0.407542 0.200049 0.364855
Si Si5 0.457012 0.070240 0.726925
Si Si6 0.637638 0.194400 0.083376
Si Si7 0.353081 0.694059 0.624948
O O1 0.250000 0.603569 0.182215
O O2 0.155310 0.500000 0.190238
O O3 0.047265 0.592522 0.214682
O O4 0.126531 0.578204 0.909243
O O5 0.500000 0.929153 0.500000
O O6 0.350820 0.865537 0.402335
O O7 0.442868 0.929438 0.168863
O O8 0.341924 0.000000 0.369381
O O9 0.440673 0.500000 0.665581
O O10 0.406819 0.629473 0.593852
O O11 0.500000 0.199778 0.500000
O O12 0.406524 0.200484 0.130870
O O13 0.356744 0.262328 0.436046
O O14 0.250000 0.074718 0.162183
O O15 0.400110 0.131127 0.803313
O O16 0.414612 0.000000 0.755509
O O17 0.750000 0.192732 0.072946
O O18 0.612816 0.258176 0.205028
O O19 0.250000 0.677551 0.673801
#
# Coordination Sequence:
#
# PCOD9406597 Si02
#       7
#     8   8   8   8   8   8   8
#     4   8  14  27  51  89 139 187 232 296 382 475
#     4  10  21  40  69 104 146 196 244 296 365 443
#     4   9  18  33  59  98 140 184 242 312 385 467
#     4  12  27  47  72 104 150 203 263 335 401 463
#     4  10  22  42  74 119 162 200 253 321 385 452
#     4  11  26  49  76 109 155 214 271 322 393 484
#     4  11  24  43  71 105 144 196 256 318 390 473
#
# _framework density 26.582529999999998
#
# number of rings (size 3 to 8) (size 9 to 14) (size 15 to 20)
#    0.000    1.857    0.000    4.714    0.000    8.857 
#    0.000    2.857    0.000    7.286    0.000    4.000 
#    0.000    0.000    0.000    7.143    0.000    0.143 
#
# Total GULP energy -312209.350640 kJ/mol
# GULP energy per Si atom -5575.166976 kJ/mol
# Density = 2.652203 g / cm^3
# Si number density = 26.582530 Si / 1000 Ang^3
#
#
#
# Elastic Constant Matrix: (Units=GPa)
#
#
# Indices 1 2 3 4 5 6 
#
# 1 185.7690 57.7503 31.9729 0.0000 0.0000 0.0000
# 2 57.7503 169.0745 61.6747 0.0000 0.0000 0.0000
# 3 31.9729 61.6747 147.7243 0.0000 0.0000 0.0000
# 4 0.0000 0.0000 0.0000 159.2003 0.0000 0.0000
# 5 0.0000 0.0000 0.0000 0.0000 21.7592 0.0000
# 6 0.0000 0.0000 0.0000 0.0000 0.0000 47.5000
#
#
#
# Elastic Compliance Matrix: (Units=1/GPa)
#
#
# Indices 1 2 3 4 5 6 
#
# 1 0.006057 -0.001876 -0.000528 0.000000 0.000000 0.000000
# 2 -0.001876 0.007558 -0.002750 0.000000 0.000000 0.000000
# 3 -0.000528 -0.002750 0.008031 0.000000 0.000000 0.000000
# 4 0.000000 0.000000 0.000000 0.006281 0.000000 0.000000
# 5 0.000000 0.000000 0.000000 0.000000 0.045958 0.000000
# 6 0.000000 0.000000 0.000000 0.000000 0.000000 0.021053
#
#
# Mechanical properties :
#
#
# Convention : Reuss Voigt Hill
#
# Bulk Modulus (GPa) = 88.18354 89.48486 88.83420
# Shear Modulus (GPa) = 45.86066 69.10321 57.48194
#
# Velocity S-wave (km/s) = 4.15808 5.10413 4.65520
# Velocity P-wave (km/s) = 7.50322 8.27480 7.89844
#
# Compressibility (1/GPa) = 0.01133998
#
# Stress axis : x y z
#
# Youngs Moduli (GPa) = 165.09344 132.30209 124.51029
#
# Poissons Ratio (x) = 0.24826 0.06569
# Poissons Ratio (y) = 0.30980 0.34234
# Poissons Ratio (z) = 0.08710 0.36377
#
# Static dielectric constant tensor:
#      x y z
#    x 2.167660 0.000000 0.000000 
#    y 0.000000 2.070120 0.000000 
#    z 0.000000 0.000000 2.402800 
# 
# From -- ./inp_files/8587.got.cif
#   From: 2010.05.17/outbox.cif.g08.bks.cpg/sg51_5_cif.got.tgz:8587.got - 2010.06.03 11:52:47.
