data_PCOD9406807
_publ_section_title
;
Structure prediction by ZEFSAII (Michael W. Deem and Ramdas Pophale) SiO2 
 PCOD9406807
Probable space group: P M M A
;
_chemical_formula_sum "Si O2"
_cell_formula_units_Z 40
_cell_length_a 16.524114
_cell_length_b 8.602834
_cell_length_c 14.262793
_cell_angle_alpha 90.000000
_cell_angle_beta 90.000000
_cell_angle_gamma 90.000000
_cell_volume 2027.516068
_symmetry_space_group_name_H-M "P M M A"
_symmetry_group_IT_number 51
_symmetry_cell_setting 'orthorhombic'
loop_
_space_group_symop_operation_xyz
x,y,z
1/2-x,-y,z
1/2+x,-y,-z
-x,y,-z
-x,-y,-z
1/2+x,y,-z
1/2-x,y,z
x,-y,z
loop_
_atom_site_type_symbol
_atom_site_label
_atom_site_fract_x
_atom_site_fract_y
_atom_site_fract_z
Si Si1 0.904201 0.186059 0.131898
Si Si2 0.936528 0.315474 0.770340
Si Si3 0.155905 0.816952 0.065652
Si Si4 0.250000 0.310388 0.540323
Si Si5 0.081386 0.689778 0.444786
Si Si6 0.250000 0.686471 0.757811
O O1 0.828901 0.251672 0.189787
O O2 0.985539 0.239001 0.181909
O O3 0.899423 0.000000 0.130322
O O4 0.895925 0.238268 0.023606
O O5 0.948522 0.500000 0.767604
O O6 0.863685 0.273084 0.839667
O O7 0.923601 0.261734 0.663753
O O8 0.250000 0.802483 0.039748
O O9 0.138619 0.000000 0.081346
O O10 0.250000 0.500000 0.537221
O O11 0.333764 0.259296 0.491236
O O12 0.250000 0.264134 0.649139
O O13 0.081793 0.500000 0.447067
O O14 0.000000 0.739104 0.500000
O O15 0.250000 0.500000 0.760345
#
# Coordination Sequence:
#
# PCOD9406807 Si02
#       6
#     8   8   8   4   8   4
#     4  11  22  40  61  83 117 163 200 230 290 368
#     4  11  23  36  59  92 119 148 197 253 296 331
#     4  10  22  41  60  81 115 162 201 229 285 367
#     4   9  18  33  56  83 116 156 191 237 306 365
#     4   9  18  34  55  83 119 154 192 239 296 360
#     4  11  21  35  62  93 116 144 197 259 300 331
#
# _framework density 19.728573000000001
#
# number of rings (size 3 to 8) (size 9 to 14) (size 15 to 20)
#    0.000    1.800    1.000    3.300    1.400    7.600 
#    0.000    0.000    0.000   13.200    0.000    0.000 
#    0.000    0.000    0.000    0.000    0.000    0.000 
#
# Total GULP energy -223467.248451 kJ/mol
# GULP energy per Si atom -5586.681211 kJ/mol
# Density = 1.968367 g / cm^3
# Si number density = 19.728573 Si / 1000 Ang^3
#
#
#
# Elastic Constant Matrix: (Units=GPa)
#
#
# Indices 1 2 3 4 5 6 
#
# 1 96.3783 7.8058 52.7078 0.0000 0.0000 0.0000
# 2 7.8058 23.6706 24.4769 0.0000 0.0000 0.0000
# 3 52.7078 24.4769 175.1730 0.0000 0.0000 0.0000
# 4 0.0000 0.0000 0.0000 85.7258 0.0000 0.0000
# 5 0.0000 0.0000 0.0000 0.0000 36.5863 0.0000
# 6 0.0000 0.0000 0.0000 0.0000 0.0000 28.2913
#
#
#
# Elastic Compliance Matrix: (Units=1/GPa)
#
#
# Indices 1 2 3 4 5 6 
#
# 1 0.012421 -0.000270 -0.003700 0.000000 0.000000 0.000000
# 2 -0.000270 0.049387 -0.006820 0.000000 0.000000 0.000000
# 3 -0.003700 -0.006820 0.007775 0.000000 0.000000 0.000000
# 4 0.000000 0.000000 0.000000 0.011665 0.000000 0.000000
# 5 0.000000 0.000000 0.000000 0.000000 0.027333 0.000000
# 6 0.000000 0.000000 0.000000 0.000000 0.000000 0.035347
#
#
# Mechanical properties :
#
#
# Convention : Reuss Voigt Hill
#
# Bulk Modulus (GPa) = 20.83160 51.68921 36.26040
# Shear Modulus (GPa) = 27.54705 44.13612 35.84159
#
# Velocity S-wave (km/s) = 3.74077 4.73500 4.26694
# Velocity P-wave (km/s) = 5.40738 7.49338 6.53416
#
# Compressibility (1/GPa) = 0.04800400
#
# Stress axis : x y z
#
# Youngs Moduli (GPa) = 80.50940 20.24808 128.62264
#
# Poissons Ratio (x) = 0.00548 0.47584
# Poissons Ratio (y) = 0.02177 0.87714
# Poissons Ratio (z) = 0.29785 0.13808
#
# Static dielectric constant tensor:
#      x y z
#    x 1.743420 0.000000 0.000000 
#    y 0.000000 1.668710 0.000000 
#    z 0.000000 0.000000 1.682700 
# 
# From -- ./inp_files/23778.got.cif
#   From: 2010.05.17/outbox.cif.g08.bks.cpg/sg51_12_cif.got.tgz:23778.got - 2010.06.03 11:52:47.
