data_PCOD9406405
_publ_section_title
;
Structure prediction by ZEFSAII (Michael W. Deem and Ramdas Pophale) SiO2 
 PCOD9406405
Probable space group: P M M A
;
_chemical_formula_sum "Si O2"
_cell_formula_units_Z 64
_cell_length_a 8.948677
_cell_length_b 14.284464
_cell_length_c 26.755216
_cell_angle_alpha 90.000000
_cell_angle_beta 90.000000
_cell_angle_gamma 90.000000
_cell_volume 3420.040453
_symmetry_space_group_name_H-M "P M M A"
_symmetry_group_IT_number 51
_symmetry_cell_setting 'orthorhombic'
loop_
_space_group_symop_operation_xyz
x,y,z
1/2-x,-y,z
1/2+x,-y,-z
-x,y,-z
-x,-y,-z
1/2+x,y,-z
1/2-x,y,z
x,-y,z
loop_
_atom_site_type_symbol
_atom_site_label
_atom_site_fract_x
_atom_site_fract_y
_atom_site_fract_z
Si Si1 0.570732 0.605855 0.904787
Si Si2 0.430679 0.390803 0.690172
Si Si3 0.923401 0.887118 0.147386
Si Si4 0.572619 0.888059 0.749175
Si Si5 0.427482 0.111354 0.552989
Si Si6 0.079910 0.613531 0.801437
Si Si7 0.429135 0.784166 0.353436
Si Si8 0.571246 0.796709 0.949084
O O1 0.750000 0.602564 0.904942
O O2 0.514803 0.500000 0.915168
O O3 0.517163 0.636001 0.849582
O O4 0.523401 0.687930 0.941834
O O5 0.250000 0.383132 0.688518
O O6 0.468234 0.500000 0.682546
O O7 0.478010 0.361170 0.746562
O O8 0.507798 0.320360 0.652405
O O9 0.750000 0.860990 0.142285
O O10 0.986651 0.855159 0.201157
O O11 0.014674 0.848675 0.100433
O O12 0.934031 0.000000 0.147181
O O13 0.750000 0.872691 0.756653
O O14 0.527066 0.838934 0.697583
O O15 0.548978 0.000000 0.744010
O O16 0.500000 0.138337 0.500000
O O17 0.250000 0.127486 0.551797
O O18 0.501522 0.165356 0.598805
O O19 0.453159 0.000000 0.559654
O O20 0.250000 0.647421 0.807758
O O21 0.086720 0.500000 0.799958
O O22 0.250000 0.784699 0.356564
O O23 0.750000 0.801615 0.951900
O O24 0.500000 0.834342 0.000000
#
# Coordination Sequence:
#
# PCOD9406405 Si02
#       8
#     8   8   8   8   8   8   8   8
#     4   9  19  35  54  77 106 138 173 216 266 323
#     4   9  19  35  52  75 112 155 198 242 286 333
#     4  10  22  40  61  83 107 138 177 223 276 332
#     4   9  19  36  56  81 116 152 182 219 273 335
#     4  10  21  38  61  88 120 158 199 243 290 340
#     4   8  15  29  49  73 101 136 178 221 267 320
#     4  11  22  34  55  87 121 157 197 239 286 339
#     4  11  24  40  58  80 106 137 177 222 272 329
#
# _framework density 18.713228000000001
#
# number of rings (size 3 to 8) (size 9 to 14) (size 15 to 20)
#    0.000    2.375    0.000    2.625    1.750    5.250 
#    0.000    2.500    0.000    0.375    0.000    0.000 
#    0.000    0.000    0.000    0.000    0.000    0.000 
#
# Total GULP energy -357320.693426 kJ/mol
# GULP energy per Si atom -5583.135835 kJ/mol
# Density = 1.867064 g / cm^3
# Si number density = 18.713228 Si / 1000 Ang^3
#
#
#
# Elastic Constant Matrix: (Units=GPa)
#
#
# Indices 1 2 3 4 5 6 
#
# 1 44.0296 37.1218 55.9107 0.0000 0.0000 0.0000
# 2 37.1218 57.0579 56.3682 0.0000 0.0000 0.0000
# 3 55.9107 56.3682 151.5160 0.0000 0.0000 0.0000
# 4 0.0000 0.0000 0.0000 30.5801 0.0000 0.0000
# 5 0.0000 0.0000 0.0000 0.0000 34.1028 0.0000
# 6 0.0000 0.0000 0.0000 0.0000 0.0000 20.6103
#
#
#
# Elastic Compliance Matrix: (Units=1/GPa)
#
#
# Indices 1 2 3 4 5 6 
#
# 1 0.062436 -0.028238 -0.012534 0.000000 0.000000 0.000000
# 2 -0.028238 0.040482 -0.004640 0.000000 0.000000 0.000000
# 3 -0.012534 -0.004640 0.012951 0.000000 0.000000 0.000000
# 4 0.000000 0.000000 0.000000 0.032701 0.000000 0.000000
# 5 0.000000 0.000000 0.000000 0.000000 0.029323 0.000000
# 6 0.000000 0.000000 0.000000 0.000000 0.000000 0.048519
#
#
# Mechanical properties :
#
#
# Convention : Reuss Voigt Hill
#
# Bulk Modulus (GPa) = 39.92908 61.26720 50.59814
# Shear Modulus (GPa) = 15.35689 23.93884 19.64786
#
# Velocity S-wave (km/s) = 2.86780 3.58054 3.24380
# Velocity P-wave (km/s) = 5.68765 7.06433 6.41304
#
# Compressibility (1/GPa) = 0.02504440
#
# Stress axis : x y z
#
# Youngs Moduli (GPa) = 16.01634 24.70227 77.21146
#
# Poissons Ratio (x) = 0.69755 0.96777
# Poissons Ratio (y) = 0.45228 0.35828
# Poissons Ratio (z) = 0.20075 0.11463
#
# Static dielectric constant tensor:
#      x y z
#    x 1.623220 0.000000 0.000000 
#    y 0.000000 1.681900 0.000000 
#    z 0.000000 0.000000 1.619250 
# 
# From -- ./inp_files/34857.got.cif
#   From: 2010.05.17/outbox.cif.g08.bks.cpg/sg51_18_cif.got.tgz:34857.got - 2010.06.03 11:52:47.
