data_PCOD9406736
_publ_section_title
;
Structure prediction by ZEFSAII (Michael W. Deem and Ramdas Pophale) SiO2 
 PCOD9406736
Probable space group: P M M A
;
_chemical_formula_sum "Si O2"
_cell_formula_units_Z 64
_cell_length_a 15.319802
_cell_length_b 22.835443
_cell_length_c 8.929829
_cell_angle_alpha 90.000000
_cell_angle_beta 90.000000
_cell_angle_gamma 90.000000
_cell_volume 3123.961954
_symmetry_space_group_name_H-M "P M M A"
_symmetry_group_IT_number 51
_symmetry_cell_setting 'orthorhombic'
loop_
_space_group_symop_operation_xyz
x,y,z
1/2-x,-y,z
1/2+x,-y,-z
-x,y,-z
-x,-y,-z
1/2+x,y,-z
1/2-x,y,z
x,-y,z
loop_
_atom_site_type_symbol
_atom_site_label
_atom_site_fract_x
_atom_site_fract_y
_atom_site_fract_z
Si Si1 0.345930 0.108914 0.735113
Si Si2 0.022610 0.934306 0.172075
Si Si3 0.601298 0.217935 0.049934
Si Si4 0.020749 0.369016 0.326943
Si Si5 0.095790 0.435482 0.078331
Si Si6 0.151594 0.654681 0.844479
Si Si7 0.095020 0.149987 0.424873
Si Si8 0.652863 0.263284 0.734939
O O1 0.250000 0.087886 0.778733
O O2 0.426445 0.065710 0.756631
O O3 0.369283 0.165225 0.841340
O O4 0.348403 0.123607 0.559063
O O5 0.078972 0.890174 0.276060
O O6 0.060188 0.000000 0.171706
O O7 0.000000 0.917465 0.000000
O O8 0.622191 0.278530 0.133162
O O9 0.500000 0.213477 0.000000
O O10 0.649700 0.228868 0.893000
O O11 0.077262 0.420285 0.250795
O O12 0.075584 0.310754 0.280817
O O13 0.000000 0.371079 0.500000
O O14 0.924736 0.371292 0.255350
O O15 0.134309 0.500000 0.057090
O O16 0.146670 0.382561 0.998515
O O17 0.000000 0.435419 0.000000
O O18 0.250000 0.652126 0.786087
O O19 0.134008 0.212360 0.383101
O O20 0.000000 0.158213 0.500000
O O21 0.750000 0.288786 0.715445
#
# Coordination Sequence:
#
# PCOD9406736 Si02
#       8
#     8   8   8   8   8   8   8   8
#     4  11  23  37  59  92 125 162 206 261 324 385
#     4  10  22  42  67  90 118 164 215 262 313 378
#     4  12  21  38  60  86 124 163 212 265 317 378
#     4  11  24  39  58  92 131 171 212 267 326 396
#     4   9  19  40  65  89 119 162 213 263 314 377
#     4  11  22  39  62  90 123 165 216 269 322 382
#     4  10  22  39  59  87 122 163 203 253 314 390
#     4  12  23  37  58  86 124 166 211 265 323 382
#
# _framework density 20.486805
#
# number of rings (size 3 to 8) (size 9 to 14) (size 15 to 20)
#    0.000    1.250    2.500    4.875    1.750    3.500 
#    0.000    0.625    0.000    2.625    0.000    1.750 
#    0.000    0.000    0.000    0.000    0.000    0.000 
#
# Total GULP energy -356918.244530 kJ/mol
# GULP energy per Si atom -5576.847571 kJ/mol
# Density = 2.044018 g / cm^3
# Si number density = 20.486805 Si / 1000 Ang^3
#
#
#
# Elastic Constant Matrix: (Units=GPa)
#
#
# Indices 1 2 3 4 5 6 
#
# 1 109.4317 -0.8751 7.6942 0.0000 0.0000 0.0000
# 2 -0.8751 66.5172 7.8036 0.0000 0.0000 0.0000
# 3 7.6942 7.8036 105.4849 0.0000 0.0000 0.0000
# 4 0.0000 0.0000 0.0000 6.5773 0.0000 0.0000
# 5 0.0000 0.0000 0.0000 0.0000 9.6711 0.0000
# 6 0.0000 0.0000 0.0000 0.0000 0.0000 -36.8831
#
#
#
# Elastic Compliance Matrix: (Units=1/GPa)
#
#
# Indices 1 2 3 4 5 6 
#
# 1 0.009188 0.000201 -0.000685 0.000000 0.000000 0.000000
# 2 0.000201 0.015170 -0.001137 0.000000 0.000000 0.000000
# 3 -0.000685 -0.001137 0.009614 0.000000 0.000000 0.000000
# 4 0.000000 0.000000 0.000000 0.152037 0.000000 0.000000
# 5 0.000000 0.000000 0.000000 0.000000 0.103401 0.000000
# 6 0.000000 0.000000 0.000000 0.000000 0.000000 -0.027113
#
#
# Mechanical properties :
#
#
# Convention : Reuss Voigt Hill
#
# Bulk Modulus (GPa) = 32.54122 34.51993 33.53057
# Shear Modulus (GPa) = 18.13027 13.66047 15.89537
#
# Velocity S-wave (km/s) = 2.97808 2.58504 2.78849
# Velocity P-wave (km/s) = 5.26723 5.07901 5.17397
#
# Compressibility (1/GPa) = 0.03073026
#
# Stress axis : x y z
#
# Youngs Moduli (GPa) = 108.83884 65.92077 104.01386
#
# Poissons Ratio (x) = -0.01327 0.07126
# Poissons Ratio (y) = -0.02190 0.11825
# Poissons Ratio (z) = 0.07456 0.07495
#
# Static dielectric constant tensor:
#      x y z
#    x 1.745510 0.000000 0.000000 
#    y 0.000000 1.738180 0.000000 
#    z 0.000000 0.000000 1.777340 
# 
# From -- ./inp_files/8681.got.cif
#   From: 2010.05.17/outbox.cif.g08.bks.cpg/sg51_5_cif.got.tgz:8681.got - 2010.06.03 11:52:47.
