data_PCOD9406595
_publ_section_title
;
Structure prediction by ZEFSAII (Michael W. Deem and Ramdas Pophale) SiO2 
 PCOD9406595
Probable space group: P M M A
;
_chemical_formula_sum "Si O2"
_cell_formula_units_Z 32
_cell_length_a 15.182544
_cell_length_b 7.315156
_cell_length_c 14.290100
_cell_angle_alpha 90.000000
_cell_angle_beta 90.000000
_cell_angle_gamma 90.000000
_cell_volume 1587.096773
_symmetry_space_group_name_H-M "P M M A"
_symmetry_group_IT_number 51
_symmetry_cell_setting 'orthorhombic'
loop_
_space_group_symop_operation_xyz
x,y,z
1/2-x,-y,z
1/2+x,-y,-z
-x,y,-z
-x,-y,-z
1/2+x,y,-z
1/2-x,y,z
x,-y,z
loop_
_atom_site_type_symbol
_atom_site_label
_atom_site_fract_x
_atom_site_fract_y
_atom_site_fract_z
Si Si1 0.517985 0.500000 0.609640
Si Si2 0.604430 0.781102 0.901151
Si Si3 0.153990 0.500000 0.738238
Si Si4 0.651453 0.219253 0.695372
Si Si5 0.394128 0.218111 0.893675
O O1 0.500000 0.500000 0.500000
O O2 0.426985 0.500000 0.667081
O O3 0.576644 0.326158 0.640214
O O4 0.646527 0.720207 0.804358
O O5 0.499664 0.747546 0.893114
O O6 0.615934 0.000000 0.904483
O O7 0.636333 0.718203 0.002982
O O8 0.250000 0.500000 0.692301
O O9 0.145751 0.672392 0.808144
O O10 0.750000 0.257121 0.659987
O O11 0.637293 0.000000 0.692824
O O12 0.380252 0.000000 0.885155
#
# Coordination Sequence:
#
# PCOD9406595 Si02
#       5
#     4   8   4   8   8
#     4  12  27  46  67  85 117 160 203 264 323 366
#     4   8  15  31  60  92 123 162 199 235 287 354
#     4  12  26  39  58  88 119 162 214 251 292 364
#     4  10  21  40  68  99 125 153 198 251 306 369
#     4   9  18  35  58  87 127 168 202 238 287 352
#
# _framework density 20.162600999999999
#
# number of rings (size 3 to 8) (size 9 to 14) (size 15 to 20)
#    0.000    2.250    2.500    1.875    0.000    6.000 
#    0.000    2.500    0.000    0.000    0.000    0.000 
#    0.000    0.000    0.000    0.000    0.000    0.000 
#
# Total GULP energy -178713.670785 kJ/mol
# GULP energy per Si atom -5584.802212 kJ/mol
# Density = 2.011671 g / cm^3
# Si number density = 20.162601 Si / 1000 Ang^3
#
#
#
# Elastic Constant Matrix: (Units=GPa)
#
#
# Indices 1 2 3 4 5 6 
#
# 1 137.1593 52.9862 78.9172 0.0000 0.0000 0.0000
# 2 52.9862 94.5622 38.2647 0.0000 0.0000 0.0000
# 3 78.9172 38.2647 140.1897 0.0000 0.0000 0.0000
# 4 0.0000 0.0000 0.0000 16.9346 0.0000 0.0000
# 5 0.0000 0.0000 0.0000 0.0000 -5.4537 0.0000
# 6 0.0000 0.0000 0.0000 0.0000 0.0000 32.8875
#
#
#
# Elastic Compliance Matrix: (Units=1/GPa)
#
#
# Indices 1 2 3 4 5 6 
#
# 1 0.012349 -0.004616 -0.005692 0.000000 0.000000 0.000000
# 2 -0.004616 0.013614 -0.001117 0.000000 0.000000 0.000000
# 3 -0.005692 -0.001117 0.010642 0.000000 0.000000 0.000000
# 4 0.000000 0.000000 0.000000 0.059051 0.000000 0.000000
# 5 0.000000 0.000000 0.000000 0.000000 -0.183363 0.000000
# 6 0.000000 0.000000 0.000000 0.000000 0.000000 0.030407
#
#
# Mechanical properties :
#
#
# Convention : Reuss Voigt Hill
#
# Bulk Modulus (GPa) = 72.70306 79.13860 75.92083
# Shear Modulus (GPa) = -167.41347 22.32324 -72.54511
#
# Velocity S-wave (km/s) = -9.12206 3.33101 -6.00484
# Velocity P-wave (km/s) = 8.64943 7.35728 3.21582
#
# Compressibility (1/GPa) = 0.01375458
#
# Stress axis : x y z
#
# Youngs Moduli (GPa) = 80.97897 73.45476 93.96671
#
# Poissons Ratio (x) = 0.33910 0.53481
# Poissons Ratio (y) = 0.37383 0.10498
# Poissons Ratio (z) = 0.46089 0.08206
#
# Static dielectric constant tensor:
#      x y z
#    x 1.739600 0.000000 0.000000 
#    y 0.000000 1.740760 0.000000 
#    z 0.000000 0.000000 1.681270 
# 
# From -- ./inp_files/15923.got.cif
#   From: 2010.05.17/outbox.cif.g08.bks.cpg/sg51_8_cif.got.tgz:15923.got - 2010.06.03 11:52:47.
