data_PCOD9406272
_publ_section_title
;
Structure prediction by ZEFSAII (Michael W. Deem and Ramdas Pophale) SiO2 
 PCOD9406272
Probable space group: P M M A
;
_chemical_formula_sum "Si O2"
_cell_formula_units_Z 48
_cell_length_a 10.190493
_cell_length_b 7.866586
_cell_length_c 29.234402
_cell_angle_alpha 90.000000
_cell_angle_beta 90.000000
_cell_angle_gamma 90.000000
_cell_volume 2343.557991
_symmetry_space_group_name_H-M "P M M A"
_symmetry_group_IT_number 51
_symmetry_cell_setting 'orthorhombic'
loop_
_space_group_symop_operation_xyz
x,y,z
1/2-x,-y,z
1/2+x,-y,-z
-x,y,-z
-x,-y,-z
1/2+x,y,-z
1/2-x,y,z
x,-y,z
loop_
_atom_site_type_symbol
_atom_site_label
_atom_site_fract_x
_atom_site_fract_y
_atom_site_fract_z
Si Si1 0.100921 0.203397 0.778538
Si Si2 0.472875 0.297658 0.394453
Si Si3 0.601042 0.707522 0.961852
Si Si4 0.100654 0.705472 0.142711
Si Si5 0.250000 0.798046 0.464963
Si Si6 0.250000 0.296680 0.570861
Si Si7 0.106152 0.201600 0.293611
O O1 0.250000 0.271023 0.781299
O O2 0.011230 0.235415 0.822867
O O3 0.014311 0.272038 0.736086
O O4 0.112106 0.000000 0.773041
O O5 0.479301 0.500000 0.388359
O O6 0.376253 0.261913 0.436528
O O7 0.617024 0.229404 0.406534
O O8 0.418187 0.224121 0.347364
O O9 0.750000 0.757860 0.972850
O O10 0.597457 0.500000 0.961923
O O11 0.573168 0.759851 0.909608
O O12 0.500000 0.768152 0.000000
O O13 0.250000 0.761944 0.154869
O O14 0.101954 0.500000 0.143412
O O15 0.250000 0.734515 0.516728
O O16 0.250000 0.000000 0.465776
O O17 0.250000 0.500000 0.577324
O O18 0.250000 0.273987 0.281589
O O19 0.111325 0.000000 0.284327
#
# Coordination Sequence:
#
# PCOD9406272 Si02
#       7
#     8   8   8   8   4   4   8
#     4  10  22  38  56  81 112 146 182 225 279 333
#     4  11  23  40  62  87 117 151 185 227 279 329
#     4   8  14  25  43  70 104 140 178 224 277 330
#     4   9  18  33  53  79 110 144 186 232 277 330
#     4  12  24  40  62  90 118 150 194 232 267 322
#     4  10  24  42  60  86 120 154 186 226 279 330
#     4  10  21  38  59  82 109 142 184 227 269 329
#
# _framework density 20.481677999999999
#
# number of rings (size 3 to 8) (size 9 to 14) (size 15 to 20)
#    0.000    2.167    0.833    3.250    1.167    6.000 
#    0.000    1.667    0.000    0.500    0.000    0.000 
#    0.000    0.000    0.000    0.000    0.000    0.000 
#
# Total GULP energy -268027.207354 kJ/mol
# GULP energy per Si atom -5583.900153 kJ/mol
# Density = 2.043506 g / cm^3
# Si number density = 20.481678 Si / 1000 Ang^3
#
#
#
# Elastic Constant Matrix: (Units=GPa)
#
#
# Indices 1 2 3 4 5 6 
#
# 1 189.0192 7.9701 82.9765 0.0000 0.0000 0.0000
# 2 7.9701 23.4389 -7.7064 0.0000 0.0000 0.0000
# 3 82.9765 -7.7064 107.9288 0.0000 0.0000 0.0000
# 4 0.0000 0.0000 0.0000 24.8996 0.0000 0.0000
# 5 0.0000 0.0000 0.0000 0.0000 37.3844 0.0000
# 6 0.0000 0.0000 0.0000 0.0000 0.0000 -4.8465
#
#
#
# Elastic Compliance Matrix: (Units=1/GPa)
#
#
# Indices 1 2 3 4 5 6 
#
# 1 0.008562 -0.005198 -0.006954 0.000000 0.000000 0.000000
# 2 -0.005198 0.046845 0.007341 0.000000 0.000000 0.000000
# 3 -0.006954 0.007341 0.015136 0.000000 0.000000 0.000000
# 4 0.000000 0.000000 0.000000 0.040161 0.000000 0.000000
# 5 0.000000 0.000000 0.000000 0.000000 0.026749 0.000000
# 6 0.000000 0.000000 0.000000 0.000000 0.000000 -0.206333
#
#
# Mechanical properties :
#
#
# Convention : Reuss Voigt Hill
#
# Bulk Modulus (GPa) = 16.41448 54.09638 35.25543
# Shear Modulus (GPa) = -128.36805 27.29728 -50.53539
#
# Velocity S-wave (km/s) = -7.92532 3.65467 -4.97263
# Velocity P-wave (km/s) = 8.70149 6.65419 3.96470
#
# Compressibility (1/GPa) = 0.06092183
#
# Stress axis : x y z
#
# Youngs Moduli (GPa) = 116.79116 21.34687 66.06878
#
# Poissons Ratio (x) = 0.11096 0.45944
# Poissons Ratio (y) = 0.60706 -0.48501
# Poissons Ratio (z) = 0.81215 -0.15671
#
# Static dielectric constant tensor:
#      x y z
#    x 1.743640 0.000000 0.000000 
#    y 0.000000 1.749680 0.000000 
#    z 0.000000 0.000000 1.708290 
# 
# From -- ./inp_files/37236.got.cif
#   From: 2010.05.17/outbox.cif.g08.bks.cpg/sg51_19_cif.got.tgz:37236.got - 2010.06.03 11:52:47.
