data_PCOD9406818
_publ_section_title
;
Structure prediction by ZEFSAII (Michael W. Deem and Ramdas Pophale) SiO2 
 PCOD9406818
Probable space group: P M M A
;
_chemical_formula_sum "Si O2"
_cell_formula_units_Z 48
_cell_length_a 9.751026
_cell_length_b 31.466247
_cell_length_c 7.888139
_cell_angle_alpha 90.000000
_cell_angle_beta 90.000000
_cell_angle_gamma 90.000000
_cell_volume 2420.303433
_symmetry_space_group_name_H-M "P M M A"
_symmetry_group_IT_number 51
_symmetry_cell_setting 'orthorhombic'
loop_
_space_group_symop_operation_xyz
x,y,z
1/2-x,-y,z
1/2+x,-y,-z
-x,y,-z
-x,-y,-z
1/2+x,y,-z
1/2-x,y,z
x,-y,z
loop_
_atom_site_type_symbol
_atom_site_label
_atom_site_fract_x
_atom_site_fract_y
_atom_site_fract_z
Si Si1 0.250000 0.662115 0.992991
Si Si2 0.515512 0.782288 0.205694
Si Si3 0.588110 0.551297 0.665043
Si Si4 0.415302 0.124892 0.828883
Si Si5 0.250000 0.732929 0.292712
Si Si6 0.500000 0.598387 0.000000
Si Si7 0.414852 0.952880 0.326821
Si Si8 0.750000 0.719378 0.325633
O O1 0.250000 0.699711 0.134917
O O2 0.375903 0.630911 0.009920
O O3 0.250000 0.680695 0.803656
O O4 0.560860 0.829650 0.261271
O O5 0.375686 0.765188 0.280340
O O6 0.623265 0.748546 0.272607
O O7 0.500000 0.779926 0.000000
O O8 0.500000 0.564461 0.500000
O O9 0.750000 0.564050 0.656277
O O10 0.586054 0.500000 0.672639
O O11 0.515520 0.569713 0.832542
O O12 0.250000 0.117704 0.846135
O O13 0.498483 0.084640 0.758111
O O14 0.500000 0.132047 0.000000
O O15 0.250000 0.709843 0.474758
O O16 0.500000 0.956967 0.500000
O O17 0.250000 0.943456 0.347091
O O18 0.421658 0.000000 0.242909
#
# Coordination Sequence:
#
# PCOD9406818 Si02
#       8
#     4   8   8   8   4   4   8   4
#     4  12  26  44  67  98 138 184 231 290 344 402
#     4  11  22  43  68  92 131 168 214 282 345 400
#     4  10  23  44  72 107 143 183 234 292 349 406
#     4  11  24  40  65  96 125 165 210 266 333 396
#     4  12  26  42  70  95 127 178 222 283 343 412
#     4  12  25  44  70  98 142 190 234 282 345 414
#     4  10  22  41  64  91 130 173 210 258 318 388
#     4  12  24  46  68  95 125 174 230 277 343 408
#
# _framework density 19.832222999999999
#
# number of rings (size 3 to 8) (size 9 to 14) (size 15 to 20)
#    0.000    1.000    3.333    2.750    5.833    4.000 
#    0.000    0.000    0.000    0.000    0.000    0.000 
#    0.000    0.000    0.000    0.000    0.000    0.000 
#
# Total GULP energy -267536.465776 kJ/mol
# GULP energy per Si atom -5573.676370 kJ/mol
# Density = 1.978708 g / cm^3
# Si number density = 19.832223 Si / 1000 Ang^3
#
#
#
# Elastic Constant Matrix: (Units=GPa)
#
#
# Indices 1 2 3 4 5 6 
#
# 1 166.4204 33.9508 17.7263 0.0000 0.0000 0.0000
# 2 33.9508 59.8535 29.1798 0.0000 0.0000 0.0000
# 3 17.7263 29.1798 107.3272 0.0000 0.0000 0.0000
# 4 0.0000 0.0000 0.0000 111.5723 0.0000 0.0000
# 5 0.0000 0.0000 0.0000 0.0000 29.5481 0.0000
# 6 0.0000 0.0000 0.0000 0.0000 0.0000 -0.4866
#
#
#
# Elastic Compliance Matrix: (Units=1/GPa)
#
#
# Indices 1 2 3 4 5 6 
#
# 1 0.006796 -0.003813 -0.000086 0.000000 0.000000 0.000000
# 2 -0.003813 0.021400 -0.005188 0.000000 0.000000 0.000000
# 3 -0.000086 -0.005188 0.010742 0.000000 0.000000 0.000000
# 4 0.000000 0.000000 0.000000 0.008963 0.000000 0.000000
# 5 0.000000 0.000000 0.000000 0.000000 0.033843 0.000000
# 6 0.000000 0.000000 0.000000 0.000000 0.000000 -2.055093
#
#
# Mechanical properties :
#
#
# Convention : Reuss Voigt Hill
#
# Bulk Modulus (GPa) = 48.16151 55.03499 51.59825
# Shear Modulus (GPa) = -2.56640 44.97636 21.20498
#
# Velocity S-wave (km/s) = -1.13880 4.76735 3.27344
# Velocity P-wave (km/s) = 4.75479 7.62326 6.35304
#
# Compressibility (1/GPa) = 0.02076347
#
# Stress axis : x y z
#
# Youngs Moduli (GPa) = 147.14756 46.72947 93.09212
#
# Poissons Ratio (x) = 0.17818 0.00798
# Poissons Ratio (y) = 0.56108 0.48299
# Poissons Ratio (z) = 0.01262 0.24245
#
# Static dielectric constant tensor:
#      x y z
#    x 1.511980 0.000000 0.000000 
#    y 0.000000 1.750150 0.000000 
#    z 0.000000 0.000000 1.732000 
# 
# From -- ./inp_files/6309.got.cif
#   From: 2010.05.17/outbox.cif.g08.bks.cpg/sg51_4_cif.got.tgz:6309.got - 2010.06.03 11:52:47.
