data_PCOD9406620
_publ_section_title
;
Structure prediction by ZEFSAII (Michael W. Deem and Ramdas Pophale) SiO2 
 PCOD9406620
Probable space group: P M M A
;
_chemical_formula_sum "Si O2"
_cell_formula_units_Z 48
_cell_length_a 15.678702
_cell_length_b 19.826397
_cell_length_c 7.898504
_cell_angle_alpha 90.000000
_cell_angle_beta 90.000000
_cell_angle_gamma 90.000000
_cell_volume 2455.267110
_symmetry_space_group_name_H-M "P M M A"
_symmetry_group_IT_number 51
_symmetry_cell_setting 'orthorhombic'
loop_
_space_group_symop_operation_xyz
x,y,z
1/2-x,-y,z
1/2+x,-y,-z
-x,y,-z
-x,-y,-z
1/2+x,y,-z
1/2-x,y,z
x,-y,z
loop_
_atom_site_type_symbol
_atom_site_label
_atom_site_fract_x
_atom_site_fract_y
_atom_site_fract_z
Si Si1 0.353934 0.822610 0.247662
Si Si2 0.853287 0.832832 0.144257
Si Si3 0.854319 0.077023 0.455995
Si Si4 0.415239 0.692494 0.883942
Si Si5 0.002786 0.575614 0.299373
Si Si6 0.655587 0.671940 0.773691
O O1 0.250000 0.822366 0.248176
O O2 0.383042 0.875263 0.389202
O O3 0.378381 0.745051 0.288724
O O4 0.379210 0.840360 0.053795
O O5 0.750000 0.828284 0.147550
O O6 0.878665 0.890953 0.275059
O O7 0.893158 0.762144 0.206330
O O8 0.750000 0.076932 0.460767
O O9 0.882738 0.000000 0.474323
O O10 0.432612 0.627669 0.770366
O O11 0.500000 0.700996 0.000000
O O12 0.342818 0.680898 0.023423
O O13 0.994596 0.500000 0.228827
O O14 0.092558 0.610750 0.258106
O O15 0.000000 0.572091 0.500000
O O16 0.750000 0.660745 0.705486
#
# Coordination Sequence:
#
# PCOD9406620 Si02
#       6
#     8   8   8   8   8   8
#     4   8  15  28  45  70 101 130 167 217 261 303
#     4   9  17  30  50  75 102 132 174 221 259 306
#     4   9  17  27  43  72 104 135 170 209 264 321
#     4   9  18  33  54  76  99 133 175 217 262 315
#     4  10  22  37  52  77 111 142 172 212 269 330
#     4   9  18  34  56  79 101 135 184 226 265 311
#
# _framework density 19.549809
#
# number of rings (size 3 to 8) (size 9 to 14) (size 15 to 20)
#    0.000    3.000    0.000    1.500    2.333    4.000 
#    0.000    4.167    0.000    4.000    0.000   14.000 
#    0.000    0.000    0.000    0.000    0.000    0.000 
#
# Total GULP energy -267459.833709 kJ/mol
# GULP energy per Si atom -5572.079869 kJ/mol
# Density = 1.950531 g / cm^3
# Si number density = 19.549809 Si / 1000 Ang^3
#
#
#
# Elastic Constant Matrix: (Units=GPa)
#
#
# Indices 1 2 3 4 5 6 
#
# 1 22.3706 -2.1218 -4.1708 0.0000 0.0000 0.0000
# 2 -2.1218 111.3387 32.7973 0.0000 0.0000 0.0000
# 3 -4.1708 32.7973 50.6649 0.0000 0.0000 0.0000
# 4 0.0000 0.0000 0.0000 183.7298 0.0000 0.0000
# 5 0.0000 0.0000 0.0000 0.0000 5.8539 0.0000
# 6 0.0000 0.0000 0.0000 0.0000 0.0000 22.1049
#
#
#
# Elastic Compliance Matrix: (Units=1/GPa)
#
#
# Indices 1 2 3 4 5 6 
#
# 1 0.045406 -0.000291 0.003926 0.000000 0.000000 0.000000
# 2 -0.000291 0.011100 -0.007209 0.000000 0.000000 0.000000
# 3 0.003926 -0.007209 0.024728 0.000000 0.000000 0.000000
# 4 0.000000 0.000000 0.000000 0.005443 0.000000 0.000000
# 5 0.000000 0.000000 0.000000 0.000000 0.170825 0.000000
# 6 0.000000 0.000000 0.000000 0.000000 0.000000 0.045239
#
#
# Mechanical properties :
#
#
# Convention : Reuss Voigt Hill
#
# Bulk Modulus (GPa) = 13.49801 26.37595 19.93698
# Shear Modulus (GPa) = 14.94398 52.86236 33.90317
#
# Velocity S-wave (km/s) = 2.76779 5.20563 4.16888
# Velocity P-wave (km/s) = 4.13928 7.04644 5.77867
#
# Compressibility (1/GPa) = 0.07408499
#
# Stress axis : x y z
#
# Youngs Moduli (GPa) = 22.02358 90.09266 40.44067
#
# Poissons Ratio (x) = 0.02625 -0.15879
# Poissons Ratio (y) = 0.00642 0.29155
# Poissons Ratio (z) = -0.08648 0.64950
#
# Static dielectric constant tensor:
#      x y z
#    x 1.728760 0.000000 0.000000 
#    y 0.000000 1.699600 0.000000 
#    z 0.000000 0.000000 1.702300 
# 
# From -- ./inp_files/9658.got.cif
#   From: 2010.05.17/outbox.cif.g08.bks.cpg/sg51_5_cif.got.tgz:9658.got - 2010.06.03 11:52:47.
