data_PCOD9406277
_publ_section_title
;
Structure prediction by ZEFSAII (Michael W. Deem and Ramdas Pophale) SiO2 
 PCOD9406277
Probable space group: P M M A
;
_chemical_formula_sum "Si O2"
_cell_formula_units_Z 48
_cell_length_a 34.665160
_cell_length_b 9.078801
_cell_length_c 7.528775
_cell_angle_alpha 90.000000
_cell_angle_beta 90.000000
_cell_angle_gamma 90.000000
_cell_volume 2369.441683
_symmetry_space_group_name_H-M "P M M A"
_symmetry_group_IT_number 51
_symmetry_cell_setting 'orthorhombic'
loop_
_space_group_symop_operation_xyz
x,y,z
1/2-x,-y,z
1/2+x,-y,-z
-x,y,-z
-x,-y,-z
1/2+x,y,-z
1/2-x,y,z
x,-y,z
loop_
_atom_site_type_symbol
_atom_site_label
_atom_site_fract_x
_atom_site_fract_y
_atom_site_fract_z
Si Si1 0.413083 0.834836 0.206972
Si Si2 0.511284 0.663352 0.704228
Si Si3 0.294262 0.676151 0.447327
Si Si4 0.161348 0.674526 0.104844
Si Si5 0.851645 0.822518 0.274489
Si Si6 0.435780 0.834703 0.793657
O O1 0.451219 0.764709 0.287669
O O2 0.376136 0.730531 0.213157
O O3 0.404995 0.000000 0.274216
O O4 0.422559 0.845444 0.997405
O O5 0.500000 0.650767 0.500000
O O6 0.519516 0.500000 0.777233
O O7 0.473608 0.735586 0.790987
O O8 0.250000 0.714101 0.487600
O O9 0.299392 0.500000 0.474271
O O10 0.303758 0.704867 0.240056
O O11 0.323685 0.761243 0.574541
O O12 0.158836 0.500000 0.071763
O O13 0.161583 0.757732 0.916577
O O14 0.896902 0.779554 0.304039
O O15 0.851034 0.000000 0.266956
O O16 0.445572 0.000000 0.729513
#
# Coordination Sequence:
#
# PCOD9406277 Si02
#       6
#     8   8   8   8   8   8
#     4  10  21  38  59  82 112 151 196 244 296 352
#     4  11  24  36  50  80 116 151 195 243 290 345
#     4  10  23  42  64  91 123 160 200 245 300 362
#     4  10  21  39  64  92 123 161 204 250 302 360
#     4  10  22  40  63  93 125 159 202 249 302 361
#     4   9  20  38  57  80 110 149 193 238 291 351
#
# _framework density 20.257935
#
# number of rings (size 3 to 8) (size 9 to 14) (size 15 to 20)
#    0.000    2.000    0.000    3.500    2.333    9.667 
#    0.000    1.667    0.000    0.000    0.000    0.000 
#    0.000    0.000    0.000    0.000    0.000    0.000 
#
# Total GULP energy -268051.125385 kJ/mol
# GULP energy per Si atom -5584.398446 kJ/mol
# Density = 2.021183 g / cm^3
# Si number density = 20.257935 Si / 1000 Ang^3
#
#
#
# Elastic Constant Matrix: (Units=GPa)
#
#
# Indices 1 2 3 4 5 6 
#
# 1 62.7516 19.3112 14.5350 0.0000 0.0000 0.0000
# 2 19.3112 62.4194 17.6909 0.0000 0.0000 0.0000
# 3 14.5350 17.6909 47.4917 0.0000 0.0000 0.0000
# 4 0.0000 0.0000 0.0000 -5.5160 0.0000 0.0000
# 5 0.0000 0.0000 0.0000 0.0000 34.7694 0.0000
# 6 0.0000 0.0000 0.0000 0.0000 0.0000 -456.9525
#
#
#
# Elastic Compliance Matrix: (Units=1/GPa)
#
#
# Indices 1 2 3 4 5 6 
#
# 1 0.018234 -0.004539 -0.003890 0.000000 0.000000 0.000000
# 2 -0.004539 0.019041 -0.005704 0.000000 0.000000 0.000000
# 3 -0.003890 -0.005704 0.024372 0.000000 0.000000 0.000000
# 4 0.000000 0.000000 0.000000 -0.181292 0.000000 0.000000
# 5 0.000000 0.000000 0.000000 0.000000 0.028761 0.000000
# 6 0.000000 0.000000 0.000000 0.000000 0.000000 -0.002188
#
#
# Mechanical properties :
#
#
# Convention : Reuss Voigt Hill
#
# Bulk Modulus (GPa) = 29.95646 30.63743 30.29694
# Shear Modulus (GPa) = -93.14386 -77.46478 -85.30432
#
# Velocity S-wave (km/s) = -6.78813 -6.19050 -6.49619
# Velocity P-wave (km/s) = 6.82779 5.99498 6.42490
#
# Compressibility (1/GPa) = 0.03338178
#
# Stress axis : x y z
#
# Youngs Moduli (GPa) = 54.84390 52.51704 41.03141
#
# Poissons Ratio (x) = 0.23835 0.15960
# Poissons Ratio (y) = 0.24892 0.23404
# Poissons Ratio (z) = 0.21333 0.29956
#
# Static dielectric constant tensor:
#      x y z
#    x 1.747020 0.000000 0.000000 
#    y 0.000000 1.735910 0.000000 
#    z 0.000000 0.000000 1.747800 
# 
# From -- ./inp_files/12806.got.cif
#   From: 2010.05.17/outbox.cif.g08.bks.cpg/sg51_7_cif.got.tgz:12806.got - 2010.06.03 11:52:47.
