data_PCOD9406175
_publ_section_title
;
Structure prediction by ZEFSAII (Michael W. Deem and Ramdas Pophale) SiO2 
 PCOD9406175
Probable space group: P M M A
;
_chemical_formula_sum "Si O2"
_cell_formula_units_Z 64
_cell_length_a 14.205933
_cell_length_b 9.156214
_cell_length_c 24.690681
_cell_angle_alpha 90.000000
_cell_angle_beta 90.000000
_cell_angle_gamma 90.000000
_cell_volume 3211.580150
_symmetry_space_group_name_H-M "P M M A"
_symmetry_group_IT_number 51
_symmetry_cell_setting 'orthorhombic'
loop_
_space_group_symop_operation_xyz
x,y,z
1/2-x,-y,z
1/2+x,-y,-z
-x,y,-z
-x,-y,-z
1/2+x,y,-z
1/2-x,y,z
x,-y,z
loop_
_atom_site_type_symbol
_atom_site_label
_atom_site_fract_x
_atom_site_fract_y
_atom_site_fract_z
Si Si1 0.027102 0.325054 0.746777
Si Si2 0.363440 0.332234 0.536705
Si Si3 0.042008 0.827102 0.637020
Si Si4 0.635093 0.832527 0.921168
Si Si5 0.358566 0.827347 0.425577
Si Si6 0.359176 0.322120 0.853575
Si Si7 0.638811 0.824985 0.799874
Si Si8 0.365232 0.669308 0.971252
O O1 0.027431 0.500000 0.743342
O O2 0.923475 0.261626 0.757490
O O3 0.066719 0.255757 0.692016
O O4 0.085162 0.278334 0.800185
O O5 0.250000 0.330371 0.539450
O O6 0.395458 0.500000 0.540911
O O7 0.402930 0.237006 0.585723
O O8 0.387899 0.263738 0.478440
O O9 0.931979 0.802016 0.622369
O O10 0.057676 0.000000 0.642285
O O11 0.750000 0.832765 0.922437
O O12 0.612000 0.775548 0.861146
O O13 0.604186 0.000000 0.924766
O O14 0.602837 0.746948 0.974048
O O15 0.250000 0.793118 0.412016
O O16 0.363449 0.000000 0.439332
O O17 0.250000 0.279589 0.848141
O O18 0.361889 0.500000 0.856196
O O19 0.395144 0.269591 0.912486
O O20 0.750000 0.801798 0.792699
O O21 0.622240 0.000000 0.796323
O O22 0.250000 0.675059 0.970236
O O23 0.391623 0.500000 0.974459
#
# Coordination Sequence:
#
# PCOD9406175 Si02
#       8
#     8   8   8   8   8   8   8   8
#     4  11  23  37  55  80 107 139 185 235 274 314
#     4  10  21  37  59  88 119 148 179 221 272 318
#     4  11  23  38  57  81 112 151 189 225 268 321
#     4   8  14  26  46  72  99 128 165 210 263 322
#     4   9  19  37  60  85 113 146 182 218 263 323
#     4   8  16  33  54  74 101 138 175 215 270 330
#     4   9  19  37  57  74 101 143 181 217 270 331
#     4   8  13  24  46  73  97 125 164 209 260 321
#
# _framework density 19.927886000000001
#
# number of rings (size 3 to 8) (size 9 to 14) (size 15 to 20)
#    0.000    2.750    0.000    3.000    0.000    5.000 
#    0.000    5.625    0.000    6.375    0.000    0.000 
#    0.000    0.000    0.000    0.000    0.000    0.000 
#
# Total GULP energy -357216.159593 kJ/mol
# GULP energy per Si atom -5581.502494 kJ/mol
# Density = 1.988253 g / cm^3
# Si number density = 19.927886 Si / 1000 Ang^3
#
#
#
# Elastic Constant Matrix: (Units=GPa)
#
#
# Indices 1 2 3 4 5 6 
#
# 1 34.4594 10.3060 10.9710 0.0000 0.0000 0.0000
# 2 10.3060 38.4587 32.8362 0.0000 0.0000 0.0000
# 3 10.9710 32.8362 90.0291 0.0000 0.0000 0.0000
# 4 0.0000 0.0000 0.0000 38.1326 0.0000 0.0000
# 5 0.0000 0.0000 0.0000 0.0000 23.0266 0.0000
# 6 0.0000 0.0000 0.0000 0.0000 0.0000 18.2035
#
#
#
# Elastic Compliance Matrix: (Units=1/GPa)
#
#
# Indices 1 2 3 4 5 6 
#
# 1 0.031624 -0.007529 -0.001108 0.000000 0.000000 0.000000
# 2 -0.007529 0.039553 -0.013509 0.000000 0.000000 0.000000
# 3 -0.001108 -0.013509 0.016170 0.000000 0.000000 0.000000
# 4 0.000000 0.000000 0.000000 0.026224 0.000000 0.000000
# 5 0.000000 0.000000 0.000000 0.000000 0.043428 0.000000
# 6 0.000000 0.000000 0.000000 0.000000 0.000000 0.054934
#
#
# Mechanical properties :
#
#
# Convention : Reuss Voigt Hill
#
# Bulk Modulus (GPa) = 23.22533 30.13039 26.67786
# Shear Modulus (GPa) = 18.47910 23.12815 20.80362
#
# Velocity S-wave (km/s) = 3.04846 3.41044 3.23452
# Velocity P-wave (km/s) = 4.90620 5.53721 5.23123
#
# Compressibility (1/GPa) = 0.04305643
#
# Stress axis : x y z
#
# Youngs Moduli (GPa) = 31.62153 25.28239 61.84465
#
# Poissons Ratio (x) = 0.19034 0.06851
# Poissons Ratio (y) = 0.23807 0.83544
# Poissons Ratio (z) = 0.03503 0.34153
#
# Static dielectric constant tensor:
#      x y z
#    x 1.743460 0.000000 0.000000 
#    y 0.000000 1.669010 0.000000 
#    z 0.000000 0.000000 1.689090 
# 
# From -- ./inp_files/35672.got.cif
#   From: 2010.05.17/outbox.cif.g08.bks.cpg/sg51_18_cif.got.tgz:35672.got - 2010.06.03 11:52:47.
