data_PCOD9406252
_publ_section_title
;
Structure prediction by ZEFSAII (Michael W. Deem and Ramdas Pophale) SiO2 
 PCOD9406252
Probable space group: P M M A
;
_chemical_formula_sum "Si O2"
_cell_formula_units_Z 36
_cell_length_a 8.688541
_cell_length_b 23.424343
_cell_length_c 9.258273
_cell_angle_alpha 90.000000
_cell_angle_beta 90.000000
_cell_angle_gamma 90.000000
_cell_volume 1884.274871
_symmetry_space_group_name_H-M "P M M A"
_symmetry_group_IT_number 51
_symmetry_cell_setting 'orthorhombic'
loop_
_space_group_symop_operation_xyz
x,y,z
1/2-x,-y,z
1/2+x,-y,-z
-x,y,-z
-x,-y,-z
1/2+x,y,-z
1/2-x,y,z
x,-y,z
loop_
_atom_site_type_symbol
_atom_site_label
_atom_site_fract_x
_atom_site_fract_y
_atom_site_fract_z
Si Si1 0.935495 0.112187 0.661291
Si Si2 0.566321 0.668734 0.339846
Si Si3 0.436141 0.000000 0.161602
Si Si4 0.066060 0.433289 0.159422
Si Si5 0.564788 0.225321 0.838856
O O1 0.750000 0.111151 0.653392
O O2 0.980296 0.169543 0.746322
O O3 0.000000 0.111609 0.500000
O O4 0.985339 0.056455 0.751126
O O5 0.500000 0.676065 0.500000
O O6 0.750000 0.671156 0.343118
O O7 0.510544 0.608882 0.273215
O O8 0.501250 0.718787 0.238549
O O9 0.250000 0.000000 0.154675
O O10 0.500000 0.000000 0.000000
O O11 0.250000 0.425125 0.158688
O O12 0.033985 0.500000 0.190270
O O13 0.000000 0.420686 0.000000
O O14 0.750000 0.228629 0.843349
O O15 0.500000 0.220720 0.000000
#
# Coordination Sequence:
#
# PCOD9406252 Si02
#       5
#     8   8   4   8   8
#     4  10  22  38  59  86 118 153 193 240 291 347
#     4  12  25  41  61  86 118 155 195 242 293 347
#     4  10  21  38  58  86 118 152 195 240 288 344
#     4  10  21  39  63  90 120 155 195 239 288 344
#     4  11  23  40  61  87 117 153 196 241 291 348
#
# _framework density 19.105492000000002
#
# number of rings (size 3 to 8) (size 9 to 14) (size 15 to 20)
#    0.000    1.333    0.000    5.667    0.000    6.222 
#    0.000    0.000    0.000    0.000    0.000    0.000 
#    0.000    0.000    0.000    0.000    0.000    0.000 
#
# Total GULP energy -201397.533155 kJ/mol
# GULP energy per Si atom -5594.375921 kJ/mol
# Density = 1.906201 g / cm^3
# Si number density = 19.105492 Si / 1000 Ang^3
#
#
#
# Elastic Constant Matrix: (Units=GPa)
#
#
# Indices 1 2 3 4 5 6 
#
# 1 80.2483 54.5246 56.2740 0.0000 0.0000 0.0000
# 2 54.5246 112.6931 89.9792 0.0000 0.0000 0.0000
# 3 56.2740 89.9792 190.7015 0.0000 0.0000 0.0000
# 4 0.0000 0.0000 0.0000 53.6866 0.0000 0.0000
# 5 0.0000 0.0000 0.0000 0.0000 43.0613 0.0000
# 6 0.0000 0.0000 0.0000 0.0000 0.0000 -8.6965
#
#
#
# Elastic Compliance Matrix: (Units=1/GPa)
#
#
# Indices 1 2 3 4 5 6 
#
# 1 0.019047 -0.007585 -0.002041 0.000000 0.000000 0.000000
# 2 -0.007585 0.017258 -0.005905 0.000000 0.000000 0.000000
# 3 -0.002041 -0.005905 0.008632 0.000000 0.000000 0.000000
# 4 0.000000 0.000000 0.000000 0.018627 0.000000 0.000000
# 5 0.000000 0.000000 0.000000 0.000000 0.023223 0.000000
# 6 0.000000 0.000000 0.000000 0.000000 0.000000 -0.114989
#
#
# Mechanical properties :
#
#
# Convention : Reuss Voigt Hill
#
# Bulk Modulus (GPa) = 72.07623 87.24427 79.66025
# Shear Modulus (GPa) = 667.93013 29.80128 348.86570
#
# Velocity S-wave (km/s) = 18.71791 3.95375 13.52761
# Velocity P-wave (km/s) = 22.47118 8.16128 16.90504
#
# Compressibility (1/GPa) = 0.01387420
#
# Stress axis : x y z
#
# Youngs Moduli (GPa) = 52.50219 57.94321 115.84540
#
# Poissons Ratio (x) = 0.43953 0.23649
# Poissons Ratio (y) = 0.39826 0.68402
# Poissons Ratio (z) = 0.10718 0.34213
#
# Static dielectric constant tensor:
#      x y z
#    x 1.640800 0.000000 0.000000 
#    y 0.000000 1.653630 0.000000 
#    z 0.000000 0.000000 1.615730 
# 
# From -- ./inp_files/5010.got.cif
#   From: 2010.05.17/outbox.cif.g08.bks.cpg/sg51_3_cif.got.tgz:5010.got - 2010.06.03 11:52:47.
