data_PCOD9406838
_publ_section_title
;
Structure prediction by ZEFSAII (Michael W. Deem and Ramdas Pophale) SiO2 
 PCOD9406838
Probable space group: P M M A
;
_chemical_formula_sum "Si O2"
_cell_formula_units_Z 20
_cell_length_a 8.202347
_cell_length_b 11.960973
_cell_length_c 9.164509
_cell_angle_alpha 90.000000
_cell_angle_beta 90.000000
_cell_angle_gamma 90.000000
_cell_volume 899.112116
_symmetry_space_group_name_H-M "P M M A"
_symmetry_group_IT_number 51
_symmetry_cell_setting 'orthorhombic'
loop_
_space_group_symop_operation_xyz
x,y,z
1/2-x,-y,z
1/2+x,-y,-z
-x,y,-z
-x,-y,-z
1/2+x,y,-z
1/2-x,y,z
x,-y,z
loop_
_atom_site_type_symbol
_atom_site_label
_atom_site_fract_x
_atom_site_fract_y
_atom_site_fract_z
Si Si1 0.250000 0.630181 0.309990
Si Si2 0.055546 0.000000 0.667807
Si Si3 0.565023 0.246717 0.279304
Si Si4 0.250000 0.631819 0.959281
O O1 0.250000 0.500000 0.349229
O O2 0.418014 0.688740 0.355801
O O3 0.250000 0.641753 0.132517
O O4 0.007360 0.118370 0.737518
O O5 0.000000 0.000000 0.500000
O O6 0.250000 0.000000 0.673078
O O7 0.750000 0.246419 0.347299
O O8 0.602247 0.309144 0.127285
O O9 0.250000 0.500000 0.924330
#
# Coordination Sequence:
#
# PCOD9406838 Si02
#       4
#     4   4   8   4
#     4  11  20  33  57  86 116 155 184 208 265 337
#     4  10  22  42  63  79 104 144 189 237 291 329
#     4   9  21  35  54  85 111 141 190 231 267 324
#     4   9  18  35  55  80 120 153 178 216 265 327
#
# _framework density 22.244167000000001
#
# number of rings (size 3 to 8) (size 9 to 14) (size 15 to 20)
#    1.200    1.200    0.000    2.400    2.800    3.200 
#    0.000    6.000    0.000    7.200    0.000    0.000 
#    0.000    0.000    0.000    0.000    0.000    0.000 
#
# Total GULP energy -111406.180880 kJ/mol
# GULP energy per Si atom -5570.309044 kJ/mol
# Density = 2.219354 g / cm^3
# Si number density = 22.244167 Si / 1000 Ang^3
#
#
#
# Elastic Constant Matrix: (Units=GPa)
#
#
# Indices 1 2 3 4 5 6 
#
# 1 142.0585 73.8100 6.2626 0.0000 0.0000 0.0000
# 2 73.8100 219.6567 48.0825 0.0000 0.0000 0.0000
# 3 6.2626 48.0825 72.3074 0.0000 0.0000 0.0000
# 4 0.0000 0.0000 0.0000 -107.0531 0.0000 0.0000
# 5 0.0000 0.0000 0.0000 0.0000 33.8958 0.0000
# 6 0.0000 0.0000 0.0000 0.0000 0.0000 48.9392
#
#
#
# Elastic Compliance Matrix: (Units=1/GPa)
#
#
# Indices 1 2 3 4 5 6 
#
# 1 0.008645 -0.003208 0.001384 0.000000 0.000000 0.000000
# 2 -0.003208 0.006519 -0.004057 0.000000 0.000000 0.000000
# 3 0.001384 -0.004057 0.016408 0.000000 0.000000 0.000000
# 4 0.000000 0.000000 0.000000 -0.009341 0.000000 0.000000
# 5 0.000000 0.000000 0.000000 0.000000 0.029502 0.000000
# 6 0.000000 0.000000 0.000000 0.000000 0.000000 0.020434
#
#
# Mechanical properties :
#
#
# Convention : Reuss Voigt Hill
#
# Bulk Modulus (GPa) = 50.47806 76.70364 63.59085
# Shear Modulus (GPa) = 55.23024 15.54754 35.38889
#
# Velocity S-wave (km/s) = 4.98829 2.64663 3.99297
# Velocity P-wave (km/s) = 7.47792 6.62548 7.06457
#
# Compressibility (1/GPa) = 0.01981059
#
# Stress axis : x y z
#
# Youngs Moduli (GPa) = 115.67203 153.40790 60.94731
#
# Poissons Ratio (x) = 0.49214 -0.08438
# Poissons Ratio (y) = 0.37108 0.24725
# Poissons Ratio (z) = -0.16015 0.62235
#
# Static dielectric constant tensor:
#      x y z
#    x 1.882610 0.000000 0.000000 
#    y 0.000000 1.810140 0.000000 
#    z 0.000000 0.000000 1.786460 
# 
# From -- ./inp_files/13519.got.cif
#   From: 2010.05.17/outbox.cif.g08.bks.cpg/sg51_7_cif.got.tgz:13519.got - 2010.06.03 11:52:47.
