data_PCOD9406231
_publ_section_title
;
Structure prediction by ZEFSAII (Michael W. Deem and Ramdas Pophale) SiO2 
 PCOD9406231
Probable space group: P M M A
;
_chemical_formula_sum "Si O2"
_cell_formula_units_Z 28
_cell_length_a 8.658607
_cell_length_b 19.084395
_cell_length_c 9.597857
_cell_angle_alpha 90.000000
_cell_angle_beta 90.000000
_cell_angle_gamma 90.000000
_cell_volume 1585.990932
_symmetry_space_group_name_H-M "P M M A"
_symmetry_group_IT_number 51
_symmetry_cell_setting 'orthorhombic'
loop_
_space_group_symop_operation_xyz
x,y,z
1/2-x,-y,z
1/2+x,-y,-z
-x,y,-z
-x,-y,-z
1/2+x,y,-z
1/2-x,y,z
x,-y,z
loop_
_atom_site_type_symbol
_atom_site_label
_atom_site_fract_x
_atom_site_fract_y
_atom_site_fract_z
Si Si1 0.433920 0.703417 0.343294
Si Si2 0.435989 0.000000 0.657716
Si Si3 0.064229 0.848334 0.658463
Si Si4 0.564984 0.579924 0.155736
O O1 0.500000 0.697830 0.500000
O O2 0.250000 0.705311 0.349623
O O3 0.494966 0.777138 0.280240
O O4 0.492042 0.637869 0.254891
O O5 0.500000 0.000000 0.500000
O O6 0.480403 0.924451 0.721300
O O7 0.250000 0.000000 0.649473
O O8 0.250000 0.842823 0.655449
O O9 0.000000 0.849951 0.500000
O O10 0.750000 0.587319 0.154106
O O11 0.528019 0.500000 0.200470
O O12 0.500000 0.588596 0.000000
#
# Coordination Sequence:
#
# PCOD9406231 Si02
#       4
#     8   4   8   8
#     4  11  21  33  50  74 104 136 169 207 251 295
#     4   8  14  22  36  58  87 124 161 198 241 288
#     4   9  15  25  40  62  93 127 163 202 245 291
#     4  10  21  38  58  78 100 128 163 203 247 297
#
# _framework density 17.654578000000001
#
# number of rings (size 3 to 8) (size 9 to 14) (size 15 to 20)
#    0.000    2.286    0.000    6.000    0.000    3.429 
#    0.000    0.000    0.000    0.000    0.000    1.000 
#    0.000    0.000    0.000    0.000    0.000    0.000 
#
# Total GULP energy -156003.121448 kJ/mol
# GULP energy per Si atom -5571.540052 kJ/mol
# Density = 1.761440 g / cm^3
# Si number density = 17.654578 Si / 1000 Ang^3
#
#
#
# Elastic Constant Matrix: (Units=GPa)
#
#
# Indices 1 2 3 4 5 6 
#
# 1 104.8776 82.2785 24.4067 0.0000 0.0000 0.0000
# 2 82.2785 223.5739 61.7288 0.0000 0.0000 0.0000
# 3 24.4067 61.7288 27.6690 0.0000 0.0000 0.0000
# 4 0.0000 0.0000 0.0000 -10.9497 0.0000 0.0000
# 5 0.0000 0.0000 0.0000 0.0000 21.1734 0.0000
# 6 0.0000 0.0000 0.0000 0.0000 0.0000 246.8317
#
#
#
# Elastic Compliance Matrix: (Units=1/GPa)
#
#
# Indices 1 2 3 4 5 6 
#
# 1 0.013454 -0.004360 -0.002139 0.000000 0.000000 0.000000
# 2 -0.004360 0.013060 -0.025291 0.000000 0.000000 0.000000
# 3 -0.002139 -0.025291 0.094451 0.000000 0.000000 0.000000
# 4 0.000000 0.000000 0.000000 -0.091327 0.000000 0.000000
# 5 0.000000 0.000000 0.000000 0.000000 0.047229 0.000000
# 6 0.000000 0.000000 0.000000 0.000000 0.000000 0.004051
#
#
# Mechanical properties :
#
#
# Convention : Reuss Voigt Hill
#
# Bulk Modulus (GPa) = 17.42634 76.99426 47.21030
# Shear Modulus (GPa) = 30.55713 63.92488 47.24100
#
# Velocity S-wave (km/s) = 4.16484 6.02389 5.17847
# Velocity P-wave (km/s) = 5.74631 9.59631 7.90915
#
# Compressibility (1/GPa) = 0.05738439
#
# Stress axis : x y z
#
# Youngs Moduli (GPa) = 74.32927 76.56788 10.58745
#
# Poissons Ratio (x) = 0.33387 0.02265
# Poissons Ratio (y) = 0.32411 0.26776
# Poissons Ratio (z) = 0.15901 1.93646
#
# Static dielectric constant tensor:
#      x y z
#    x 1.584760 0.000000 0.000000 
#    y 0.000000 1.678110 0.000000 
#    z 0.000000 0.000000 1.558690 
# 
# From -- ./inp_files/4666.got.cif
#   From: 2010.05.17/outbox.cif.g08.bks.cpg/sg51_3_cif.got.tgz:4666.got - 2010.06.03 11:52:47.
