data_PCOD9406269
_publ_section_title
;
Structure prediction by ZEFSAII (Michael W. Deem and Ramdas Pophale) SiO2 
 PCOD9406269
Probable space group: P M M A
;
_chemical_formula_sum "Si O2"
_cell_formula_units_Z 52
_cell_length_a 8.081952
_cell_length_b 16.182513
_cell_length_c 19.710114
_cell_angle_alpha 90.000000
_cell_angle_beta 90.000000
_cell_angle_gamma 90.000000
_cell_volume 2577.812751
_symmetry_space_group_name_H-M "P M M A"
_symmetry_group_IT_number 51
_symmetry_cell_setting 'orthorhombic'
loop_
_space_group_symop_operation_xyz
x,y,z
1/2-x,-y,z
1/2+x,-y,-z
-x,y,-z
-x,-y,-z
1/2+x,y,-z
1/2-x,y,z
x,-y,z
loop_
_atom_site_type_symbol
_atom_site_label
_atom_site_fract_x
_atom_site_fract_y
_atom_site_fract_z
Si Si1 0.940179 0.673186 0.075213
Si Si2 0.445834 0.907783 0.926720
Si Si3 0.554847 0.500000 0.274005
Si Si4 0.951565 0.317487 0.685575
Si Si5 0.564693 0.786588 0.814264
Si Si6 0.050512 0.000000 0.420746
Si Si7 0.050571 0.818134 0.421535
Si Si8 0.055887 0.500000 0.121039
O O1 0.750000 0.700482 0.085126
O O2 0.059935 0.717446 0.127765
O O3 0.961420 0.577968 0.091616
O O4 0.000000 0.688455 0.000000
O O5 0.250000 0.912306 0.930583
O O6 0.487055 0.861262 0.856878
O O7 0.519412 0.000000 0.924136
O O8 0.500000 0.871095 0.000000
O O9 0.750000 0.500000 0.259503
O O10 0.512990 0.587673 0.310412
O O11 0.458601 0.500000 0.202542
O O12 0.750000 0.321732 0.688424
O O13 0.009785 0.261271 0.749683
O O14 0.003216 0.261914 0.621126
O O15 0.750000 0.811257 0.794586
O O16 0.992914 0.090617 0.394749
O O17 0.000000 0.000000 0.500000
O O18 0.250000 0.000000 0.415573
O O19 0.250000 0.819410 0.418050
O O20 0.000000 0.811508 0.500000
O O21 0.250000 0.500000 0.101835
#
# Coordination Sequence:
#
# PCOD9406269 Si02
#       8
#     8   8   4   8   8   4   8   4
#     4  12  24  38  56  81 111 145 187 236 288 343
#     4  10  21  38  59  81 110 149 194 245 299 355
#     4  12  24  39  62  87 112 153 200 245 300 355
#     4  10  22  40  61  85 118 157 197 242 297 354
#     4  11  22  37  57  82 112 149 192 239 293 350
#     4   8  14  28  54  86 122 154 189 224 271 336
#     4   9  18  35  60  92 124 159 194 235 285 339
#     4  12  23  39  58  79 110 145 184 233 288 345
#
# _framework density 20.172141
#
# number of rings (size 3 to 8) (size 9 to 14) (size 15 to 20)
#    0.000    1.538    1.538    4.385    0.000    2.154 
#    1.385    0.385    0.000    0.000    0.000    0.000 
#    0.000    0.000    0.000    0.000    0.000    0.000 
#
# Total GULP energy -289894.381351 kJ/mol
# GULP energy per Si atom -5574.891949 kJ/mol
# Density = 2.012623 g / cm^3
# Si number density = 20.172141 Si / 1000 Ang^3
#
#
#
# Elastic Constant Matrix: (Units=GPa)
#
#
# Indices 1 2 3 4 5 6 
#
# 1 55.8941 7.0981 1.8641 0.0000 0.0000 0.0000
# 2 7.0981 159.5336 59.6592 0.0000 0.0000 0.0000
# 3 1.8641 59.6592 90.9122 0.0000 0.0000 0.0000
# 4 0.0000 0.0000 0.0000 5.5646 0.0000 0.0000
# 5 0.0000 0.0000 0.0000 0.0000 -120.4643 0.0000
# 6 0.0000 0.0000 0.0000 0.0000 0.0000 25.5284
#
#
#
# Elastic Compliance Matrix: (Units=1/GPa)
#
#
# Indices 1 2 3 4 5 6 
#
# 1 0.017996 -0.000878 0.000207 0.000000 0.000000 0.000000
# 2 -0.000878 0.008350 -0.005461 0.000000 0.000000 0.000000
# 3 0.000207 -0.005461 0.014579 0.000000 0.000000 0.000000
# 4 0.000000 0.000000 0.000000 0.179708 0.000000 0.000000
# 5 0.000000 0.000000 0.000000 0.000000 -0.008301 0.000000
# 6 0.000000 0.000000 0.000000 0.000000 0.000000 0.039172
#
#
# Mechanical properties :
#
#
# Convention : Reuss Voigt Hill
#
# Bulk Modulus (GPa) = 34.89165 49.28695 42.08930
# Shear Modulus (GPa) = 18.29350 -2.02635 8.13357
#
# Velocity S-wave (km/s) = 3.01469 -1.00335 2.01018
# Velocity P-wave (km/s) = 5.42700 4.81081 5.12817
#
# Compressibility (1/GPa) = 0.02866015
#
# Stress axis : x y z
#
# Youngs Moduli (GPa) = 55.56913 119.76564 68.59079
#
# Poissons Ratio (x) = 0.10518 -0.01422
# Poissons Ratio (y) = 0.04880 0.37459
# Poissons Ratio (z) = -0.01152 0.65407
#
# Static dielectric constant tensor:
#      x y z
#    x 1.706410 0.000000 0.000000 
#    y 0.000000 1.764030 0.000000 
#    z 0.000000 0.000000 1.685720 
# 
# From -- ./inp_files/31850.got.cif
#   From: 2010.05.17/outbox.cif.g08.bks.cpg/sg51_16_cif.got.tgz:31850.got - 2010.06.03 11:52:47.
