data_PCOD9406567
_publ_section_title
;
Structure prediction by ZEFSAII (Michael W. Deem and Ramdas Pophale) SiO2 
 PCOD9406567
Probable space group: P M M A
;
_chemical_formula_sum "Si O2"
_cell_formula_units_Z 64
_cell_length_a 31.932818
_cell_length_b 8.118259
_cell_length_c 12.130910
_cell_angle_alpha 90.000000
_cell_angle_beta 90.000000
_cell_angle_gamma 90.000000
_cell_volume 3144.803608
_symmetry_space_group_name_H-M "P M M A"
_symmetry_group_IT_number 51
_symmetry_cell_setting 'orthorhombic'
loop_
_space_group_symop_operation_xyz
x,y,z
1/2-x,-y,z
1/2+x,-y,-z
-x,y,-z
-x,-y,-z
1/2+x,y,-z
1/2-x,y,z
x,-y,z
loop_
_atom_site_type_symbol
_atom_site_label
_atom_site_fract_x
_atom_site_fract_y
_atom_site_fract_z
Si Si1 0.543058 0.699843 0.771851
Si Si2 0.203438 0.299021 0.234717
Si Si3 0.165696 0.303847 0.000424
Si Si4 0.049131 0.691535 0.751614
Si Si5 0.122854 0.696135 0.366082
Si Si6 0.070866 0.809296 0.988598
Si Si7 0.127311 0.193043 0.614131
Si Si8 0.202569 0.199655 0.768036
O O1 0.542610 0.500000 0.771106
O O2 0.497704 0.754447 0.728434
O O3 0.581963 0.760050 0.698306
O O4 0.550032 0.755050 0.897323
O O5 0.250000 0.240394 0.263332
O O6 0.204197 0.500000 0.240083
O O7 0.165968 0.239321 0.312877
O O8 0.191510 0.256156 0.109114
O O9 0.157932 0.500000 0.006196
O O10 0.190026 0.262886 0.888769
O O11 0.120722 0.216777 0.999871
O O12 0.051838 0.500000 0.719784
O O13 0.086434 0.782457 0.689367
O O14 0.056013 0.708147 0.882632
O O15 0.122884 0.500000 0.346970
O O16 0.121307 0.726789 0.495521
O O17 0.061606 0.000000 0.967121
O O18 0.167615 0.258162 0.681283
O O19 0.133981 0.000000 0.595687
O O20 0.250000 0.248926 0.740167
O O21 0.200812 0.000000 0.771115
#
# Coordination Sequence:
#
# PCOD9406567 Si02
#       8
#     8   8   8   8   8   8   8   8
#     4  10  22  41  63  89 118 156 200 244 295 352
#     4   9  18  34  59  90 120 150 190 244 295 340
#     4  11  20  35  61  90 122 158 198 242 292 353
#     4  11  23  40  64  89 117 154 200 246 294 354
#     4  10  21  40  62  84 116 155 200 248 293 344
#     4  12  23  36  59  91 126 159 192 237 300 361
#     4  11  24  41  60  85 119 157 200 247 297 350
#     4  10  22  40  60  85 121 160 195 240 298 356
#
# _framework density 20.351032
#
# number of rings (size 3 to 8) (size 9 to 14) (size 15 to 20)
#    0.000    1.500    2.500    3.000    0.000    5.250 
#    0.000    2.500    0.000    1.500    0.000    0.000 
#    0.000    0.000    0.000    0.000    0.000    0.000 
#
# Total GULP energy -357729.766842 kJ/mol
# GULP energy per Si atom -5589.527607 kJ/mol
# Density = 2.030471 g / cm^3
# Si number density = 20.351032 Si / 1000 Ang^3
#
#
#
# Elastic Constant Matrix: (Units=GPa)
#
#
# Indices 1 2 3 4 5 6 
#
# 1 146.6174 -1.1592 35.8050 0.0000 0.0000 0.0000
# 2 -1.1592 13.9950 -13.7491 0.0000 0.0000 0.0000
# 3 35.8050 -13.7491 89.4878 0.0000 0.0000 0.0000
# 4 0.0000 0.0000 0.0000 584.3803 0.0000 0.0000
# 5 0.0000 0.0000 0.0000 0.0000 0.6880 0.0000
# 6 0.0000 0.0000 0.0000 0.0000 0.0000 18.6639
#
#
#
# Elastic Compliance Matrix: (Units=1/GPa)
#
#
# Indices 1 2 3 4 5 6 
#
# 1 0.007651 -0.002796 -0.003491 0.000000 0.000000 0.000000
# 2 -0.002796 0.085178 0.014206 0.000000 0.000000 0.000000
# 3 -0.003491 0.014206 0.014754 0.000000 0.000000 0.000000
# 4 0.000000 0.000000 0.000000 0.001711 0.000000 0.000000
# 5 0.000000 0.000000 0.000000 0.000000 1.453453 0.000000
# 6 0.000000 0.000000 0.000000 0.000000 0.000000 0.053579
#
#
# Mechanical properties :
#
#
# Convention : Reuss Voigt Hill
#
# Bulk Modulus (GPa) = 8.10230 32.43261 20.26746
# Shear Modulus (GPa) = 3.04576 136.02669 69.53622
#
# Velocity S-wave (km/s) = 1.22469 8.18445 5.85172
# Velocity P-wave (km/s) = 2.44739 10.26084 7.45904
#
# Compressibility (1/GPa) = 0.12342168
#
# Stress axis : x y z
#
# Youngs Moduli (GPa) = 130.70492 11.74007 67.77839
#
# Poissons Ratio (x) = 0.03282 0.23659
# Poissons Ratio (y) = 0.36540 -0.96283
# Poissons Ratio (z) = 0.45625 -0.16677
#
# Static dielectric constant tensor:
#      x y z
#    x 1.735400 0.000000 0.000000 
#    y 0.000000 1.719910 0.000000 
#    z 0.000000 0.000000 1.669230 
# 
# From -- ./inp_files/19530.got.cif
#   From: 2010.05.17/outbox.cif.g08.bks.cpg/sg51_10_cif.got.tgz:19530.got - 2010.06.03 11:52:47.
