data_PCOD9407766
_publ_section_title
;
Structure prediction by ZEFSAII (Michael W. Deem and Ramdas Pophale) SiO2 
 PCOD9407766
Probable space group: P M M A
;
_chemical_formula_sum "Si O2"
_cell_formula_units_Z 64
_cell_length_a 9.000000
_cell_length_b 24.000000
_cell_length_c 15.000000
_cell_angle_alpha 90.000000
_cell_angle_beta 90.000000
_cell_angle_gamma 90.000000
_cell_volume 3240.000000
_symmetry_space_group_name_H-M "P M M A"
_symmetry_group_IT_number 51
_symmetry_cell_setting 'orthorhombic'
loop_
_space_group_symop_operation_xyz
x,y,z
1/2-x,-y,z
1/2+x,-y,-z
-x,y,-z
-x,-y,-z
1/2+x,y,-z
1/2-x,y,z
x,-y,z
loop_
_atom_site_type_symbol
_atom_site_label
_atom_site_fract_x
_atom_site_fract_y
_atom_site_fract_z
Si Si1 0.930955 0.060211 0.401979
Si Si2 0.922834 0.357001 0.763113
Si Si3 0.083391 0.833724 0.843798
Si Si4 0.429799 0.694712 0.591516
Si Si5 0.926050 0.063103 0.903282
Si Si6 0.079198 0.433407 0.905376
Si Si7 0.418878 0.183869 0.640363
Si Si8 0.080779 0.268440 0.081383
O O1 0.750000 0.061395 0.401760
O O2 0.983388 0.121686 0.371046
O O3 0.000000 0.056947 0.500000
O O4 0.971883 0.000000 0.357705
O O5 0.750000 0.368727 0.743108
O O6 0.927756 0.303886 0.829183
O O7 0.012071 0.340882 0.674811
O O8 0.995241 0.405128 0.823030
O O9 0.250000 0.843200 0.876503
O O10 0.089652 0.808033 0.745915
O O11 0.998922 0.891825 0.840165
O O12 0.997367 0.790225 0.903429
O O13 0.500000 0.673330 0.500000
O O14 0.250000 0.694907 0.590112
O O15 0.485898 0.759269 0.602519
O O16 0.750000 0.070593 0.909770
O O17 0.957340 0.000000 0.875112
O O18 0.000000 0.071202 0.000000
O O19 0.250000 0.413608 0.909028
O O20 0.079266 0.500000 0.893378
O O21 0.000000 0.422767 0.000000
O O22 0.250000 0.181025 0.604076
O O23 0.250000 0.259847 0.056924
O O24 0.000000 0.298255 0.000000
#
# Coordination Sequence:
#
# PCOD9407766 Si02
#       8
#     8   8   8   8   8   8   8   8
#     4   9  17  31  50  72  98 128 168 219 279 349
#     4  11  23  39  61  91 124 163 210 256 303 354
#     4  11  21  35  54  76 104 138 180 229 287 348
#     4  11  22  39  61  86 119 158 206 259 314 372
#     4  10  21  37  54  72  96 130 175 227 283 345
#     4  10  21  38  63  97 137 179 217 254 299 351
#     4   9  19  34  53  77 105 142 184 234 293 355
#     4  11  23  37  55  81 115 153 193 236 290 349
#
# _framework density 19.753086
#
# number of rings (size 3 to 8) (size 9 to 14) (size 15 to 20)
#    0.000    1.750    1.250    3.375    0.000    4.500 
#    0.000    3.125    0.000    1.875    0.000    0.000 
#    0.000    0.000    0.000    0.000    0.000    0.000 
#
# Total GULP energy -356884.745146 kJ/mol
# GULP energy per Si atom -5576.324143 kJ/mol
# Density = 1.970813 g / cm^3
# Si number density = 19.753086 Si / 1000 Ang^3
#
#
#
# Elastic Constant Matrix: (Units=GPa)
#
#
# Indices 1 2 3 4 5 6 
#
# 1 84.2023 43.6022 46.4966 0.0000 0.0000 0.0000
# 2 43.6022 77.0026 34.4845 0.0000 0.0000 0.0000
# 3 46.4966 34.4845 106.0018 0.0000 0.0000 0.0000
# 4 0.0000 0.0000 0.0000 26.0761 0.0000 0.0000
# 5 0.0000 0.0000 0.0000 0.0000 25.8767 0.0000
# 6 0.0000 0.0000 0.0000 0.0000 0.0000 20.9209
#
#
#
# Elastic Compliance Matrix: (Units=1/GPa)
#
#
# Indices 1 2 3 4 5 6 
#
# 1 0.019425 -0.008408 -0.005785 0.000000 0.000000 0.000000
# 2 -0.008408 0.018841 -0.002441 0.000000 0.000000 0.000000
# 3 -0.005785 -0.002441 0.012765 0.000000 0.000000 0.000000
# 4 0.000000 0.000000 0.000000 0.038349 0.000000 0.000000
# 5 0.000000 0.000000 0.000000 0.000000 0.038645 0.000000
# 6 0.000000 0.000000 0.000000 0.000000 0.000000 0.047799
#
#
# Mechanical properties :
#
#
# Convention : Reuss Voigt Hill
#
# Bulk Modulus (GPa) = 56.29944 57.37479 56.83712
# Shear Modulus (GPa) = 23.25428 24.08297 23.66863
#
# Velocity S-wave (km/s) = 3.43483 3.49549 3.46529
# Velocity P-wave (km/s) = 6.65539 6.73798 6.69681
#
# Compressibility (1/GPa) = 0.01776216
#
# Stress axis : x y z
#
# Youngs Moduli (GPa) = 51.48071 53.07583 78.33624
#
# Poissons Ratio (x) = 0.44628 0.45318
# Poissons Ratio (y) = 0.43287 0.19123
# Poissons Ratio (z) = 0.29782 0.12956
#
# Static dielectric constant tensor:
#      x y z
#    x 1.750770 0.000000 0.000000 
#    y 0.000000 1.720280 0.000000 
#    z 0.000000 0.000000 1.715410 
# 
# From -- ./inp_files/22227.got.cif
#   From: 2010.05.17/outbox.ucp.g08.bks.cvg/sg51_12_cif.got.tgz:22227.got - 2010.06.11 16:27:58.
