data_PCOD9407538
_publ_section_title
;
Structure prediction by ZEFSAII (Michael W. Deem and Ramdas Pophale) SiO2 
 PCOD9407538
Probable space group: P M M A
;
_chemical_formula_sum "Si O2"
_cell_formula_units_Z 64
_cell_length_a 24.000000
_cell_length_b 9.000000
_cell_length_c 15.000000
_cell_angle_alpha 90.000000
_cell_angle_beta 90.000000
_cell_angle_gamma 90.000000
_cell_volume 3240.000000
_symmetry_space_group_name_H-M "P M M A"
_symmetry_group_IT_number 51
_symmetry_cell_setting 'orthorhombic'
loop_
_space_group_symop_operation_xyz
x,y,z
1/2-x,-y,z
1/2+x,-y,-z
-x,y,-z
-x,-y,-z
1/2+x,y,-z
1/2-x,y,z
x,-y,z
loop_
_atom_site_type_symbol
_atom_site_label
_atom_site_fract_x
_atom_site_fract_y
_atom_site_fract_z
Si Si1 0.008729 0.678900 0.205732
Si Si2 0.691545 0.821813 0.269141
Si Si3 0.135088 0.323371 0.191744
Si Si4 0.023524 0.678362 0.595403
Si Si5 0.186351 0.321760 0.003024
Si Si6 0.399689 0.821298 0.868119
Si Si7 0.685772 0.179096 0.634481
Si Si8 0.362051 0.822785 0.553579
O O1 0.001697 0.500000 0.202426
O O2 0.003464 0.726325 0.310415
O O3 0.960508 0.753067 0.146978
O O4 0.070737 0.715891 0.173039
O O5 0.750000 0.758406 0.235554
O O6 0.637433 0.770671 0.216929
O O7 0.686102 0.799295 0.374231
O O8 0.692491 0.000000 0.255108
O O9 0.136412 0.500000 0.209610
O O10 0.156286 0.239805 0.278401
O O11 0.173763 0.293861 0.106970
O O12 0.020122 0.500000 0.594396
O O13 0.086107 0.734870 0.591990
O O14 0.000000 0.733431 0.500000
O O15 0.250000 0.275885 0.981521
O O16 0.181818 0.500000 0.988122
O O17 0.138063 0.238921 0.948642
O O18 0.403718 0.000000 0.871492
O O19 0.750000 0.227861 0.632164
O O20 0.654674 0.227400 0.544541
O O21 0.685219 0.000000 0.634851
O O22 0.374162 0.000000 0.551921
#
# Coordination Sequence:
#
# PCOD9407538 Si02
#       8
#     8   8   8   8   8   8   8   8
#     4  10  21  38  59  84 118 156 196 244 294 344
#     4   9  17  31  52  78 109 145 184 225 272 331
#     4  10  22  41  64  86 112 154 201 243 292 351
#     4  10  20  34  53  78 112 153 195 241 288 334
#     4  10  22  41  64  89 116 148 190 241 297 355
#     4  11  22  37  60  88 119 154 194 237 286 346
#     4  10  21  36  56  85 119 153 191 242 300 349
#     4  10  19  33  53  79 111 149 191 234 283 343
#
# _framework density 19.753086
#
# number of rings (size 3 to 8) (size 9 to 14) (size 15 to 20)
#    0.000    2.000    1.250    2.250    0.000    6.250 
#    0.000    2.500    0.000    1.875    0.000    0.000 
#    0.000    0.000    0.000    0.000    0.000    0.000 
#
# Total GULP energy -356983.797951 kJ/mol
# GULP energy per Si atom -5577.871843 kJ/mol
# Density = 1.970813 g / cm^3
# Si number density = 19.753086 Si / 1000 Ang^3
#
#
#
# Elastic Constant Matrix: (Units=GPa)
#
#
# Indices 1 2 3 4 5 6 
#
# 1 41.9627 -3.5508 8.0751 0.0000 0.0000 0.0000
# 2 -3.5508 -2.5055 16.8215 0.0000 0.0000 0.0000
# 3 8.0751 16.8215 68.2835 0.0000 0.0000 0.0000
# 4 0.0000 0.0000 0.0000 19.7986 0.0000 0.0000
# 5 0.0000 0.0000 0.0000 0.0000 54.4709 0.0000
# 6 0.0000 0.0000 0.0000 0.0000 0.0000 20.9729
#
#
#
# Elastic Compliance Matrix: (Units=1/GPa)
#
#
# Indices 1 2 3 4 5 6 
#
# 1 0.021918 -0.018262 0.001907 0.000000 0.000000 0.000000
# 2 -0.018262 -0.135174 0.035459 0.000000 0.000000 0.000000
# 3 0.001907 0.035459 0.005684 0.000000 0.000000 0.000000
# 4 0.000000 0.000000 0.000000 0.050509 0.000000 0.000000
# 5 0.000000 0.000000 0.000000 0.000000 0.018358 0.000000
# 6 0.000000 0.000000 0.000000 0.000000 0.000000 0.047681
#
#
# Mechanical properties :
#
#
# Convention : Reuss Voigt Hill
#
# Bulk Modulus (GPa) = -14.41692 16.71471 1.14889
# Shear Modulus (GPa) = -95.50489 24.80812 -35.34838
#
# Velocity S-wave (km/s) = -6.96091 3.54773 -4.23485
# Velocity P-wave (km/s) = 8.48058 5.02613 4.83002
#
# Compressibility (1/GPa) = -0.06936293
#
# Stress axis : x y z
#
# Youngs Moduli (GPa) = 45.62363 -7.39787 175.93285
#
# Poissons Ratio (x) = -0.13510 -0.33545
# Poissons Ratio (y) = 0.83317 -6.23848
# Poissons Ratio (z) = -0.08699 0.26232
#
# Static dielectric constant tensor:
#      x y z
#    x 1.707560 0.000000 0.000000 
#    y 0.000000 1.663210 0.000000 
#    z 0.000000 0.000000 1.723110 
# 
# From -- ./inp_files/26245.got.cif
#   From: 2010.05.17/outbox.ucp.g08.bks.cvg/sg51_14_cif.got.tgz:26245.got - 2010.06.11 16:27:58.
