data_PCOD9407418
_publ_section_title
;
Structure prediction by ZEFSAII (Michael W. Deem and Ramdas Pophale) SiO2 
 PCOD9407418
Probable space group: P M M A
;
_chemical_formula_sum "Si O2"
_cell_formula_units_Z 48
_cell_length_a 15.000000
_cell_length_b 9.000000
_cell_length_c 18.000000
_cell_angle_alpha 90.000000
_cell_angle_beta 90.000000
_cell_angle_gamma 90.000000
_cell_volume 2430.000000
_symmetry_space_group_name_H-M "P M M A"
_symmetry_group_IT_number 51
_symmetry_cell_setting 'orthorhombic'
loop_
_space_group_symop_operation_xyz
x,y,z
1/2-x,-y,z
1/2+x,-y,-z
-x,y,-z
-x,-y,-z
1/2+x,y,-z
1/2-x,y,z
x,-y,z
loop_
_atom_site_type_symbol
_atom_site_label
_atom_site_fract_x
_atom_site_fract_y
_atom_site_fract_z
Si Si1 0.348896 0.819020 0.873844
Si Si2 0.453802 0.322344 0.331233
Si Si3 0.604072 0.169203 0.523952
Si Si4 0.350855 0.180238 0.043331
Si Si5 0.345956 0.678719 0.624892
Si Si6 0.466102 0.179815 0.182650
O O1 0.250000 0.767685 0.853062
O O2 0.430722 0.773114 0.823592
O O3 0.347645 0.000000 0.873750
O O4 0.368027 0.772237 0.958883
O O5 0.450130 0.500000 0.333444
O O6 0.397288 0.253411 0.398128
O O7 0.558499 0.274741 0.341346
O O8 0.423253 0.256396 0.253281
O O9 0.500000 0.163929 0.500000
O O10 0.651287 0.258749 0.458678
O O11 0.636241 0.000000 0.529703
O O12 0.250000 0.223544 0.062778
O O13 0.419026 0.226132 0.106257
O O14 0.354002 0.000000 0.041567
O O15 0.250000 0.726578 0.658772
O O16 0.347188 0.500000 0.624031
O O17 0.461476 0.000000 0.189045
#
# Coordination Sequence:
#
# PCOD9407418 Si02
#       6
#     8   8   8   8   8   8
#     4   8  14  25  43  69  97 122 153 197 246 292
#     4  10  20  33  48  67  96 132 161 188 231 287
#     4   9  17  31  51  72  92 116 151 194 234 272
#     4   8  14  26  45  68  92 119 156 202 246 287
#     4   9  18  33  52  72  94 123 158 192 230 283
#     4  10  18  28  46  71  96 124 159 199 242 286
#
# _framework density 19.753086
#
# number of rings (size 3 to 8) (size 9 to 14) (size 15 to 20)
#    0.000    3.000    0.000    2.500    0.000    5.667 
#    0.000    0.833    0.000    5.500    0.000    2.333 
#    0.000    0.000    0.000    0.000    0.000    0.000 
#
# Total GULP energy -267376.172508 kJ/mol
# GULP energy per Si atom -5570.336927 kJ/mol
# Density = 1.970813 g / cm^3
# Si number density = 19.753086 Si / 1000 Ang^3
#
#
#
# Elastic Constant Matrix: (Units=GPa)
#
#
# Indices 1 2 3 4 5 6 
#
# 1 23.7116 -3.6548 15.3258 0.0000 0.0000 0.0000
# 2 -3.6548 -6.5904 6.4934 0.0000 0.0000 0.0000
# 3 15.3258 6.4934 88.2683 0.0000 0.0000 0.0000
# 4 0.0000 0.0000 0.0000 316.7265 0.0000 0.0000
# 5 0.0000 0.0000 0.0000 0.0000 3.2521 0.0000
# 6 0.0000 0.0000 0.0000 0.0000 0.0000 4.8424
#
#
#
# Elastic Compliance Matrix: (Units=1/GPa)
#
#
# Indices 1 2 3 4 5 6 
#
# 1 0.041176 -0.027859 -0.005100 0.000000 0.000000 0.000000
# 2 -0.027859 -0.122631 0.013858 0.000000 0.000000 0.000000
# 3 -0.005100 0.013858 0.011195 0.000000 0.000000 0.000000
# 4 0.000000 0.000000 0.000000 0.003157 0.000000 0.000000
# 5 0.000000 0.000000 0.000000 0.000000 0.307495 0.000000
# 6 0.000000 0.000000 0.000000 0.000000 0.000000 0.206510
#
#
# Mechanical properties :
#
#
# Convention : Reuss Voigt Hill
#
# Bulk Modulus (GPa) = -9.21979 15.74647 3.26334
# Shear Modulus (GPa) = 11.13712 70.77921 40.95817
#
# Velocity S-wave (km/s) = 2.37706 5.99248 4.55852
# Velocity P-wave (km/s) = 1.69004 7.47453 5.41871
#
# Compressibility (1/GPa) = -0.10846231
#
# Stress axis : x y z
#
# Youngs Moduli (GPa) = 24.28624 -8.15451 89.32502
#
# Poissons Ratio (x) = -0.22718 0.45554
# Poissons Ratio (y) = 0.67660 -1.23790
# Poissons Ratio (z) = 0.12385 0.11301
#
# Static dielectric constant tensor:
#      x y z
#    x 1.755980 0.000000 0.000000 
#    y 0.000000 1.650870 0.000000 
#    z 0.000000 0.000000 1.679250 
# 
# From -- ./inp_files/29491.got.cif
#   From: 2010.05.17/outbox.ucp.g08.bks.cvg/sg51_15_cif.got.tgz:29491.got - 2010.06.11 16:27:58.
