data_PCOD9407900
_publ_section_title
;
Structure prediction by ZEFSAII (Michael W. Deem and Ramdas Pophale) SiO2 
 PCOD9407900
Probable space group: P N N A
;
_chemical_formula_sum "Si O2"
_cell_formula_units_Z 48
_cell_length_a 14.000669
_cell_length_b 11.056045
_cell_length_c 11.465347
_cell_angle_alpha 90.000000
_cell_angle_beta 90.000000
_cell_angle_gamma 90.000000
_cell_volume 1774.744297
_symmetry_space_group_name_H-M "P N N A"
_symmetry_group_IT_number 52
_symmetry_cell_setting 'orthorhombic'
loop_
_space_group_symop_operation_xyz
x,y,z
1/2-x,-y,z
x,1/2-y,1/2-z
1/2-x,1/2+y,1/2-z
-x,-y,-z
1/2+x,y,-z
-x,1/2+y,1/2+z
1/2+x,1/2-y,1/2+z
loop_
_atom_site_type_symbol
_atom_site_label
_atom_site_fract_x
_atom_site_fract_y
_atom_site_fract_z
Si Si1 0.607011 0.250000 0.250000
Si Si2 0.891587 0.455597 0.500000
Si Si3 0.392989 0.750000 0.250000
Si Si4 0.633286 0.981279 0.749065
Si Si5 0.303154 0.781636 1.000000
Si Si6 0.366714 0.481279 0.750935
Si Si7 0.158455 0.592033 0.000000
O O1 0.655740 0.234631 0.377591
O O2 0.577266 0.390987 0.264098
O O3 0.879039 0.406028 0.632056
O O4 0.675198 0.423123 0.500000
O O5 0.879039 0.406028 0.367944
O O6 0.000000 0.500000 0.500000
O O7 0.422734 0.890987 0.235902
O O8 0.344259 0.734631 0.122409
O O9 0.750000 0.000000 0.745155
O O10 0.607285 0.928172 0.622939
O O11 0.198379 0.726963 1.000000
O O12 0.250000 0.500000 0.754845
O O13 0.392716 0.428173 0.877062
O O14 0.250000 0.500000 0.000000
#
# Coordination Sequence:
#
# PCOD9407900 Si02
#       7
#     4   8   4   8   8   8   8
#     4  10  16  28  50  92 112 150 186 250 310 360
#     4  10  23  37  53  87 127 173 202 243 307 389
#     4  10  16  28  50  92 112 150 186 250 310 360
#     4  10  18  32  59  89 122 151 206 261 310 354
#     4  10  18  31  55  84 118 156 202 245 307 365
#     4  10  18  32  59  89 122 151 206 261 310 354
#     4  10  16  32  55  95 118 143 199 272 298 359
#
# _framework density 27.046151999999999
#
# number of rings (size 3 to 8) (size 9 to 14) (size 15 to 20)
#    0.000    2.000    6.667    0.500    0.000    0.000 
#    0.000    0.833    0.000    8.000    0.000    0.000 
#    0.000    0.000    0.000    0.000    0.000    0.000 
#
# Total GULP energy -267263.091429 kJ/mol
# GULP energy per Si atom -5567.981071 kJ/mol
# Density = 2.698459 g / cm^3
# Si number density = 27.046152 Si / 1000 Ang^3
#
#
#
# Elastic Constant Matrix: (Units=GPa)
#
#
# Indices 1 2 3 4 5 6 
#
# 1 68.2445 17.2383 44.7318 0.0000 0.0000 0.0000
# 2 17.2383 102.9114 42.7000 0.0000 0.0000 0.0000
# 3 44.7318 42.7000 369.3490 0.0000 0.0000 0.0000
# 4 0.0000 0.0000 0.0000 50.6680 0.0000 0.0000
# 5 0.0000 0.0000 0.0000 0.0000 107.5033 0.0000
# 6 0.0000 0.0000 0.0000 0.0000 0.0000 5.7671
#
#
#
# Elastic Compliance Matrix: (Units=1/GPa)
#
#
# Indices 1 2 3 4 5 6 
#
# 1 0.016302 -0.002008 -0.001742 0.000000 0.000000 0.000000
# 2 -0.002008 0.010454 -0.000965 0.000000 0.000000 0.000000
# 3 -0.001742 -0.000965 0.003030 0.000000 0.000000 0.000000
# 4 0.000000 0.000000 0.000000 0.019736 0.000000 0.000000
# 5 0.000000 0.000000 0.000000 0.000000 0.009302 0.000000
# 6 0.000000 0.000000 0.000000 0.000000 0.000000 0.173397
#
#
# Mechanical properties :
#
#
# Convention : Reuss Voigt Hill
#
# Bulk Modulus (GPa) = 49.12699 83.31614 66.22156
# Shear Modulus (GPa) = 20.12576 61.84333 40.98454
#
# Velocity S-wave (km/s) = 2.73083 4.78701 3.89698
# Velocity P-wave (km/s) = 5.30535 7.83748 6.69227
#
# Compressibility (1/GPa) = 0.02035541
#
# Stress axis : x y z
#
# Youngs Moduli (GPa) = 61.34081 95.65725 330.02436
#
# Poissons Ratio (x) = 0.19207 0.57499
# Poissons Ratio (y) = 0.12316 0.31861
# Poissons Ratio (z) = 0.10687 0.09235
#
# Static dielectric constant tensor:
#      x y z
#    x 6.620370 0.000000 0.000000 
#    y 0.000000 1.864150 0.000000 
#    z 0.000000 0.000000 2.030450 
# 
# From -- ./inp_files/19582.got.cif
#   From: 2010.05.17/outbox.cif.g08.bks.cpg/sg52_10_cif.got.tgz:19582.got - 2010.06.03 12:15:38.
