data_PCOD9407749
_publ_section_title
;
Structure prediction by ZEFSAII (Michael W. Deem and Ramdas Pophale) SiO2 
 PCOD9407749
Probable space group: P M M A
;
_chemical_formula_sum "Si O2"
_cell_formula_units_Z 56
_cell_length_a 15.000000
_cell_length_b 9.000000
_cell_length_c 21.000000
_cell_angle_alpha 90.000000
_cell_angle_beta 90.000000
_cell_angle_gamma 90.000000
_cell_volume 2835.000000
_symmetry_space_group_name_H-M "P M M A"
_symmetry_group_IT_number 51
_symmetry_cell_setting 'orthorhombic'
loop_
_space_group_symop_operation_xyz
x,y,z
1/2-x,-y,z
1/2+x,-y,-z
-x,y,-z
-x,-y,-z
1/2+x,y,-z
1/2-x,y,z
x,-y,z
loop_
_atom_site_type_symbol
_atom_site_label
_atom_site_fract_x
_atom_site_fract_y
_atom_site_fract_z
Si Si1 0.358318 0.669319 0.472282
Si Si2 0.025304 0.821153 0.716868
Si Si3 0.854476 0.670815 0.033347
Si Si4 0.647523 0.679747 0.670230
Si Si5 0.038201 0.822189 0.854740
Si Si6 0.652168 0.178367 0.897546
Si Si7 0.146463 0.178438 0.600309
O O1 0.250000 0.666000 0.473967
O O2 0.389902 0.500000 0.477820
O O3 0.378111 0.727686 0.401942
O O4 0.387925 0.762197 0.532776
O O5 0.071083 0.786510 0.784132
O O6 0.085495 0.769425 0.658214
O O7 0.927971 0.749580 0.713368
O O8 0.015542 0.000000 0.713726
O O9 0.750000 0.676489 0.050301
O O10 0.879252 0.500000 0.021554
O O11 0.911054 0.739455 0.089734
O O12 0.864676 0.762766 0.968599
O O13 0.750000 0.724423 0.683583
O O14 0.645113 0.500000 0.671519
O O15 0.933914 0.779932 0.857528
O O16 0.045399 0.000000 0.864883
O O17 0.750000 0.233654 0.876472
O O18 0.655445 0.000000 0.898766
O O19 0.250000 0.224884 0.608531
O O20 0.145380 0.000000 0.599458
#
# Coordination Sequence:
#
# PCOD9407749 Si02
#       7
#     8   8   8   8   8   8   8
#     4   8  15  30  52  75  97 126 168 215 262 310
#     4  10  22  36  51  76 106 138 176 213 253 303
#     4  10  21  36  55  81 109 135 168 212 260 306
#     4   9  19  36  55  75 102 135 171 213 260 310
#     4  10  21  36  54  77 106 141 178 212 250 301
#     4   9  18  34  56  80 105 134 170 212 257 305
#     4   9  18  33  51  72 101 134 169 213 263 312
#
# _framework density 19.753086
#
# number of rings (size 3 to 8) (size 9 to 14) (size 15 to 20)
#    0.000    2.714    0.000    1.714    0.000    6.857 
#    0.000    7.143    0.000    3.429    0.000    0.000 
#    0.000    0.000    0.000    0.000    0.000    0.000 
#
# Total GULP energy -312285.583695 kJ/mol
# GULP energy per Si atom -5576.528280 kJ/mol
# Density = 1.970813 g / cm^3
# Si number density = 19.753086 Si / 1000 Ang^3
#
#
#
# Elastic Constant Matrix: (Units=GPa)
#
#
# Indices 1 2 3 4 5 6 
#
# 1 44.4407 14.3575 35.3121 0.0000 0.0000 0.0000
# 2 14.3575 -13.8590 2.7559 0.0000 0.0000 0.0000
# 3 35.3121 2.7559 54.4990 0.0000 0.0000 0.0000
# 4 0.0000 0.0000 0.0000 37.2941 0.0000 0.0000
# 5 0.0000 0.0000 0.0000 0.0000 285.2240 0.0000
# 6 0.0000 0.0000 0.0000 0.0000 0.0000 22.4470
#
#
#
# Elastic Compliance Matrix: (Units=1/GPa)
#
#
# Indices 1 2 3 4 5 6 
#
# 1 0.030440 0.027338 -0.021106 0.000000 0.000000 0.000000
# 2 0.027338 -0.046885 -0.015343 0.000000 0.000000 0.000000
# 3 -0.021106 -0.015343 0.032800 0.000000 0.000000 0.000000
# 4 0.000000 0.000000 0.000000 0.026814 0.000000 0.000000
# 5 0.000000 0.000000 0.000000 0.000000 0.003506 0.000000
# 6 0.000000 0.000000 0.000000 0.000000 0.000000 0.044549
#
#
# Mechanical properties :
#
#
# Convention : Reuss Voigt Hill
#
# Bulk Modulus (GPa) = -536.17470 21.10351 -257.53559
# Shear Modulus (GPa) = 45.94565 71.17003 58.55784
#
# Velocity S-wave (km/s) = 4.82809 6.00900 5.45062
# Velocity P-wave (km/s) = 15.52247 7.67143 9.54191
#
# Compressibility (1/GPa) = -0.00186506
#
# Stress axis : x y z
#
# Youngs Moduli (GPa) = 32.85123 -21.32890 30.48761
#
# Poissons Ratio (x) = 0.58310 0.64347
# Poissons Ratio (y) = -0.89810 0.46777
# Poissons Ratio (z) = 0.69336 -0.32724
#
# Static dielectric constant tensor:
#      x y z
#    x 1.711690 0.000000 0.000000 
#    y 0.000000 1.669770 0.000000 
#    z 0.000000 0.000000 1.693430 
# 
# From -- ./inp_files/33436.got.cif
#   From: 2010.05.17/outbox.ucp.g08.bks.cvg/sg51_17_cif.got.tgz:33436.got - 2010.06.11 16:27:58.
