data_PCOD9407855
_publ_section_title
;
Structure prediction by ZEFSAII (Michael W. Deem and Ramdas Pophale) SiO2 
 PCOD9407855
Probable space group: P N N A
;
_chemical_formula_sum "Si O2"
_cell_formula_units_Z 52
_cell_length_a 14.976019
_cell_length_b 7.207095
_cell_length_c 21.093079
_cell_angle_alpha 90.000000
_cell_angle_beta 90.000000
_cell_angle_gamma 90.000000
_cell_volume 2276.651776
_symmetry_space_group_name_H-M "P N N A"
_symmetry_group_IT_number 52
_symmetry_cell_setting 'orthorhombic'
loop_
_space_group_symop_operation_xyz
x,y,z
1/2-x,-y,z
x,1/2-y,1/2-z
1/2-x,1/2+y,1/2-z
-x,-y,-z
1/2+x,y,-z
-x,1/2+y,1/2+z
1/2+x,1/2-y,1/2+z
loop_
_atom_site_type_symbol
_atom_site_label
_atom_site_fract_x
_atom_site_fract_y
_atom_site_fract_z
Si Si1 0.925790 0.293908 0.677922
Si Si2 0.243015 0.273953 0.541412
Si Si3 0.225809 0.750000 0.750000
Si Si4 0.122326 0.159320 0.849715
Si Si5 0.390888 0.287524 0.861203
Si Si6 0.255413 0.273269 0.396496
Si Si7 0.080380 0.233948 0.174618
O O1 0.898395 0.250000 0.750000
O O2 0.851998 0.215986 0.630052
O O3 0.923507 0.513388 0.664278
O O4 0.030154 0.246976 0.670763
O O5 0.250000 0.500000 0.541428
O O6 0.156351 0.248173 0.585299
O O7 0.327534 0.184242 0.578126
O O8 0.239171 0.216184 0.468876
O O9 0.295781 0.825408 0.801288
O O10 0.158423 0.639217 0.797211
O O11 0.109690 0.938142 0.855452
O O12 0.495729 0.330747 0.859081
O O13 0.250000 0.500000 0.395401
O O14 0.175859 0.204239 0.351488
O O15 0.071430 0.250000 0.250000
#
# Coordination Sequence:
#
# PCOD9407855 Si02
#       7
#     8   8   4   8   8   8   8
#     4  10  19  32  48  73  97 125 159 196 235 279
#     4   8  15  28  43  68  96 124 151 195 243 278
#     4  10  14  26  42  62  92 120 150 178 236 278
#     4   9  17  27  44  68  97 121 152 195 241 281
#     4   9  17  27  44  68  97 121 152 195 241 281
#     4   9  18  30  47  67  96 125 159 194 233 281
#     4  10  19  32  48  73  97 125 159 196 235 279
#
# _framework density 22.840561000000001
#
# number of rings (size 3 to 8) (size 9 to 14) (size 15 to 20)
#    0.000    2.769    1.538    1.846    0.000    1.231 
#    0.000    6.154    0.000    0.000    0.000   23.692 
#    0.000    0.000    0.000    0.000    0.000    0.000 
#
# Total GULP energy -290180.939469 kJ/mol
# GULP energy per Si atom -5580.402682 kJ/mol
# Density = 2.278857 g / cm^3
# Si number density = 22.840561 Si / 1000 Ang^3
#
#
#
# Elastic Constant Matrix: (Units=GPa)
#
#
# Indices 1 2 3 4 5 6 
#
# 1 165.2735 -4.2439 58.1220 0.0000 0.0000 0.0000
# 2 -4.2439 84.1949 -21.8493 0.0000 0.0000 0.0000
# 3 58.1220 -21.8493 108.0303 0.0000 0.0000 0.0000
# 4 0.0000 0.0000 0.0000 10.6879 0.0000 0.0000
# 5 0.0000 0.0000 0.0000 0.0000 28.6423 0.0000
# 6 0.0000 0.0000 0.0000 0.0000 0.0000 28.8876
#
#
#
# Elastic Compliance Matrix: (Units=1/GPa)
#
#
# Indices 1 2 3 4 5 6 
#
# 1 0.007502 -0.000706 -0.004179 0.000000 0.000000 0.000000
# 2 -0.000706 0.012602 0.002929 0.000000 0.000000 0.000000
# 3 -0.004179 0.002929 0.012097 0.000000 0.000000 0.000000
# 4 0.000000 0.000000 0.000000 0.093564 0.000000 0.000000
# 5 0.000000 0.000000 0.000000 0.000000 0.034913 0.000000
# 6 0.000000 0.000000 0.000000 0.000000 0.000000 0.034617
#
#
# Mechanical properties :
#
#
# Convention : Reuss Voigt Hill
#
# Bulk Modulus (GPa) = 35.35109 46.83959 41.09534
# Shear Modulus (GPa) = 23.96492 35.34155 29.65323
#
# Velocity S-wave (km/s) = 3.24269 3.93786 3.60706
# Velocity P-wave (km/s) = 5.43424 6.42085 5.94804
#
# Compressibility (1/GPa) = 0.02828767
#
# Stress axis : x y z
#
# Youngs Moduli (GPa) = 133.29574 79.35483 82.66217
#
# Poissons Ratio (x) = 0.05605 0.34545
# Poissons Ratio (y) = 0.09416 -0.24210
# Poissons Ratio (z) = 0.55706 -0.23241
#
# Static dielectric constant tensor:
#      x y z
#    x 1.836290 0.000000 0.000000 
#    y 0.000000 1.990260 0.000000 
#    z 0.000000 0.000000 1.820970 
# 
# From -- ./inp_files/37273.got.cif
#   From: 2010.05.17/outbox.cif.g08.bks.cpg/sg52_19_cif.got.tgz:37273.got - 2010.06.03 12:15:38.
