data_PCOD9407184
_publ_section_title
;
Structure prediction by ZEFSAII (Michael W. Deem and Ramdas Pophale) SiO2 
 PCOD9407184
Probable space group: P M M A
;
_chemical_formula_sum "Si O2"
_cell_formula_units_Z 48
_cell_length_a 14.448381
_cell_length_b 10.639434
_cell_length_c 16.837983
_cell_angle_alpha 90.000000
_cell_angle_beta 90.000000
_cell_angle_gamma 90.000000
_cell_volume 2588.378459
_symmetry_space_group_name_H-M "P M M A"
_symmetry_group_IT_number 51
_symmetry_cell_setting 'orthorhombic'
loop_
_space_group_symop_operation_xyz
x,y,z
1/2-x,-y,z
1/2+x,-y,-z
-x,y,-z
-x,-y,-z
1/2+x,y,-z
1/2-x,y,z
x,-y,z
loop_
_atom_site_type_symbol
_atom_site_label
_atom_site_fract_x
_atom_site_fract_y
_atom_site_fract_z
Si Si1 0.861298 0.857101 0.323977
Si Si2 0.481987 0.641936 0.755675
Si Si3 0.137821 0.861383 0.489846
Si Si4 0.647008 0.000000 0.094014
Si Si5 0.146485 0.000000 0.098006
Si Si6 0.999784 0.211939 0.094657
Si Si7 0.859549 0.356452 0.629501
O O1 0.750000 0.845379 0.316996
O O2 0.885615 0.846061 0.417629
O O3 0.913305 0.747494 0.277995
O O4 0.886320 0.000000 0.298475
O O5 0.447828 0.500000 0.742590
O O6 0.497243 0.669512 0.848424
O O7 0.577921 0.655693 0.707509
O O8 0.250000 0.862716 0.487112
O O9 0.108675 0.746833 0.434404
O O10 0.105772 0.000000 0.462654
O O11 0.588693 0.123714 0.113045
O O12 0.750000 0.000000 0.127468
O O13 0.651957 0.000000 0.997955
O O14 0.087139 0.123693 0.117089
O O15 0.250000 0.000000 0.130942
O O16 0.000000 0.236579 0.000000
O O17 0.750000 0.338335 0.645687
O O18 0.870759 0.500000 0.599451
#
# Coordination Sequence:
#
# PCOD9407184 Si02
#       7
#     8   8   8   4   4   8   8
#     4   9  20  38  59  81 109 145 180 222 276 329
#     4  11  24  37  52  79 113 147 186 229 270 321
#     4   8  15  32  56  81 106 135 177 224 272 322
#     4   8  15  31  56  81 103 130 165 218 279 327
#     4   8  15  31  56  83 105 126 167 226 275 321
#     4   9  19  35  54  78 108 141 182 224 269 327
#     4   9  19  36  55  75 105 146 184 219 267 325
#
# _framework density 18.544429000000001
#
# number of rings (size 3 to 8) (size 9 to 14) (size 15 to 20)
#    0.000    3.000    0.000    2.000    2.333    4.000 
#    0.000    5.000    0.000    0.000    0.000    7.000 
#    0.000    0.000    0.000    0.000    0.000    0.000 
#
# Total GULP energy -267656.543503 kJ/mol
# GULP energy per Si atom -5576.177990 kJ/mol
# Density = 1.850222 g / cm^3
# Si number density = 18.544429 Si / 1000 Ang^3
#
#
#
# Elastic Constant Matrix: (Units=GPa)
#
#
# Indices 1 2 3 4 5 6 
#
# 1 89.1729 50.2131 21.4182 0.0000 0.0000 0.0000
# 2 50.2131 139.2898 71.6725 0.0000 0.0000 0.0000
# 3 21.4182 71.6725 85.4698 0.0000 0.0000 0.0000
# 4 0.0000 0.0000 0.0000 25.7898 0.0000 0.0000
# 5 0.0000 0.0000 0.0000 0.0000 67.0475 0.0000
# 6 0.0000 0.0000 0.0000 0.0000 0.0000 16.1145
#
#
#
# Elastic Compliance Matrix: (Units=1/GPa)
#
#
# Indices 1 2 3 4 5 6 
#
# 1 0.014150 -0.005763 0.001287 0.000000 0.000000 0.000000
# 2 -0.005763 0.014976 -0.011114 0.000000 0.000000 0.000000
# 3 0.001287 -0.011114 0.020697 0.000000 0.000000 0.000000
# 4 0.000000 0.000000 0.000000 0.038775 0.000000 0.000000
# 5 0.000000 0.000000 0.000000 0.000000 0.014915 0.000000
# 6 0.000000 0.000000 0.000000 0.000000 0.000000 0.062056
#
#
# Mechanical properties :
#
#
# Convention : Reuss Voigt Hill
#
# Bulk Modulus (GPa) = 53.63994 66.72669 60.18332
# Shear Modulus (GPa) = 24.63491 33.16560 28.90025
#
# Velocity S-wave (km/s) = 3.64871 4.23358 3.95198
# Velocity P-wave (km/s) = 6.83657 7.74324 7.30399
#
# Compressibility (1/GPa) = 0.01864282
#
# Stress axis : x y z
#
# Youngs Moduli (GPa) = 70.66945 66.77506 48.31548
#
# Poissons Ratio (x) = 0.38485 -0.06218
# Poissons Ratio (y) = 0.40729 0.53697
# Poissons Ratio (z) = -0.09095 0.74213
#
# Static dielectric constant tensor:
#      x y z
#    x 1.660370 0.000000 0.000000 
#    y 0.000000 1.625530 0.000000 
#    z 0.000000 0.000000 1.641700 
# 
# From -- ./inp_files/29658.got.cif
#   From: 2010.05.17/outbox.cif.g08.bks.cpg/sg51_15_cif.got.tgz:29658.got - 2010.06.03 11:52:47.
