data_PCOD9407406
_publ_section_title
;
Structure prediction by ZEFSAII (Michael W. Deem and Ramdas Pophale) SiO2 
 PCOD9407406
Probable space group: P M M A
;
_chemical_formula_sum "Si O2"
_cell_formula_units_Z 64
_cell_length_a 10.938228
_cell_length_b 29.508355
_cell_length_c 9.468051
_cell_angle_alpha 90.000000
_cell_angle_beta 90.000000
_cell_angle_gamma 90.000000
_cell_volume 3055.994441
_symmetry_space_group_name_H-M "P M M A"
_symmetry_group_IT_number 51
_symmetry_cell_setting 'orthorhombic'
loop_
_space_group_symop_operation_xyz
x,y,z
1/2-x,-y,z
1/2+x,-y,-z
-x,y,-z
-x,-y,-z
1/2+x,y,-z
1/2-x,y,z
x,-y,z
loop_
_atom_site_type_symbol
_atom_site_label
_atom_site_fract_x
_atom_site_fract_y
_atom_site_fract_z
Si Si1 0.115106 0.710122 0.090502
Si Si2 0.384198 0.321838 0.412143
Si Si3 0.116723 0.553303 0.077579
Si Si4 0.387773 0.819704 0.098483
Si Si5 0.611631 0.945610 0.103326
Si Si6 0.114497 0.568871 0.409206
Si Si7 0.115903 0.825062 0.429253
Si Si8 0.116504 0.076198 0.575056
O O1 0.250000 0.696602 0.035844
O O2 0.105075 0.693383 0.250531
O O3 0.112057 0.764885 0.093891
O O4 0.000000 0.694094 0.000000
O O5 0.500000 0.305595 0.500000
O O6 0.250000 0.307403 0.465750
O O7 0.385716 0.376501 0.415047
O O8 0.250000 0.573579 0.042960
O O9 0.121861 0.500000 0.038813
O O10 0.100899 0.555932 0.245628
O O11 0.000000 0.573980 0.000000
O O12 0.250000 0.834225 0.054317
O O13 0.404844 0.832582 0.262656
O O14 0.500000 0.834760 0.000000
O O15 0.750000 0.936054 0.049412
O O16 0.598261 0.923165 0.256918
O O17 0.605645 0.000000 0.126268
O O18 0.500000 0.934143 0.000000
O O19 0.250000 0.553742 0.457062
O O20 0.000000 0.552487 0.500000
O O21 0.250000 0.803014 0.443099
O O22 0.122900 0.873218 0.510021
O O23 0.000000 0.800842 0.500000
O O24 0.250000 0.055050 0.548732
O O25 0.000000 0.054105 0.500000
#
# Coordination Sequence:
#
# PCOD9407406 Si02
#       8
#     8   8   8   8   8   8   8   8
#     4   9  18  32  49  71  98 125 156 195 237 283
#     4   9  18  32  48  68  96 127 158 193 234 283
#     4   9  18  32  48  67  92 121 155 196 240 285
#     4   9  18  33  52  73  97 126 160 198 240 285
#     4   9  18  33  53  77 103 131 165 203 242 286
#     4   9  18  32  48  67  93 124 157 194 236 282
#     4   9  18  33  51  71  97 128 162 199 239 283
#     4   9  18  33  51  72 100 131 163 199 238 282
#
# _framework density 20.942447000000001
#
# number of rings (size 3 to 8) (size 9 to 14) (size 15 to 20)
#    0.000    3.000    0.000    0.000    0.000    3.500 
#    0.000    2.500    0.000   13.500    0.000    0.000 
#    0.000    0.000    0.000    0.000    0.000    0.000 
#
# Total GULP energy -356928.044808 kJ/mol
# GULP energy per Si atom -5577.000700 kJ/mol
# Density = 2.089478 g / cm^3
# Si number density = 20.942447 Si / 1000 Ang^3
#
#
#
# Elastic Constant Matrix: (Units=GPa)
#
#
# Indices 1 2 3 4 5 6 
#
# 1 267.0707 20.5426 113.8849 0.0000 0.0000 0.0000
# 2 20.5426 62.4019 10.0450 0.0000 0.0000 0.0000
# 3 113.8849 10.0450 88.9580 0.0000 0.0000 0.0000
# 4 0.0000 0.0000 0.0000 46.4902 0.0000 0.0000
# 5 0.0000 0.0000 0.0000 0.0000 43.3085 0.0000
# 6 0.0000 0.0000 0.0000 0.0000 0.0000 -45.4982
#
#
#
# Elastic Compliance Matrix: (Units=1/GPa)
#
#
# Indices 1 2 3 4 5 6 
#
# 1 0.008312 -0.001042 -0.010523 0.000000 0.000000 0.000000
# 2 -0.001042 0.016453 -0.000523 0.000000 0.000000 0.000000
# 3 -0.010523 -0.000523 0.024772 0.000000 0.000000 0.000000
# 4 0.000000 0.000000 0.000000 0.021510 0.000000 0.000000
# 5 0.000000 0.000000 0.000000 0.000000 0.023090 0.000000
# 6 0.000000 0.000000 0.000000 0.000000 0.000000 -0.021979
#
#
# Mechanical properties :
#
#
# Convention : Reuss Voigt Hill
#
# Bulk Modulus (GPa) = 39.43411 78.59730 59.01570
# Shear Modulus (GPa) = 47.71516 27.12397 37.41957
#
# Velocity S-wave (km/s) = 4.77843 3.60275 4.23162
# Velocity P-wave (km/s) = 7.02248 7.41067 7.21918
#
# Compressibility (1/GPa) = 0.02535875
#
# Stress axis : x y z
#
# Youngs Moduli (GPa) = 120.31069 60.78089 40.36779
#
# Poissons Ratio (x) = 0.06335 0.42480
# Poissons Ratio (y) = 0.12540 0.02113
# Poissons Ratio (z) = 1.26605 0.03182
#
# Static dielectric constant tensor:
#      x y z
#    x 1.834070 0.000000 0.000000 
#    y 0.000000 1.771920 0.000000 
#    z 0.000000 0.000000 1.681850 
# 
# From -- ./inp_files/7108.got.cif
#   From: 2010.05.17/outbox.cif.g08.bks.cpg/sg51_4_cif.got.tgz:7108.got - 2010.06.03 11:52:47.
