data_PCOD9407619
_publ_section_title
;
Structure prediction by ZEFSAII (Michael W. Deem and Ramdas Pophale) SiO2 
 PCOD9407619
Probable space group: P M M A
;
_chemical_formula_sum "Si O2"
_cell_formula_units_Z 64
_cell_length_a 18.000000
_cell_length_b 9.000000
_cell_length_c 21.000000
_cell_angle_alpha 90.000000
_cell_angle_beta 90.000000
_cell_angle_gamma 90.000000
_cell_volume 3402.000000
_symmetry_space_group_name_H-M "P M M A"
_symmetry_group_IT_number 51
_symmetry_cell_setting 'orthorhombic'
loop_
_space_group_symop_operation_xyz
x,y,z
1/2-x,-y,z
1/2+x,-y,-z
-x,y,-z
-x,-y,-z
1/2+x,y,-z
1/2-x,y,z
x,-y,z
loop_
_atom_site_type_symbol
_atom_site_label
_atom_site_fract_x
_atom_site_fract_y
_atom_site_fract_z
Si Si1 0.164646 0.681190 0.452968
Si Si2 0.835670 0.821472 0.176115
Si Si3 0.417516 0.175704 0.699274
Si Si4 0.662441 0.676443 0.792371
Si Si5 0.159244 0.829856 0.079534
Si Si6 0.340573 0.668484 0.952989
Si Si7 0.838351 0.668084 0.408409
Si Si8 0.071944 0.678910 0.332633
O O1 0.250000 0.731262 0.444508
O O2 0.166764 0.500000 0.452001
O O3 0.134222 0.720472 0.522567
O O4 0.112853 0.731850 0.396103
O O5 0.750000 0.772077 0.186660
O O6 0.888040 0.768970 0.232760
O O7 0.861552 0.763741 0.108059
O O8 0.834961 0.000000 0.175974
O O9 0.357269 0.220493 0.647085
O O10 0.491973 0.253336 0.676988
O O11 0.427543 0.000000 0.702718
O O12 0.750000 0.706005 0.784797
O O13 0.654099 0.500000 0.802871
O O14 0.633976 0.762105 0.853981
O O15 0.620866 0.718921 0.728527
O O16 0.250000 0.823572 0.080038
O O17 0.137549 0.000000 0.072938
O O18 0.133333 0.736977 0.019097
O O19 0.250000 0.669924 0.955044
O O20 0.364963 0.500000 0.945639
O O21 0.750000 0.657345 0.415453
O O22 0.866350 0.500000 0.394923
O O23 0.067445 0.500000 0.335338
#
# Coordination Sequence:
#
# PCOD9407619 Si02
#       8
#     8   8   8   8   8   8   8   8
#     4   8  15  31  56  82 103 127 165 211 256 301
#     4   9  18  33  51  69  92 127 168 205 245 296
#     4  11  23  36  50  71 104 141 172 205 248 301
#     4   9  17  30  50  75 100 128 166 212 257 298
#     4   9  16  26  43  69 101 134 164 197 242 298
#     4   9  16  26  44  72 101 125 155 202 253 295
#     4   9  18  34  57  81 102 127 165 212 255 298
#     4  10  20  34  53  75 101 134 171 211 253 298
#
# _framework density 18.812463000000001
#
# number of rings (size 3 to 8) (size 9 to 14) (size 15 to 20)
#    0.000    2.750    0.000    2.625    0.000    7.250 
#    0.000    4.375    0.000    2.625    0.000    5.250 
#    0.000    0.000    0.000    0.000    0.000    0.000 
#
# Total GULP energy -356675.311228 kJ/mol
# GULP energy per Si atom -5573.051738 kJ/mol
# Density = 1.876965 g / cm^3
# Si number density = 18.812463 Si / 1000 Ang^3
#
#
#
# Elastic Constant Matrix: (Units=GPa)
#
#
# Indices 1 2 3 4 5 6 
#
# 1 -1.9308 6.0809 -6.4312 0.0000 0.0000 0.0000
# 2 6.0809 -14.8798 15.3460 0.0000 0.0000 0.0000
# 3 -6.4312 15.3460 56.5976 0.0000 0.0000 0.0000
# 4 0.0000 0.0000 0.0000 29.2694 0.0000 0.0000
# 5 0.0000 0.0000 0.0000 0.0000 -72.0925 0.0000
# 6 0.0000 0.0000 0.0000 0.0000 0.0000 5.5583
#
#
#
# Elastic Compliance Matrix: (Units=1/GPa)
#
#
# Indices 1 2 3 4 5 6 
#
# 1 1.805243 0.741851 0.003983 0.000000 0.000000 0.000000
# 2 0.741851 0.252339 0.015877 0.000000 0.000000 0.000000
# 3 0.003983 0.015877 0.013816 0.000000 0.000000 0.000000
# 4 0.000000 0.000000 0.000000 0.034165 0.000000 0.000000
# 5 0.000000 0.000000 0.000000 0.000000 -0.013871 0.000000
# 6 0.000000 0.000000 0.000000 0.000000 0.000000 0.179912
#
#
# Mechanical properties :
#
#
# Convention : Reuss Voigt Hill
#
# Bulk Modulus (GPa) = 0.27818 7.75316 4.01567
# Shear Modulus (GPa) = 2.56877 -5.80020 -1.61572
#
# Velocity S-wave (km/s) = 1.16980 -1.75780 -0.92775
# Velocity P-wave (km/s) = 1.40455 0.10206 0.99579
#
# Compressibility (1/GPa) = 3.59482204
#
# Stress axis : x y z
#
# Youngs Moduli (GPa) = 0.55394 3.96292 72.37841
#
# Poissons Ratio (x) = -2.93990 -0.28829
# Poissons Ratio (y) = -0.41094 -1.14915
# Poissons Ratio (z) = -0.00221 -0.06292
#
# Static dielectric constant tensor:
#      x y z
#    x 1.636260 0.000000 0.000000 
#    y 0.000000 1.645680 0.000000 
#    z 0.000000 0.000000 1.670030 
# 
# From -- ./inp_files/33855.got.cif
#   From: 2010.05.17/outbox.ucp.g08.bks.cvg/sg51_17_cif.got.tgz:33855.got - 2010.06.11 16:27:58.
