data_PCOD9407629
_publ_section_title
;
Structure prediction by ZEFSAII (Michael W. Deem and Ramdas Pophale) SiO2 
 PCOD9407629
Probable space group: P M M A
;
_chemical_formula_sum "Si O2"
_cell_formula_units_Z 64
_cell_length_a 15.000000
_cell_length_b 9.000000
_cell_length_c 24.000000
_cell_angle_alpha 90.000000
_cell_angle_beta 90.000000
_cell_angle_gamma 90.000000
_cell_volume 3240.000000
_symmetry_space_group_name_H-M "P M M A"
_symmetry_group_IT_number 51
_symmetry_cell_setting 'orthorhombic'
loop_
_space_group_symop_operation_xyz
x,y,z
1/2-x,-y,z
1/2+x,-y,-z
-x,y,-z
-x,-y,-z
1/2+x,y,-z
1/2-x,y,z
x,-y,z
loop_
_atom_site_type_symbol
_atom_site_label
_atom_site_fract_x
_atom_site_fract_y
_atom_site_fract_z
Si Si1 0.349941 0.180751 0.789148
Si Si2 0.349008 0.674304 0.976551
Si Si3 0.348618 0.674282 0.110750
Si Si4 0.475852 0.179465 0.688643
Si Si5 0.531261 0.176704 0.108620
Si Si6 0.147512 0.679583 0.348040
Si Si7 0.641773 0.669049 0.527435
Si Si8 0.646383 0.821631 0.414500
O O1 0.250000 0.236434 0.781901
O O2 0.415678 0.226352 0.740340
O O3 0.393589 0.223038 0.847208
O O4 0.346596 0.000000 0.787598
O O5 0.250000 0.728456 0.958485
O O6 0.356145 0.500000 0.962494
O O7 0.430488 0.758930 0.948714
O O8 0.350270 0.685093 0.043362
O O9 0.250000 0.726208 0.129383
O O10 0.356380 0.500000 0.125094
O O11 0.436129 0.761805 0.128362
O O12 0.573095 0.250512 0.690638
O O13 0.420063 0.226707 0.634020
O O14 0.483406 0.000000 0.688036
O O15 0.526039 0.000000 0.105462
O O16 0.250000 0.722941 0.336800
O O17 0.144429 0.500000 0.347243
O O18 0.121505 0.728126 0.411100
O O19 0.750000 0.664075 0.526410
O O20 0.609326 0.500000 0.522405
O O21 0.614524 0.762744 0.474209
O O22 0.750000 0.773663 0.404982
O O23 0.647494 0.000000 0.415080
#
# Coordination Sequence:
#
# PCOD9407629 Si02
#       8
#     8   8   8   8   8   8   8   8
#     4   9  19  37  57  76 103 137 169 204 252 309
#     4   9  18  33  53  77 107 144 181 214 253 307
#     4   9  19  36  55  75 105 146 183 212 251 307
#     4  10  20  34  54  76  96 127 171 212 250 294
#     4  11  21  32  52  81 108 137 175 219 265 308
#     4   9  19  36  54  72  99 133 165 200 247 302
#     4   8  15  29  48  69  96 132 166 194 237 301
#     4   9  17  29  47  73 102 129 161 204 250 294
#
# _framework density 19.753086
#
# number of rings (size 3 to 8) (size 9 to 14) (size 15 to 20)
#    0.000    2.750    0.000    3.000    0.000    6.250 
#    0.000    6.875    0.000    6.375    0.000    0.000 
#    0.000    0.000    0.000    0.000    0.000    0.000 
#
# Total GULP energy -356858.702460 kJ/mol
# GULP energy per Si atom -5575.917226 kJ/mol
# Density = 1.970813 g / cm^3
# Si number density = 19.753086 Si / 1000 Ang^3
#
#
#
# Elastic Constant Matrix: (Units=GPa)
#
#
# Indices 1 2 3 4 5 6 
#
# 1 112.8778 27.7229 34.9577 0.0000 0.0000 0.0000
# 2 27.7229 9.5386 12.2374 0.0000 0.0000 0.0000
# 3 34.9577 12.2374 37.6718 0.0000 0.0000 0.0000
# 4 0.0000 0.0000 0.0000 17.1394 0.0000 0.0000
# 5 0.0000 0.0000 0.0000 0.0000 20.6486 0.0000
# 6 0.0000 0.0000 0.0000 0.0000 0.0000 25.7543
#
#
#
# Elastic Compliance Matrix: (Units=1/GPa)
#
#
# Indices 1 2 3 4 5 6 
#
# 1 0.030972 -0.091117 0.000859 0.000000 0.000000 0.000000
# 2 -0.091117 0.447809 -0.060915 0.000000 0.000000 0.000000
# 3 0.000859 -0.060915 0.045536 0.000000 0.000000 0.000000
# 4 0.000000 0.000000 0.000000 0.058345 0.000000 0.000000
# 5 0.000000 0.000000 0.000000 0.000000 0.048429 0.000000
# 6 0.000000 0.000000 0.000000 0.000000 0.000000 0.038829
#
#
# Mechanical properties :
#
#
# Convention : Reuss Voigt Hill
#
# Bulk Modulus (GPa) = 4.50513 34.43602 19.47058
# Shear Modulus (GPa) = 4.77894 18.38647 11.58270
#
# Velocity S-wave (km/s) = 1.55711 3.05424 2.42414
# Velocity P-wave (km/s) = 2.34914 5.46890 4.20876
#
# Compressibility (1/GPa) = 0.22196915
#
# Stress axis : x y z
#
# Youngs Moduli (GPa) = 32.28751 2.23309 21.96047
#
# Poissons Ratio (x) = 0.20347 -0.01885
# Poissons Ratio (y) = 2.94195 1.33773
# Poissons Ratio (z) = -0.02772 0.13603
#
# Static dielectric constant tensor:
#      x y z
#    x 1.717760 0.000000 0.000000 
#    y 0.000000 1.666110 0.000000 
#    z 0.000000 0.000000 1.735680 
# 
# From -- ./inp_files/35598.got.cif
#   From: 2010.05.17/outbox.ucp.g08.bks.cvg/sg51_18_cif.got.tgz:35598.got - 2010.06.11 16:27:58.
