data_PCOD9407283
_publ_section_title
;
Structure prediction by ZEFSAII (Michael W. Deem and Ramdas Pophale) SiO2 
 PCOD9407283
Probable space group: P M M A
;
_chemical_formula_sum "Si O2"
_cell_formula_units_Z 40
_cell_length_a 9.988877
_cell_length_b 7.391284
_cell_length_c 27.158027
_cell_angle_alpha 90.000000
_cell_angle_beta 90.000000
_cell_angle_gamma 90.000000
_cell_volume 2005.094155
_symmetry_space_group_name_H-M "P M M A"
_symmetry_group_IT_number 51
_symmetry_cell_setting 'orthorhombic'
loop_
_space_group_symop_operation_xyz
x,y,z
1/2-x,-y,z
1/2+x,-y,-z
-x,y,-z
-x,-y,-z
1/2+x,y,-z
1/2-x,y,z
x,-y,z
loop_
_atom_site_type_symbol
_atom_site_label
_atom_site_fract_x
_atom_site_fract_y
_atom_site_fract_z
Si Si1 0.597598 0.213906 0.760124
Si Si2 0.904105 0.779150 0.154329
Si Si3 0.406199 0.279242 0.455648
Si Si4 0.095554 0.716978 0.347846
Si Si5 0.595954 0.779555 0.043532
O O1 0.750000 0.288229 0.760682
O O2 0.503053 0.285909 0.803129
O O3 0.537205 0.234485 0.705203
O O4 0.608809 0.000000 0.768560
O O5 0.750000 0.724238 0.162500
O O6 0.944158 0.724802 0.098894
O O7 0.904590 0.000000 0.155071
O O8 0.500000 0.217231 0.500000
O O9 0.250000 0.226254 0.461060
O O10 0.407072 0.500000 0.456463
O O11 0.456847 0.222778 0.401173
O O12 0.250000 0.780984 0.346223
O O13 0.097131 0.500000 0.349339
O O14 0.750000 0.725337 0.035658
O O15 0.593859 0.000000 0.043040
O O16 0.500000 0.716898 0.000000
#
# Coordination Sequence:
#
# PCOD9407283 Si02
#       5
#     8   8   8   8   8
#     4   9  16  25  39  58  75  95 129 164 184 209
#     4   8  14  24  35  48  71 102 128 150 186 232
#     4   8  13  22  37  55  73  94 120 149 182 220
#     4   8  14  25  40  57  78 102 124 150 189 229
#     4   8  13  20  30  45  66  93 123 152 183 220
#
# _framework density 19.949187999999999
#
# number of rings (size 3 to 8) (size 9 to 14) (size 15 to 20)
#    0.000    3.800    0.000    2.400    0.000    0.800 
#    0.000    5.000    0.000    2.400    0.000    0.000 
#    0.000    0.800    0.000    1.800    0.000    3.600 
#
# Total GULP energy -222743.927078 kJ/mol
# GULP energy per Si atom -5568.598177 kJ/mol
# Density = 1.990378 g / cm^3
# Si number density = 19.949188 Si / 1000 Ang^3
#
#
#
# Elastic Constant Matrix: (Units=GPa)
#
#
# Indices 1 2 3 4 5 6 
#
# 1 75.9077 3.6904 113.6751 0.0000 0.0000 0.0000
# 2 3.6904 66.2173 4.7322 0.0000 0.0000 0.0000
# 3 113.6751 4.7322 250.7788 0.0000 0.0000 0.0000
# 4 0.0000 0.0000 0.0000 13.0280 0.0000 0.0000
# 5 0.0000 0.0000 0.0000 0.0000 39.8054 0.0000
# 6 0.0000 0.0000 0.0000 0.0000 0.0000 -8.9728
#
#
#
# Elastic Compliance Matrix: (Units=1/GPa)
#
#
# Indices 1 2 3 4 5 6 
#
# 1 0.041078 -0.000960 -0.018602 0.000000 0.000000 0.000000
# 2 -0.000960 0.015145 0.000149 0.000000 0.000000 0.000000
# 3 -0.018602 0.000149 0.012417 0.000000 0.000000 0.000000
# 4 0.000000 0.000000 0.000000 0.076758 0.000000 0.000000
# 5 0.000000 0.000000 0.000000 0.000000 0.025122 0.000000
# 6 0.000000 0.000000 0.000000 0.000000 0.000000 -0.111448
#
#
# Mechanical properties :
#
#
# Convention : Reuss Voigt Hill
#
# Bulk Modulus (GPa) = 33.54115 70.78880 52.16498
# Shear Modulus (GPa) = 46.36756 26.82587 36.59672
#
# Velocity S-wave (km/s) = 4.82631 3.67101 4.28775
# Velocity P-wave (km/s) = 6.92153 7.31642 7.12171
#
# Compressibility (1/GPa) = 0.02981413
#
# Stress axis : x y z
#
# Youngs Moduli (GPa) = 24.34399 66.03003 80.53585
#
# Poissons Ratio (x) = 0.06339 1.49813
# Poissons Ratio (y) = 0.02337 -0.01203
# Poissons Ratio (z) = 0.45285 -0.00986
#
# Static dielectric constant tensor:
#      x y z
#    x 1.670020 0.000000 0.000000 
#    y 0.000000 1.804280 0.000000 
#    z 0.000000 0.000000 1.724580 
# 
# From -- ./inp_files/31376.got.cif
#   From: 2010.05.17/outbox.cif.g08.bks.cpg/sg51_16_cif.got.tgz:31376.got - 2010.06.03 11:52:47.
