data_PCOD9407569
_publ_section_title
;
Structure prediction by ZEFSAII (Michael W. Deem and Ramdas Pophale) SiO2 
 PCOD9407569
Probable space group: P M M A
;
_chemical_formula_sum "Si O2"
_cell_formula_units_Z 64
_cell_length_a 9.000000
_cell_length_b 24.000000
_cell_length_c 15.000000
_cell_angle_alpha 90.000000
_cell_angle_beta 90.000000
_cell_angle_gamma 90.000000
_cell_volume 3240.000000
_symmetry_space_group_name_H-M "P M M A"
_symmetry_group_IT_number 51
_symmetry_cell_setting 'orthorhombic'
loop_
_space_group_symop_operation_xyz
x,y,z
1/2-x,-y,z
1/2+x,-y,-z
-x,y,-z
-x,-y,-z
1/2+x,y,-z
1/2-x,y,z
x,-y,z
loop_
_atom_site_type_symbol
_atom_site_label
_atom_site_fract_x
_atom_site_fract_y
_atom_site_fract_z
Si Si1 0.076130 0.562407 0.215551
Si Si2 0.425308 0.168297 0.586675
Si Si3 0.076019 0.644745 0.913144
Si Si4 0.579262 0.749329 0.838250
Si Si5 0.073144 0.138657 0.782240
Si Si6 0.417433 0.066442 0.087541
Si Si7 0.073676 0.592814 0.412152
Si Si8 0.578413 0.281438 0.630638
O O1 0.250000 0.579885 0.206121
O O2 0.061014 0.500000 0.179709
O O3 0.041255 0.562573 0.320129
O O4 0.971531 0.605924 0.167983
O O5 0.500000 0.143195 0.500000
O O6 0.250000 0.165149 0.579078
O O7 0.473506 0.141118 0.679350
O O8 0.475639 0.232488 0.595070
O O9 0.250000 0.647918 0.923752
O O10 0.008409 0.705612 0.897299
O O11 0.000000 0.619551 0.000000
O O12 0.750000 0.754289 0.866477
O O13 0.501203 0.808863 0.831462
O O14 0.577230 0.724282 0.737692
O O15 0.250000 0.143586 0.787056
O O16 0.013647 0.083987 0.828720
O O17 0.250000 0.088283 0.093959
O O18 0.410056 0.000000 0.080760
O O19 0.500000 0.088340 0.000000
O O20 0.250000 0.592223 0.423948
O O21 0.028603 0.657469 0.398045
O O22 0.000000 0.569616 0.500000
O O23 0.750000 0.272543 0.601921
#
# Coordination Sequence:
#
# PCOD9407569 Si02
#       8
#     8   8   8   8   8   8   8   8
#     4  10  22  43  65  82 108 146 187 234 285 338
#     4  10  20  32  49  77 114 153 195 236 280 333
#     4  12  25  41  63  88 115 145 183 230 284 346
#     4  10  19  36  59  84 117 152 188 229 280 337
#     4  10  21  36  56  87 122 157 197 240 289 341
#     4  10  21  38  61  88 117 153 197 244 293 344
#     4  10  20  34  53  82 112 145 184 225 277 334
#     4   9  17  31  52  76 108 146 184 226 275 329
#
# _framework density 19.753086
#
# number of rings (size 3 to 8) (size 9 to 14) (size 15 to 20)
#    0.000    1.875    1.250    3.000    0.000    6.000 
#    0.000    2.500    0.000    0.375    0.000    0.000 
#    0.000    0.000    0.000    0.000    0.000    0.000 
#
# Total GULP energy -357235.185303 kJ/mol
# GULP energy per Si atom -5581.799770 kJ/mol
# Density = 1.970813 g / cm^3
# Si number density = 19.753086 Si / 1000 Ang^3
#
#
#
# Elastic Constant Matrix: (Units=GPa)
#
#
# Indices 1 2 3 4 5 6 
#
# 1 74.8827 23.9874 48.2273 0.0000 0.0000 0.0000
# 2 23.9874 17.7243 24.0832 0.0000 0.0000 0.0000
# 3 48.2273 24.0832 80.2983 0.0000 0.0000 0.0000
# 4 0.0000 0.0000 0.0000 -58.5490 0.0000 0.0000
# 5 0.0000 0.0000 0.0000 0.0000 28.1435 0.0000
# 6 0.0000 0.0000 0.0000 0.0000 0.0000 12.9055
#
#
#
# Elastic Compliance Matrix: (Units=1/GPa)
#
#
# Indices 1 2 3 4 5 6 
#
# 1 0.026823 -0.024324 -0.008815 0.000000 0.000000 0.000000
# 2 -0.024324 0.117285 -0.020567 0.000000 0.000000 0.000000
# 3 -0.008815 -0.020567 0.023916 0.000000 0.000000 0.000000
# 4 0.000000 0.000000 0.000000 -0.017080 0.000000 0.000000
# 5 0.000000 0.000000 0.000000 0.000000 0.035532 0.000000
# 6 0.000000 0.000000 0.000000 0.000000 0.000000 0.077486
#
#
# Mechanical properties :
#
#
# Convention : Reuss Voigt Hill
#
# Bulk Modulus (GPa) = 16.49833 40.61124 28.55478
# Shear Modulus (GPa) = 12.76885 1.60719 7.18802
#
# Velocity S-wave (km/s) = 2.54524 0.90300 1.90967
# Velocity P-wave (km/s) = 4.12409 4.65739 4.39883
#
# Compressibility (1/GPa) = 0.06061221
#
# Stress axis : x y z
#
# Youngs Moduli (GPa) = 37.28154 8.52625 41.81282
#
# Poissons Ratio (x) = 0.20739 0.36856
# Poissons Ratio (y) = 0.90684 0.85997
# Poissons Ratio (z) = 0.32862 0.17536
#
# Static dielectric constant tensor:
#      x y z
#    x 1.662180 0.000000 0.000000 
#    y 0.000000 1.683390 0.000000 
#    z 0.000000 0.000000 1.783330 
# 
# From -- ./inp_files/22282.got.cif
#   From: 2010.05.17/outbox.ucp.g08.bks.cvg/sg51_12_cif.got.tgz:22282.got - 2010.06.11 16:27:58.
