data_PCOD9407143
_publ_section_title
;
Structure prediction by ZEFSAII (Michael W. Deem and Ramdas Pophale) SiO2 
 PCOD9407143
Probable space group: P M M A
;
_chemical_formula_sum "Si O2"
_cell_formula_units_Z 56
_cell_length_a 7.766907
_cell_length_b 16.165728
_cell_length_c 20.941691
_cell_angle_alpha 90.000000
_cell_angle_beta 90.000000
_cell_angle_gamma 90.000000
_cell_volume 2629.390681
_symmetry_space_group_name_H-M "P M M A"
_symmetry_group_IT_number 51
_symmetry_cell_setting 'orthorhombic'
loop_
_space_group_symop_operation_xyz
x,y,z
1/2-x,-y,z
1/2+x,-y,-z
-x,y,-z
-x,-y,-z
1/2+x,y,-z
1/2-x,y,z
x,-y,z
loop_
_atom_site_type_symbol
_atom_site_label
_atom_site_fract_x
_atom_site_fract_y
_atom_site_fract_z
Si Si1 0.961515 0.907890 0.670799
Si Si2 0.548891 0.228731 0.572386
Si Si3 0.043215 0.366667 0.245164
Si Si4 0.456949 0.770203 0.069024
Si Si5 0.459601 0.411639 0.102127
Si Si6 0.051382 0.589027 0.614735
Si Si7 0.541253 0.819811 0.794078
O O1 0.750000 0.906407 0.671344
O O2 0.026998 0.835794 0.623642
O O3 0.017444 0.887194 0.743220
O O4 0.013767 0.000000 0.651297
O O5 0.500000 0.210399 0.500000
O O6 0.750000 0.216602 0.577939
O O7 0.518056 0.325079 0.587681
O O8 0.250000 0.373860 0.252713
O O9 0.997841 0.406905 0.177496
O O10 0.001573 0.269819 0.236577
O O11 0.962132 0.403257 0.308503
O O12 0.250000 0.766305 0.073951
O O13 0.522160 0.674739 0.072713
O O14 0.520230 0.817094 0.132635
O O15 0.500000 0.805840 0.000000
O O16 0.250000 0.410969 0.097816
O O17 0.521930 0.500000 0.076315
O O18 0.250000 0.587177 0.595835
O O19 0.972100 0.500000 0.595850
O O20 0.750000 0.824834 0.796982
#
# Coordination Sequence:
#
# PCOD9407143 Si02
#       7
#     8   8   8   8   8   8   8
#     4   9  17  32  59  91 114 135 173 222 268 321
#     4  11  23  40  61  84 113 147 181 219 267 320
#     4   9  15  28  51  75  98 132 179 226 272 319
#     4   9  17  28  44  65  95 133 175 217 262 315
#     4   8  14  24  40  63  91 126 171 221 267 315
#     4  11  23  36  52  78 112 148 186 227 270 315
#     4   8  14  28  50  76 104 135 173 218 264 315
#
# _framework density 21.297709999999999
#
# number of rings (size 3 to 8) (size 9 to 14) (size 15 to 20)
#    0.000    2.714    1.429    3.000    0.000    2.571 
#    0.000    2.857    0.000    2.571    0.000    0.000 
#    0.000    0.000    0.000    0.000    0.000    0.000 
#
# Total GULP energy -312301.155379 kJ/mol
# GULP energy per Si atom -5576.806346 kJ/mol
# Density = 2.124924 g / cm^3
# Si number density = 21.297710 Si / 1000 Ang^3
#
#
#
# Elastic Constant Matrix: (Units=GPa)
#
#
# Indices 1 2 3 4 5 6 
#
# 1 26.3934 8.6102 3.7310 0.0000 0.0000 0.0000
# 2 8.6102 104.7882 66.7521 0.0000 0.0000 0.0000
# 3 3.7310 66.7521 126.7268 0.0000 0.0000 0.0000
# 4 0.0000 0.0000 0.0000 -9.3062 0.0000 0.0000
# 5 0.0000 0.0000 0.0000 0.0000 21.5452 0.0000
# 6 0.0000 0.0000 0.0000 0.0000 0.0000 54.0328
#
#
#
# Elastic Compliance Matrix: (Units=1/GPa)
#
#
# Indices 1 2 3 4 5 6 
#
# 1 0.038987 -0.003721 0.000812 0.000000 0.000000 0.000000
# 2 -0.003721 0.014717 -0.007643 0.000000 0.000000 0.000000
# 3 0.000812 -0.007643 0.011893 0.000000 0.000000 0.000000
# 4 0.000000 0.000000 0.000000 -0.107455 0.000000 0.000000
# 5 0.000000 0.000000 0.000000 0.000000 0.046414 0.000000
# 6 0.000000 0.000000 0.000000 0.000000 0.000000 0.018507
#
#
# Mechanical properties :
#
#
# Convention : Reuss Voigt Hill
#
# Bulk Modulus (GPa) = 22.47465 46.23279 34.35372
# Shear Modulus (GPa) = 84.74842 25.17536 54.96189
#
# Velocity S-wave (km/s) = 6.31495 3.44185 5.08552
# Velocity P-wave (km/s) = 7.98418 6.12782 7.11678
#
# Compressibility (1/GPa) = 0.04449458
#
# Stress axis : x y z
#
# Youngs Moduli (GPa) = 25.64939 67.94722 84.08465
#
# Poissons Ratio (x) = 0.25282 -0.06828
# Poissons Ratio (y) = 0.09544 0.64263
# Poissons Ratio (z) = -0.02083 0.51930
#
# Static dielectric constant tensor:
#      x y z
#    x 1.786040 0.000000 0.000000 
#    y 0.000000 1.807610 0.000000 
#    z 0.000000 0.000000 1.759090 
# 
# From -- ./inp_files/32004.got.cif
#   From: 2010.05.17/outbox.cif.g08.bks.cpg/sg51_17_cif.got.tgz:32004.got - 2010.06.03 11:52:47.
