data_PCOD9407313
_publ_section_title
;
Structure prediction by ZEFSAII (Michael W. Deem and Ramdas Pophale) SiO2 
 PCOD9407313
Probable space group: P M M A
;
_chemical_formula_sum "Si O2"
_cell_formula_units_Z 40
_cell_length_a 9.366381
_cell_length_b 7.382146
_cell_length_c 27.316818
_cell_angle_alpha 90.000000
_cell_angle_beta 90.000000
_cell_angle_gamma 90.000000
_cell_volume 1888.793846
_symmetry_space_group_name_H-M "P M M A"
_symmetry_group_IT_number 51
_symmetry_cell_setting 'orthorhombic'
loop_
_space_group_symop_operation_xyz
x,y,z
1/2-x,-y,z
1/2+x,-y,-z
-x,y,-z
-x,-y,-z
1/2+x,y,-z
1/2-x,y,z
x,-y,z
loop_
_atom_site_type_symbol
_atom_site_label
_atom_site_fract_x
_atom_site_fract_y
_atom_site_fract_z
Si Si1 0.585883 0.278439 0.355106
Si Si2 0.583107 0.779326 0.952315
Si Si3 0.085471 0.721035 0.451719
Si Si4 0.587130 0.285671 0.738808
Si Si5 0.085010 0.782812 0.153868
O O1 0.750000 0.220658 0.357942
O O2 0.586775 0.500000 0.354914
O O3 0.495854 0.222596 0.402537
O O4 0.509106 0.216091 0.305356
O O5 0.750000 0.730282 0.955124
O O6 0.525667 0.721427 0.898734
O O7 0.577320 0.000000 0.953068
O O8 0.500000 0.714562 0.000000
O O9 0.250000 0.779211 0.452383
O O10 0.086192 0.500000 0.451862
O O11 0.000000 0.778420 0.500000
O O12 0.750000 0.211623 0.738131
O O13 0.599379 0.500000 0.730924
O O14 0.522720 0.263253 0.793231
O O15 0.250000 0.718212 0.155461
O O16 0.088083 0.000000 0.151897
#
# Coordination Sequence:
#
# PCOD9407313 Si02
#       5
#     8   8   8   8   8
#     4   9  16  25  36  51  74 104 134 163 199 242
#     4   8  13  22  37  56  76  98 125 157 193 233
#     4   9  15  22  33  50  73 101 133 168 204 241
#     4   9  16  26  41  59  77 101 135 169 197 231
#     4   8  14  25  41  60  81 104 130 162 200 239
#
# _framework density 21.177536
#
# number of rings (size 3 to 8) (size 9 to 14) (size 15 to 20)
#    0.000    3.400    0.000    2.400    0.000    4.800 
#    0.000    1.000    0.000    2.400    0.000    0.000 
#    0.000    0.800    0.000    2.200    0.000    4.000 
#
# Total GULP energy -223013.718343 kJ/mol
# GULP energy per Si atom -5575.342959 kJ/mol
# Density = 2.112933 g / cm^3
# Si number density = 21.177536 Si / 1000 Ang^3
#
#
#
# Elastic Constant Matrix: (Units=GPa)
#
#
# Indices 1 2 3 4 5 6 
#
# 1 125.3249 4.4567 120.9220 0.0000 0.0000 0.0000
# 2 4.4567 71.9735 3.5637 0.0000 0.0000 0.0000
# 3 120.9220 3.5637 274.8685 0.0000 0.0000 0.0000
# 4 0.0000 0.0000 0.0000 13.6700 0.0000 0.0000
# 5 0.0000 0.0000 0.0000 0.0000 36.0869 0.0000
# 6 0.0000 0.0000 0.0000 0.0000 0.0000 -16.4611
#
#
#
# Elastic Compliance Matrix: (Units=1/GPa)
#
#
# Indices 1 2 3 4 5 6 
#
# 1 0.013887 -0.000558 -0.006102 0.000000 0.000000 0.000000
# 2 -0.000558 0.013925 0.000065 0.000000 0.000000 0.000000
# 3 -0.006102 0.000065 0.006322 0.000000 0.000000 0.000000
# 4 0.000000 0.000000 0.000000 0.073153 0.000000 0.000000
# 5 0.000000 0.000000 0.000000 0.000000 0.027711 0.000000
# 6 0.000000 0.000000 0.000000 0.000000 0.000000 -0.060749
#
#
# Mechanical properties :
#
#
# Convention : Reuss Voigt Hill
#
# Bulk Modulus (GPa) = 47.74641 81.11685 64.43163
# Shear Modulus (GPa) = 52.95554 29.54079 41.24817
#
# Velocity S-wave (km/s) = 5.00598 3.73890 4.41810
# Velocity P-wave (km/s) = 7.48384 7.55153 7.51776
#
# Compressibility (1/GPa) = 0.02094399
#
# Stress axis : x y z
#
# Youngs Moduli (GPa) = 72.01208 71.81159 158.18719
#
# Poissons Ratio (x) = 0.04005 0.96523
# Poissons Ratio (y) = 0.04017 -0.01026
# Poissons Ratio (z) = 0.43941 -0.00466
#
# Static dielectric constant tensor:
#      x y z
#    x 1.716130 0.000000 0.000000 
#    y 0.000000 1.849180 0.000000 
#    z 0.000000 0.000000 1.775970 
# 
# From -- ./inp_files/31361.got.cif
#   From: 2010.05.17/outbox.cif.g08.bks.cpg/sg51_16_cif.got.tgz:31361.got - 2010.06.03 11:52:47.
