data_PCOD9407449
_publ_section_title
;
Structure prediction by ZEFSAII (Michael W. Deem and Ramdas Pophale) SiO2 
 PCOD9407449
Probable space group: P M M A
;
_chemical_formula_sum "Si O2"
_cell_formula_units_Z 56
_cell_length_a 15.000000
_cell_length_b 9.000000
_cell_length_c 21.000000
_cell_angle_alpha 90.000000
_cell_angle_beta 90.000000
_cell_angle_gamma 90.000000
_cell_volume 2835.000000
_symmetry_space_group_name_H-M "P M M A"
_symmetry_group_IT_number 51
_symmetry_cell_setting 'orthorhombic'
loop_
_space_group_symop_operation_xyz
x,y,z
1/2-x,-y,z
1/2+x,-y,-z
-x,y,-z
-x,-y,-z
1/2+x,y,-z
1/2-x,y,z
x,-y,z
loop_
_atom_site_type_symbol
_atom_site_label
_atom_site_fract_x
_atom_site_fract_y
_atom_site_fract_z
Si Si1 0.976595 0.175602 0.917738
Si Si2 0.651407 0.677774 0.329918
Si Si3 0.346240 0.173685 0.404341
Si Si4 0.535944 0.675666 0.693060
Si Si5 0.856985 0.679619 0.030150
Si Si6 0.851902 0.171404 0.796335
Si Si7 0.603099 0.668468 0.478005
O O1 0.921062 0.185172 0.853469
O O2 0.073154 0.256985 0.917003
O O3 0.989879 0.000000 0.931212
O O4 0.908648 0.250259 0.969079
O O5 0.750000 0.740345 0.317136
O O6 0.657120 0.500000 0.318480
O O7 0.563944 0.733871 0.292686
O O8 0.624940 0.694648 0.404210
O O9 0.250000 0.221836 0.377869
O O10 0.426721 0.258286 0.371890
O O11 0.348858 0.212383 0.478290
O O12 0.355733 0.000000 0.393472
O O13 0.530602 0.500000 0.687289
O O14 0.609782 0.722575 0.743104
O O15 0.750000 0.718384 0.034134
O O16 0.861727 0.500000 0.028370
O O17 0.750000 0.204530 0.815106
O O18 0.853522 0.000000 0.773480
O O19 0.500000 0.673704 0.500000
O O20 0.634298 0.500000 0.492513
#
# Coordination Sequence:
#
# PCOD9407449 Si02
#       7
#     8   8   8   8   8   8   8
#     4  10  20  35  58  85 115 153 195 237 280 334
#     4   9  18  34  55  77 103 135 170 215 271 325
#     4  11  23  36  51  75 108 141 171 211 267 325
#     4  11  22  37  57  80 104 135 182 228 267 320
#     4  10  20  34  55  86 124 159 191 233 281 327
#     4  10  22  40  59  81 111 145 181 225 279 331
#     4  10  18  33  56  80 103 130 170 218 266 322
#
# _framework density 19.753086
#
# number of rings (size 3 to 8) (size 9 to 14) (size 15 to 20)
#    0.000    1.857    1.429    3.857    0.000    6.857 
#    0.000    0.714    0.000    5.143    0.000    0.000 
#    0.000    0.000    0.000    0.000    0.000    0.000 
#
# Total GULP energy -311928.183555 kJ/mol
# GULP energy per Si atom -5570.146135 kJ/mol
# Density = 1.970813 g / cm^3
# Si number density = 19.753086 Si / 1000 Ang^3
#
#
#
# Elastic Constant Matrix: (Units=GPa)
#
#
# Indices 1 2 3 4 5 6 
#
# 1 169.8446 56.0576 8.4748 0.0000 0.0000 0.0000
# 2 56.0576 52.2121 19.2168 0.0000 0.0000 0.0000
# 3 8.4748 19.2168 14.4176 0.0000 0.0000 0.0000
# 4 0.0000 0.0000 0.0000 20.1919 0.0000 0.0000
# 5 0.0000 0.0000 0.0000 0.0000 25.4287 0.0000
# 6 0.0000 0.0000 0.0000 0.0000 0.0000 18.1049
#
#
#
# Elastic Compliance Matrix: (Units=1/GPa)
#
#
# Indices 1 2 3 4 5 6 
#
# 1 0.011169 -0.018796 0.018487 0.000000 0.000000 0.000000
# 2 -0.018796 0.069226 -0.081222 0.000000 0.000000 0.000000
# 3 0.018487 -0.081222 0.166751 0.000000 0.000000 0.000000
# 4 0.000000 0.000000 0.000000 0.049525 0.000000 0.000000
# 5 0.000000 0.000000 0.000000 0.000000 0.039326 0.000000
# 6 0.000000 0.000000 0.000000 0.000000 0.000000 0.055234
#
#
# Mechanical properties :
#
#
# Convention : Reuss Voigt Hill
#
# Bulk Modulus (GPa) = 11.89265 44.88584 28.38924
# Shear Modulus (GPa) = 8.58636 22.92677 15.75657
#
# Velocity S-wave (km/s) = 2.08717 3.41055 2.82738
# Velocity P-wave (km/s) = 3.44124 6.18724 5.00620
#
# Compressibility (1/GPa) = 0.08408557
#
# Stress axis : x y z
#
# Youngs Moduli (GPa) = 89.53505 14.44538 5.99697
#
# Poissons Ratio (x) = 0.27151 -0.11087
# Poissons Ratio (y) = 1.68286 0.48708
# Poissons Ratio (z) = -1.65523 1.17328
#
# Static dielectric constant tensor:
#      x y z
#    x 1.758050 0.000000 0.000000 
#    y 0.000000 1.665520 0.000000 
#    z 0.000000 0.000000 1.820740 
# 
# From -- ./inp_files/33326.got.cif
#   From: 2010.05.17/outbox.ucp.g08.bks.cvg/sg51_17_cif.got.tgz:33326.got - 2010.06.11 16:27:58.
