data_PCOD9407951
_publ_section_title
;
Structure prediction by ZEFSAII (Michael W. Deem and Ramdas Pophale) SiO2 
 PCOD9407951
Probable space group: P N N A
;
_chemical_formula_sum "Si O2"
_cell_formula_units_Z 28
_cell_length_a 10.383399
_cell_length_b 8.517848
_cell_length_c 13.107687
_cell_angle_alpha 90.000000
_cell_angle_beta 90.000000
_cell_angle_gamma 90.000000
_cell_volume 1159.299079
_symmetry_space_group_name_H-M "P N N A"
_symmetry_group_IT_number 52
_symmetry_cell_setting 'orthorhombic'
loop_
_space_group_symop_operation_xyz
x,y,z
1/2-x,-y,z
x,1/2-y,1/2-z
1/2-x,1/2+y,1/2-z
-x,-y,-z
1/2+x,y,-z
-x,1/2+y,1/2+z
1/2+x,1/2-y,1/2+z
loop_
_atom_site_type_symbol
_atom_site_label
_atom_site_fract_x
_atom_site_fract_y
_atom_site_fract_z
Si Si1 0.750000 0.500000 0.119226
Si Si2 0.575331 0.835720 0.903174
Si Si3 0.646828 0.245678 0.546460
Si Si4 0.522957 0.494076 0.798954
O O1 0.626947 0.547790 0.185308
O O2 0.696672 0.367998 0.044027
O O3 0.724732 0.839606 0.929825
O O4 0.554587 0.660851 0.853619
O O5 0.547985 0.967726 0.818511
O O6 0.475508 0.832390 0.996991
O O7 0.896118 0.860937 0.642727
#
# Coordination Sequence:
#
# PCOD9407951 Si02
#       4
#     4   8   8   8
#     4  10  16  32  60  86 122 166 204 262 326 376
#     4  10  20  32  62  93 125 163 218 263 322 393
#     4  11  17  36  62  90 127 164 210 270 324 378
#     4  10  19  32  59  97 122 163 221 259 323 395
#
# _framework density 24.152525000000001
#
# number of rings (size 3 to 8) (size 9 to 14) (size 15 to 20)
#    0.000    1.714    5.714    1.714    0.000    0.000 
#    0.000    0.000   25.143    1.714    7.429    2.000 
#    0.000    0.000    0.000    0.000    0.000    0.000 
#
# Total GULP energy -156770.307953 kJ/mol
# GULP energy per Si atom -5598.939570 kJ/mol
# Density = 2.409755 g / cm^3
# Si number density = 24.152525 Si / 1000 Ang^3
#
#
#
# Elastic Constant Matrix: (Units=GPa)
#
#
# Indices 1 2 3 4 5 6 
#
# 1 245.4698 79.6254 110.5543 0.0000 0.0000 0.0000
# 2 79.6254 112.8003 80.7778 0.0000 0.0000 0.0000
# 3 110.5543 80.7778 183.0565 0.0000 0.0000 0.0000
# 4 0.0000 0.0000 0.0000 14.4326 0.0000 0.0000
# 5 0.0000 0.0000 0.0000 0.0000 22.0070 0.0000
# 6 0.0000 0.0000 0.0000 0.0000 0.0000 -7.4142
#
#
#
# Elastic Compliance Matrix: (Units=1/GPa)
#
#
# Indices 1 2 3 4 5 6 
#
# 1 0.006011 -0.002403 -0.002570 0.000000 0.000000 0.000000
# 2 -0.002403 0.013921 -0.004692 0.000000 0.000000 0.000000
# 3 -0.002570 -0.004692 0.009085 0.000000 0.000000 0.000000
# 4 0.000000 0.000000 0.000000 0.069288 0.000000 0.000000
# 5 0.000000 0.000000 0.000000 0.000000 0.045440 0.000000
# 6 0.000000 0.000000 0.000000 0.000000 0.000000 -0.134876
#
#
# Mechanical properties :
#
#
# Convention : Reuss Voigt Hill
#
# Bulk Modulus (GPa) = 103.21839 120.36019 111.78929
# Shear Modulus (GPa) = 159.09752 23.82967 91.46359
#
# Velocity S-wave (km/s) = 8.12496 3.14448 6.16047
# Velocity P-wave (km/s) = 11.43892 7.94514 9.84820
#
# Compressibility (1/GPa) = 0.00968820
#
# Stress axis : x y z
#
# Youngs Moduli (GPa) = 166.37428 71.83268 110.06825
#
# Poissons Ratio (x) = 0.17258 0.28285
# Poissons Ratio (y) = 0.39972 0.51645
# Poissons Ratio (z) = 0.42755 0.33704
#
# Static dielectric constant tensor:
#      x y z
#    x 1.897410 0.000000 0.000000 
#    y 0.000000 1.939470 0.000000 
#    z 0.000000 0.000000 1.928120 
# 
# From -- ./inp_files/16747.got.cif
#   From: 2010.05.17/outbox.cif.g08.bks.cpg/sg52_9_cif.got.tgz:16747.got - 2010.06.03 12:15:38.
