data_PCOD9407767
_publ_section_title
;
Structure prediction by ZEFSAII (Michael W. Deem and Ramdas Pophale) SiO2 
 PCOD9407767
Probable space group: P M M A
;
_chemical_formula_sum "Si O2"
_cell_formula_units_Z 64
_cell_length_a 18.000000
_cell_length_b 9.000000
_cell_length_c 21.000000
_cell_angle_alpha 90.000000
_cell_angle_beta 90.000000
_cell_angle_gamma 90.000000
_cell_volume 3402.000000
_symmetry_space_group_name_H-M "P M M A"
_symmetry_group_IT_number 51
_symmetry_cell_setting 'orthorhombic'
loop_
_space_group_symop_operation_xyz
x,y,z
1/2-x,-y,z
1/2+x,-y,-z
-x,y,-z
-x,-y,-z
1/2+x,y,-z
1/2-x,y,z
x,-y,z
loop_
_atom_site_type_symbol
_atom_site_label
_atom_site_fract_x
_atom_site_fract_y
_atom_site_fract_z
Si Si1 0.918763 0.328917 0.729880
Si Si2 0.663517 0.179025 0.120144
Si Si3 0.339609 0.176979 0.016854
Si Si4 0.831550 0.677142 0.510540
Si Si5 0.905944 0.328138 0.240202
Si Si6 0.894452 0.677670 0.378247
Si Si7 0.839529 0.174140 0.845178
Si Si8 0.946484 0.175532 0.602106
O O1 0.901503 0.500000 0.714611
O O2 0.871576 0.268999 0.788244
O O3 0.908745 0.228600 0.667790
O O4 0.005586 0.320748 0.749013
O O5 0.750000 0.223798 0.126745
O O6 0.633622 0.234360 0.051389
O O7 0.618474 0.236143 0.179781
O O8 0.662020 0.000000 0.118306
O O9 0.250000 0.193153 0.014944
O O10 0.353991 0.000000 0.018729
O O11 0.365436 0.233370 0.085433
O O12 0.750000 0.721469 0.533918
O O13 0.840564 0.500000 0.520575
O O14 0.837925 0.703849 0.435084
O O15 0.896966 0.761742 0.545448
O O16 0.884835 0.500000 0.230166
O O17 0.871828 0.274035 0.307397
O O18 0.907856 0.500000 0.373813
O O19 0.971989 0.752710 0.397069
O O20 0.750000 0.178249 0.844770
O O21 0.861128 0.000000 0.838478
O O22 0.952476 0.000000 0.599000
#
# Coordination Sequence:
#
# PCOD9407767 Si02
#       8
#     8   8   8   8   8   8   8   8
#     4  10  21  37  54  73 101 136 172 209 250 301
#     4   9  17  30  50  75 101 132 170 209 251 301
#     4   7  12  26  47  70  98 131 166 204 247 299
#     4  10  21  37  57  80 106 137 171 207 249 298
#     4   9  19  34  51  73 101 133 169 209 251 293
#     4   9  19  37  58  77 101 136 175 209 245 299
#     4   9  17  31  53  78 101 128 166 212 258 302
#     4  11  22  36  56  79 103 134 171 210 253 301
#
# _framework density 18.812463000000001
#
# number of rings (size 3 to 8) (size 9 to 14) (size 15 to 20)
#    0.000    2.750    0.000    4.125    0.000    6.250 
#    0.000    2.500    0.000    6.000    0.000    0.000 
#    0.000    0.000    0.000    0.000    0.000    0.000 
#
# Total GULP energy -356629.733771 kJ/mol
# GULP energy per Si atom -5572.339590 kJ/mol
# Density = 1.876965 g / cm^3
# Si number density = 18.812463 Si / 1000 Ang^3
#
#
#
# Elastic Constant Matrix: (Units=GPa)
#
#
# Indices 1 2 3 4 5 6 
#
# 1 9.1474 16.0945 18.0077 0.0000 0.0000 0.0000
# 2 16.0945 9.3728 18.6872 0.0000 0.0000 0.0000
# 3 18.0077 18.6872 97.3060 0.0000 0.0000 0.0000
# 4 0.0000 0.0000 0.0000 29.8861 0.0000 0.0000
# 5 0.0000 0.0000 0.0000 0.0000 26.2015 0.0000
# 6 0.0000 0.0000 0.0000 0.0000 0.0000 17.4311
#
#
#
# Elastic Compliance Matrix: (Units=1/GPa)
#
#
# Indices 1 2 3 4 5 6 
#
# 1 -0.045890 0.100255 -0.010761 0.000000 0.000000 0.000000
# 2 0.100255 -0.046135 -0.009693 0.000000 0.000000 0.000000
# 3 -0.010761 -0.009693 0.014130 0.000000 0.000000 0.000000
# 4 0.000000 0.000000 0.000000 0.033460 0.000000 0.000000
# 5 0.000000 0.000000 0.000000 0.000000 0.038166 0.000000
# 6 0.000000 0.000000 0.000000 0.000000 0.000000 0.057369
#
#
# Mechanical properties :
#
#
# Convention : Reuss Voigt Hill
#
# Bulk Modulus (GPa) = 12.23897 24.60055 18.41976
# Shear Modulus (GPa) = -61.52588 18.90618 -21.30985
#
# Velocity S-wave (km/s) = -5.72502 3.17358 -3.36929
# Velocity P-wave (km/s) = 6.09764 5.15111 2.30730
#
# Compressibility (1/GPa) = 0.08170624
#
# Stress axis : x y z
#
# Youngs Moduli (GPa) = -21.79111 -21.67550 70.77186
#
# Poissons Ratio (x) = 2.17308 0.76158
# Poissons Ratio (y) = 2.18467 0.68602
# Poissons Ratio (z) = -0.23450 -0.21011
#
# Static dielectric constant tensor:
#      x y z
#    x 1.652890 0.000000 0.000000 
#    y 0.000000 1.631070 0.000000 
#    z 0.000000 0.000000 1.696770 
# 
# From -- ./inp_files/33841.got.cif
#   From: 2010.05.17/outbox.ucp.g08.bks.cvg/sg51_17_cif.got.tgz:33841.got - 2010.06.11 16:27:58.
