data_PCOD9407252
_publ_section_title
;
Structure prediction by ZEFSAII (Michael W. Deem and Ramdas Pophale) SiO2 
 PCOD9407252
Probable space group: P M M A
;
_chemical_formula_sum "Si O2"
_cell_formula_units_Z 64
_cell_length_a 18.371834
_cell_length_b 7.402962
_cell_length_c 23.495036
_cell_angle_alpha 90.000000
_cell_angle_beta 90.000000
_cell_angle_gamma 90.000000
_cell_volume 3195.465607
_symmetry_space_group_name_H-M "P M M A"
_symmetry_group_IT_number 51
_symmetry_cell_setting 'orthorhombic'
loop_
_space_group_symop_operation_xyz
x,y,z
1/2-x,-y,z
1/2+x,-y,-z
-x,y,-z
-x,-y,-z
1/2+x,y,-z
1/2-x,y,z
x,-y,z
loop_
_atom_site_type_symbol
_atom_site_label
_atom_site_fract_x
_atom_site_fract_y
_atom_site_fract_z
Si Si1 0.541342 0.709981 0.362266
Si Si2 0.123230 0.719633 0.080387
Si Si3 0.034894 0.280136 0.881286
Si Si4 0.437498 0.785394 0.457307
Si Si5 0.670661 0.720045 0.794539
Si Si6 0.167948 0.715182 0.553356
Si Si7 0.330231 0.720779 0.955851
Si Si8 0.512863 0.278925 0.756876
O O1 0.559683 0.500000 0.354636
O O2 0.464756 0.718517 0.396460
O O3 0.606180 0.786540 0.402420
O O4 0.527236 0.786552 0.299768
O O5 0.126337 0.500000 0.080162
O O6 0.161187 0.775119 0.139246
O O7 0.038796 0.772106 0.086001
O O8 0.156280 0.779694 0.020867
O O9 0.035898 0.500000 0.881127
O O10 0.105969 0.217941 0.914257
O O11 0.025722 0.224535 0.815732
O O12 0.500000 0.713356 0.500000
O O13 0.362696 0.743082 0.489337
O O14 0.443166 0.000000 0.454751
O O15 0.750000 0.778574 0.773334
O O16 0.669978 0.500000 0.793919
O O17 0.597643 0.777200 0.761800
O O18 0.250000 0.785793 0.560853
O O19 0.170965 0.500000 0.561400
O O20 0.250000 0.775217 0.937082
O O21 0.332409 0.500000 0.956387
O O22 0.513080 0.500000 0.755607
#
# Coordination Sequence:
#
# PCOD9407252 Si02
#       8
#     8   8   8   8   8   8   8   8
#     4   9  16  28  45  62  83 112 143 172 201 239
#     4   8  12  17  25  35  49  74 109 148 191 237
#     4   8  13  20  27  36  53  79 113 152 190 229
#     4   9  17  29  46  67  88 109 133 164 206 251
#     4   8  12  18  28  42  60  82 113 156 199 236
#     4   9  17  29  45  65  87 111 140 171 201 236
#     4   9  14  17  22  34  52  75 108 152 196 233
#     4   8  14  23  34  47  65  94 129 160 192 230
#
# _framework density 20.028379999999999
#
# number of rings (size 3 to 8) (size 9 to 14) (size 15 to 20)
#    0.000    3.500    0.000    2.625    0.000    4.750 
#    0.000    1.250    0.000    6.000    0.000    0.000 
#    0.000    0.000    0.000    0.000    0.000   10.000 
#
# Total GULP energy -356589.695450 kJ/mol
# GULP energy per Si atom -5571.713991 kJ/mol
# Density = 1.998279 g / cm^3
# Si number density = 20.028380 Si / 1000 Ang^3
#
#
#
# Elastic Constant Matrix: (Units=GPa)
#
#
# Indices 1 2 3 4 5 6 
#
# 1 123.9236 -0.0512 41.4189 0.0000 0.0000 0.0000
# 2 -0.0512 66.0765 -3.3877 0.0000 0.0000 0.0000
# 3 41.4189 -3.3877 64.9039 0.0000 0.0000 0.0000
# 4 0.0000 0.0000 0.0000 -31.9067 0.0000 0.0000
# 5 0.0000 0.0000 0.0000 0.0000 18.5775 0.0000
# 6 0.0000 0.0000 0.0000 0.0000 0.0000 -19.8677
#
#
#
# Elastic Compliance Matrix: (Units=1/GPa)
#
#
# Indices 1 2 3 4 5 6 
#
# 1 0.010264 -0.000329 -0.006567 0.000000 0.000000 0.000000
# 2 -0.000329 0.015185 0.001002 0.000000 0.000000 0.000000
# 3 -0.006567 0.001002 0.019651 0.000000 0.000000 0.000000
# 4 0.000000 0.000000 0.000000 -0.031341 0.000000 0.000000
# 5 0.000000 0.000000 0.000000 0.000000 0.053829 0.000000
# 6 0.000000 0.000000 0.000000 0.000000 0.000000 -0.050333
#
#
# Mechanical properties :
#
#
# Convention : Reuss Voigt Hill
#
# Bulk Modulus (GPa) = 30.01861 36.76266 33.39064
# Shear Modulus (GPa) = 124.54390 7.82221 66.18306
#
# Velocity S-wave (km/s) = 7.89422 1.97839 5.75468
# Velocity P-wave (km/s) = 9.90516 4.85941 7.80148
#
# Compressibility (1/GPa) = 0.03331266
#
# Stress axis : x y z
#
# Youngs Moduli (GPa) = 97.42426 65.85394 50.88853
#
# Poissons Ratio (x) = 0.02165 0.33421
# Poissons Ratio (y) = 0.03203 -0.05101
# Poissons Ratio (z) = 0.63983 -0.06601
#
# Static dielectric constant tensor:
#      x y z
#    x 1.711120 0.000000 0.000000 
#    y 0.000000 1.767870 0.000000 
#    z 0.000000 0.000000 1.692020 
# 
# From -- ./inp_files/35924.got.cif
#   From: 2010.05.17/outbox.cif.g08.bks.cpg/sg51_18_cif.got.tgz:35924.got - 2010.06.03 11:52:47.
