data_PCOD9407936
_publ_section_title
;
Structure prediction by ZEFSAII (Michael W. Deem and Ramdas Pophale) SiO2 
 PCOD9407936
Probable space group: P N N A
;
_chemical_formula_sum "Si O2"
_cell_formula_units_Z 44
_cell_length_a 5.301568
_cell_length_b 13.750528
_cell_length_c 28.620840
_cell_angle_alpha 90.000000
_cell_angle_beta 90.000000
_cell_angle_gamma 90.000000
_cell_volume 2086.440897
_symmetry_space_group_name_H-M "P N N A"
_symmetry_group_IT_number 52
_symmetry_cell_setting 'orthorhombic'
loop_
_space_group_symop_operation_xyz
x,y,z
1/2-x,-y,z
x,1/2-y,1/2-z
1/2-x,1/2+y,1/2-z
-x,-y,-z
1/2+x,y,-z
-x,1/2+y,1/2+z
1/2+x,1/2-y,1/2+z
loop_
_atom_site_type_symbol
_atom_site_label
_atom_site_fract_x
_atom_site_fract_y
_atom_site_fract_z
Si Si1 0.022333 0.771279 0.970651
Si Si2 0.750000 0.500000 0.309656
Si Si3 0.364802 0.333453 0.627886
Si Si4 0.658605 0.740615 0.672217
Si Si5 0.502814 0.956479 0.447021
Si Si6 0.890264 0.101610 0.744785
O O1 0.099988 0.838874 0.927412
O O2 0.026652 0.658738 0.953057
O O3 0.241388 0.784555 0.009259
O O4 0.584991 0.564329 0.345435
O O5 0.642869 0.422484 0.273037
O O6 0.584253 0.258529 0.643222
O O7 0.082467 0.299549 0.643106
O O8 0.583888 0.841168 0.696838
O O9 0.731596 0.671286 0.716175
O O10 0.250000 0.000000 0.424772
O O11 0.500000 0.000000 0.500000
O O12 0.750000 0.000000 0.423178
O O13 0.750000 0.000000 0.739232
#
# Coordination Sequence:
#
# PCOD9407936 Si02
#       6
#     8   4   8   8   8   8
#     4  12  22  38  63  87 119 167 214 264 323 372
#     4  10  22  42  68  90 128 184 208 252 334 402
#     4  11  24  42  61  95 129 162 219 272 312 379
#     4  10  23  39  62  96 127 162 210 266 308 378
#     4  10  16  31  55  78 101 143 202 238 301 389
#     4  10  20  37  69  89 125 171 211 241 324 403
#
# _framework density 21.088543999999999
#
# number of rings (size 3 to 8) (size 9 to 14) (size 15 to 20)
#    0.000    1.455    5.455    1.091    2.545    1.455 
#    0.000    3.636    0.000    0.000    0.000    0.000 
#    0.000    0.000    0.000    0.000    0.000    0.000 
#
# Total GULP energy -245081.930200 kJ/mol
# GULP energy per Si atom -5570.043868 kJ/mol
# Density = 2.104055 g / cm^3
# Si number density = 21.088544 Si / 1000 Ang^3
#
#
#
# Elastic Constant Matrix: (Units=GPa)
#
#
# Indices 1 2 3 4 5 6 
#
# 1 109.8155 6.7652 15.7267 0.0000 0.0000 0.0000
# 2 6.7652 48.3552 20.0833 0.0000 0.0000 0.0000
# 3 15.7267 20.0833 57.9667 0.0000 0.0000 0.0000
# 4 0.0000 0.0000 0.0000 -5.5860 0.0000 0.0000
# 5 0.0000 0.0000 0.0000 0.0000 60.1627 0.0000
# 6 0.0000 0.0000 0.0000 0.0000 0.0000 17.5237
#
#
#
# Elastic Compliance Matrix: (Units=1/GPa)
#
#
# Indices 1 2 3 4 5 6 
#
# 1 0.009478 -0.000301 -0.002467 0.000000 0.000000 0.000000
# 2 -0.000301 0.024166 -0.008291 0.000000 0.000000 0.000000
# 3 -0.002467 -0.008291 0.020793 0.000000 0.000000 0.000000
# 4 0.000000 0.000000 0.000000 -0.179020 0.000000 0.000000
# 5 0.000000 0.000000 0.000000 0.000000 0.016622 0.000000
# 6 0.000000 0.000000 0.000000 0.000000 0.000000 0.057066
#
#
# Mechanical properties :
#
#
# Convention : Reuss Voigt Hill
#
# Bulk Modulus (GPa) = 30.94200 33.47641 32.20921
# Shear Modulus (GPa) = -277.70393 25.99089 -125.85652
#
# Velocity S-wave (km/s) = -11.48785 3.51446 -7.73367
# Velocity P-wave (km/s) = 12.69868 5.69010 8.02743
#
# Compressibility (1/GPa) = 0.03231853
#
# Stress axis : x y z
#
# Youngs Moduli (GPa) = 105.50684 41.38068 48.09302
#
# Poissons Ratio (x) = 0.01247 0.11865
# Poissons Ratio (y) = 0.03180 0.39873
# Poissons Ratio (z) = 0.26029 0.34308
#
# Static dielectric constant tensor:
#      x y z
#    x 2.466930 0.000000 0.000000 
#    y 0.000000 1.885620 0.000000 
#    z 0.000000 0.000000 1.752530 
# 
# From -- ./inp_files/41650.got.cif
#   From: 2010.05.17/outbox.cif.g08.bks.cpg/sg52_21_cif.got.tgz:41650.got - 2010.06.03 12:15:38.
