data_PCOD9407367
_publ_section_title
;
Structure prediction by ZEFSAII (Michael W. Deem and Ramdas Pophale) SiO2 
 PCOD9407367
Probable space group: P M M A
;
_chemical_formula_sum "Si O2"
_cell_formula_units_Z 40
_cell_length_a 25.509213
_cell_length_b 9.092911
_cell_length_c 10.576227
_cell_angle_alpha 90.000000
_cell_angle_beta 90.000000
_cell_angle_gamma 90.000000
_cell_volume 2453.187618
_symmetry_space_group_name_H-M "P M M A"
_symmetry_group_IT_number 51
_symmetry_cell_setting 'orthorhombic'
loop_
_space_group_symop_operation_xyz
x,y,z
1/2-x,-y,z
1/2+x,-y,-z
-x,y,-z
-x,-y,-z
1/2+x,y,-z
1/2-x,y,z
x,-y,z
loop_
_atom_site_type_symbol
_atom_site_label
_atom_site_fract_x
_atom_site_fract_y
_atom_site_fract_z
Si Si1 0.643343 0.176181 0.980629
Si Si2 0.533245 0.820708 0.877891
Si Si3 0.471573 0.820449 0.628275
Si Si4 0.858145 0.823436 0.280382
Si Si5 0.250000 0.331118 0.021298
Si Si6 0.250000 0.669704 0.713879
O O1 0.634155 0.208411 0.130138
O O2 0.697031 0.250701 0.938563
O O3 0.648442 0.000000 0.971341
O O4 0.593067 0.224612 0.900510
O O5 0.505337 0.772457 0.749693
O O6 0.532903 0.000000 0.877223
O O7 0.500000 0.774521 0.000000
O O8 0.500000 0.772742 0.500000
O O9 0.410935 0.776200 0.647202
O O10 0.471189 0.000000 0.628800
O O11 0.804087 0.748930 0.324106
O O12 0.852776 0.000000 0.291424
O O13 0.250000 0.500000 0.060258
O O14 0.250000 0.325345 0.867603
O O15 0.250000 0.500000 0.674722
#
# Coordination Sequence:
#
# PCOD9407367 Si02
#       6
#     8   8   8   8   4   4
#     4   9  15  24  42  64  86 113 147 179 210 258
#     4   9  14  23  40  63  88 114 142 173 211 258
#     4   9  16  25  40  65  94 117 140 177 223 261
#     4   9  15  25  42  64  88 113 143 178 215 259
#     4   9  17  27  39  60  91 116 138 180 231 262
#     4   9  17  27  41  62  87 114 144 182 223 256
#
# _framework density 16.305316000000001
#
# number of rings (size 3 to 8) (size 9 to 14) (size 15 to 20)
#    0.000    3.000    2.000    0.600    0.000    2.400 
#    0.000    0.000    0.000    3.600    0.000    8.400 
#    0.000    0.000    0.000    0.000    0.000    0.000 
#
# Total GULP energy -222703.817241 kJ/mol
# GULP energy per Si atom -5567.595431 kJ/mol
# Density = 1.626820 g / cm^3
# Si number density = 16.305316 Si / 1000 Ang^3
#
#
#
# Elastic Constant Matrix: (Units=GPa)
#
#
# Indices 1 2 3 4 5 6 
#
# 1 207.4007 44.9850 71.0261 0.0000 0.0000 0.0000
# 2 44.9850 16.2802 18.1701 0.0000 0.0000 0.0000
# 3 71.0261 18.1701 79.5673 0.0000 0.0000 0.0000
# 4 0.0000 0.0000 0.0000 4.3629 0.0000 0.0000
# 5 0.0000 0.0000 0.0000 0.0000 18.9338 0.0000
# 6 0.0000 0.0000 0.0000 0.0000 0.0000 -4.9391
#
#
#
# Elastic Compliance Matrix: (Units=1/GPa)
#
#
# Indices 1 2 3 4 5 6 
#
# 1 0.013195 -0.031288 -0.004633 0.000000 0.000000 0.000000
# 2 -0.031288 0.156625 -0.007838 0.000000 0.000000 0.000000
# 3 -0.004633 -0.007838 0.018494 0.000000 0.000000 0.000000
# 4 0.000000 0.000000 0.000000 0.229207 0.000000 0.000000
# 5 0.000000 0.000000 0.000000 0.000000 0.052815 0.000000
# 6 0.000000 0.000000 0.000000 0.000000 0.000000 -0.202467
#
#
# Mechanical properties :
#
#
# Convention : Reuss Voigt Hill
#
# Bulk Modulus (GPa) = 9.92105 63.51226 36.71666
# Shear Modulus (GPa) = 12.85395 14.94267 13.89831
#
# Velocity S-wave (km/s) = 2.81077 3.03054 2.92272
# Velocity P-wave (km/s) = 4.07819 7.16115 5.82725
#
# Compressibility (1/GPa) = 0.10079574
#
# Stress axis : x y z
#
# Youngs Moduli (GPa) = 75.78893 6.38466 54.07214
#
# Poissons Ratio (x) = 0.19976 0.25053
# Poissons Ratio (y) = 2.37126 0.42382
# Poissons Ratio (z) = 0.35115 0.05004
#
# Static dielectric constant tensor:
#      x y z
#    x 1.555490 0.000000 0.000000 
#    y 0.000000 1.535380 0.000000 
#    z 0.000000 0.000000 1.531110 
# 
# From -- ./inp_files/12191.got.cif
#   From: 2010.05.17/outbox.cif.g08.bks.cpg/sg51_7_cif.got.tgz:12191.got - 2010.06.03 11:52:47.
