data_PCOD9407517
_publ_section_title
;
Structure prediction by ZEFSAII (Michael W. Deem and Ramdas Pophale) SiO2 
 PCOD9407517
Probable space group: P M M A
;
_chemical_formula_sum "Si O2"
_cell_formula_units_Z 64
_cell_length_a 9.000000
_cell_length_b 21.000000
_cell_length_c 18.000000
_cell_angle_alpha 90.000000
_cell_angle_beta 90.000000
_cell_angle_gamma 90.000000
_cell_volume 3402.000000
_symmetry_space_group_name_H-M "P M M A"
_symmetry_group_IT_number 51
_symmetry_cell_setting 'orthorhombic'
loop_
_space_group_symop_operation_xyz
x,y,z
1/2-x,-y,z
1/2+x,-y,-z
-x,y,-z
-x,-y,-z
1/2+x,y,-z
1/2-x,y,z
x,-y,z
loop_
_atom_site_type_symbol
_atom_site_label
_atom_site_fract_x
_atom_site_fract_y
_atom_site_fract_z
Si Si1 0.423520 0.069523 0.618852
Si Si2 0.070744 0.336785 0.424457
Si Si3 0.071338 0.429598 0.870474
Si Si4 0.071300 0.707500 0.923709
Si Si5 0.427792 0.199323 0.371827
Si Si6 0.423713 0.929207 0.799383
Si Si7 0.924797 0.426863 0.710456
Si Si8 0.073084 0.798925 0.196200
O O1 0.250000 0.073026 0.598705
O O2 0.504770 0.134130 0.596668
O O3 0.431886 0.069462 0.709203
O O4 0.482494 0.000000 0.594235
O O5 0.250000 0.338480 0.429116
O O6 0.022859 0.263736 0.411797
O O7 0.027235 0.378488 0.353242
O O8 0.000000 0.361544 0.500000
O O9 0.250000 0.430519 0.871451
O O10 0.018328 0.500000 0.896077
O O11 0.023856 0.366488 0.913793
O O12 0.015381 0.421038 0.786233
O O13 0.250000 0.710922 0.926329
O O14 0.010638 0.747799 0.854295
O O15 0.000000 0.732017 0.000000
O O16 0.250000 0.194759 0.376398
O O17 0.464486 0.207313 0.283960
O O18 0.250000 0.919214 0.818171
O O19 0.521343 0.870143 0.825663
O O20 0.468691 0.000000 0.825123
O O21 0.750000 0.415059 0.726758
O O22 0.938165 0.500000 0.684365
O O23 0.250000 0.791452 0.188376
#
# Coordination Sequence:
#
# PCOD9407517 Si02
#       8
#     8   8   8   8   8   8   8   8
#     4   8  14  25  43  69  98 125 157 200 247 295
#     4  10  21  35  49  70 101 134 170 209 249 294
#     4   9  19  36  57  81 106 131 164 207 251 297
#     4  11  23  37  53  74 103 137 171 208 250 297
#     4   9  18  31  48  71  99 130 164 206 251 296
#     4   8  14  26  45  71 103 134 164 203 251 300
#     4   9  18  34  56  79 103 132 165 203 248 298
#     4  10  19  32  52  76 102 133 170 211 254 301
#
# _framework density 18.812463000000001
#
# number of rings (size 3 to 8) (size 9 to 14) (size 15 to 20)
#    0.000    2.750    0.000    2.250    0.000    4.500 
#    0.000    2.500    0.000    0.750    0.000    0.000 
#    0.000    0.000    0.000    0.000    0.000    0.000 
#
# Total GULP energy -356872.966593 kJ/mol
# GULP energy per Si atom -5576.140103 kJ/mol
# Density = 1.876965 g / cm^3
# Si number density = 18.812463 Si / 1000 Ang^3
#
#
#
# Elastic Constant Matrix: (Units=GPa)
#
#
# Indices 1 2 3 4 5 6 
#
# 1 15.9803 18.1484 11.7694 0.0000 0.0000 0.0000
# 2 18.1484 76.9164 22.6196 0.0000 0.0000 0.0000
# 3 11.7694 22.6196 42.2852 0.0000 0.0000 0.0000
# 4 0.0000 0.0000 0.0000 -13.9007 0.0000 0.0000
# 5 0.0000 0.0000 0.0000 0.0000 15.8280 0.0000
# 6 0.0000 0.0000 0.0000 0.0000 0.0000 24.5394
#
#
#
# Elastic Compliance Matrix: (Units=1/GPa)
#
#
# Indices 1 2 3 4 5 6 
#
# 1 0.094903 -0.017354 -0.017132 0.000000 0.000000 0.000000
# 2 -0.017354 0.018602 -0.005120 0.000000 0.000000 0.000000
# 3 -0.017132 -0.005120 0.031156 0.000000 0.000000 0.000000
# 4 0.000000 0.000000 0.000000 -0.071939 0.000000 0.000000
# 5 0.000000 0.000000 0.000000 0.000000 0.063179 0.000000
# 6 0.000000 0.000000 0.000000 0.000000 0.000000 0.040751
#
#
# Mechanical properties :
#
#
# Convention : Reuss Voigt Hill
#
# Bulk Modulus (GPa) = 15.27912 26.69520 20.98716
# Shear Modulus (GPa) = 18.00630 10.80297 14.40463
#
# Velocity S-wave (km/s) = 3.09714 2.39894 2.77012
# Velocity P-wave (km/s) = 4.57483 4.67912 4.62727
#
# Compressibility (1/GPa) = 0.06544879
#
# Stress axis : x y z
#
# Youngs Moduli (GPa) = 10.53706 53.75871 32.09633
#
# Poissons Ratio (x) = 0.93295 0.54986
# Poissons Ratio (y) = 0.18286 0.16434
# Poissons Ratio (z) = 0.18052 0.27526
#
# Static dielectric constant tensor:
#      x y z
#    x 1.628080 0.000000 0.000000 
#    y 0.000000 1.682300 0.000000 
#    z 0.000000 0.000000 1.621460 
# 
# From -- ./inp_files/28422.got.cif
#   From: 2010.05.17/outbox.ucp.g08.bks.cvg/sg51_15_cif.got.tgz:28422.got - 2010.06.11 16:27:58.
