data_PCOD9407403
_publ_section_title
;
Structure prediction by ZEFSAII (Michael W. Deem and Ramdas Pophale) SiO2 
 PCOD9407403
Probable space group: P M M A
;
_chemical_formula_sum "Si O2"
_cell_formula_units_Z 48
_cell_length_a 29.175526
_cell_length_b 9.779153
_cell_length_c 8.894442
_cell_angle_alpha 90.000000
_cell_angle_beta 90.000000
_cell_angle_gamma 90.000000
_cell_volume 2537.690437
_symmetry_space_group_name_H-M "P M M A"
_symmetry_group_IT_number 51
_symmetry_cell_setting 'orthorhombic'
loop_
_space_group_symop_operation_xyz
x,y,z
1/2-x,-y,z
1/2+x,-y,-z
-x,y,-z
-x,-y,-z
1/2+x,y,-z
1/2-x,y,z
x,-y,z
loop_
_atom_site_type_symbol
_atom_site_label
_atom_site_fract_x
_atom_site_fract_y
_atom_site_fract_z
Si Si1 0.973337 0.654754 0.149053
Si Si2 0.300811 0.341875 0.528452
Si Si3 0.105001 0.339301 0.357247
Si Si4 0.660874 0.155664 0.218722
Si Si5 0.062353 0.843099 0.607922
Si Si6 0.122978 0.346980 0.015143
O O1 0.989533 0.500000 0.187623
O O2 0.972702 0.758900 0.287027
O O3 0.920971 0.643196 0.093451
O O4 0.000000 0.701502 0.000000
O O5 0.250000 0.323702 0.462808
O O6 0.304874 0.500000 0.579650
O O7 0.342692 0.319358 0.414534
O O8 0.307890 0.242128 0.668565
O O9 0.093499 0.500000 0.381123
O O10 0.073427 0.242560 0.458233
O O11 0.104827 0.310004 0.180377
O O12 0.610821 0.152501 0.300576
O O13 0.675971 0.000000 0.199228
O O14 0.655222 0.236115 0.062426
O O15 0.048928 0.000000 0.581149
O O16 0.143518 0.500000 0.025522
#
# Coordination Sequence:
#
# PCOD9407403 Si02
#       6
#     8   8   8   8   8   8
#     4   9  17  30  48  68  90 119 156 196 235 275
#     4   9  17  30  48  68  89 115 148 184 221 263
#     4   9  17  30  48  68  91 120 152 186 226 274
#     4   9  17  29  46  67  90 117 149 183 219 264
#     4   9  17  29  46  67  90 119 153 186 224 272
#     4   9  17  30  48  69  92 119 153 191 230 273
#
# _framework density 18.914836999999999
#
# number of rings (size 3 to 8) (size 9 to 14) (size 15 to 20)
#    0.000    3.000    0.000    1.000    0.000    5.333 
#    0.000    1.667    0.000    8.000    0.000    0.000 
#    0.000    0.000    0.000    0.000    0.000    0.000 
#
# Total GULP energy -267544.020191 kJ/mol
# GULP energy per Si atom -5573.833754 kJ/mol
# Density = 1.887179 g / cm^3
# Si number density = 18.914837 Si / 1000 Ang^3
#
#
#
# Elastic Constant Matrix: (Units=GPa)
#
#
# Indices 1 2 3 4 5 6 
#
# 1 45.4921 22.1826 8.1739 0.0000 0.0000 0.0000
# 2 22.1826 97.0216 67.2913 0.0000 0.0000 0.0000
# 3 8.1739 67.2913 92.9738 0.0000 0.0000 0.0000
# 4 0.0000 0.0000 0.0000 7.7638 0.0000 0.0000
# 5 0.0000 0.0000 0.0000 0.0000 18.0993 0.0000
# 6 0.0000 0.0000 0.0000 0.0000 0.0000 4.9969
#
#
#
# Elastic Compliance Matrix: (Units=1/GPa)
#
#
# Indices 1 2 3 4 5 6 
#
# 1 0.025447 -0.008567 0.003963 0.000000 0.000000 0.000000
# 2 -0.008567 0.023580 -0.016313 0.000000 0.000000 0.000000
# 3 0.003963 -0.016313 0.022214 0.000000 0.000000 0.000000
# 4 0.000000 0.000000 0.000000 0.128803 0.000000 0.000000
# 5 0.000000 0.000000 0.000000 0.000000 0.055251 0.000000
# 6 0.000000 0.000000 0.000000 0.000000 0.000000 0.200126
#
#
# Mechanical properties :
#
#
# Convention : Reuss Voigt Hill
#
# Bulk Modulus (GPa) = 34.00488 47.86478 40.93483
# Shear Modulus (GPa) = 9.86082 15.36131 12.61107
#
# Velocity S-wave (km/s) = 2.28574 2.85288 2.58491
# Velocity P-wave (km/s) = 4.99830 6.01766 5.53151
#
# Compressibility (1/GPa) = 0.02940755
#
# Stress axis : x y z
#
# Youngs Moduli (GPa) = 39.29722 42.40866 45.01602
#
# Poissons Ratio (x) = 0.36331 -0.17841
# Poissons Ratio (y) = 0.33665 0.73436
# Poissons Ratio (z) = -0.15574 0.69183
#
# Static dielectric constant tensor:
#      x y z
#    x 1.686680 0.000000 0.000000 
#    y 0.000000 1.659070 0.000000 
#    z 0.000000 0.000000 1.633650 
# 
# From -- ./inp_files/12786.got.cif
#   From: 2010.05.17/outbox.cif.g08.bks.cpg/sg51_7_cif.got.tgz:12786.got - 2010.06.03 11:52:47.
