data_PCOD9407673
_publ_section_title
;
Structure prediction by ZEFSAII (Michael W. Deem and Ramdas Pophale) SiO2 
 PCOD9407673
Probable space group: P M M A
;
_chemical_formula_sum "Si O2"
_cell_formula_units_Z 48
_cell_length_a 24.000000
_cell_length_b 9.000000
_cell_length_c 12.000000
_cell_angle_alpha 90.000000
_cell_angle_beta 90.000000
_cell_angle_gamma 90.000000
_cell_volume 2592.000000
_symmetry_space_group_name_H-M "P M M A"
_symmetry_group_IT_number 51
_symmetry_cell_setting 'orthorhombic'
loop_
_space_group_symop_operation_xyz
x,y,z
1/2-x,-y,z
1/2+x,-y,-z
-x,y,-z
-x,-y,-z
1/2+x,y,-z
1/2-x,y,z
x,-y,z
loop_
_atom_site_type_symbol
_atom_site_label
_atom_site_fract_x
_atom_site_fract_y
_atom_site_fract_z
Si Si1 0.126308 0.827730 0.717550
Si Si2 0.686483 0.175363 0.513791
Si Si3 0.002517 0.176540 0.628292
Si Si4 0.312869 0.669799 0.905985
Si Si5 0.392540 0.325084 0.308064
Si Si6 0.686534 0.826130 0.862240
O O1 0.168263 0.810777 0.614088
O O2 0.064017 0.800252 0.674964
O O3 0.143627 0.717432 0.813931
O O4 0.129948 0.000000 0.755082
O O5 0.750000 0.225466 0.531275
O O6 0.641624 0.260075 0.587400
O O7 0.683483 0.000000 0.542700
O O8 0.000000 0.226502 0.500000
O O9 0.954025 0.257798 0.693864
O O10 0.991042 0.000000 0.629543
O O11 0.250000 0.681487 0.859125
O O12 0.320491 0.500000 0.943867
O O13 0.316004 0.780488 0.009432
O O14 0.395144 0.500000 0.315314
O O15 0.357113 0.271359 0.203456
O O16 0.750000 0.796848 0.823053
O O17 0.675359 0.000000 0.846267
#
# Coordination Sequence:
#
# PCOD9407673 Si02
#       6
#     8   8   8   8   8   8
#     4  10  20  36  60  85 110 147 195 240 279 329
#     4  10  20  35  56  82 113 149 191 236 280 334
#     4  10  20  39  62  81 109 152 199 241 281 331
#     4  10  21  37  58  86 121 154 183 227 289 347
#     4  12  24  36  55  84 119 151 186 234 291 348
#     4  10  21  39  63  86 111 149 196 239 280 335
#
# _framework density 18.518519000000001
#
# number of rings (size 3 to 8) (size 9 to 14) (size 15 to 20)
#    0.000    1.667    1.667    3.500    0.000    6.667 
#    0.000    0.833    0.000    5.000    0.000    0.000 
#    0.000    0.000    0.000    0.000    0.000    0.000 
#
# Total GULP energy -268012.756716 kJ/mol
# GULP energy per Si atom -5583.599098 kJ/mol
# Density = 1.847637 g / cm^3
# Si number density = 18.518519 Si / 1000 Ang^3
#
#
#
# Elastic Constant Matrix: (Units=GPa)
#
#
# Indices 1 2 3 4 5 6 
#
# 1 37.7670 28.6198 17.9209 0.0000 0.0000 0.0000
# 2 28.6198 -7.2785 17.0851 0.0000 0.0000 0.0000
# 3 17.9209 17.0851 32.1681 0.0000 0.0000 0.0000
# 4 0.0000 0.0000 0.0000 37.5865 0.0000 0.0000
# 5 0.0000 0.0000 0.0000 0.0000 20.1074 0.0000
# 6 0.0000 0.0000 0.0000 0.0000 0.0000 26.2078
#
#
#
# Elastic Compliance Matrix: (Units=1/GPa)
#
#
# Indices 1 2 3 4 5 6 
#
# 1 0.019962 0.023317 -0.023505 0.000000 0.000000 0.000000
# 2 0.023317 -0.033915 0.005023 0.000000 0.000000 0.000000
# 3 -0.023505 0.005023 0.041514 0.000000 0.000000 0.000000
# 4 0.000000 0.000000 0.000000 0.026605 0.000000 0.000000
# 5 0.000000 0.000000 0.000000 0.000000 0.049733 0.000000
# 6 0.000000 0.000000 0.000000 0.000000 0.000000 0.038157
#
#
# Mechanical properties :
#
#
# Convention : Reuss Voigt Hill
#
# Bulk Modulus (GPa) = 26.85959 21.10090 23.98024
# Shear Modulus (GPa) = 34.53135 16.71572 25.62353
#
# Velocity S-wave (km/s) = 4.32289 3.00767 3.72381
# Velocity P-wave (km/s) = 6.28110 4.84569 5.60950
#
# Compressibility (1/GPa) = 0.03723065
#
# Stress axis : x y z
#
# Youngs Moduli (GPa) = 50.09565 -29.48557 24.08835
#
# Poissons Ratio (x) = 0.68752 0.56620
# Poissons Ratio (y) = -1.16810 -0.12099
# Poissons Ratio (z) = 1.17750 0.14810
#
# Static dielectric constant tensor:
#      x y z
#    x 1.622250 0.000000 0.000000 
#    y 0.000000 1.581040 0.000000 
#    z 0.000000 0.000000 1.646660 
# 
# From -- ./inp_files/18548.got.cif
#   From: 2010.05.17/outbox.ucp.g08.bks.cvg/sg51_10_cif.got.tgz:18548.got - 2010.06.11 16:27:58.
