data_PCOD9407165
_publ_section_title
;
Structure prediction by ZEFSAII (Michael W. Deem and Ramdas Pophale) SiO2 
 PCOD9407165
Probable space group: P M M A
;
_chemical_formula_sum "Si O2"
_cell_formula_units_Z 48
_cell_length_a 16.851062
_cell_length_b 8.449500
_cell_length_c 16.833000
_cell_angle_alpha 90.000000
_cell_angle_beta 90.000000
_cell_angle_gamma 90.000000
_cell_volume 2396.733853
_symmetry_space_group_name_H-M "P M M A"
_symmetry_group_IT_number 51
_symmetry_cell_setting 'orthorhombic'
loop_
_space_group_symop_operation_xyz
x,y,z
1/2-x,-y,z
1/2+x,-y,-z
-x,y,-z
-x,-y,-z
1/2+x,y,-z
1/2-x,y,z
x,-y,z
loop_
_atom_site_type_symbol
_atom_site_label
_atom_site_fract_x
_atom_site_fract_y
_atom_site_fract_z
Si Si1 0.345076 0.690544 0.452194
Si Si2 0.342237 0.307625 0.628440
Si Si3 0.750000 0.316984 0.979681
Si Si4 0.906731 0.184471 0.710017
Si Si5 0.918684 0.187831 0.042865
Si Si6 0.750000 0.685983 0.789651
Si Si7 0.062717 0.685780 0.780865
O O1 0.250000 0.722711 0.444155
O O2 0.354129 0.500000 0.445795
O O3 0.370922 0.741576 0.540819
O O4 0.393040 0.771548 0.381882
O O5 0.250000 0.266171 0.633448
O O6 0.347870 0.500000 0.628593
O O7 0.386237 0.249963 0.706692
O O8 0.750000 0.500000 0.003689
O O9 0.833773 0.247046 0.010032
O O10 0.750000 0.305180 0.884426
O O11 0.825740 0.227576 0.754031
O O12 0.973511 0.289391 0.751358
O O13 0.926185 0.000000 0.718874
O O14 0.923598 0.230215 0.135712
O O15 0.919153 0.000000 0.032246
O O16 0.000000 0.250352 0.000000
O O17 0.750000 0.500000 0.765754
O O18 0.080394 0.500000 0.791653
#
# Coordination Sequence:
#
# PCOD9407165 Si02
#       7
#     8   8   4   8   8   4   8
#     4   9  17  34  60  86 117 158 206 252 299 359
#     4   8  17  35  60  89 118 155 205 258 304 353
#     4  11  25  43  69  98 123 162 213 263 316 383
#     4  12  24  37  57  88 128 164 201 249 310 369
#     4  11  25  45  67  94 132 170 208 261 328 390
#     4  11  23  41  65  92 119 152 205 257 306 367
#     4  11  23  39  63  91 123 161 209 259 305 363
#
# _framework density 20.027255
#
# number of rings (size 3 to 8) (size 9 to 14) (size 15 to 20)
#    0.000    1.667    0.833    5.000    1.167    6.000 
#    0.000    5.000    0.000    2.000    0.000    0.000 
#    0.000    0.000    0.000    0.000    0.000    0.000 
#
# Total GULP energy -268099.098015 kJ/mol
# GULP energy per Si atom -5585.397875 kJ/mol
# Density = 1.998167 g / cm^3
# Si number density = 20.027255 Si / 1000 Ang^3
#
#
#
# Elastic Constant Matrix: (Units=GPa)
#
#
# Indices 1 2 3 4 5 6 
#
# 1 89.0188 10.3713 51.0623 0.0000 0.0000 0.0000
# 2 10.3713 39.1205 21.6040 0.0000 0.0000 0.0000
# 3 51.0623 21.6040 108.1855 0.0000 0.0000 0.0000
# 4 0.0000 0.0000 0.0000 -24.4213 0.0000 0.0000
# 5 0.0000 0.0000 0.0000 0.0000 17.4859 0.0000
# 6 0.0000 0.0000 0.0000 0.0000 0.0000 19.6605
#
#
#
# Elastic Compliance Matrix: (Units=1/GPa)
#
#
# Indices 1 2 3 4 5 6 
#
# 1 0.015404 -0.000077 -0.007255 0.000000 0.000000 0.000000
# 2 -0.000077 0.028731 -0.005701 0.000000 0.000000 0.000000
# 3 -0.007255 -0.005701 0.013806 0.000000 0.000000 0.000000
# 4 0.000000 0.000000 0.000000 -0.040948 0.000000 0.000000
# 5 0.000000 0.000000 0.000000 0.000000 0.057189 0.000000
# 6 0.000000 0.000000 0.000000 0.000000 0.000000 0.050863
#
#
# Mechanical properties :
#
#
# Convention : Reuss Voigt Hill
#
# Bulk Modulus (GPa) = 31.37300 44.71113 38.04207
# Shear Modulus (GPa) = 30.91436 12.76417 21.83926
#
# Velocity S-wave (km/s) = 3.93315 2.52730 3.30582
# Velocity P-wave (km/s) = 6.02705 5.55787 5.79721
#
# Compressibility (1/GPa) = 0.03187454
#
# Stress axis : x y z
#
# Youngs Moduli (GPa) = 64.91709 34.80585 72.43121
#
# Poissons Ratio (x) = 0.00269 0.52550
# Poissons Ratio (y) = 0.00501 0.41292
# Poissons Ratio (z) = 0.47099 0.19843
#
# Static dielectric constant tensor:
#      x y z
#    x 1.724430 0.000000 0.000000 
#    y 0.000000 1.697390 0.000000 
#    z 0.000000 0.000000 1.699510 
# 
# From -- ./inp_files/24963.got.cif
#   From: 2010.05.17/outbox.cif.g08.bks.cpg/sg51_13_cif.got.tgz:24963.got - 2010.06.03 11:52:47.
