data_PCOD9407057
_publ_section_title
;
Structure prediction by ZEFSAII (Michael W. Deem and Ramdas Pophale) SiO2 
 PCOD9407057
Probable space group: P M M A
;
_chemical_formula_sum "Si O2"
_cell_formula_units_Z 40
_cell_length_a 14.623571
_cell_length_b 9.545001
_cell_length_c 15.183594
_cell_angle_alpha 90.000000
_cell_angle_beta 90.000000
_cell_angle_gamma 90.000000
_cell_volume 2119.356415
_symmetry_space_group_name_H-M "P M M A"
_symmetry_group_IT_number 51
_symmetry_cell_setting 'orthorhombic'
loop_
_space_group_symop_operation_xyz
x,y,z
1/2-x,-y,z
1/2+x,-y,-z
-x,y,-z
-x,-y,-z
1/2+x,y,-z
1/2-x,y,z
x,-y,z
loop_
_atom_site_type_symbol
_atom_site_label
_atom_site_fract_x
_atom_site_fract_y
_atom_site_fract_z
Si Si1 0.250000 0.333518 0.467378
Si Si2 0.350796 0.000000 0.899801
Si Si3 0.750000 0.663566 0.320938
Si Si4 0.148431 0.000000 0.110839
Si Si5 0.932242 0.165506 0.584251
Si Si6 0.048437 0.341089 0.720431
Si Si7 0.500053 0.766150 0.104083
O O1 0.250000 0.500000 0.444359
O O2 0.250000 0.324183 0.573637
O O3 0.159995 0.252697 0.433868
O O4 0.412829 0.133362 0.881308
O O5 0.250000 0.000000 0.860036
O O6 0.342082 0.000000 0.005368
O O7 0.750000 0.500000 0.295603
O O8 0.652564 0.715674 0.286224
O O9 0.088082 0.861743 0.127253
O O10 0.250000 0.000000 0.150623
O O11 0.000000 0.176516 0.500000
O O12 0.984752 0.237890 0.664977
O O13 0.085978 0.000000 0.400706
O O14 0.046977 0.500000 0.682758
O O15 0.013281 0.346715 0.820546
O O16 0.500000 0.726618 0.000000
#
# Coordination Sequence:
#
# PCOD9407057 Si02
#       7
#     4   4   4   4   8   8   8
#     4  11  21  41  69  90 119 162 204 246 308 376
#     4   8  15  29  54  83 111 144 192 248 307 362
#     4   9  20  37  61  90 117 154 198 242 304 376
#     4   8  15  33  56  77 109 152 196 247 300 356
#     4  11  24  41  63  92 125 157 199 254 305 357
#     4  11  23  40  61  88 123 162 204 248 305 372
#     4   9  19  34  55  86 118 156 204 248 299 358
#
# _framework density 18.873654999999999
#
# number of rings (size 3 to 8) (size 9 to 14) (size 15 to 20)
#    0.000    2.200    2.000    2.100    4.200    1.200 
#    1.800    0.500    0.000    0.000    0.000    0.000 
#    0.000    0.000    0.000    0.000    0.000    0.000 
#
# Total GULP energy -222858.234303 kJ/mol
# GULP energy per Si atom -5571.455858 kJ/mol
# Density = 1.883070 g / cm^3
# Si number density = 18.873655 Si / 1000 Ang^3
#
#
#
# Elastic Constant Matrix: (Units=GPa)
#
#
# Indices 1 2 3 4 5 6 
#
# 1 172.7090 64.6863 43.6238 0.0000 0.0000 0.0000
# 2 64.6863 114.1749 47.1077 0.0000 0.0000 0.0000
# 3 43.6238 47.1077 86.4307 0.0000 0.0000 0.0000
# 4 0.0000 0.0000 0.0000 41.0773 0.0000 0.0000
# 5 0.0000 0.0000 0.0000 0.0000 13.6576 0.0000
# 6 0.0000 0.0000 0.0000 0.0000 0.0000 16.8121
#
#
#
# Elastic Compliance Matrix: (Units=1/GPa)
#
#
# Indices 1 2 3 4 5 6 
#
# 1 0.007588 -0.003508 -0.001918 0.000000 0.000000 0.000000
# 2 -0.003508 0.012921 -0.005272 0.000000 0.000000 0.000000
# 3 -0.001918 -0.005272 0.015412 0.000000 0.000000 0.000000
# 4 0.000000 0.000000 0.000000 0.024344 0.000000 0.000000
# 5 0.000000 0.000000 0.000000 0.000000 0.073219 0.000000
# 6 0.000000 0.000000 0.000000 0.000000 0.000000 0.059481
#
#
# Mechanical properties :
#
#
# Convention : Reuss Voigt Hill
#
# Bulk Modulus (GPa) = 68.84639 76.01670 72.43155
# Shear Modulus (GPa) = 22.80989 28.83585 25.82287
#
# Velocity S-wave (km/s) = 3.48020 3.91299 3.70293
# Velocity P-wave (km/s) = 7.25987 7.79612 7.53277
#
# Compressibility (1/GPa) = 0.01452509
#
# Stress axis : x y z
#
# Youngs Moduli (GPa) = 131.77997 77.39329 64.88657
#
# Poissons Ratio (x) = 0.27148 0.12446
# Poissons Ratio (y) = 0.46226 0.34208
# Poissons Ratio (z) = 0.25278 0.40801
#
# Static dielectric constant tensor:
#      x y z
#    x 1.699710 0.000000 0.000000 
#    y 0.000000 1.648860 0.000000 
#    z 0.000000 0.000000 1.654960 
# 
# From -- ./inp_files/23875.got.cif
#   From: 2010.05.17/outbox.cif.g08.bks.cpg/sg51_12_cif.got.tgz:23875.got - 2010.06.03 11:52:47.
