data_PCOD9407956
_publ_section_title
;
Structure prediction by ZEFSAII (Michael W. Deem and Ramdas Pophale) SiO2 
 PCOD9407956
Probable space group: P N N A
;
_chemical_formula_sum "Si O2"
_cell_formula_units_Z 44
_cell_length_a 15.290121
_cell_length_b 11.779974
_cell_length_c 12.789666
_cell_angle_alpha 90.000000
_cell_angle_beta 90.000000
_cell_angle_gamma 90.000000
_cell_volume 2303.639185
_symmetry_space_group_name_H-M "P N N A"
_symmetry_group_IT_number 52
_symmetry_cell_setting 'orthorhombic'
loop_
_space_group_symop_operation_xyz
x,y,z
1/2-x,-y,z
x,1/2-y,1/2-z
1/2-x,1/2+y,1/2-z
-x,-y,-z
1/2+x,y,-z
-x,1/2+y,1/2+z
1/2+x,1/2-y,1/2+z
loop_
_atom_site_type_symbol
_atom_site_label
_atom_site_fract_x
_atom_site_fract_y
_atom_site_fract_z
Si Si1 0.583755 0.945568 0.178875
Si Si2 0.376518 0.051595 0.589339
Si Si3 0.551522 0.250000 0.750000
Si Si4 0.430886 0.642886 0.045150
Si Si5 0.922611 0.692782 0.363338
Si Si6 0.717014 0.723717 0.373592
O O1 0.631937 0.981941 0.288445
O O2 0.511594 0.849720 0.204782
O O3 0.654855 0.883609 0.106440
O O4 0.547087 0.062932 0.135678
O O5 0.478565 0.084260 0.579380
O O6 0.317964 0.162505 0.571032
O O7 0.367140 0.947355 0.510321
O O8 0.603316 0.298229 0.849516
O O9 0.459528 0.731853 0.956544
O O10 0.938372 0.750000 0.250000
O O11 0.818182 0.696342 0.385513
O O12 0.703196 0.750000 0.250000
#
# Coordination Sequence:
#
# PCOD9407956 Si02
#       6
#     8   8   4   8   8   8
#     4  10  16  33  50  74 105 139 166 213 277 324
#     4   9  17  33  54  70 105 141 179 207 264 324
#     4  10  20  36  54  70 104 148 190 212 254 314
#     4  10  19  33  51  77  99 143 180 220 252 317
#     4  11  21  28  49  86 111 126 169 227 279 322
#     4   9  17  31  49  76 108 135 162 219 277 327
#
# _framework density 19.100213
#
# number of rings (size 3 to 8) (size 9 to 14) (size 15 to 20)
#    0.000    2.182    6.364    0.545    0.000    1.455 
#    0.000    0.000    0.000    0.000   11.818    0.000 
#    0.000    0.000    0.000    0.000    0.000    0.000 
#
# Total GULP energy -245234.017421 kJ/mol
# GULP energy per Si atom -5573.500396 kJ/mol
# Density = 1.905674 g / cm^3
# Si number density = 19.100213 Si / 1000 Ang^3
#
#
#
# Elastic Constant Matrix: (Units=GPa)
#
#
# Indices 1 2 3 4 5 6 
#
# 1 20.3819 4.6711 -2.4307 0.0000 0.0000 0.0000
# 2 4.6711 112.7081 30.8632 0.0000 0.0000 0.0000
# 3 -2.4307 30.8632 78.2979 0.0000 0.0000 0.0000
# 4 0.0000 0.0000 0.0000 30.6109 0.0000 0.0000
# 5 0.0000 0.0000 0.0000 0.0000 6.5357 0.0000
# 6 0.0000 0.0000 0.0000 0.0000 0.0000 9.6717
#
#
#
# Elastic Compliance Matrix: (Units=1/GPa)
#
#
# Indices 1 2 3 4 5 6 
#
# 1 0.050022 -0.002801 0.002657 0.000000 0.000000 0.000000
# 2 -0.002801 0.010103 -0.004069 0.000000 0.000000 0.000000
# 3 0.002657 -0.004069 0.014458 0.000000 0.000000 0.000000
# 4 0.000000 0.000000 0.000000 0.032668 0.000000 0.000000
# 5 0.000000 0.000000 0.000000 0.000000 0.153005 0.000000
# 6 0.000000 0.000000 0.000000 0.000000 0.000000 0.103394
#
#
# Mechanical properties :
#
#
# Convention : Reuss Voigt Hill
#
# Bulk Modulus (GPa) = 15.11562 30.84390 22.97976
# Shear Modulus (GPa) = 12.68622 21.24930 16.96776
#
# Velocity S-wave (km/s) = 2.57999 3.33906 2.98376
# Velocity P-wave (km/s) = 4.09953 5.57219 4.89160
#
# Compressibility (1/GPa) = 0.06615674
#
# Stress axis : x y z
#
# Youngs Moduli (GPa) = 19.99129 98.98208 69.16486
#
# Poissons Ratio (x) = 0.27722 -0.18376
# Poissons Ratio (y) = 0.05599 0.28145
# Poissons Ratio (z) = -0.05311 0.40278
#
# Static dielectric constant tensor:
#      x y z
#    x 1.666080 0.000000 0.000000 
#    y 0.000000 1.745720 0.000000 
#    z 0.000000 0.000000 1.689250 
# 
# From -- ./inp_files/20510.got.cif
#   From: 2010.05.17/outbox.cif.g08.bks.cpg/sg52_11_cif.got.tgz:20510.got - 2010.06.03 12:15:38.
