data_PCOD9407384
_publ_section_title
;
Structure prediction by ZEFSAII (Michael W. Deem and Ramdas Pophale) SiO2 
 PCOD9407384
Probable space group: P M M A
;
_chemical_formula_sum "Si O2"
_cell_formula_units_Z 48
_cell_length_a 7.566079
_cell_length_b 9.395627
_cell_length_c 32.432547
_cell_angle_alpha 90.000000
_cell_angle_beta 90.000000
_cell_angle_gamma 90.000000
_cell_volume 2305.566722
_symmetry_space_group_name_H-M "P M M A"
_symmetry_group_IT_number 51
_symmetry_cell_setting 'orthorhombic'
loop_
_space_group_symop_operation_xyz
x,y,z
1/2-x,-y,z
1/2+x,-y,-z
-x,y,-z
-x,-y,-z
1/2+x,y,-z
1/2-x,y,z
x,-y,z
loop_
_atom_site_type_symbol
_atom_site_label
_atom_site_fract_x
_atom_site_fract_y
_atom_site_fract_z
Si Si1 0.041049 0.161909 0.044261
Si Si2 0.033609 0.336506 0.625301
Si Si3 0.466540 0.336416 0.787336
Si Si4 0.965911 0.836209 0.293740
Si Si5 0.959385 0.837649 0.133893
Si Si6 0.961802 0.162513 0.453830
O O1 0.250000 0.151290 0.046448
O O2 0.983120 0.224535 0.087940
O O3 0.963757 0.000000 0.043084
O O4 0.000000 0.230356 0.000000
O O5 0.250000 0.336711 0.625203
O O6 0.977021 0.500000 0.627931
O O7 0.978298 0.246128 0.665086
O O8 0.973747 0.261152 0.583175
O O9 0.250000 0.337303 0.787523
O O10 0.523335 0.500000 0.785271
O O11 0.521267 0.247569 0.747215
O O12 0.528006 0.258689 0.829037
O O13 0.750000 0.837132 0.293775
O O14 0.023509 0.000000 0.293483
O O15 0.750000 0.849377 0.140544
O O16 0.031878 0.000000 0.134520
O O17 0.750000 0.155489 0.449801
O O18 0.000000 0.215017 0.500000
O O19 0.029934 0.000000 0.450462
#
# Coordination Sequence:
#
# PCOD9407384 Si02
#       6
#     8   8   8   8   8   8
#     4   9  16  26  42  65  91 117 146 182 222 260
#     4   9  16  25  38  58  85 115 146 181 221 264
#     4   9  16  25  38  58  85 115 145 177 214 256
#     4   9  15  23  37  58  85 115 145 178 217 260
#     4   9  16  26  41  62  88 116 145 177 213 254
#     4   9  17  29  44  62  85 114 148 185 224 265
#
# _framework density 20.819175000000001
#
# number of rings (size 3 to 8) (size 9 to 14) (size 15 to 20)
#    0.000    3.000    0.000    2.000    0.000    8.333 
#    0.000    0.000    0.000    1.000    0.000    1.167 
#    0.000    9.333    0.000    0.000    0.000    0.000 
#
# Total GULP energy -267770.287597 kJ/mol
# GULP energy per Si atom -5578.547658 kJ/mol
# Density = 2.077179 g / cm^3
# Si number density = 20.819175 Si / 1000 Ang^3
#
#
#
# Elastic Constant Matrix: (Units=GPa)
#
#
# Indices 1 2 3 4 5 6 
#
# 1 48.0879 5.5037 0.6109 0.0000 0.0000 0.0000
# 2 5.5037 145.7729 130.4189 0.0000 0.0000 0.0000
# 3 0.6109 130.4189 252.0441 0.0000 0.0000 0.0000
# 4 0.0000 0.0000 0.0000 -0.0333 0.0000 0.0000
# 5 0.0000 0.0000 0.0000 0.0000 12.7610 0.0000
# 6 0.0000 0.0000 0.0000 0.0000 0.0000 -2.5917
#
#
#
# Elastic Compliance Matrix: (Units=1/GPa)
#
#
# Indices 1 2 3 4 5 6 
#
# 1 0.020946 -0.001388 0.000667 0.000000 0.000000 0.000000
# 2 -0.001388 0.012865 -0.006654 0.000000 0.000000 0.000000
# 3 0.000667 -0.006654 0.007409 0.000000 0.000000 0.000000
# 4 0.000000 0.000000 0.000000-29.997715 0.000000 0.000000
# 5 0.000000 0.000000 0.000000 0.000000 0.078364 0.000000
# 6 0.000000 0.000000 0.000000 0.000000 0.000000 -0.385844
#
#
# Mechanical properties :
#
#
# Convention : Reuss Voigt Hill
#
# Bulk Modulus (GPa) = 37.77672 79.88579 58.83125
# Shear Modulus (GPa) = -0.16534 22.65194 11.24330
#
# Velocity S-wave (km/s) = -0.28212 3.30211 2.32641
# Velocity P-wave (km/s) = 4.25187 7.27964 5.96119
#
# Compressibility (1/GPa) = 0.02647133
#
# Stress axis : x y z
#
# Youngs Moduli (GPa) = 47.74266 77.72863 134.97338
#
# Poissons Ratio (x) = 0.10788 -0.09008
# Poissons Ratio (y) = 0.06626 0.89807
# Poissons Ratio (z) = -0.03186 0.51718
#
# Static dielectric constant tensor:
#      x y z
#    x 1.799300 0.000000 0.000000 
#    y 0.000000 1.710950 0.000000 
#    z 0.000000 0.000000 1.742030 
# 
# From -- ./inp_files/37039.got.cif
#   From: 2010.05.17/outbox.cif.g08.bks.cpg/sg51_19_cif.got.tgz:37039.got - 2010.06.03 11:52:47.
