data_PCOD9407030
_publ_section_title
;
Structure prediction by ZEFSAII (Michael W. Deem and Ramdas Pophale) SiO2 
 PCOD9407030
Probable space group: P M M A
;
_chemical_formula_sum "Si O2"
_cell_formula_units_Z 24
_cell_length_a 8.579612
_cell_length_b 16.508845
_cell_length_c 9.077320
_cell_angle_alpha 90.000000
_cell_angle_beta 90.000000
_cell_angle_gamma 90.000000
_cell_volume 1285.706927
_symmetry_space_group_name_H-M "P M M A"
_symmetry_group_IT_number 51
_symmetry_cell_setting 'orthorhombic'
loop_
_space_group_symop_operation_xyz
x,y,z
1/2-x,-y,z
1/2+x,-y,-z
-x,y,-z
-x,-y,-z
1/2+x,y,-z
1/2-x,y,z
x,-y,z
loop_
_atom_site_type_symbol
_atom_site_label
_atom_site_fract_x
_atom_site_fract_y
_atom_site_fract_z
Si Si1 0.062437 0.675235 0.668489
Si Si2 0.937800 0.500000 0.332281
Si Si3 0.436164 0.000000 0.835247
Si Si4 0.064034 0.156287 0.333011
O O1 0.250000 0.681650 0.666734
O O2 0.016326 0.587298 0.734390
O O3 0.000000 0.673305 0.500000
O O4 0.992068 0.757518 0.733070
O O5 0.750000 0.500000 0.339001
O O6 0.000000 0.500000 0.500000
O O7 0.498172 0.079996 0.754033
O O8 0.250000 0.000000 0.833845
O O9 0.500000 0.000000 0.000000
O O10 0.250000 0.154190 0.336476
O O11 0.000000 0.151796 0.500000
#
# Coordination Sequence:
#
# PCOD9407030 Si02
#       4
#     8   4   4   8
#     4   9  15  25  41  66  98 134 170 209 252 299
#     4   8  14  22  36  60  95 132 167 204 249 296
#     4  12  25  42  59  78 102 132 168 212 261 314
#     4  11  21  35  54  79 107 139 175 215 257 304
#
# _framework density 18.666772999999999
#
# number of rings (size 3 to 8) (size 9 to 14) (size 15 to 20)
#    0.000    2.000    0.000    8.000    0.000    1.333 
#    0.000    0.000    0.000    0.000    0.000    1.167 
#    0.000    0.000    0.000    0.000    0.000    0.000 
#
# Total GULP energy -133791.216432 kJ/mol
# GULP energy per Si atom -5574.634018 kJ/mol
# Density = 1.862429 g / cm^3
# Si number density = 18.666773 Si / 1000 Ang^3
#
#
#
# Elastic Constant Matrix: (Units=GPa)
#
#
# Indices 1 2 3 4 5 6 
#
# 1 147.0800 82.4214 23.9564 0.0000 0.0000 0.0000
# 2 82.4214 256.8322 53.4782 0.0000 0.0000 0.0000
# 3 23.9564 53.4782 36.0465 0.0000 0.0000 0.0000
# 4 0.0000 0.0000 0.0000 -7.3639 0.0000 0.0000
# 5 0.0000 0.0000 0.0000 0.0000 17.7351 0.0000
# 6 0.0000 0.0000 0.0000 0.0000 0.0000 31.5749
#
#
#
# Elastic Compliance Matrix: (Units=1/GPa)
#
#
# Indices 1 2 3 4 5 6 
#
# 1 0.008419 -0.002224 -0.002296 0.000000 0.000000 0.000000
# 2 -0.002224 0.006221 -0.007752 0.000000 0.000000 0.000000
# 3 -0.002296 -0.007752 0.040769 0.000000 0.000000 0.000000
# 4 0.000000 0.000000 0.000000 -0.135797 0.000000 0.000000
# 5 0.000000 0.000000 0.000000 0.000000 0.056385 0.000000
# 6 0.000000 0.000000 0.000000 0.000000 0.000000 0.031671
#
#
# Mechanical properties :
#
#
# Convention : Reuss Voigt Hill
#
# Bulk Modulus (GPa) = 32.39883 84.40786 58.40335
# Shear Modulus (GPa) = 117.64530 27.06274 72.35402
#
# Velocity S-wave (km/s) = 7.94737 3.81173 6.23258
# Velocity P-wave (km/s) = 10.08010 8.04293 9.11859
#
# Compressibility (1/GPa) = 0.03086531
#
# Stress axis : x y z
#
# Youngs Moduli (GPa) = 118.77653 160.73617 24.52849
#
# Poissons Ratio (x) = 0.35743 0.05632
# Poissons Ratio (y) = 0.26412 0.19015
# Poissons Ratio (z) = 0.27274 1.24604
#
# Static dielectric constant tensor:
#      x y z
#    x 1.618910 0.000000 0.000000 
#    y 0.000000 1.734820 0.000000 
#    z 0.000000 0.000000 1.592300 
# 
# From -- ./inp_files/4600.got.cif
#   From: 2010.05.17/outbox.cif.g08.bks.cpg/sg51_3_cif.got.tgz:4600.got - 2010.06.03 11:52:47.
