data_PCOD9407244
_publ_section_title
;
Structure prediction by ZEFSAII (Michael W. Deem and Ramdas Pophale) SiO2 
 PCOD9407244
Probable space group: P M M A
;
_chemical_formula_sum "Si O2"
_cell_formula_units_Z 64
_cell_length_a 9.877458
_cell_length_b 7.608737
_cell_length_c 43.621226
_cell_angle_alpha 90.000000
_cell_angle_beta 90.000000
_cell_angle_gamma 90.000000
_cell_volume 3278.352374
_symmetry_space_group_name_H-M "P M M A"
_symmetry_group_IT_number 51
_symmetry_cell_setting 'orthorhombic'
loop_
_space_group_symop_operation_xyz
x,y,z
1/2-x,-y,z
1/2+x,-y,-z
-x,y,-z
-x,-y,-z
1/2+x,y,-z
1/2-x,y,z
x,-y,z
loop_
_atom_site_type_symbol
_atom_site_label
_atom_site_fract_x
_atom_site_fract_y
_atom_site_fract_z
Si Si1 0.595542 0.709347 0.160431
Si Si2 0.093266 0.284217 0.349291
Si Si3 0.095884 0.210901 0.526965
Si Si4 0.404423 0.290900 0.973220
Si Si5 0.093193 0.715920 0.215390
Si Si6 0.904411 0.288958 0.404435
Si Si7 0.085358 0.704174 0.282386
Si Si8 0.404329 0.791016 0.906403
O O1 0.750000 0.780319 0.161253
O O2 0.604568 0.500000 0.164479
O O3 0.501847 0.776433 0.187805
O O4 0.536049 0.739232 0.126402
O O5 0.250000 0.233242 0.353673
O O6 0.091669 0.500000 0.348532
O O7 0.045479 0.222203 0.315542
O O8 0.999876 0.224650 0.377173
O O9 0.250000 0.279158 0.524681
O O10 0.045300 0.248384 0.561313
O O11 0.000000 0.278795 0.500000
O O12 0.102276 0.000000 0.523866
O O13 0.250000 0.219415 0.973979
O O14 0.394134 0.500000 0.977803
O O15 0.500000 0.219262 0.000000
O O16 0.463507 0.264178 0.939063
O O17 0.250000 0.766807 0.210852
O O18 0.091934 0.500000 0.216068
O O19 0.046083 0.777714 0.249198
O O20 0.750000 0.221935 0.401969
O O21 0.899312 0.500000 0.401775
O O22 0.250000 0.706179 0.282452
O O23 0.042390 0.500000 0.282354
O O24 0.250000 0.717573 0.906223
O O25 0.397722 0.000000 0.906749
#
# Coordination Sequence:
#
# PCOD9407244 Si02
#       8
#     8   8   8   8   8   8   8   8
#     4   9  16  26  41  61  83 105 133 172 210 239
#     4   8  13  22  37  57  81 109 138 165 195 236
#     4   9  18  32  47  61  79 105 135 165 199 240
#     4   9  17  30  48  68  88 110 137 169 205 244
#     4   8  13  22  37  57  81 109 138 167 203 246
#     4   9  17  28  41  60  86 110 131 161 203 244
#     4   7  10  18  33  53  78 107 136 164 196 237
#     4   9  17  29  45  63  83 111 144 171 199 242
#
# _framework density 19.522002000000001
#
# number of rings (size 3 to 8) (size 9 to 14) (size 15 to 20)
#    0.000    3.500    0.000    1.875    0.000    2.500 
#    0.000    1.250    0.000    7.875    0.000    0.875 
#    0.000    7.000    0.000    0.000    0.000    0.000 
#
# Total GULP energy -356333.484736 kJ/mol
# GULP energy per Si atom -5567.710699 kJ/mol
# Density = 1.947757 g / cm^3
# Si number density = 19.522002 Si / 1000 Ang^3
#
#
#
# Elastic Constant Matrix: (Units=GPa)
#
#
# Indices 1 2 3 4 5 6 
#
# 1 57.3898 4.2870 91.1040 0.0000 0.0000 0.0000
# 2 4.2870 40.4760 1.2603 0.0000 0.0000 0.0000
# 3 91.1040 1.2603 243.8350 0.0000 0.0000 0.0000
# 4 0.0000 0.0000 0.0000 188.7116 0.0000 0.0000
# 5 0.0000 0.0000 0.0000 0.0000 25.4993 0.0000
# 6 0.0000 0.0000 0.0000 0.0000 0.0000 -0.0986
#
#
#
# Elastic Compliance Matrix: (Units=1/GPa)
#
#
# Indices 1 2 3 4 5 6 
#
# 1 0.043496 -0.004101 -0.016230 0.000000 0.000000 0.000000
# 2 -0.004101 0.025097 0.001403 0.000000 0.000000 0.000000
# 3 -0.016230 0.001403 0.010158 0.000000 0.000000 0.000000
# 4 0.000000 0.000000 0.000000 0.005299 0.000000 0.000000
# 5 0.000000 0.000000 0.000000 0.000000 0.039217 0.000000
# 6 0.000000 0.000000 0.000000 0.000000 0.000000-10.139609
#
#
# Mechanical properties :
#
#
# Convention : Reuss Voigt Hill
#
# Bulk Modulus (GPa) = 24.45426 59.44483 41.94955
# Shear Modulus (GPa) = -0.50176 59.15909 29.32866
#
# Velocity S-wave (km/s) = -0.50753 5.51086 3.88021
# Velocity P-wave (km/s) = 3.49432 8.42669 6.45056
#
# Compressibility (1/GPa) = 0.04089267
#
# Stress axis : x y z
#
# Youngs Moduli (GPa) = 22.99084 39.84579 98.44545
#
# Poissons Ratio (x) = 0.16343 1.59777
# Poissons Ratio (y) = 0.09430 -0.13809
# Poissons Ratio (z) = 0.37314 -0.05589
#
# Static dielectric constant tensor:
#      x y z
#    x 1.672460 0.000000 0.000000 
#    y 0.000000 1.718390 0.000000 
#    z 0.000000 0.000000 1.713510 
# 
# From -- ./inp_files/37764.got.cif
#   From: 2010.05.17/outbox.cif.g08.bks.cpg/sg51_19_cif.got.tgz:37764.got - 2010.06.03 11:52:47.
