data_PCOD9407643
_publ_section_title
;
Structure prediction by ZEFSAII (Michael W. Deem and Ramdas Pophale) SiO2 
 PCOD9407643
Probable space group: P M M A
;
_chemical_formula_sum "Si O2"
_cell_formula_units_Z 64
_cell_length_a 24.000000
_cell_length_b 15.000000
_cell_length_c 9.000000
_cell_angle_alpha 90.000000
_cell_angle_beta 90.000000
_cell_angle_gamma 90.000000
_cell_volume 3240.000000
_symmetry_space_group_name_H-M "P M M A"
_symmetry_group_IT_number 51
_symmetry_cell_setting 'orthorhombic'
loop_
_space_group_symop_operation_xyz
x,y,z
1/2-x,-y,z
1/2+x,-y,-z
-x,y,-z
-x,-y,-z
1/2+x,y,-z
1/2-x,y,z
x,-y,z
loop_
_atom_site_type_symbol
_atom_site_label
_atom_site_fract_x
_atom_site_fract_y
_atom_site_fract_z
Si Si1 0.186145 0.276651 0.698197
Si Si2 0.183392 0.898834 0.524788
Si Si3 0.814322 0.397628 0.592657
Si Si4 0.390643 0.704634 0.182363
Si Si5 0.606603 0.604652 0.117088
Si Si6 0.490664 0.098209 0.675760
Si Si7 0.511922 0.271595 0.176490
Si Si8 0.882382 0.098667 0.787092
O O1 0.250000 0.263821 0.744220
O O2 0.166382 0.181427 0.633624
O O3 0.183851 0.348189 0.564483
O O4 0.152669 0.326898 0.824340
O O5 0.250000 0.887935 0.496817
O O6 0.150399 0.892393 0.369416
O O7 0.174685 0.000000 0.581684
O O8 0.750000 0.400443 0.640381
O O9 0.834660 0.500000 0.585114
O O10 0.847838 0.335205 0.702813
O O11 0.452150 0.714505 0.251798
O O12 0.374136 0.805724 0.132004
O O13 0.397468 0.631015 0.054917
O O14 0.616516 0.500000 0.140723
O O15 0.549875 0.641618 0.190109
O O16 0.500000 0.111632 0.500000
O O17 0.461930 0.182801 0.752305
O O18 0.551850 0.094314 0.750780
O O19 0.464298 0.000000 0.695571
O O20 0.500000 0.255976 0.000000
O O21 0.867089 0.000000 0.850858
#
# Coordination Sequence:
#
# PCOD9407643 Si02
#       8
#     8   8   8   8   8   8   8   8
#     4  10  21  38  57  81 113 144 176 222 278 335
#     4   9  17  31  55  84 111 142 176 212 262 326
#     4  10  20  34  55  81 107 139 184 233 279 328
#     4  10  20  37  57  80 108 145 185 234 279 324
#     4  11  24  39  56  78 107 146 192 235 283 334
#     4   9  18  31  51  81 111 140 176 222 271 321
#     4   9  21  37  54  76 106 147 187 228 275 329
#     4   9  17  31  53  81 112 140 173 218 270 324
#
# _framework density 19.753086
#
# number of rings (size 3 to 8) (size 9 to 14) (size 15 to 20)
#    0.000    2.375    1.250    0.750    1.750    4.250 
#    0.000    2.500    0.000    1.875    0.000    0.000 
#    0.000    0.000    0.000    0.000    0.000    0.000 
#
# Total GULP energy -356490.688893 kJ/mol
# GULP energy per Si atom -5570.167014 kJ/mol
# Density = 1.970813 g / cm^3
# Si number density = 19.753086 Si / 1000 Ang^3
#
#
#
# Elastic Constant Matrix: (Units=GPa)
#
#
# Indices 1 2 3 4 5 6 
#
# 1 36.6546 9.4045 1.6056 0.0000 0.0000 0.0000
# 2 9.4045 132.2871 9.0998 0.0000 0.0000 0.0000
# 3 1.6056 9.0998 -0.6491 0.0000 0.0000 0.0000
# 4 0.0000 0.0000 0.0000 14.9070 0.0000 0.0000
# 5 0.0000 0.0000 0.0000 0.0000 22.5815 0.0000
# 6 0.0000 0.0000 0.0000 0.0000 0.0000 20.9502
#
#
#
# Elastic Compliance Matrix: (Units=1/GPa)
#
#
# Indices 1 2 3 4 5 6 
#
# 1 0.027243 -0.003346 0.020483 0.000000 0.000000 0.000000
# 2 -0.003346 0.004259 0.051433 0.000000 0.000000 0.000000
# 3 0.020483 0.051433 -0.768873 0.000000 0.000000 0.000000
# 4 0.000000 0.000000 0.000000 0.067082 0.000000 0.000000
# 5 0.000000 0.000000 0.000000 0.000000 0.044284 0.000000
# 6 0.000000 0.000000 0.000000 0.000000 0.000000 0.047732
#
#
# Mechanical properties :
#
#
# Convention : Reuss Voigt Hill
#
# Bulk Modulus (GPa) = -1.66603 23.16806 10.75101
# Shear Modulus (GPa) = -5.46155 21.56660 8.05252
#
# Velocity S-wave (km/s) = -1.66461 3.30784 2.02125
# Velocity P-wave (km/s) = 2.13068 5.13258 3.30178
#
# Compressibility (1/GPa) = -0.60022904
#
# Stress axis : x y z
#
# Youngs Moduli (GPa) = 36.70683 234.78898 -1.30060
#
# Poissons Ratio (x) = 0.78555 0.02664
# Poissons Ratio (y) = 0.12281 0.06689
# Poissons Ratio (z) = -0.75188 -12.07600
#
# Static dielectric constant tensor:
#      x y z
#    x 1.747340 0.000000 0.000000 
#    y 0.000000 1.719210 0.000000 
#    z 0.000000 0.000000 1.701950 
# 
# From -- ./inp_files/11883.got.cif
#   From: 2010.05.17/outbox.ucp.g08.bks.cvg/sg51_6_cif.got.tgz:11883.got - 2010.06.11 16:27:58.
