data_PCOD9407841
_publ_section_title
;
Structure prediction by ZEFSAII (Michael W. Deem and Ramdas Pophale) SiO2 
 PCOD9407841
Probable space group: P M M A
;
_chemical_formula_sum "Si O2"
_cell_formula_units_Z 64
_cell_length_a 15.000000
_cell_length_b 9.000000
_cell_length_c 24.000000
_cell_angle_alpha 90.000000
_cell_angle_beta 90.000000
_cell_angle_gamma 90.000000
_cell_volume 3240.000000
_symmetry_space_group_name_H-M "P M M A"
_symmetry_group_IT_number 51
_symmetry_cell_setting 'orthorhombic'
loop_
_space_group_symop_operation_xyz
x,y,z
1/2-x,-y,z
1/2+x,-y,-z
-x,y,-z
-x,-y,-z
1/2+x,y,-z
1/2-x,y,z
x,-y,z
loop_
_atom_site_type_symbol
_atom_site_label
_atom_site_fract_x
_atom_site_fract_y
_atom_site_fract_z
Si Si1 0.141298 0.169205 0.420685
Si Si2 0.527834 0.674824 0.131906
Si Si3 0.147526 0.175864 0.092016
Si Si4 0.851178 0.818814 0.702782
Si Si5 0.141044 0.671990 0.532129
Si Si6 0.854721 0.172339 0.040790
Si Si7 0.465945 0.177786 0.754673
Si Si8 0.643816 0.679065 0.345162
O O1 0.250000 0.166533 0.422844
O O2 0.122391 0.234245 0.359558
O O3 0.109138 0.250302 0.475989
O O4 0.109459 0.000000 0.422066
O O5 0.531308 0.500000 0.139194
O O6 0.427141 0.730519 0.122404
O O7 0.584322 0.724762 0.078276
O O8 0.564468 0.755569 0.186810
O O9 0.250000 0.213261 0.105917
O O10 0.135085 0.000000 0.103892
O O11 0.135501 0.196175 0.025404
O O12 0.750000 0.770456 0.716179
O O13 0.930381 0.778867 0.744130
O O14 0.848473 0.000000 0.699996
O O15 0.250000 0.678304 0.532034
O O16 0.115942 0.500000 0.529489
O O17 0.113980 0.731257 0.592920
O O18 0.750000 0.191965 0.053767
O O19 0.878798 0.000000 0.051830
O O20 0.409257 0.242010 0.703708
O O21 0.460293 0.000000 0.755538
O O22 0.750000 0.706952 0.339903
O O23 0.631851 0.500000 0.342734
#
# Coordination Sequence:
#
# PCOD9407841 Si02
#       8
#     8   8   8   8   8   8   8   8
#     4   8  13  24  46  74 100 126 161 209 263 318
#     4  12  25  38  55  82 118 155 187 226 276 328
#     4   9  19  38  64  91 118 149 185 226 271 318
#     4   8  16  33  55  77 102 134 173 220 274 324
#     4   8  14  26  46  72 100 131 167 206 257 325
#     4   9  19  38  64  91 117 147 186 229 270 318
#     4  11  23  38  57  79 103 139 190 237 271 315
#     4   9  19  37  57  75 103 142 177 218 276 332
#
# _framework density 19.753086
#
# number of rings (size 3 to 8) (size 9 to 14) (size 15 to 20)
#    0.000    2.750    0.000    4.125    0.000    4.250 
#    0.000    5.625    0.000    6.375    0.000    0.000 
#    0.000    0.000    0.000    0.000    0.000    0.000 
#
# Total GULP energy -357182.559122 kJ/mol
# GULP energy per Si atom -5580.977486 kJ/mol
# Density = 1.970813 g / cm^3
# Si number density = 19.753086 Si / 1000 Ang^3
#
#
#
# Elastic Constant Matrix: (Units=GPa)
#
#
# Indices 1 2 3 4 5 6 
#
# 1 28.6620 20.5651 13.2631 0.0000 0.0000 0.0000
# 2 20.5651 45.4660 30.0975 0.0000 0.0000 0.0000
# 3 13.2631 30.0975 30.4632 0.0000 0.0000 0.0000
# 4 0.0000 0.0000 0.0000 40.3075 0.0000 0.0000
# 5 0.0000 0.0000 0.0000 0.0000 -861.7336 0.0000
# 6 0.0000 0.0000 0.0000 0.0000 0.0000 12.2837
#
#
#
# Elastic Compliance Matrix: (Units=1/GPa)
#
#
# Indices 1 2 3 4 5 6 
#
# 1 0.051684 -0.024515 0.001719 0.000000 0.000000 0.000000
# 2 -0.024515 0.075202 -0.063626 0.000000 0.000000 0.000000
# 3 0.001719 -0.063626 0.094940 0.000000 0.000000 0.000000
# 4 0.000000 0.000000 0.000000 0.024809 0.000000 0.000000
# 5 0.000000 0.000000 0.000000 0.000000 -0.001160 0.000000
# 6 0.000000 0.000000 0.000000 0.000000 0.000000 0.081408
#
#
# Mechanical properties :
#
#
# Convention : Reuss Voigt Hill
#
# Bulk Modulus (GPa) = 20.41586 25.82695 23.12141
# Shear Modulus (GPa) = 9.68891 -159.11743 -74.71426
#
# Velocity S-wave (km/s) = 2.21713 -8.98488 -6.15680
# Velocity P-wave (km/s) = 4.11244 9.72287 6.22985
#
# Compressibility (1/GPa) = 0.04898153
#
# Stress axis : x y z
#
# Youngs Moduli (GPa) = 19.34843 13.29755 10.53299
#
# Poissons Ratio (x) = 0.32599 -0.01811
# Poissons Ratio (y) = 0.47433 0.67017
# Poissons Ratio (z) = -0.03326 0.84606
#
# Static dielectric constant tensor:
#      x y z
#    x 1.707870 0.000000 0.000000 
#    y 0.000000 1.662750 0.000000 
#    z 0.000000 0.000000 1.703310 
# 
# From -- ./inp_files/35637.got.cif
#   From: 2010.05.17/outbox.ucp.g08.bks.cvg/sg51_18_cif.got.tgz:35637.got - 2010.06.11 16:27:58.
