data_PCOD9407826
_publ_section_title
;
Structure prediction by ZEFSAII (Michael W. Deem and Ramdas Pophale) SiO2 
 PCOD9407826
Probable space group: P M M A
;
_chemical_formula_sum "Si O2"
_cell_formula_units_Z 56
_cell_length_a 9.000000
_cell_length_b 15.000000
_cell_length_c 21.000000
_cell_angle_alpha 90.000000
_cell_angle_beta 90.000000
_cell_angle_gamma 90.000000
_cell_volume 2835.000000
_symmetry_space_group_name_H-M "P M M A"
_symmetry_group_IT_number 51
_symmetry_cell_setting 'orthorhombic'
loop_
_space_group_symop_operation_xyz
x,y,z
1/2-x,-y,z
1/2+x,-y,-z
-x,y,-z
-x,-y,-z
1/2+x,y,-z
1/2-x,y,z
x,-y,z
loop_
_atom_site_type_symbol
_atom_site_label
_atom_site_fract_x
_atom_site_fract_y
_atom_site_fract_z
Si Si1 0.571092 0.789436 0.935154
Si Si2 0.573813 0.107155 0.682795
Si Si3 0.417246 0.607446 0.755816
Si Si4 0.930653 0.398816 0.385433
Si Si5 0.571183 0.789808 0.434991
Si Si6 0.573820 0.893036 0.182313
Si Si7 0.072162 0.399150 0.113415
O O1 0.750000 0.795316 0.936296
O O2 0.506383 0.841711 0.874782
O O3 0.526435 0.684794 0.928793
O O4 0.500000 0.825273 0.000000
O O5 0.750000 0.126372 0.683977
O O6 0.494322 0.157837 0.625180
O O7 0.498484 0.132397 0.749979
O O8 0.555712 0.000000 0.675228
O O9 0.250000 0.644270 0.763891
O O10 0.404380 0.500000 0.754388
O O11 0.478162 0.628649 0.686136
O O12 0.518503 0.626669 0.815809
O O13 0.750000 0.403055 0.383232
O O14 0.982259 0.500000 0.400931
O O15 0.970963 0.315230 0.428513
O O16 0.500000 0.824927 0.500000
O O17 0.750000 0.796425 0.435781
O O18 0.750000 0.874328 0.182517
O O19 0.554292 0.000000 0.174679
O O20 0.250000 0.403514 0.112204
O O21 0.015756 0.500000 0.098176
#
# Coordination Sequence:
#
# PCOD9407826 Si02
#       7
#     8   8   8   8   8   8   8
#     4  11  24  40  59  87 122 162 203 247 297 351
#     4  10  22  42  67  93 121 153 191 241 300 360
#     4   8  14  27  49  76 103 137 186 239 290 343
#     4   8  16  32  53  79 113 153 198 245 292 345
#     4  11  23  38  58  87 122 162 204 249 298 353
#     4  10  22  42  68  95 121 152 192 240 296 359
#     4   9  19  35  53  78 115 155 196 244 294 343
#
# _framework density 19.753086
#
# number of rings (size 3 to 8) (size 9 to 14) (size 15 to 20)
#    0.000    2.429    0.000    2.571    2.000    4.000 
#    0.000    0.714    0.000    2.143    0.000    0.000 
#    0.000    0.000    0.000    0.000    0.000    0.000 
#
# Total GULP energy -312486.195363 kJ/mol
# GULP energy per Si atom -5580.110631 kJ/mol
# Density = 1.970813 g / cm^3
# Si number density = 19.753086 Si / 1000 Ang^3
#
#
#
# Elastic Constant Matrix: (Units=GPa)
#
#
# Indices 1 2 3 4 5 6 
#
# 1 64.8175 44.6343 58.5230 0.0000 0.0000 0.0000
# 2 44.6343 64.2501 65.5950 0.0000 0.0000 0.0000
# 3 58.5230 65.5950 168.7159 0.0000 0.0000 0.0000
# 4 0.0000 0.0000 0.0000 8.5007 0.0000 0.0000
# 5 0.0000 0.0000 0.0000 0.0000 29.7002 0.0000
# 6 0.0000 0.0000 0.0000 0.0000 0.0000 21.0648
#
#
#
# Elastic Compliance Matrix: (Units=1/GPa)
#
#
# Indices 1 2 3 4 5 6 
#
# 1 0.031094 -0.017559 -0.003959 0.000000 0.000000 0.000000
# 2 -0.017559 0.035724 -0.007798 0.000000 0.000000 0.000000
# 3 -0.003959 -0.007798 0.010332 0.000000 0.000000 0.000000
# 4 0.000000 0.000000 0.000000 0.117637 0.000000 0.000000
# 5 0.000000 0.000000 0.000000 0.000000 0.033670 0.000000
# 6 0.000000 0.000000 0.000000 0.000000 0.000000 0.047473
#
#
# Mechanical properties :
#
#
# Convention : Reuss Voigt Hill
#
# Bulk Modulus (GPa) = 54.00281 70.58755 62.29518
# Shear Modulus (GPa) = 14.67418 20.45522 17.56470
#
# Velocity S-wave (km/s) = 2.72854 3.22148 2.98520
# Velocity P-wave (km/s) = 6.10941 7.04626 6.59449
#
# Compressibility (1/GPa) = 0.01851755
#
# Stress axis : x y z
#
# Youngs Moduli (GPa) = 32.16082 27.99241 96.78442
#
# Poissons Ratio (x) = 0.49152 0.38315
# Poissons Ratio (y) = 0.56471 0.75476
# Poissons Ratio (z) = 0.12732 0.21829
#
# Static dielectric constant tensor:
#      x y z
#    x 1.658380 0.000000 0.000000 
#    y 0.000000 1.721920 0.000000 
#    z 0.000000 0.000000 1.695730 
# 
# From -- ./inp_files/31977.got.cif
#   From: 2010.05.17/outbox.ucp.g08.bks.cvg/sg51_16_cif.got.tgz:31977.got - 2010.06.11 16:27:58.
