data_PCOD9407558
_publ_section_title
;
Structure prediction by ZEFSAII (Michael W. Deem and Ramdas Pophale) SiO2 
 PCOD9407558
Probable space group: P M M A
;
_chemical_formula_sum "Si O2"
_cell_formula_units_Z 64
_cell_length_a 30.000000
_cell_length_b 12.000000
_cell_length_c 9.000000
_cell_angle_alpha 90.000000
_cell_angle_beta 90.000000
_cell_angle_gamma 90.000000
_cell_volume 3240.000000
_symmetry_space_group_name_H-M "P M M A"
_symmetry_group_IT_number 51
_symmetry_cell_setting 'orthorhombic'
loop_
_space_group_symop_operation_xyz
x,y,z
1/2-x,-y,z
1/2+x,-y,-z
-x,y,-z
-x,-y,-z
1/2+x,y,-z
1/2-x,y,z
x,-y,z
loop_
_atom_site_type_symbol
_atom_site_label
_atom_site_fract_x
_atom_site_fract_y
_atom_site_fract_z
Si Si1 0.697570 0.131460 0.253330
Si Si2 0.365522 0.715638 0.954789
Si Si3 0.799622 0.625177 0.806808
Si Si4 0.982682 0.772378 0.669707
Si Si5 0.550158 0.378513 0.206168
Si Si6 0.336813 0.790172 0.432535
Si Si7 0.586151 0.620522 0.533292
Si Si8 0.402586 0.118427 0.194913
O O1 0.750000 0.155254 0.224515
O O2 0.665110 0.208088 0.153064
O O3 0.687280 0.155058 0.427748
O O4 0.689863 0.000000 0.223715
O O5 0.402419 0.646209 0.866990
O O6 0.333816 0.642837 0.059735
O O7 0.392599 0.790121 0.072386
O O8 0.750000 0.638810 0.867388
O O9 0.803710 0.500000 0.746079
O O10 0.807062 0.716335 0.678529
O O11 0.947754 0.670343 0.651824
O O12 0.951008 0.868028 0.731697
O O13 0.000000 0.796249 0.500000
O O14 0.018130 0.729014 0.790601
O O15 0.532889 0.500000 0.155345
O O16 0.558859 0.387822 0.382255
O O17 0.373751 0.704173 0.493096
O O18 0.365851 0.869723 0.325774
O O19 0.602596 0.500000 0.579261
O O20 0.397779 0.000000 0.120707
#
# Coordination Sequence:
#
# PCOD9407558 Si02
#       8
#     8   8   8   8   8   8   8   8
#     4  11  23  39  60  86 115 149 194 248 298 340
#     4  11  22  39  58  82 117 153 193 235 287 349
#     4  10  21  37  57  83 117 154 190 233 290 354
#     4   9  19  35  56  85 116 146 187 236 284 332
#     4  10  19  34  57  83 114 149 186 225 277 342
#     4  10  19  36  59  86 113 145 193 241 286 340
#     4   9  16  30  55  84 115 145 177 224 280 337
#     4  10  22  39  59  81 112 155 196 236 284 340
#
# _framework density 19.753086
#
# number of rings (size 3 to 8) (size 9 to 14) (size 15 to 20)
#    0.000    2.000    1.250    2.625    0.000    2.250 
#    0.000    4.375    0.000    9.000    0.000    0.000 
#    0.000    0.000    0.000    0.000    0.000    0.000 
#
# Total GULP energy -356567.149889 kJ/mol
# GULP energy per Si atom -5571.361717 kJ/mol
# Density = 1.970813 g / cm^3
# Si number density = 19.753086 Si / 1000 Ang^3
#
#
#
# Elastic Constant Matrix: (Units=GPa)
#
#
# Indices 1 2 3 4 5 6 
#
# 1 75.8017 16.8713 12.3654 0.0000 0.0000 0.0000
# 2 16.8713 61.1771 3.4144 0.0000 0.0000 0.0000
# 3 12.3654 3.4144 54.4890 0.0000 0.0000 0.0000
# 4 0.0000 0.0000 0.0000 1.3405 0.0000 0.0000
# 5 0.0000 0.0000 0.0000 0.0000 24.3410 0.0000
# 6 0.0000 0.0000 0.0000 0.0000 0.0000 -73.7573
#
#
#
# Elastic Compliance Matrix: (Units=1/GPa)
#
#
# Indices 1 2 3 4 5 6 
#
# 1 0.014546 -0.003841 -0.003060 0.000000 0.000000 0.000000
# 2 -0.003841 0.017417 -0.000220 0.000000 0.000000 0.000000
# 3 -0.003060 -0.000220 0.019061 0.000000 0.000000 0.000000
# 4 0.000000 0.000000 0.000000 0.745994 0.000000 0.000000
# 5 0.000000 0.000000 0.000000 0.000000 0.041083 0.000000
# 6 0.000000 0.000000 0.000000 0.000000 0.000000 -0.013558
#
#
# Mechanical properties :
#
#
# Convention : Reuss Voigt Hill
#
# Bulk Modulus (GPa) = 27.18685 28.53001 27.85843
# Shear Modulus (GPa) = 5.87512 0.97262 3.42387
#
# Velocity S-wave (km/s) = 1.72648 0.70246 1.31799
# Velocity P-wave (km/s) = 4.21516 3.89007 4.05587
#
# Compressibility (1/GPa) = 0.03678248
#
# Stress axis : x y z
#
# Youngs Moduli (GPa) = 68.74551 57.41369 52.46418
#
# Poissons Ratio (x) = 0.22051 0.16056
# Poissons Ratio (y) = 0.26404 0.01153
# Poissons Ratio (z) = 0.21039 0.01262
#
# Static dielectric constant tensor:
#      x y z
#    x 1.730420 0.000000 0.000000 
#    y 0.000000 1.841270 0.000000 
#    z 0.000000 0.000000 1.663750 
# 
# From -- ./inp_files/13178.got.cif
#   From: 2010.05.17/outbox.ucp.g08.bks.cvg/sg51_7_cif.got.tgz:13178.got - 2010.06.11 16:27:58.
