data_PCOD9407353
_publ_section_title
;
Structure prediction by ZEFSAII (Michael W. Deem and Ramdas Pophale) SiO2 
 PCOD9407353
Probable space group: P M M A
;
_chemical_formula_sum "Si O2"
_cell_formula_units_Z 64
_cell_length_a 14.536691
_cell_length_b 7.607564
_cell_length_c 30.104230
_cell_angle_alpha 90.000000
_cell_angle_beta 90.000000
_cell_angle_gamma 90.000000
_cell_volume 3329.190885
_symmetry_space_group_name_H-M "P M M A"
_symmetry_group_IT_number 51
_symmetry_cell_setting 'orthorhombic'
loop_
_space_group_symop_operation_xyz
x,y,z
1/2-x,-y,z
1/2+x,-y,-z
-x,y,-z
-x,-y,-z
1/2+x,y,-z
1/2-x,y,z
x,-y,z
loop_
_atom_site_type_symbol
_atom_site_label
_atom_site_fract_x
_atom_site_fract_y
_atom_site_fract_z
Si Si1 0.355156 0.789486 0.424468
Si Si2 0.855897 0.785630 0.746272
Si Si3 0.531470 0.216187 0.661368
Si Si4 0.535134 0.709727 0.933021
Si Si5 0.146038 0.789158 0.153866
Si Si6 0.646931 0.206554 0.382046
Si Si7 0.356145 0.291420 0.520966
Si Si8 0.354300 0.715095 0.980549
O O1 0.250000 0.720846 0.423915
O O2 0.409251 0.726563 0.381371
O O3 0.397628 0.749309 0.472865
O O4 0.350940 0.000000 0.421277
O O5 0.750000 0.735600 0.737033
O O6 0.922570 0.725727 0.707148
O O7 0.878736 0.727371 0.796414
O O8 0.858113 0.000000 0.746030
O O9 0.427825 0.277510 0.652086
O O10 0.531730 0.000000 0.661407
O O11 0.531939 0.500000 0.937841
O O12 0.574771 0.747046 0.884714
O O13 0.432409 0.772406 0.945352
O O14 0.605711 0.771453 0.971401
O O15 0.250000 0.724987 0.143227
O O16 0.151134 0.000000 0.156217
O O17 0.750000 0.283680 0.381057
O O18 0.607826 0.221165 0.432289
O O19 0.655341 0.000000 0.373007
O O20 0.250000 0.223603 0.518700
O O21 0.354528 0.500000 0.525249
O O22 0.250000 0.775492 0.973243
O O23 0.351758 0.500000 0.980228
#
# Coordination Sequence:
#
# PCOD9407353 Si02
#       8
#     8   8   8   8   8   8   8   8
#     4   9  16  26  42  63  83 101 125 161 199 232
#     4   8  14  26  44  65  87 109 134 166 207 255
#     4   9  16  26  43  64  81 101 132 167 201 239
#     4   9  16  26  44  67  87 114 153 189 218 252
#     4   9  17  28  43  64  90 118 144 174 216 261
#     4   9  17  29  44  61  80 101 129 167 203 231
#     4   9  17  29  43  58  80 110 136 156 187 236
#     4   8  14  25  41  63  91 120 150 185 222 257
#
# _framework density 19.223890000000001
#
# number of rings (size 3 to 8) (size 9 to 14) (size 15 to 20)
#    0.000    3.250    0.000    2.625    0.000    4.250 
#    0.000    4.375    0.000    3.375    0.000    3.500 
#    0.000    0.000    0.000    0.000    0.000    0.000 
#
# Total GULP energy -356739.265994 kJ/mol
# GULP energy per Si atom -5574.051031 kJ/mol
# Density = 1.918014 g / cm^3
# Si number density = 19.223890 Si / 1000 Ang^3
#
#
#
# Elastic Constant Matrix: (Units=GPa)
#
#
# Indices 1 2 3 4 5 6 
#
# 1 145.2564 5.8944 107.6252 0.0000 0.0000 0.0000
# 2 5.8944 37.5158 0.6665 0.0000 0.0000 0.0000
# 3 107.6252 0.6665 161.5238 0.0000 0.0000 0.0000
# 4 0.0000 0.0000 0.0000 23.7875 0.0000 0.0000
# 5 0.0000 0.0000 0.0000 0.0000 33.3496 0.0000
# 6 0.0000 0.0000 0.0000 0.0000 0.0000 3.8019
#
#
#
# Elastic Compliance Matrix: (Units=1/GPa)
#
#
# Indices 1 2 3 4 5 6 
#
# 1 0.013745 -0.001997 -0.009150 0.000000 0.000000 0.000000
# 2 -0.001997 0.026948 0.001219 0.000000 0.000000 0.000000
# 3 -0.009150 0.001219 0.012283 0.000000 0.000000 0.000000
# 4 0.000000 0.000000 0.000000 0.042039 0.000000 0.000000
# 5 0.000000 0.000000 0.000000 0.000000 0.029985 0.000000
# 6 0.000000 0.000000 0.000000 0.000000 0.000000 0.263025
#
#
# Mechanical properties :
#
#
# Convention : Reuss Voigt Hill
#
# Bulk Modulus (GPa) = 30.19337 63.62981 46.91159
# Shear Modulus (GPa) = 11.93542 27.52847 19.73194
#
# Velocity S-wave (km/s) = 2.49442 3.78827 3.20727
# Velocity P-wave (km/s) = 4.90270 7.23228 6.17828
#
# Compressibility (1/GPa) = 0.03311985
#
# Stress axis : x y z
#
# Youngs Moduli (GPa) = 72.75265 37.10914 81.41344
#
# Poissons Ratio (x) = 0.07411 0.74496
# Poissons Ratio (y) = 0.14529 -0.09928
# Poissons Ratio (z) = 0.66571 -0.04525
#
# Static dielectric constant tensor:
#      x y z
#    x 1.710070 0.000000 0.000000 
#    y 0.000000 1.713090 0.000000 
#    z 0.000000 0.000000 1.658980 
# 
# From -- ./inp_files/37800.got.cif
#   From: 2010.05.17/outbox.cif.g08.bks.cpg/sg51_19_cif.got.tgz:37800.got - 2010.06.03 11:52:47.
