data_PCOD9407280
_publ_section_title
;
Structure prediction by ZEFSAII (Michael W. Deem and Ramdas Pophale) SiO2 
 PCOD9407280
Probable space group: P M M A
;
_chemical_formula_sum "Si O2"
_cell_formula_units_Z 48
_cell_length_a 9.729186
_cell_length_b 7.329664
_cell_length_c 31.805493
_cell_angle_alpha 90.000000
_cell_angle_beta 90.000000
_cell_angle_gamma 90.000000
_cell_volume 2268.102642
_symmetry_space_group_name_H-M "P M M A"
_symmetry_group_IT_number 51
_symmetry_cell_setting 'orthorhombic'
loop_
_space_group_symop_operation_xyz
x,y,z
1/2-x,-y,z
1/2+x,-y,-z
-x,y,-z
-x,-y,-z
1/2+x,y,-z
1/2-x,y,z
x,-y,z
loop_
_atom_site_type_symbol
_atom_site_label
_atom_site_fract_x
_atom_site_fract_y
_atom_site_fract_z
Si Si1 0.593307 0.282798 0.132310
Si Si2 0.592557 0.277948 0.382562
Si Si3 0.592198 0.723170 0.790549
Si Si4 0.594029 0.218098 0.037655
Si Si5 0.591697 0.277318 0.539781
Si Si6 0.592872 0.278052 0.287110
O O1 0.750000 0.210977 0.135370
O O2 0.602298 0.500000 0.138039
O O3 0.493130 0.215360 0.168664
O O4 0.541888 0.251857 0.084878
O O5 0.750000 0.223517 0.392388
O O6 0.591899 0.500000 0.382778
O O7 0.484894 0.218698 0.417627
O O8 0.560289 0.220914 0.334819
O O9 0.750000 0.781408 0.791393
O O10 0.592439 0.500000 0.790655
O O11 0.512456 0.781254 0.748505
O O12 0.750000 0.289264 0.035419
O O13 0.601294 0.000000 0.032897
O O14 0.500000 0.288576 0.000000
O O15 0.500000 0.221179 0.500000
O O16 0.750000 0.218631 0.537120
O O17 0.593056 0.500000 0.539733
O O18 0.750000 0.223478 0.277400
O O19 0.591858 0.500000 0.287090
#
# Coordination Sequence:
#
# PCOD9407280 Si02
#       6
#     8   8   8   8   8   8
#     4   9  17  29  44  61  82 108 135 161 193 235
#     4   8  13  20  28  37  49  67  94 127 164 210
#     4   9  16  24  35  53  75  96 119 150 186 222
#     4   9  18  32  48  65  85 109 136 165 197 233
#     4   9  15  20  25  32  43  61  87 123 168 215
#     4   8  13  21  32  44  60  84 110 136 172 221
#
# _framework density 21.163066000000001
#
# number of rings (size 3 to 8) (size 9 to 14) (size 15 to 20)
#    0.000    3.333    0.000    2.000    0.000    5.667 
#    0.000    3.333    0.000    0.000    0.000    0.000 
#    0.000    0.000    0.000    0.000    0.000    0.000 
#
# Total GULP energy -267926.856879 kJ/mol
# GULP energy per Si atom -5581.809518 kJ/mol
# Density = 2.111490 g / cm^3
# Si number density = 21.163066 Si / 1000 Ang^3
#
#
#
# Elastic Constant Matrix: (Units=GPa)
#
#
# Indices 1 2 3 4 5 6 
#
# 1 176.7171 6.1007 160.6652 0.0000 0.0000 0.0000
# 2 6.1007 83.0676 2.2351 0.0000 0.0000 0.0000
# 3 160.6652 2.2351 217.2519 0.0000 0.0000 0.0000
# 4 0.0000 0.0000 0.0000 33.3872 0.0000 0.0000
# 5 0.0000 0.0000 0.0000 0.0000 33.9872 0.0000
# 6 0.0000 0.0000 0.0000 0.0000 0.0000 -25.1171
#
#
#
# Elastic Compliance Matrix: (Units=1/GPa)
#
#
# Indices 1 2 3 4 5 6 
#
# 1 0.017343 -0.000929 -0.012816 0.000000 0.000000 0.000000
# 2 -0.000929 0.012091 0.000563 0.000000 0.000000 0.000000
# 3 -0.012816 0.000563 0.014075 0.000000 0.000000 0.000000
# 4 0.000000 0.000000 0.000000 0.029952 0.000000 0.000000
# 5 0.000000 0.000000 0.000000 0.000000 0.029423 0.000000
# 6 0.000000 0.000000 0.000000 0.000000 0.000000 -0.039814
#
#
# Mechanical properties :
#
#
# Convention : Reuss Voigt Hill
#
# Bulk Modulus (GPa) = 58.32744 90.55984 74.44364
# Shear Modulus (GPa) = 52.54903 28.98717 40.76810
#
# Velocity S-wave (km/s) = 4.98843 3.70497 4.39382
# Velocity P-wave (km/s) = 7.79744 7.82220 7.80983
#
# Compressibility (1/GPa) = 0.01714459
#
# Stress axis : x y z
#
# Youngs Moduli (GPa) = 57.66148 82.70292 71.04819
#
# Poissons Ratio (x) = 0.07682 0.91055
# Poissons Ratio (y) = 0.05356 -0.03997
# Poissons Ratio (z) = 0.73898 -0.04652
#
# Static dielectric constant tensor:
#      x y z
#    x 1.717730 0.000000 0.000000 
#    y 0.000000 1.825750 0.000000 
#    z 0.000000 0.000000 1.727110 
# 
# From -- ./inp_files/37301.got.cif
#   From: 2010.05.17/outbox.cif.g08.bks.cpg/sg51_19_cif.got.tgz:37301.got - 2010.06.03 11:52:47.
