data_PCOD9407358
_publ_section_title
;
Structure prediction by ZEFSAII (Michael W. Deem and Ramdas Pophale) SiO2 
 PCOD9407358
Probable space group: P M M A
;
_chemical_formula_sum "Si O2"
_cell_formula_units_Z 40
_cell_length_a 14.231178
_cell_length_b 10.918579
_cell_length_c 12.298390
_cell_angle_alpha 90.000000
_cell_angle_beta 90.000000
_cell_angle_gamma 90.000000
_cell_volume 1910.975999
_symmetry_space_group_name_H-M "P M M A"
_symmetry_group_IT_number 51
_symmetry_cell_setting 'orthorhombic'
loop_
_space_group_symop_operation_xyz
x,y,z
1/2-x,-y,z
1/2+x,-y,-z
-x,y,-z
-x,-y,-z
1/2+x,y,-z
1/2-x,y,z
x,-y,z
loop_
_atom_site_type_symbol
_atom_site_label
_atom_site_fract_x
_atom_site_fract_y
_atom_site_fract_z
Si Si1 0.105940 0.366868 0.546206
Si Si2 0.136178 0.363470 0.800871
Si Si3 0.857702 0.852899 0.804239
Si Si4 0.596877 0.863593 0.567018
Si Si5 0.864959 0.141275 0.045287
O O1 0.147772 0.500000 0.521435
O O2 0.106504 0.352301 0.675600
O O3 0.149069 0.247421 0.491135
O O4 0.000000 0.371241 0.500000
O O5 0.250000 0.363372 0.802760
O O6 0.105793 0.500000 0.839840
O O7 0.106110 0.245135 0.869558
O O8 0.750000 0.808064 0.789045
O O9 0.914009 0.828108 0.693888
O O10 0.853037 0.000000 0.813048
O O11 0.893174 0.816912 0.923512
O O12 0.500000 0.874023 0.500000
O O13 0.639989 0.000000 0.564518
O O14 0.750000 0.137109 0.044071
O O15 0.896028 0.000000 0.067811
#
# Coordination Sequence:
#
# PCOD9407358 Si02
#       5
#     8   8   8   8   8
#     4   9  18  32  47  62  87 125 158 183 222 273
#     4   9  17  29  46  69  95 119 146 186 230 266
#     4   8  14  26  45  69  96 123 149 181 225 273
#     4   9  17  29  46  67  90 118 154 194 229 260
#     4   8  14  26  45  68  93 120 148 179 222 278
#
# _framework density 20.931712999999998
#
# number of rings (size 3 to 8) (size 9 to 14) (size 15 to 20)
#    0.000    3.400    0.000    1.200    0.000    1.600 
#    0.000    1.000    0.000    6.000    0.000   30.800 
#    0.000    0.000    0.000    0.000    0.000    0.400 
#
# Total GULP energy -222727.057901 kJ/mol
# GULP energy per Si atom -5568.176448 kJ/mol
# Density = 2.088407 g / cm^3
# Si number density = 20.931713 Si / 1000 Ang^3
#
#
#
# Elastic Constant Matrix: (Units=GPa)
#
#
# Indices 1 2 3 4 5 6 
#
# 1 61.2587 21.9312 12.2887 0.0000 0.0000 0.0000
# 2 21.9312 186.7351 96.8192 0.0000 0.0000 0.0000
# 3 12.2887 96.8192 146.6864 0.0000 0.0000 0.0000
# 4 0.0000 0.0000 0.0000 161.7386 0.0000 0.0000
# 5 0.0000 0.0000 0.0000 0.0000 27.6804 0.0000
# 6 0.0000 0.0000 0.0000 0.0000 0.0000 -20.2121
#
#
#
# Elastic Compliance Matrix: (Units=1/GPa)
#
#
# Indices 1 2 3 4 5 6 
#
# 1 0.017043 -0.001918 -0.000162 0.000000 0.000000 0.000000
# 2 -0.001918 0.008357 -0.005355 0.000000 0.000000 0.000000
# 3 -0.000162 -0.005355 0.010366 0.000000 0.000000 0.000000
# 4 0.000000 0.000000 0.000000 0.006183 0.000000 0.000000
# 5 0.000000 0.000000 0.000000 0.000000 0.036127 0.000000
# 6 0.000000 0.000000 0.000000 0.000000 0.000000 -0.049475
#
#
# Mechanical properties :
#
#
# Convention : Reuss Voigt Hill
#
# Bulk Modulus (GPa) = 47.85652 72.97316 60.41484
# Shear Modulus (GPa) = 99.13642 51.41745 75.27693
#
# Velocity S-wave (km/s) = 6.88946 4.96162 6.00343
# Velocity P-wave (km/s) = 9.28434 8.23175 8.77385
#
# Compressibility (1/GPa) = 0.02089579
#
# Stress axis : x y z
#
# Youngs Moduli (GPa) = 58.67420 119.65917 96.47279
#
# Poissons Ratio (x) = 0.22946 0.01564
# Poissons Ratio (y) = 0.11251 0.51665
# Poissons Ratio (z) = 0.00951 0.64082
#
# Static dielectric constant tensor:
#      x y z
#    x 1.622090 0.000000 0.000000 
#    y 0.000000 1.803150 0.000000 
#    z 0.000000 0.000000 1.736570 
# 
# From -- ./inp_files/9285.got.cif
#   From: 2010.05.17/outbox.cif.g08.bks.cpg/sg51_5_cif.got.tgz:9285.got - 2010.06.03 11:52:47.
