data_PCOD9407126
_publ_section_title
;
Structure prediction by ZEFSAII (Michael W. Deem and Ramdas Pophale) SiO2 
 PCOD9407126
Probable space group: P M M A
;
_chemical_formula_sum "Si O2"
_cell_formula_units_Z 32
_cell_length_a 14.238521
_cell_length_b 11.689397
_cell_length_c 9.883441
_cell_angle_alpha 90.000000
_cell_angle_beta 90.000000
_cell_angle_gamma 90.000000
_cell_volume 1644.997199
_symmetry_space_group_name_H-M "P M M A"
_symmetry_group_IT_number 51
_symmetry_cell_setting 'orthorhombic'
loop_
_space_group_symop_operation_xyz
x,y,z
1/2-x,-y,z
1/2+x,-y,-z
-x,y,-z
-x,-y,-z
1/2+x,y,-z
1/2-x,y,z
x,-y,z
loop_
_atom_site_type_symbol
_atom_site_label
_atom_site_fract_x
_atom_site_fract_y
_atom_site_fract_z
Si Si1 0.250000 0.635325 0.196714
Si Si2 0.362089 0.000000 0.768234
Si Si3 0.750000 0.362085 0.483014
Si Si4 0.636634 0.000000 0.909802
Si Si5 0.567491 0.768541 0.373071
Si Si6 0.060863 0.753697 0.134679
O O1 0.250000 0.500000 0.188234
O O2 0.250000 0.666840 0.356500
O O3 0.157319 0.685119 0.128171
O O4 0.398356 0.113359 0.694445
O O5 0.250000 0.000000 0.760147
O O6 0.385084 0.000000 0.928740
O O7 0.750000 0.500000 0.468895
O O8 0.842972 0.306311 0.417183
O O9 0.592467 0.885956 0.847037
O O10 0.750000 0.000000 0.894005
O O11 0.500000 0.790632 0.500000
O O12 0.502137 0.711340 0.259026
O O13 0.000000 0.745271 0.000000
#
# Coordination Sequence:
#
# PCOD9407126 Si02
#       6
#     4   4   4   4   8   8
#     4  11  26  48  69  96 134 179 228 283 334 391
#     4  11  22  39  67  99 141 173 212 273 335 397
#     4  11  26  48  69  96 134 177 230 283 336 393
#     4  11  22  40  69  98 139 183 206 262 348 406
#     4  12  24  42  69 103 131 176 224 273 334 399
#     4  12  24  43  71 101 138 175 221 272 339 404
#
# _framework density 19.452919000000001
#
# number of rings (size 3 to 8) (size 9 to 14) (size 15 to 20)
#    0.000    0.500    7.500    1.500    0.000    3.000 
#    0.000    3.750    0.000    0.000    0.000    0.000 
#    0.000    0.000    0.000    0.000    0.000    0.000 
#
# Total GULP energy -179000.306688 kJ/mol
# GULP energy per Si atom -5593.759584 kJ/mol
# Density = 1.940864 g / cm^3
# Si number density = 19.452919 Si / 1000 Ang^3
#
#
#
# Elastic Constant Matrix: (Units=GPa)
#
#
# Indices 1 2 3 4 5 6 
#
# 1 161.0615 44.6153 36.2316 0.0000 0.0000 0.0000
# 2 44.6153 68.6487 7.8989 0.0000 0.0000 0.0000
# 3 36.2316 7.8989 49.9025 0.0000 0.0000 0.0000
# 4 0.0000 0.0000 0.0000 15.5746 0.0000 0.0000
# 5 0.0000 0.0000 0.0000 0.0000 41.9687 0.0000
# 6 0.0000 0.0000 0.0000 0.0000 0.0000 -22.9111
#
#
#
# Elastic Compliance Matrix: (Units=1/GPa)
#
#
# Indices 1 2 3 4 5 6 
#
# 1 0.008903 -0.005136 -0.005651 0.000000 0.000000 0.000000
# 2 -0.005136 0.017800 0.000911 0.000000 0.000000 0.000000
# 3 -0.005651 0.000911 0.023998 0.000000 0.000000 0.000000
# 4 0.000000 0.000000 0.000000 0.064207 0.000000 0.000000
# 5 0.000000 0.000000 0.000000 0.000000 0.023827 0.000000
# 6 0.000000 0.000000 0.000000 0.000000 0.000000 -0.043647
#
#
# Mechanical properties :
#
#
# Convention : Reuss Voigt Hill
#
# Bulk Modulus (GPa) = 32.31065 50.78935 41.55000
# Shear Modulus (GPa) = 39.95067 19.65090 29.80079
#
# Velocity S-wave (km/s) = 4.53671 3.18178 3.91825
# Velocity P-wave (km/s) = 6.63988 6.29792 6.47116
#
# Compressibility (1/GPa) = 0.03094954
#
# Stress axis : x y z
#
# Youngs Moduli (GPa) = 112.32677 56.18049 41.67092
#
# Poissons Ratio (x) = 0.28852 0.23547
# Poissons Ratio (y) = 0.57687 -0.03797
# Poissons Ratio (z) = 0.63474 -0.05120
#
# Static dielectric constant tensor:
#      x y z
#    x 1.691030 0.000000 0.000000 
#    y 0.000000 1.649960 0.000000 
#    z 0.000000 0.000000 1.670660 
# 
# From -- ./inp_files/7626.got.cif
#   From: 2010.05.17/outbox.cif.g08.bks.cpg/sg51_4_cif.got.tgz:7626.got - 2010.06.03 11:52:47.
