data_PCOD9407574
_publ_section_title
;
Structure prediction by ZEFSAII (Michael W. Deem and Ramdas Pophale) SiO2 
 PCOD9407574
Probable space group: P M M A
;
_chemical_formula_sum "Si O2"
_cell_formula_units_Z 56
_cell_length_a 9.000000
_cell_length_b 21.000000
_cell_length_c 15.000000
_cell_angle_alpha 90.000000
_cell_angle_beta 90.000000
_cell_angle_gamma 90.000000
_cell_volume 2835.000000
_symmetry_space_group_name_H-M "P M M A"
_symmetry_group_IT_number 51
_symmetry_cell_setting 'orthorhombic'
loop_
_space_group_symop_operation_xyz
x,y,z
1/2-x,-y,z
1/2+x,-y,-z
-x,y,-z
-x,-y,-z
1/2+x,y,-z
1/2-x,y,z
x,-y,z
loop_
_atom_site_type_symbol
_atom_site_label
_atom_site_fract_x
_atom_site_fract_y
_atom_site_fract_z
Si Si1 0.572080 0.900875 0.590826
Si Si2 0.916564 0.764170 0.653404
Si Si3 0.424928 0.645217 0.720408
Si Si4 0.082158 0.185046 0.142853
Si Si5 0.086438 0.574808 0.416094
Si Si6 0.926720 0.689935 0.087203
Si Si7 0.920250 0.927608 0.221062
O O1 0.500000 0.925972 0.500000
O O2 0.750000 0.910988 0.592618
O O3 0.542236 0.824902 0.595354
O O4 0.498784 0.925921 0.681884
O O5 0.750000 0.744059 0.629467
O O6 0.910633 0.791672 0.754213
O O7 0.026236 0.705352 0.660178
O O8 0.250000 0.639842 0.720756
O O9 0.499333 0.585887 0.674205
O O10 0.476340 0.657012 0.821086
O O11 0.250000 0.183575 0.107424
O O12 0.982525 0.237518 0.095498
O O13 0.006437 0.116915 0.152034
O O14 0.250000 0.602112 0.409451
O O15 0.099247 0.500000 0.431563
O O16 0.000000 0.602923 0.500000
O O17 0.750000 0.688148 0.081533
O O18 0.000000 0.660816 0.000000
O O19 0.750000 0.904723 0.231650
O O20 0.919190 0.000000 0.190409
#
# Coordination Sequence:
#
# PCOD9407574 Si02
#       7
#     8   8   8   8   8   8   8
#     4  10  20  32  46  64  89 123 162 208 262 316
#     4   8  16  30  46  66  93 125 161 202 250 305
#     4  10  20  33  53  81 111 143 178 220 267 314
#     4   9  17  31  51  73  98 128 162 203 251 303
#     4  10  21  37  57  80 108 145 187 229 270 312
#     4  10  20  34  55  84 115 145 177 215 263 319
#     4  10  20  33  49  68  91 123 164 209 257 312
#
# _framework density 19.753086
#
# number of rings (size 3 to 8) (size 9 to 14) (size 15 to 20)
#    0.000    2.429    0.000    3.429    0.000    8.571 
#    0.000    1.429    0.000    0.857    0.000    0.000 
#    0.000    0.000    0.000    0.000    0.000    0.000 
#
# Total GULP energy -312024.648175 kJ/mol
# GULP energy per Si atom -5571.868717 kJ/mol
# Density = 1.970813 g / cm^3
# Si number density = 19.753086 Si / 1000 Ang^3
#
#
#
# Elastic Constant Matrix: (Units=GPa)
#
#
# Indices 1 2 3 4 5 6 
#
# 1 34.2720 13.3576 25.5621 0.0000 0.0000 0.0000
# 2 13.3576 35.3109 20.1978 0.0000 0.0000 0.0000
# 3 25.5621 20.1978 80.4207 0.0000 0.0000 0.0000
# 4 0.0000 0.0000 0.0000 6.8653 0.0000 0.0000
# 5 0.0000 0.0000 0.0000 0.0000 14.3372 0.0000
# 6 0.0000 0.0000 0.0000 0.0000 0.0000 4.6306
#
#
#
# Elastic Compliance Matrix: (Units=1/GPa)
#
#
# Indices 1 2 3 4 5 6 
#
# 1 0.040724 -0.009343 -0.010598 0.000000 0.000000 0.000000
# 2 -0.009343 0.035215 -0.005874 0.000000 0.000000 0.000000
# 3 -0.010598 -0.005874 0.017279 0.000000 0.000000 0.000000
# 4 0.000000 0.000000 0.000000 0.145659 0.000000 0.000000
# 5 0.000000 0.000000 0.000000 0.000000 0.069749 0.000000
# 6 0.000000 0.000000 0.000000 0.000000 0.000000 0.215953
#
#
# Mechanical properties :
#
#
# Convention : Reuss Voigt Hill
#
# Bulk Modulus (GPa) = 24.04643 29.80428 26.92536
# Shear Modulus (GPa) = 8.47354 11.22571 9.84962
#
# Velocity S-wave (km/s) = 2.07341 2.38649 2.23544
# Velocity P-wave (km/s) = 4.23462 4.76602 4.50816
#
# Compressibility (1/GPa) = 0.04158621
#
# Stress axis : x y z
#
# Youngs Moduli (GPa) = 24.55529 28.39738 57.87534
#
# Poissons Ratio (x) = 0.26533 0.61335
# Poissons Ratio (y) = 0.22943 0.33998
# Poissons Ratio (z) = 0.26023 0.16682
#
# Static dielectric constant tensor:
#      x y z
#    x 1.703850 0.000000 0.000000 
#    y 0.000000 1.728450 0.000000 
#    z 0.000000 0.000000 1.697720 
# 
# From -- ./inp_files/21711.got.cif
#   From: 2010.05.17/outbox.ucp.g08.bks.cvg/sg51_11_cif.got.tgz:21711.got - 2010.06.11 16:27:58.
