data_PCOD9407888
_publ_section_title
;
Structure prediction by ZEFSAII (Michael W. Deem and Ramdas Pophale) SiO2 
 PCOD9407888
Probable space group: P N N A
;
_chemical_formula_sum "Si O2"
_cell_formula_units_Z 56
_cell_length_a 5.153926
_cell_length_b 14.357694
_cell_length_c 30.888343
_cell_angle_alpha 90.000000
_cell_angle_beta 90.000000
_cell_angle_gamma 90.000000
_cell_volume 2285.690815
_symmetry_space_group_name_H-M "P N N A"
_symmetry_group_IT_number 52
_symmetry_cell_setting 'orthorhombic'
loop_
_space_group_symop_operation_xyz
x,y,z
1/2-x,-y,z
x,1/2-y,1/2-z
1/2-x,1/2+y,1/2-z
-x,-y,-z
1/2+x,y,-z
-x,1/2+y,1/2+z
1/2+x,1/2-y,1/2+z
loop_
_atom_site_type_symbol
_atom_site_label
_atom_site_fract_x
_atom_site_fract_y
_atom_site_fract_z
Si Si1 0.289650 0.107567 0.387017
Si Si2 0.501505 0.434343 0.756870
Si Si3 0.735219 0.111897 0.122446
Si Si4 0.710817 0.887543 0.345865
Si Si5 0.904912 0.847230 0.023957
Si Si6 0.929122 0.875927 0.478472
Si Si7 0.767893 0.613125 0.670199
O O1 0.504132 0.150694 0.355194
O O2 0.425207 0.107472 0.433511
O O3 0.000888 0.146295 0.380820
O O4 0.250000 0.000000 0.375116
O O5 0.250000 0.500000 0.744615
O O6 0.407188 0.376560 0.798334
O O7 0.607678 0.372454 0.717385
O O8 0.750000 0.500000 0.768739
O O9 0.648709 0.135930 0.074166
O O10 0.518870 0.143629 0.157053
O O11 0.020820 0.145502 0.135323
O O12 0.750000 0.000000 0.124570
O O13 0.750000 0.000000 0.350017
O O14 0.909446 0.735668 0.017951
O O15 0.675519 0.884718 0.993749
O O16 0.134696 0.909861 0.514886
O O17 0.750000 0.500000 0.668566
#
# Coordination Sequence:
#
# PCOD9407888 Si02
#       7
#     8   8   8   8   8   8   8
#     4  10  19  31  48  72  99 124 157 200 243 285
#     4  10  16  26  44  68 101 134 159 188 234 282
#     4  10  19  31  48  72  99 124 157 200 243 285
#     4   9  17  28  44  70 100 128 157 193 236 284
#     4  10  21  36  52  70  93 124 163 202 242 294
#     4  10  21  36  52  70  93 124 163 202 242 294
#     4   9  17  28  44  70 100 128 157 193 236 284
#
# _framework density 24.500253000000001
#
# number of rings (size 3 to 8) (size 9 to 14) (size 15 to 20)
#    0.000    2.286    0.000    6.000    0.000    1.143 
#    0.000    0.000    0.000    0.000    0.000    6.000 
#    0.000    0.000    0.000    0.000    0.000    0.000 
#
# Total GULP energy -312931.443458 kJ/mol
# GULP energy per Si atom -5588.061490 kJ/mol
# Density = 2.444449 g / cm^3
# Si number density = 24.500253 Si / 1000 Ang^3
#
#
#
# Elastic Constant Matrix: (Units=GPa)
#
#
# Indices 1 2 3 4 5 6 
#
# 1 155.3929 11.9857 52.9901 0.0000 0.0000 0.0000
# 2 11.9857 51.7263 -11.4839 0.0000 0.0000 0.0000
# 3 52.9901 -11.4839 137.3620 0.0000 0.0000 0.0000
# 4 0.0000 0.0000 0.0000 72.6661 0.0000 0.0000
# 5 0.0000 0.0000 0.0000 0.0000 38.4599 0.0000
# 6 0.0000 0.0000 0.0000 0.0000 0.0000 -16.9171
#
#
#
# Elastic Compliance Matrix: (Units=1/GPa)
#
#
# Indices 1 2 3 4 5 6 
#
# 1 0.007714 -0.002494 -0.003184 0.000000 0.000000 0.000000
# 2 -0.002494 0.020505 0.002676 0.000000 0.000000 0.000000
# 3 -0.003184 0.002676 0.008732 0.000000 0.000000 0.000000
# 4 0.000000 0.000000 0.000000 0.013762 0.000000 0.000000
# 5 0.000000 0.000000 0.000000 0.000000 0.026001 0.000000
# 6 0.000000 0.000000 0.000000 0.000000 0.000000 -0.059112
#
#
# Mechanical properties :
#
#
# Convention : Reuss Voigt Hill
#
# Bulk Modulus (GPa) = 32.31392 50.16279 41.23835
# Shear Modulus (GPa) = 147.40229 38.24106 92.82167
#
# Velocity S-wave (km/s) = 7.76493 3.95504 6.16184
# Velocity P-wave (km/s) = 9.67523 6.43236 8.21539
#
# Compressibility (1/GPa) = 0.03094642
#
# Stress axis : x y z
#
# Youngs Moduli (GPa) = 129.64271 48.76936 114.51938
#
# Poissons Ratio (x) = 0.12164 0.36465
# Poissons Ratio (y) = 0.32336 -0.30651
# Poissons Ratio (z) = 0.41280 -0.13053
#
# Static dielectric constant tensor:
#      x y z
#    x 1.963850 0.000000 0.000000 
#    y 0.000000 1.965300 0.000000 
#    z 0.000000 0.000000 1.972950 
# 
# From -- ./inp_files/41838.got.cif
#   From: 2010.05.17/outbox.cif.g08.bks.cpg/sg52_21_cif.got.tgz:41838.got - 2010.06.03 12:15:38.
