data_PCOD9407470
_publ_section_title
;
Structure prediction by ZEFSAII (Michael W. Deem and Ramdas Pophale) SiO2 
 PCOD9407470
Probable space group: P M M A
;
_chemical_formula_sum "Si O2"
_cell_formula_units_Z 56
_cell_length_a 9.000000
_cell_length_b 21.000000
_cell_length_c 15.000000
_cell_angle_alpha 90.000000
_cell_angle_beta 90.000000
_cell_angle_gamma 90.000000
_cell_volume 2835.000000
_symmetry_space_group_name_H-M "P M M A"
_symmetry_group_IT_number 51
_symmetry_cell_setting 'orthorhombic'
loop_
_space_group_symop_operation_xyz
x,y,z
1/2-x,-y,z
1/2+x,-y,-z
-x,y,-z
-x,-y,-z
1/2+x,y,-z
1/2-x,y,z
x,-y,z
loop_
_atom_site_type_symbol
_atom_site_label
_atom_site_fract_x
_atom_site_fract_y
_atom_site_fract_z
Si Si1 0.929598 0.820038 0.222414
Si Si2 0.072988 0.068765 0.904586
Si Si3 0.917977 0.259588 0.910960
Si Si4 0.579476 0.184380 0.412497
Si Si5 0.071137 0.568682 0.281647
Si Si6 0.079251 0.337888 0.590025
Si Si7 0.418370 0.588248 0.086914
O O1 0.750000 0.815493 0.226198
O O2 0.978267 0.874630 0.156084
O O3 0.987390 0.836406 0.319481
O O4 0.994224 0.757459 0.178061
O O5 0.250000 0.073997 0.914710
O O6 0.040068 0.000000 0.863651
O O7 0.000000 0.071694 0.000000
O O8 0.750000 0.235045 0.908437
O O9 0.914325 0.335322 0.916322
O O10 0.000000 0.235341 0.000000
O O11 0.500000 0.161986 0.500000
O O12 0.750000 0.165213 0.417156
O O13 0.573124 0.261393 0.407285
O O14 0.250000 0.574455 0.279606
O O15 0.034324 0.500000 0.323452
O O16 0.014308 0.569094 0.180697
O O17 0.004882 0.628431 0.330914
O O18 0.250000 0.356891 0.590189
O O19 0.000000 0.358836 0.500000
O O20 0.250000 0.566554 0.085197
O O21 0.500000 0.566382 0.000000
#
# Coordination Sequence:
#
# PCOD9407470 Si02
#       7
#     8   8   8   8   8   8   8
#     4  10  19  31  49  73 100 128 162 203 243 284
#     4   9  18  32  49  70  99 135 170 202 237 278
#     4  10  19  30  46  70  99 128 158 194 240 292
#     4   9  19  34  52  75 100 126 157 197 243 291
#     4  10  21  36  52  71  96 125 159 199 240 284
#     4  10  20  35  55  76  98 124 155 193 241 294
#     4   9  19  34  50  69  95 127 160 196 239 286
#
# _framework density 19.753086
#
# number of rings (size 3 to 8) (size 9 to 14) (size 15 to 20)
#    0.000    2.429    0.000    2.143    0.000    4.857 
#    0.000    0.000    0.000    0.429    0.000    0.000 
#    0.000    0.000    0.000    0.000    0.000    0.000 
#
# Total GULP energy -311904.206633 kJ/mol
# GULP energy per Si atom -5569.717976 kJ/mol
# Density = 1.970813 g / cm^3
# Si number density = 19.753086 Si / 1000 Ang^3
#
#
#
# Elastic Constant Matrix: (Units=GPa)
#
#
# Indices 1 2 3 4 5 6 
#
# 1 11.8151 24.3766 19.5226 0.0000 0.0000 0.0000
# 2 24.3766 38.4312 29.0536 0.0000 0.0000 0.0000
# 3 19.5226 29.0536 90.2290 0.0000 0.0000 0.0000
# 4 0.0000 0.0000 0.0000 -50.0960 0.0000 0.0000
# 5 0.0000 0.0000 0.0000 0.0000 23.2612 0.0000
# 6 0.0000 0.0000 0.0000 0.0000 0.0000 0.7160
#
#
#
# Elastic Compliance Matrix: (Units=1/GPa)
#
#
# Indices 1 2 3 4 5 6 
#
# 1 -0.272906 0.169795 0.004374 0.000000 0.000000 0.000000
# 2 0.169795 -0.071249 -0.013796 0.000000 0.000000 0.000000
# 3 0.004374 -0.013796 0.014579 0.000000 0.000000 0.000000
# 4 0.000000 0.000000 0.000000 -0.019962 0.000000 0.000000
# 5 0.000000 0.000000 0.000000 0.000000 0.042990 0.000000
# 6 0.000000 0.000000 0.000000 0.000000 0.000000 1.396743
#
#
# Mechanical properties :
#
#
# Convention : Reuss Voigt Hill
#
# Bulk Modulus (GPa) = -113.24881 31.82009 -40.71436
# Shear Modulus (GPa) = 6.52311 -0.72228 2.90042
#
# Velocity S-wave (km/s) = 1.81920 -0.60535 1.21306
# Velocity P-wave (km/s) = 7.28313 3.95668 4.32370
#
# Compressibility (1/GPa) = -0.00883011
#
# Stress axis : x y z
#
# Youngs Moduli (GPa) = -3.66427 -14.03522 68.59311
#
# Poissons Ratio (x) = 2.38311 -0.30004
# Poissons Ratio (y) = 0.62217 0.94630
# Poissons Ratio (z) = 0.01603 -0.19363
#
# Static dielectric constant tensor:
#      x y z
#    x 1.668610 0.000000 0.000000 
#    y 0.000000 1.694130 0.000000 
#    z 0.000000 0.000000 1.714640 
# 
# From -- ./inp_files/21724.got.cif
#   From: 2010.05.17/outbox.ucp.g08.bks.cvg/sg51_11_cif.got.tgz:21724.got - 2010.06.11 16:27:58.
