data_PCOD9407996
_publ_section_title
;
Structure prediction by ZEFSAII (Michael W. Deem and Ramdas Pophale) SiO2 
 PCOD9407996
Probable space group: P N N A
;
_chemical_formula_sum "Si O2"
_cell_formula_units_Z 40
_cell_length_a 9.897966
_cell_length_b 16.569019
_cell_length_c 9.696058
_cell_angle_alpha 90.000000
_cell_angle_beta 90.000000
_cell_angle_gamma 90.000000
_cell_volume 1590.149505
_symmetry_space_group_name_H-M "P N N A"
_symmetry_group_IT_number 52
_symmetry_cell_setting 'orthorhombic'
loop_
_space_group_symop_operation_xyz
x,y,z
1/2-x,-y,z
x,1/2-y,1/2-z
1/2-x,1/2+y,1/2-z
-x,-y,-z
1/2+x,y,-z
-x,1/2+y,1/2+z
1/2+x,1/2-y,1/2+z
loop_
_atom_site_type_symbol
_atom_site_label
_atom_site_fract_x
_atom_site_fract_y
_atom_site_fract_z
Si Si1 0.756605 0.708072 0.599955
Si Si2 0.024653 0.614364 0.293894
Si Si3 0.566226 0.075302 0.802096
Si Si4 0.728106 0.911099 0.247246
Si Si5 0.260756 0.122194 0.445678
O O1 0.787776 0.750000 0.750000
O O2 0.604823 0.675062 0.608021
O O3 0.844999 0.627629 0.592647
O O4 0.774067 0.785981 0.508211
O O5 0.050777 0.519898 0.331839
O O6 0.103520 0.623278 0.147300
O O7 0.867545 0.633310 0.282248
O O8 0.645983 0.084800 0.655161
O O9 0.419232 0.116149 0.798130
O O10 0.715758 0.920759 0.411608
O O11 0.750000 0.000000 0.185176
#
# Coordination Sequence:
#
# PCOD9407996 Si02
#       5
#     8   8   8   8   8
#     4   8  16  29  41  57  87 122 152 171 202 265
#     4   9  16  27  43  62  86 115 145 178 215 259
#     4   9  16  27  43  62  86 115 145 178 215 259
#     4  10  18  26  43  70  93 112 138 179 226 262
#     4  10  17  27  40  61  92 118 146 174 210 267
#
# _framework density 25.154866999999999
#
# number of rings (size 3 to 8) (size 9 to 14) (size 15 to 20)
#    0.000    3.200    0.000    4.800    0.000    3.200 
#    0.000    9.000    0.000    0.000    0.000    0.000 
#    0.000  236.800    0.000    0.000    0.000    0.000 
#
# Total GULP energy -223385.184285 kJ/mol
# GULP energy per Si atom -5584.629607 kJ/mol
# Density = 2.509761 g / cm^3
# Si number density = 25.154867 Si / 1000 Ang^3
#
#
#
# Elastic Constant Matrix: (Units=GPa)
#
#
# Indices 1 2 3 4 5 6 
#
# 1 151.7627 -8.3677 2.1744 0.0000 0.0000 0.0000
# 2 -8.3677 107.6410 -1.3755 0.0000 0.0000 0.0000
# 3 2.1744 -1.3755 71.5015 0.0000 0.0000 0.0000
# 4 0.0000 0.0000 0.0000 14.4056 0.0000 0.0000
# 5 0.0000 0.0000 0.0000 0.0000 -7.8919 0.0000
# 6 0.0000 0.0000 0.0000 0.0000 0.0000 15.6519
#
#
#
# Elastic Compliance Matrix: (Units=1/GPa)
#
#
# Indices 1 2 3 4 5 6 
#
# 1 0.006620 0.000512 -0.000191 0.000000 0.000000 0.000000
# 2 0.000512 0.009332 0.000164 0.000000 0.000000 0.000000
# 3 -0.000191 0.000164 0.013995 0.000000 0.000000 0.000000
# 4 0.000000 0.000000 0.000000 0.069418 0.000000 0.000000
# 5 0.000000 0.000000 0.000000 0.000000 -0.126713 0.000000
# 6 0.000000 0.000000 0.000000 0.000000 0.000000 0.063890
#
#
# Mechanical properties :
#
#
# Convention : Reuss Voigt Hill
#
# Bulk Modulus (GPa) = 32.34540 35.08529 33.71535
# Shear Modulus (GPa) = 108.98476 26.99806 67.99141
#
# Velocity S-wave (km/s) = 6.58935 3.27964 5.20459
# Velocity P-wave (km/s) = 8.41304 5.32160 7.03912
#
# Compressibility (1/GPa) = 0.03091629
#
# Stress axis : x y z
#
# Youngs Moduli (GPa) = 151.05241 107.15761 71.45563
#
# Poissons Ratio (x) = -0.05489 0.01368
# Poissons Ratio (y) = -0.07737 -0.01171
# Poissons Ratio (z) = 0.02892 -0.01757
#
# Static dielectric constant tensor:
#      x y z
#    x 1.977850 0.000000 0.000000 
#    y 0.000000 2.068440 0.000000 
#    z 0.000000 0.000000 2.055830 
# 
# From -- ./inp_files/25940.got.cif
#   From: 2010.05.17/outbox.cif.g08.bks.cpg/sg52_13_cif.got.tgz:25940.got - 2010.06.03 12:15:38.
