data_PCOD9407153
_publ_section_title
;
Structure prediction by ZEFSAII (Michael W. Deem and Ramdas Pophale) SiO2 
 PCOD9407153
Probable space group: P M M A
;
_chemical_formula_sum "Si O2"
_cell_formula_units_Z 40
_cell_length_a 9.209350
_cell_length_b 14.701641
_cell_length_c 15.472772
_cell_angle_alpha 90.000000
_cell_angle_beta 90.000000
_cell_angle_gamma 90.000000
_cell_volume 2094.898173
_symmetry_space_group_name_H-M "P M M A"
_symmetry_group_IT_number 51
_symmetry_cell_setting 'orthorhombic'
loop_
_space_group_symop_operation_xyz
x,y,z
1/2-x,-y,z
1/2+x,-y,-z
-x,y,-z
-x,-y,-z
1/2+x,y,-z
1/2-x,y,z
x,-y,z
loop_
_atom_site_type_symbol
_atom_site_label
_atom_site_fract_x
_atom_site_fract_y
_atom_site_fract_z
Si Si1 0.926678 0.103868 0.274364
Si Si2 0.082850 0.610933 0.084938
Si Si3 0.075503 0.260054 0.592718
Si Si4 0.915957 0.111130 0.085215
Si Si5 0.922364 0.391036 0.723200
O O1 0.750000 0.102721 0.268638
O O2 0.965279 0.170703 0.351490
O O3 0.978303 0.135976 0.179395
O O4 0.974282 0.000000 0.289007
O O5 0.250000 0.638946 0.079322
O O6 0.080234 0.500000 0.083983
O O7 0.026868 0.636843 0.180059
O O8 0.000000 0.642621 0.000000
O O9 0.250000 0.264235 0.584502
O O10 0.000000 0.258994 0.500000
O O11 0.014814 0.342726 0.649953
O O12 0.750000 0.142405 0.079379
O O13 0.914429 0.000000 0.085819
O O14 0.000000 0.140233 0.000000
O O15 0.750000 0.369163 0.715554
O O16 0.934663 0.500000 0.716859
#
# Coordination Sequence:
#
# PCOD9407153 Si02
#       5
#     8   8   8   8   8
#     4   8  16  33  55  77 104 139 174 208 253 310
#     4   8  14  26  47  75 105 137 171 207 249 298
#     4  11  23  38  57  79 103 133 173 222 272 320
#     4   8  13  24  45  72 101 133 168 204 243 292
#     4   9  19  37  58  79 107 142 177 215 260 309
#
# _framework density 19.094007000000001
#
# number of rings (size 3 to 8) (size 9 to 14) (size 15 to 20)
#    0.000    3.200    0.000    3.000    0.000    2.000 
#    0.000    5.000    0.000    9.000    0.000    0.000 
#    0.000    0.000    0.000    0.000    0.000    0.000 
#
# Total GULP energy -223004.253227 kJ/mol
# GULP energy per Si atom -5575.106331 kJ/mol
# Density = 1.905055 g / cm^3
# Si number density = 19.094007 Si / 1000 Ang^3
#
#
#
# Elastic Constant Matrix: (Units=GPa)
#
#
# Indices 1 2 3 4 5 6 
#
# 1 52.9204 28.3431 79.0839 0.0000 0.0000 0.0000
# 2 28.3431 60.0262 54.0172 0.0000 0.0000 0.0000
# 3 79.0839 54.0172 225.4736 0.0000 0.0000 0.0000
# 4 0.0000 0.0000 0.0000 37.2144 0.0000 0.0000
# 5 0.0000 0.0000 0.0000 0.0000 32.7007 0.0000
# 6 0.0000 0.0000 0.0000 0.0000 0.0000 9.3420
#
#
#
# Elastic Compliance Matrix: (Units=1/GPa)
#
#
# Indices 1 2 3 4 5 6 
#
# 1 0.042906 -0.008563 -0.012998 0.000000 0.000000 0.000000
# 2 -0.008563 0.022947 -0.002494 0.000000 0.000000 0.000000
# 3 -0.012998 -0.002494 0.009592 0.000000 0.000000 0.000000
# 4 0.000000 0.000000 0.000000 0.026871 0.000000 0.000000
# 5 0.000000 0.000000 0.000000 0.000000 0.030580 0.000000
# 6 0.000000 0.000000 0.000000 0.000000 0.000000 0.107043
#
#
# Mechanical properties :
#
#
# Convention : Reuss Voigt Hill
#
# Bulk Modulus (GPa) = 36.58262 73.47871 55.03066
# Shear Modulus (GPa) = 16.82595 27.64983 22.23789
#
# Velocity S-wave (km/s) = 2.97175 3.80951 3.41640
# Velocity P-wave (km/s) = 5.56560 7.61025 6.66678
#
# Compressibility (1/GPa) = 0.02733539
#
# Stress axis : x y z
#
# Youngs Moduli (GPa) = 23.30676 43.57877 104.25880
#
# Poissons Ratio (x) = 0.37315 1.35512
# Poissons Ratio (y) = 0.19957 0.26003
# Poissons Ratio (z) = 0.30293 0.10869
#
# Static dielectric constant tensor:
#      x y z
#    x 1.648960 0.000000 0.000000 
#    y 0.000000 1.705280 0.000000 
#    z 0.000000 0.000000 1.662730 
# 
# From -- ./inp_files/20507.got.cif
#   From: 2010.05.17/outbox.cif.g08.bks.cpg/sg51_11_cif.got.tgz:20507.got - 2010.06.03 11:52:47.
