data_PCOD9407229
_publ_section_title
;
Structure prediction by ZEFSAII (Michael W. Deem and Ramdas Pophale) SiO2 
 PCOD9407229
Probable space group: P M M A
;
_chemical_formula_sum "Si O2"
_cell_formula_units_Z 28
_cell_length_a 9.353132
_cell_length_b 7.267908
_cell_length_c 20.437239
_cell_angle_alpha 90.000000
_cell_angle_beta 90.000000
_cell_angle_gamma 90.000000
_cell_volume 1389.276561
_symmetry_space_group_name_H-M "P M M A"
_symmetry_group_IT_number 51
_symmetry_cell_setting 'orthorhombic'
loop_
_space_group_symop_operation_xyz
x,y,z
1/2-x,-y,z
1/2+x,-y,-z
-x,y,-z
-x,-y,-z
1/2+x,y,-z
1/2-x,y,z
x,-y,z
loop_
_atom_site_type_symbol
_atom_site_label
_atom_site_fract_x
_atom_site_fract_y
_atom_site_fract_z
Si Si1 0.418957 0.279747 0.160651
Si Si2 0.078368 0.000000 0.930248
Si Si3 0.086450 0.275532 0.564078
Si Si4 0.413521 0.276500 0.309562
O O1 0.250000 0.237005 0.149735
O O2 0.434130 0.500000 0.155167
O O3 0.519601 0.174130 0.110673
O O4 0.453433 0.224234 0.235629
O O5 0.250000 0.000000 0.936285
O O6 0.000000 0.000000 0.000000
O O7 0.250000 0.218074 0.560160
O O8 0.084152 0.500000 0.564362
O O9 0.000000 0.217327 0.500000
O O10 0.013537 0.215352 0.631586
O O11 0.250000 0.219649 0.321618
O O12 0.414097 0.500000 0.309792
#
# Coordination Sequence:
#
# PCOD9407229 Si02
#       4
#     8   4   8   8
#     4   9  19  38  63  88 116 151 190 234 284 338
#     4  12  26  42  62  88 119 152 187 230 278 336
#     4   9  15  21  32  55  91 134 178 225 273 320
#     4   8  14  26  45  69  98 134 176 222 273 327
#
# _framework density 20.154374000000001
#
# number of rings (size 3 to 8) (size 9 to 14) (size 15 to 20)
#    0.000    2.857    0.000    3.857    0.000    5.714 
#    0.000    2.857    0.000    0.000    0.000    1.000 
#    0.000    0.000    0.000    0.000    0.000    0.000 
#
# Total GULP energy -156390.741490 kJ/mol
# GULP energy per Si atom -5585.383625 kJ/mol
# Density = 2.010850 g / cm^3
# Si number density = 20.154374 Si / 1000 Ang^3
#
#
#
# Elastic Constant Matrix: (Units=GPa)
#
#
# Indices 1 2 3 4 5 6 
#
# 1 177.8571 38.8340 147.4521 0.0000 0.0000 0.0000
# 2 38.8340 95.9266 38.6163 0.0000 0.0000 0.0000
# 3 147.4521 38.6163 198.0569 0.0000 0.0000 0.0000
# 4 0.0000 0.0000 0.0000 50.6183 0.0000 0.0000
# 5 0.0000 0.0000 0.0000 0.0000 41.9905 0.0000
# 6 0.0000 0.0000 0.0000 0.0000 0.0000 9.0220
#
#
#
# Elastic Compliance Matrix: (Units=1/GPa)
#
#
# Indices 1 2 3 4 5 6 
#
# 1 0.014941 -0.001704 -0.010791 0.000000 0.000000 0.000000
# 2 -0.001704 0.011507 -0.000975 0.000000 0.000000 0.000000
# 3 -0.010791 -0.000975 0.013273 0.000000 0.000000 0.000000
# 4 0.000000 0.000000 0.000000 0.019756 0.000000 0.000000
# 5 0.000000 0.000000 0.000000 0.000000 0.023815 0.000000
# 6 0.000000 0.000000 0.000000 0.000000 0.000000 0.110840
#
#
# Mechanical properties :
#
#
# Convention : Reuss Voigt Hill
#
# Bulk Modulus (GPa) = 78.24391 102.40505 90.32448
# Shear Modulus (GPa) = 22.18941 36.78870 29.48905
#
# Velocity S-wave (km/s) = 3.32169 4.27704 3.82928
# Velocity P-wave (km/s) = 7.32244 8.67822 8.02899
#
# Compressibility (1/GPa) = 0.01278055
#
# Stress axis : x y z
#
# Youngs Moduli (GPa) = 66.92948 86.90358 75.34052
#
# Poissons Ratio (x) = 0.14813 0.81302
# Poissons Ratio (y) = 0.11408 0.07343
# Poissons Ratio (z) = 0.72225 0.08470
#
# Static dielectric constant tensor:
#      x y z
#    x 1.663900 0.000000 0.000000 
#    y 0.000000 1.824810 0.000000 
#    z 0.000000 0.000000 1.679740 
# 
# From -- ./inp_files/26854.got.cif
#   From: 2010.05.17/outbox.cif.g08.bks.cpg/sg51_14_cif.got.tgz:26854.got - 2010.06.03 11:52:47.
