data_PCOD9407501
_publ_section_title
;
Structure prediction by ZEFSAII (Michael W. Deem and Ramdas Pophale) SiO2 
 PCOD9407501
Probable space group: P M M A
;
_chemical_formula_sum "Si O2"
_cell_formula_units_Z 56
_cell_length_a 21.000000
_cell_length_b 9.000000
_cell_length_c 15.000000
_cell_angle_alpha 90.000000
_cell_angle_beta 90.000000
_cell_angle_gamma 90.000000
_cell_volume 2835.000000
_symmetry_space_group_name_H-M "P M M A"
_symmetry_group_IT_number 51
_symmetry_cell_setting 'orthorhombic'
loop_
_space_group_symop_operation_xyz
x,y,z
1/2-x,-y,z
1/2+x,-y,-z
-x,y,-z
-x,-y,-z
1/2+x,y,-z
1/2-x,y,z
x,-y,z
loop_
_atom_site_type_symbol
_atom_site_label
_atom_site_fract_x
_atom_site_fract_y
_atom_site_fract_z
Si Si1 0.180746 0.323454 0.001715
Si Si2 0.444403 0.173483 0.937480
Si Si3 0.571508 0.673362 0.491381
Si Si4 0.558969 0.672460 0.235230
Si Si5 0.820968 0.826128 0.806552
Si Si6 0.075995 0.666144 0.306525
Si Si7 0.676412 0.679911 0.353185
O O1 0.250000 0.277359 0.965628
O O2 0.176825 0.500000 0.998331
O O3 0.176904 0.267767 0.103048
O O4 0.122004 0.252987 0.952148
O O5 0.462849 0.211315 0.837886
O O6 0.437364 0.000000 0.955139
O O7 0.500000 0.234350 0.000000
O O8 0.500000 0.739996 0.500000
O O9 0.562619 0.500000 0.461707
O O10 0.596662 0.670986 0.591659
O O11 0.628476 0.736443 0.430803
O O12 0.558992 0.500000 0.204062
O O13 0.500856 0.683700 0.305205
O O14 0.630187 0.706172 0.268585
O O15 0.750000 0.800748 0.765763
O O16 0.880783 0.778957 0.747681
O O17 0.825241 0.000000 0.828993
O O18 0.087942 0.500000 0.269633
O O19 0.750000 0.733745 0.350787
O O20 0.680601 0.500000 0.362282
#
# Coordination Sequence:
#
# PCOD9407501 Si02
#       7
#     8   8   8   8   8   8   8
#     4  10  21  38  60  83 107 139 182 231 281 335
#     4  11  24  39  56  81 113 148 187 230 277 335
#     4   9  15  28  50  77 111 145 179 224 278 329
#     4  10  20  34  53  79 110 145 184 232 282 327
#     4  10  21  36  53  76 110 147 179 220 275 332
#     4  10  19  31  54  82 109 143 183 229 278 327
#     4   9  17  30  50  78 111 146 185 230 279 329
#
# _framework density 19.753086
#
# number of rings (size 3 to 8) (size 9 to 14) (size 15 to 20)
#    0.000    2.143    1.429    2.143    0.000    6.857 
#    0.000    2.857    0.000    1.286    0.000    0.000 
#    0.000    0.000    0.000    0.000    0.000    0.000 
#
# Total GULP energy -311740.790320 kJ/mol
# GULP energy per Si atom -5566.799827 kJ/mol
# Density = 1.970813 g / cm^3
# Si number density = 19.753086 Si / 1000 Ang^3
#
#
#
# Elastic Constant Matrix: (Units=GPa)
#
#
# Indices 1 2 3 4 5 6 
#
# 1 95.5507 21.2419 29.2945 0.0000 0.0000 0.0000
# 2 21.2419 16.0538 8.5923 0.0000 0.0000 0.0000
# 3 29.2945 8.5923 41.5622 0.0000 0.0000 0.0000
# 4 0.0000 0.0000 0.0000 245.6058 0.0000 0.0000
# 5 0.0000 0.0000 0.0000 0.0000 25.3786 0.0000
# 6 0.0000 0.0000 0.0000 0.0000 0.0000 22.8035
#
#
#
# Elastic Compliance Matrix: (Units=1/GPa)
#
#
# Indices 1 2 3 4 5 6 
#
# 1 0.017021 -0.018104 -0.008254 0.000000 0.000000 0.000000
# 2 -0.018104 0.089296 -0.005700 0.000000 0.000000 0.000000
# 3 -0.008254 -0.005700 0.031057 0.000000 0.000000 0.000000
# 4 0.000000 0.000000 0.000000 0.004072 0.000000 0.000000
# 5 0.000000 0.000000 0.000000 0.000000 0.039403 0.000000
# 6 0.000000 0.000000 0.000000 0.000000 0.000000 0.043853
#
#
# Mechanical properties :
#
#
# Convention : Reuss Voigt Hill
#
# Bulk Modulus (GPa) = 13.65059 30.15823 21.90441
# Shear Modulus (GPa) = 15.96232 65.02677 40.49455
#
# Velocity S-wave (km/s) = 2.84578 5.74380 4.53264
# Velocity P-wave (km/s) = 4.20994 7.69994 6.20535
#
# Compressibility (1/GPa) = 0.07325692
#
# Stress axis : x y z
#
# Youngs Moduli (GPa) = 58.75097 11.19868 32.19916
#
# Poissons Ratio (x) = 0.20274 0.26578
# Poissons Ratio (y) = 1.06362 0.18355
# Poissons Ratio (z) = 0.48495 0.06384
#
# Static dielectric constant tensor:
#      x y z
#    x 1.715290 0.000000 0.000000 
#    y 0.000000 1.673920 0.000000 
#    z 0.000000 0.000000 1.841740 
# 
# From -- ./inp_files/25699.got.cif
#   From: 2010.05.17/outbox.ucp.g08.bks.cvg/sg51_13_cif.got.tgz:25699.got - 2010.06.11 16:27:58.
