data_PCOD9407531
_publ_section_title
;
Structure prediction by ZEFSAII (Michael W. Deem and Ramdas Pophale) SiO2 
 PCOD9407531
Probable space group: P M M A
;
_chemical_formula_sum "Si O2"
_cell_formula_units_Z 64
_cell_length_a 18.000000
_cell_length_b 9.000000
_cell_length_c 21.000000
_cell_angle_alpha 90.000000
_cell_angle_beta 90.000000
_cell_angle_gamma 90.000000
_cell_volume 3402.000000
_symmetry_space_group_name_H-M "P M M A"
_symmetry_group_IT_number 51
_symmetry_cell_setting 'orthorhombic'
loop_
_space_group_symop_operation_xyz
x,y,z
1/2-x,-y,z
1/2+x,-y,-z
-x,y,-z
-x,-y,-z
1/2+x,y,-z
1/2-x,y,z
x,-y,z
loop_
_atom_site_type_symbol
_atom_site_label
_atom_site_fract_x
_atom_site_fract_y
_atom_site_fract_z
Si Si1 0.833933 0.672834 0.059909
Si Si2 0.587881 0.826319 0.433428
Si Si3 0.512716 0.332467 0.137004
Si Si4 0.837715 0.831223 0.569464
Si Si5 0.923907 0.834763 0.959004
Si Si6 0.039946 0.170156 0.744978
Si Si7 0.460360 0.327801 0.369007
Si Si8 0.664528 0.327186 0.316222
O O1 0.750000 0.702840 0.084384
O O2 0.834831 0.500000 0.038957
O O3 0.904624 0.684687 0.107222
O O4 0.856342 0.782714 0.003086
O O5 0.631422 0.807878 0.498608
O O6 0.514213 0.728232 0.425729
O O7 0.640523 0.771999 0.376218
O O8 0.568307 0.000000 0.426745
O O9 0.506801 0.500000 0.162369
O O10 0.447523 0.297952 0.087519
O O11 0.503576 0.205162 0.188669
O O12 0.750000 0.820225 0.569617
O O13 0.877228 0.712531 0.613533
O O14 0.859144 0.000000 0.588513
O O15 0.910620 0.000000 0.931981
O O16 0.000000 0.846946 0.000000
O O17 0.113003 0.271827 0.740336
O O18 0.987411 0.229408 0.689565
O O19 0.058991 0.000000 0.735826
O O20 0.471620 0.500000 0.356691
O O21 0.750000 0.308835 0.301431
O O22 0.650301 0.500000 0.330857
#
# Coordination Sequence:
#
# PCOD9407531 Si02
#       8
#     8   8   8   8   8   8   8   8
#     4   9  18  32  51  77 109 142 171 203 249 300
#     4  10  19  33  54  77 102 134 171 208 252 309
#     4  10  19  33  53  76 103 136 175 215 253 298
#     4  10  21  36  54  77 104 133 166 208 260 315
#     4   9  17  30  49  74 103 135 171 208 245 287
#     4  11  22  36  54  74  99 134 176 217 256 302
#     4  11  22  36  54  76 103 135 172 214 259 307
#     4  10  20  33  49  71 102 137 171 210 256 305
#
# _framework density 18.812463000000001
#
# number of rings (size 3 to 8) (size 9 to 14) (size 15 to 20)
#    0.000    2.000    0.000    6.000    0.000    7.000 
#    0.000    1.250    0.000    0.750    0.000    0.000 
#    0.000    0.000    0.000    0.000    0.000    0.000 
#
# Total GULP energy -356547.293597 kJ/mol
# GULP energy per Si atom -5571.051462 kJ/mol
# Density = 1.876965 g / cm^3
# Si number density = 18.812463 Si / 1000 Ang^3
#
#
#
# Elastic Constant Matrix: (Units=GPa)
#
#
# Indices 1 2 3 4 5 6 
#
# 1 22.4368 18.3390 17.0146 0.0000 0.0000 0.0000
# 2 18.3390 25.1529 10.1736 0.0000 0.0000 0.0000
# 3 17.0146 10.1736 24.7136 0.0000 0.0000 0.0000
# 4 0.0000 0.0000 0.0000 24.7252 0.0000 0.0000
# 5 0.0000 0.0000 0.0000 0.0000 3.8413 0.0000
# 6 0.0000 0.0000 0.0000 0.0000 0.0000 22.0049
#
#
#
# Elastic Compliance Matrix: (Units=1/GPa)
#
#
# Indices 1 2 3 4 5 6 
#
# 1 0.217649 -0.117673 -0.101404 0.000000 0.000000 0.000000
# 2 -0.117673 0.111320 0.035189 0.000000 0.000000 0.000000
# 3 -0.101404 0.035189 0.095791 0.000000 0.000000 0.000000
# 4 0.000000 0.000000 0.000000 0.040445 0.000000 0.000000
# 5 0.000000 0.000000 0.000000 0.000000 0.260328 0.000000
# 6 0.000000 0.000000 0.000000 0.000000 0.000000 0.045444
#
#
# Mechanical properties :
#
#
# Convention : Reuss Voigt Hill
#
# Bulk Modulus (GPa) = 17.54891 18.15085 17.84988
# Shear Modulus (GPa) = 4.31872 11.89935 8.10904
#
# Velocity S-wave (km/s) = 1.51679 2.51773 2.07842
# Velocity P-wave (km/s) = 3.52365 4.25690 3.90752
#
# Compressibility (1/GPa) = 0.05698361
#
# Stress axis : x y z
#
# Youngs Moduli (GPa) = 4.59455 8.98312 10.43936
#
# Poissons Ratio (x) = 1.05707 1.05859
# Poissons Ratio (y) = 0.54066 -0.36735
# Poissons Ratio (z) = 0.46590 -0.31610
#
# Static dielectric constant tensor:
#      x y z
#    x 1.411800 0.000000 0.000000 
#    y 0.000000 1.654660 0.000000 
#    z 0.000000 0.000000 1.713740 
# 
# From -- ./inp_files/33928.got.cif
#   From: 2010.05.17/outbox.ucp.g08.bks.cvg/sg51_17_cif.got.tgz:33928.got - 2010.06.11 16:27:58.
