data_PCOD9407958
_publ_section_title
;
Structure prediction by ZEFSAII (Michael W. Deem and Ramdas Pophale) SiO2 
 PCOD9407958
Probable space group: P N N A
;
_chemical_formula_sum "Si O2"
_cell_formula_units_Z 56
_cell_length_a 5.465650
_cell_length_b 31.348059
_cell_length_c 13.116322
_cell_angle_alpha 90.000000
_cell_angle_beta 90.000000
_cell_angle_gamma 90.000000
_cell_volume 2247.318066
_symmetry_space_group_name_H-M "P N N A"
_symmetry_group_IT_number 52
_symmetry_cell_setting 'orthorhombic'
loop_
_space_group_symop_operation_xyz
x,y,z
1/2-x,-y,z
x,1/2-y,1/2-z
1/2-x,1/2+y,1/2-z
-x,-y,-z
1/2+x,y,-z
-x,1/2+y,1/2+z
1/2+x,1/2-y,1/2+z
loop_
_atom_site_type_symbol
_atom_site_label
_atom_site_fract_x
_atom_site_fract_y
_atom_site_fract_z
Si Si1 0.427947 0.130071 0.902449
Si Si2 0.750000 0.000000 0.248970
Si Si3 0.425441 0.163401 0.131223
Si Si4 0.250000 0.500000 0.062666
Si Si5 0.454606 0.350144 0.065678
Si Si6 0.417755 0.069772 0.295452
Si Si7 0.357018 0.958836 0.102107
Si Si8 0.547560 0.753289 0.566485
O O1 0.174294 0.137712 0.844062
O O2 0.485362 0.081247 0.938208
O O3 0.655458 0.147832 0.837325
O O4 0.407934 0.155746 0.007844
O O5 0.662572 0.041783 0.307287
O O6 0.966158 0.016519 0.178654
O O7 0.458239 0.213810 0.144076
O O8 0.237459 0.458382 0.134489
O O9 0.500000 0.500000 0.000000
O O10 0.439187 0.384584 0.154670
O O11 0.453310 0.301637 0.106720
O O12 0.210118 0.355477 0.996139
O O13 0.337598 0.064369 0.177478
O O14 0.250000 0.000000 0.040616
O O15 0.801805 0.749285 0.502661
#
# Coordination Sequence:
#
# PCOD9407958 Si02
#       8
#     8   4   8   4   8   8   8   8
#     4  10  20  34  60  88 112 149 192 235 286 345
#     4  10  21  40  60  72 111 158 204 238 272 341
#     4  10  18  35  59  90 117 139 192 243 287 344
#     4  12  23  34  58  80 111 142 192 242 284 323
#     4  10  23  35  57  88 119 147 189 239 299 342
#     4  11  22  39  54  83 113 157 195 242 284 347
#     4  10  23  39  58  80 112 162 201 236 286 351
#     4  10  16  33  55  87 116 148 176 231 292 344
#
# _framework density 24.918593999999999
#
# number of rings (size 3 to 8) (size 9 to 14) (size 15 to 20)
#    0.000    1.714    5.000    1.286    6.000    0.000 
#    0.000    2.857    0.000    0.857    0.000    0.000 
#    0.000    0.000    0.000    0.000    0.000    0.000 
#
# Total GULP energy -312836.091875 kJ/mol
# GULP energy per Si atom -5586.358783 kJ/mol
# Density = 2.486188 g / cm^3
# Si number density = 24.918594 Si / 1000 Ang^3
#
#
#
# Elastic Constant Matrix: (Units=GPa)
#
#
# Indices 1 2 3 4 5 6 
#
# 1 197.8985 45.9308 30.2002 0.0000 0.0000 0.0000
# 2 45.9308 202.4374 28.6289 0.0000 0.0000 0.0000
# 3 30.2002 28.6289 68.7541 0.0000 0.0000 0.0000
# 4 0.0000 0.0000 0.0000 21.2099 0.0000 0.0000
# 5 0.0000 0.0000 0.0000 0.0000 30.7182 0.0000
# 6 0.0000 0.0000 0.0000 0.0000 0.0000 39.5224
#
#
#
# Elastic Compliance Matrix: (Units=1/GPa)
#
#
# Indices 1 2 3 4 5 6 
#
# 1 0.005593 -0.000979 -0.002049 0.000000 0.000000 0.000000
# 2 -0.000979 0.005420 -0.001827 0.000000 0.000000 0.000000
# 3 -0.002049 -0.001827 0.016205 0.000000 0.000000 0.000000
# 4 0.000000 0.000000 0.000000 0.047148 0.000000 0.000000
# 5 0.000000 0.000000 0.000000 0.000000 0.032554 0.000000
# 6 0.000000 0.000000 0.000000 0.000000 0.000000 0.025302
#
#
# Mechanical properties :
#
#
# Convention : Reuss Voigt Hill
#
# Bulk Modulus (GPa) = 57.11515 75.40108 66.25812
# Shear Modulus (GPa) = 33.83658 42.57876 38.20767
#
# Velocity S-wave (km/s) = 3.68895 4.13814 3.91999
# Velocity P-wave (km/s) = 6.41209 7.29088 6.86556
#
# Compressibility (1/GPa) = 0.01750849
#
# Stress axis : x y z
#
# Youngs Moduli (GPa) = 178.79326 184.49049 61.70818
#
# Poissons Ratio (x) = 0.18066 0.12644
# Poissons Ratio (y) = 0.17508 0.11273
# Poissons Ratio (z) = 0.36635 0.33704
#
# Static dielectric constant tensor:
#      x y z
#    x 1.961490 0.000000 0.000000 
#    y 0.000000 2.040970 0.000000 
#    z 0.000000 0.000000 2.034740 
# 
# From -- ./inp_files/23784.got.cif
#   From: 2010.05.17/outbox.cif.g08.bks.cpg/sg52_12_cif.got.tgz:23784.got - 2010.06.03 12:15:38.
