data_PCOD9407801
_publ_section_title
;
Structure prediction by ZEFSAII (Michael W. Deem and Ramdas Pophale) SiO2 
 PCOD9407801
Probable space group: P M M A
;
_chemical_formula_sum "Si O2"
_cell_formula_units_Z 48
_cell_length_a 15.000000
_cell_length_b 9.000000
_cell_length_c 18.000000
_cell_angle_alpha 90.000000
_cell_angle_beta 90.000000
_cell_angle_gamma 90.000000
_cell_volume 2430.000000
_symmetry_space_group_name_H-M "P M M A"
_symmetry_group_IT_number 51
_symmetry_cell_setting 'orthorhombic'
loop_
_space_group_symop_operation_xyz
x,y,z
1/2-x,-y,z
1/2+x,-y,-z
-x,y,-z
-x,-y,-z
1/2+x,y,-z
1/2-x,y,z
x,-y,z
loop_
_atom_site_type_symbol
_atom_site_label
_atom_site_fract_x
_atom_site_fract_y
_atom_site_fract_z
Si Si1 0.088738 0.672664 0.187704
Si Si2 0.148025 0.825448 0.471365
Si Si3 0.650108 0.323164 0.369121
Si Si4 0.937318 0.673949 0.068621
Si Si5 0.750000 0.832949 0.888527
Si Si6 0.750000 0.166629 0.065658
Si Si7 0.028575 0.823129 0.332284
O O1 0.107148 0.500000 0.200658
O O2 0.164275 0.744421 0.137643
O O3 0.083967 0.758767 0.264494
O O4 0.997074 0.685084 0.142109
O O5 0.250000 0.813562 0.442694
O O6 0.141955 0.728848 0.545339
O O7 0.076862 0.781526 0.409458
O O8 0.133358 0.000000 0.490745
O O9 0.750000 0.281195 0.344026
O O10 0.641222 0.500000 0.363584
O O11 0.569897 0.243907 0.327734
O O12 0.919767 0.500000 0.051776
O O13 0.843115 0.752265 0.082285
O O14 0.000000 0.730879 0.000000
O O15 0.750000 0.000000 0.857426
O O16 0.750000 0.842012 0.976537
O O17 0.750000 0.000000 0.097021
O O18 0.025328 0.000000 0.329420
#
# Coordination Sequence:
#
# PCOD9407801 Si02
#       7
#     8   8   8   8   4   4   8
#     4  11  24  41  62  89 120 159 201 244 292 352
#     4   9  19  36  58  85 117 153 191 234 290 355
#     4  10  21  38  60  85 114 151 198 249 294 344
#     4  10  21  40  64  88 119 158 201 244 293 353
#     4  11  23  39  61  91 125 158 189 238 299 355
#     4  11  23  37  63  95 121 152 195 248 299 349
#     4  11  23  38  59  86 119 158 194 239 299 357
#
# _framework density 19.753086
#
# number of rings (size 3 to 8) (size 9 to 14) (size 15 to 20)
#    0.000    1.667    1.667    2.500    1.167    6.667 
#    1.500    0.000    0.000    0.000    0.000    0.000 
#    0.000    0.000    0.000    0.000    0.000    0.000 
#
# Total GULP energy -268067.117792 kJ/mol
# GULP energy per Si atom -5584.731621 kJ/mol
# Density = 1.970813 g / cm^3
# Si number density = 19.753086 Si / 1000 Ang^3
#
#
#
# Elastic Constant Matrix: (Units=GPa)
#
#
# Indices 1 2 3 4 5 6 
#
# 1 94.7249 47.7856 -12.2453 0.0000 0.0000 0.0000
# 2 47.7856 41.7800 0.7292 0.0000 0.0000 0.0000
# 3 -12.2453 0.7292 5.6964 0.0000 0.0000 0.0000
# 4 0.0000 0.0000 0.0000 27.2403 0.0000 0.0000
# 5 0.0000 0.0000 0.0000 0.0000 56.6958 0.0000
# 6 0.0000 0.0000 0.0000 0.0000 0.0000 44.9071
#
#
#
# Elastic Compliance Matrix: (Units=1/GPa)
#
#
# Indices 1 2 3 4 5 6 
#
# 1 0.100276 -0.118718 0.230756 0.000000 0.000000 0.000000
# 2 -0.118718 0.164539 -0.276263 0.000000 0.000000 0.000000
# 3 0.230756 -0.276263 0.706955 0.000000 0.000000 0.000000
# 4 0.000000 0.000000 0.000000 0.036710 0.000000 0.000000
# 5 0.000000 0.000000 0.000000 0.000000 0.017638 0.000000
# 6 0.000000 0.000000 0.000000 0.000000 0.000000 0.022268
#
#
# Mechanical properties :
#
#
# Convention : Reuss Voigt Hill
#
# Bulk Modulus (GPa) = 1.55444 23.86003 12.70723
# Shear Modulus (GPa) = 3.14213 32.83075 17.98644
#
# Velocity S-wave (km/s) = 1.26260 4.08126 3.02083
# Velocity P-wave (km/s) = 1.70710 5.85783 4.31442
#
# Compressibility (1/GPa) = 0.64332038
#
# Stress axis : x y z
#
# Youngs Moduli (GPa) = 9.97243 6.07759 1.41452
#
# Poissons Ratio (x) = 0.72152 -0.32641
# Poissons Ratio (y) = 1.18390 0.39078
# Poissons Ratio (z) = -2.30119 1.67901
#
# Static dielectric constant tensor:
#      x y z
#    x 1.685610 0.000000 0.000000 
#    y 0.000000 1.677720 0.000000 
#    z 0.000000 0.000000 1.684830 
# 
# From -- ./inp_files/29654.got.cif
#   From: 2010.05.17/outbox.ucp.g08.bks.cvg/sg51_15_cif.got.tgz:29654.got - 2010.06.11 16:27:58.
