data_PCOD9407372
_publ_section_title
;
Structure prediction by ZEFSAII (Michael W. Deem and Ramdas Pophale) SiO2 
 PCOD9407372
Probable space group: P M M A
;
_chemical_formula_sum "Si O2"
_cell_formula_units_Z 40
_cell_length_a 20.577317
_cell_length_b 7.462719
_cell_length_c 15.073548
_cell_angle_alpha 90.000000
_cell_angle_beta 90.000000
_cell_angle_gamma 90.000000
_cell_volume 2314.735250
_symmetry_space_group_name_H-M "P M M A"
_symmetry_group_IT_number 51
_symmetry_cell_setting 'orthorhombic'
loop_
_space_group_symop_operation_xyz
x,y,z
1/2-x,-y,z
1/2+x,-y,-z
-x,y,-z
-x,-y,-z
1/2+x,y,-z
1/2-x,y,z
x,-y,z
loop_
_atom_site_type_symbol
_atom_site_label
_atom_site_fract_x
_atom_site_fract_y
_atom_site_fract_z
Si Si1 0.433137 0.000000 0.616048
Si Si2 0.323963 0.718683 0.096752
Si Si3 0.431660 0.718747 0.957035
Si Si4 0.550313 0.710225 0.242964
Si Si5 0.589249 0.000000 0.583411
Si Si6 0.104014 0.289923 0.275355
O O1 0.421177 0.827827 0.677696
O O2 0.510738 0.000000 0.595696
O O3 0.398194 0.000000 0.521277
O O4 0.250000 0.776960 0.084887
O O5 0.324817 0.500000 0.096076
O O6 0.352712 0.770823 0.192312
O O7 0.372465 0.777169 0.019000
O O8 0.432594 0.500000 0.956958
O O9 0.427645 0.772061 0.854430
O O10 0.500000 0.775971 0.000000
O O11 0.565083 0.500000 0.253694
O O12 0.471700 0.728555 0.246733
O O13 0.614127 0.827835 0.637363
O O14 0.115880 0.500000 0.291883
#
# Coordination Sequence:
#
# PCOD9407372 Si02
#       6
#     4   8   8   8   4   8
#     4   9  18  30  42  66  94 113 150 200 236 271
#     4   9  16  26  43  69  98 125 156 195 233 276
#     4   9  14  24  43  66  93 127 160 188 227 282
#     4   9  16  27  45  66  92 125 156 186 228 279
#     4   9  18  30  44  63  91 120 148 192 240 280
#     4   9  16  28  45  65  90 123 155 185 231 284
#
# _framework density 17.280595000000002
#
# number of rings (size 3 to 8) (size 9 to 14) (size 15 to 20)
#    0.000    3.000    2.000    0.000    0.000    0.800 
#    0.000    6.000    0.000    0.000    0.000    2.800 
#    0.000    6.400    0.000    0.000    0.000    0.000 
#
# Total GULP energy -223009.063926 kJ/mol
# GULP energy per Si atom -5575.226598 kJ/mol
# Density = 1.724126 g / cm^3
# Si number density = 17.280595 Si / 1000 Ang^3
#
#
#
# Elastic Constant Matrix: (Units=GPa)
#
#
# Indices 1 2 3 4 5 6 
#
# 1 67.1909 29.1791 63.9269 0.0000 0.0000 0.0000
# 2 29.1791 72.2893 64.7249 0.0000 0.0000 0.0000
# 3 63.9269 64.7249 203.0046 0.0000 0.0000 0.0000
# 4 0.0000 0.0000 0.0000 31.4547 0.0000 0.0000
# 5 0.0000 0.0000 0.0000 0.0000 14.9247 0.0000
# 6 0.0000 0.0000 0.0000 0.0000 0.0000 4.5402
#
#
#
# Elastic Compliance Matrix: (Units=1/GPa)
#
#
# Indices 1 2 3 4 5 6 
#
# 1 0.021948 -0.003738 -0.005720 0.000000 0.000000 0.000000
# 2 -0.003738 0.019997 -0.005199 0.000000 0.000000 0.000000
# 3 -0.005720 -0.005199 0.008385 0.000000 0.000000 0.000000
# 4 0.000000 0.000000 0.000000 0.031792 0.000000 0.000000
# 5 0.000000 0.000000 0.000000 0.000000 0.067003 0.000000
# 6 0.000000 0.000000 0.000000 0.000000 0.000000 0.220253
#
#
# Mechanical properties :
#
#
# Convention : Reuss Voigt Hill
#
# Bulk Modulus (GPa) = 47.58070 73.12739 60.35405
# Shear Modulus (GPa) = 12.32451 22.49418 17.40935
#
# Velocity S-wave (km/s) = 2.67348 3.61182 3.17748
# Velocity P-wave (km/s) = 6.09294 7.73325 6.96158
#
# Compressibility (1/GPa) = 0.02101693
#
# Stress axis : x y z
#
# Youngs Moduli (GPa) = 45.56185 50.00836 119.26572
#
# Poissons Ratio (x) = 0.18693 0.68217
# Poissons Ratio (y) = 0.17031 0.62000
# Poissons Ratio (z) = 0.26060 0.25997
#
# Static dielectric constant tensor:
#      x y z
#    x 1.558280 0.000000 0.000000 
#    y 0.000000 1.634940 0.000000 
#    z 0.000000 0.000000 1.568600 
# 
# From -- ./inp_files/17917.got.cif
#   From: 2010.05.17/outbox.cif.g08.bks.cpg/sg51_9_cif.got.tgz:17917.got - 2010.06.03 11:52:47.
