data_PCOD9407474
_publ_section_title
;
Structure prediction by ZEFSAII (Michael W. Deem and Ramdas Pophale) SiO2 
 PCOD9407474
Probable space group: P M M A
;
_chemical_formula_sum "Si O2"
_cell_formula_units_Z 56
_cell_length_a 9.000000
_cell_length_b 21.000000
_cell_length_c 18.000000
_cell_angle_alpha 90.000000
_cell_angle_beta 90.000000
_cell_angle_gamma 90.000000
_cell_volume 3402.000000
_symmetry_space_group_name_H-M "P M M A"
_symmetry_group_IT_number 51
_symmetry_cell_setting 'orthorhombic'
loop_
_space_group_symop_operation_xyz
x,y,z
1/2-x,-y,z
1/2+x,-y,-z
-x,y,-z
-x,-y,-z
1/2+x,y,-z
1/2-x,y,z
x,-y,z
loop_
_atom_site_type_symbol
_atom_site_label
_atom_site_fract_x
_atom_site_fract_y
_atom_site_fract_z
Si Si1 0.927350 0.789592 0.787043
Si Si2 0.571677 0.709711 0.346397
Si Si3 0.571783 0.304681 0.919903
Si Si4 0.071295 0.572698 0.839963
Si Si5 0.929506 0.426238 0.675246
Si Si6 0.571725 0.155591 0.420877
Si Si7 0.929520 0.076329 0.714490
O O1 0.750000 0.784260 0.772338
O O2 0.955981 0.756466 0.866488
O O3 0.964790 0.865225 0.773979
O O4 0.011479 0.742660 0.729436
O O5 0.750000 0.700413 0.342645
O O6 0.496070 0.639952 0.360061
O O7 0.540723 0.769248 0.402289
O O8 0.750000 0.313201 0.924728
O O9 0.500220 0.369392 0.885958
O O10 0.500000 0.294079 0.000000
O O11 0.250000 0.581085 0.834936
O O12 0.044297 0.500000 0.868830
O O13 0.998366 0.575126 0.758096
O O14 0.750000 0.420655 0.676900
O O15 0.962332 0.500000 0.646754
O O16 0.500000 0.140817 0.500000
O O17 0.750000 0.148285 0.421084
O O18 0.502686 0.107725 0.359220
O O19 0.750000 0.075774 0.707603
O O20 0.971783 0.000000 0.726551
#
# Coordination Sequence:
#
# PCOD9407474 Si02
#       7
#     8   8   8   8   8   8   8
#     4   9  18  33  52  74  99 129 168 209 251 301
#     4  10  19  31  51  75  99 130 170 213 255 296
#     4  11  22  34  50  71  98 134 173 214 260 309
#     4  10  20  33  49  70  98 131 168 212 259 306
#     4  10  19  30  47  72 100 131 168 210 256 304
#     4  10  21  35  52  78 109 141 172 204 245 296
#     4   9  18  34  57  82 106 134 167 205 249 297
#
# _framework density 16.460905
#
# number of rings (size 3 to 8) (size 9 to 14) (size 15 to 20)
#    0.000    2.143    1.429    2.143    0.000    4.857 
#    0.000    0.000    0.000    0.857    0.000    0.000 
#    0.000    0.000    0.000    0.000    0.000    0.143 
#
# Total GULP energy -311763.193578 kJ/mol
# GULP energy per Si atom -5567.199885 kJ/mol
# Density = 1.642344 g / cm^3
# Si number density = 16.460905 Si / 1000 Ang^3
#
#
#
# Elastic Constant Matrix: (Units=GPa)
#
#
# Indices 1 2 3 4 5 6 
#
# 1 65.1893 44.3431 21.2183 0.0000 0.0000 0.0000
# 2 44.3431 170.3912 34.3383 0.0000 0.0000 0.0000
# 3 21.2183 34.3383 54.4841 0.0000 0.0000 0.0000
# 4 0.0000 0.0000 0.0000 24.1537 0.0000 0.0000
# 5 0.0000 0.0000 0.0000 0.0000 20.5310 0.0000
# 6 0.0000 0.0000 0.0000 0.0000 0.0000 33.8866
#
#
#
# Elastic Compliance Matrix: (Units=1/GPa)
#
#
# Indices 1 2 3 4 5 6 
#
# 1 0.019811 -0.004125 -0.005116 0.000000 0.000000 0.000000
# 2 -0.004125 0.007581 -0.003172 0.000000 0.000000 0.000000
# 3 -0.005116 -0.003172 0.022345 0.000000 0.000000 0.000000
# 4 0.000000 0.000000 0.000000 0.041401 0.000000 0.000000
# 5 0.000000 0.000000 0.000000 0.000000 0.048707 0.000000
# 6 0.000000 0.000000 0.000000 0.000000 0.000000 0.029510
#
#
# Mechanical properties :
#
#
# Convention : Reuss Voigt Hill
#
# Bulk Modulus (GPa) = 40.13929 54.42933 47.28431
# Shear Modulus (GPa) = 24.69326 28.39193 26.54259
#
# Velocity S-wave (km/s) = 3.87733 4.15759 4.01990
# Velocity P-wave (km/s) = 6.66952 7.49566 7.09463
#
# Compressibility (1/GPa) = 0.02491325
#
# Stress axis : x y z
#
# Youngs Moduli (GPa) = 50.47793 131.90044 44.75231
#
# Poissons Ratio (x) = 0.54405 0.22893
# Poissons Ratio (y) = 0.20820 0.14195
# Poissons Ratio (z) = 0.25822 0.41837
#
# Static dielectric constant tensor:
#      x y z
#    x 1.549330 0.000000 0.000000 
#    y 0.000000 1.578900 0.000000 
#    z 0.000000 0.000000 1.560460 
# 
# From -- ./inp_files/28205.got.cif
#   From: 2010.05.17/outbox.ucp.g08.bks.cvg/sg51_15_cif.got.tgz:28205.got - 2010.06.11 16:27:58.
