data_PCOD9407322
_publ_section_title
;
Structure prediction by ZEFSAII (Michael W. Deem and Ramdas Pophale) SiO2 
 PCOD9407322
Probable space group: P M M A
;
_chemical_formula_sum "Si O2"
_cell_formula_units_Z 40
_cell_length_a 10.527085
_cell_length_b 7.399873
_cell_length_c 25.794984
_cell_angle_alpha 90.000000
_cell_angle_beta 90.000000
_cell_angle_gamma 90.000000
_cell_volume 2009.405833
_symmetry_space_group_name_H-M "P M M A"
_symmetry_group_IT_number 51
_symmetry_cell_setting 'orthorhombic'
loop_
_space_group_symop_operation_xyz
x,y,z
1/2-x,-y,z
1/2+x,-y,-z
-x,y,-z
-x,-y,-z
1/2+x,y,-z
1/2-x,y,z
x,-y,z
loop_
_atom_site_type_symbol
_atom_site_label
_atom_site_fract_x
_atom_site_fract_y
_atom_site_fract_z
Si Si1 0.104576 0.714602 0.729868
Si Si2 0.395349 0.783811 0.842733
Si Si3 0.505184 0.279203 0.378885
Si Si4 0.750000 0.278963 0.564313
Si Si5 0.101372 0.220514 0.957199
Si Si6 0.750000 0.720213 0.444922
O O1 0.250000 0.787450 0.729103
O O2 0.115145 0.500000 0.723193
O O3 0.045672 0.741887 0.786926
O O4 0.027719 0.781635 0.680182
O O5 0.250000 0.715739 0.839373
O O6 0.442093 0.723143 0.899148
O O7 0.391204 0.000000 0.845482
O O8 0.503106 0.500000 0.378863
O O9 0.375455 0.220214 0.405414
O O10 0.625133 0.223906 0.413643
O O11 0.750000 0.500000 0.563587
O O12 0.750000 0.221038 0.504474
O O13 0.250000 0.274409 0.964866
O O14 0.102309 0.000000 0.958614
O O15 0.000000 0.281151 0.000000
O O16 0.750000 0.500000 0.445204
#
# Coordination Sequence:
#
# PCOD9407322 Si02
#       6
#     8   8   8   4   8   4
#     4   9  15  24  39  57  78 104 134 165 195 231
#     4   8  14  24  39  60  82 102 130 167 198 227
#     4   9  15  23  34  51  74 101 130 159 195 237
#     4   9  16  22  32  50  75 103 128 157 198 242
#     4   8  13  22  38  59  80 101 126 159 198 234
#     4   9  14  22  34  50  73  99 128 163 198 232
#
# _framework density 19.906383000000002
#
# number of rings (size 3 to 8) (size 9 to 14) (size 15 to 20)
#    0.000    3.400    1.000    1.800    0.000    2.400 
#    0.000    0.000    2.200    0.600    0.000    0.000 
#    0.000    4.800    0.000    0.000    0.000    0.000 
#
# Total GULP energy -222844.258469 kJ/mol
# GULP energy per Si atom -5571.106462 kJ/mol
# Density = 1.986107 g / cm^3
# Si number density = 19.906383 Si / 1000 Ang^3
#
#
#
# Elastic Constant Matrix: (Units=GPa)
#
#
# Indices 1 2 3 4 5 6 
#
# 1 121.9565 3.1684 106.2230 0.0000 0.0000 0.0000
# 2 3.1684 64.7699 4.5724 0.0000 0.0000 0.0000
# 3 106.2230 4.5724 260.1298 0.0000 0.0000 0.0000
# 4 0.0000 0.0000 0.0000 14.7432 0.0000 0.0000
# 5 0.0000 0.0000 0.0000 0.0000 0.2374 0.0000
# 6 0.0000 0.0000 0.0000 0.0000 0.0000 -8.5520
#
#
#
# Elastic Compliance Matrix: (Units=1/GPa)
#
#
# Indices 1 2 3 4 5 6 
#
# 1 0.012730 -0.000256 -0.005194 0.000000 0.000000 0.000000
# 2 -0.000256 0.015464 -0.000167 0.000000 0.000000 0.000000
# 3 -0.005194 -0.000167 0.005968 0.000000 0.000000 0.000000
# 4 0.000000 0.000000 0.000000 0.067828 0.000000 0.000000
# 5 0.000000 0.000000 0.000000 0.000000 4.212238 0.000000
# 6 0.000000 0.000000 0.000000 0.000000 0.000000 -0.116931
#
#
# Mechanical properties :
#
#
# Convention : Reuss Voigt Hill
#
# Bulk Modulus (GPa) = 43.61573 74.97597 59.29585
# Shear Modulus (GPa) = 1.18591 23.47854 12.33222
#
# Velocity S-wave (km/s) = 0.77268 3.43803 2.49170
# Velocity P-wave (km/s) = 4.77012 7.31479 6.17496
#
# Compressibility (1/GPa) = 0.02292751
#
# Stress axis : x y z
#
# Youngs Moduli (GPa) = 78.55451 64.66796 167.55969
#
# Poissons Ratio (x) = 0.01656 0.87026
# Poissons Ratio (y) = 0.02012 0.02802
# Poissons Ratio (z) = 0.40799 0.01081
#
# Static dielectric constant tensor:
#      x y z
#    x 1.654530 0.000000 0.000000 
#    y 0.000000 1.791100 0.000000 
#    z 0.000000 0.000000 1.733040 
# 
# From -- ./inp_files/36034.got.cif
#   From: 2010.05.17/outbox.cif.g08.bks.cpg/sg51_19_cif.got.tgz:36034.got - 2010.06.03 11:52:47.
