data_PCOD9407461
_publ_section_title
;
Structure prediction by ZEFSAII (Michael W. Deem and Ramdas Pophale) SiO2 
 PCOD9407461
Probable space group: P M M A
;
_chemical_formula_sum "Si O2"
_cell_formula_units_Z 56
_cell_length_a 9.000000
_cell_length_b 21.000000
_cell_length_c 15.000000
_cell_angle_alpha 90.000000
_cell_angle_beta 90.000000
_cell_angle_gamma 90.000000
_cell_volume 2835.000000
_symmetry_space_group_name_H-M "P M M A"
_symmetry_group_IT_number 51
_symmetry_cell_setting 'orthorhombic'
loop_
_space_group_symop_operation_xyz
x,y,z
1/2-x,-y,z
1/2+x,-y,-z
-x,y,-z
-x,-y,-z
1/2+x,y,-z
1/2-x,y,z
x,-y,z
loop_
_atom_site_type_symbol
_atom_site_label
_atom_site_fract_x
_atom_site_fract_y
_atom_site_fract_z
Si Si1 0.429180 0.325287 0.410387
Si Si2 0.580971 0.764482 0.848571
Si Si3 0.083835 0.574518 0.085007
Si Si4 0.572347 0.111102 0.089133
Si Si5 0.416156 0.187494 0.356055
Si Si6 0.427889 0.930630 0.711127
Si Si7 0.074106 0.642094 0.774270
O O1 0.500000 0.352457 0.500000
O O2 0.250000 0.328445 0.409776
O O3 0.474116 0.250539 0.403835
O O4 0.495918 0.355678 0.321468
O O5 0.750000 0.757031 0.882088
O O6 0.489385 0.817075 0.901697
O O7 0.592510 0.791038 0.747447
O O8 0.491749 0.699607 0.834512
O O9 0.250000 0.601074 0.098982
O O10 0.101288 0.500000 0.067233
O O11 0.981049 0.581984 0.170789
O O12 0.000000 0.603550 0.000000
O O13 0.750000 0.109889 0.081371
O O14 0.530461 0.079789 0.184358
O O15 0.500000 0.082582 0.000000
O O16 0.250000 0.173810 0.388359
O O17 0.512817 0.124690 0.352088
O O18 0.250000 0.928645 0.709774
O O19 0.481252 0.000000 0.683160
O O20 0.250000 0.647517 0.765550
#
# Coordination Sequence:
#
# PCOD9407461 Si02
#       7
#     8   8   8   8   8   8   8
#     4  10  20  35  56  84 115 144 178 219 268 325
#     4   9  17  31  48  67  93 124 162 206 255 309
#     4  10  21  38  59  83 113 150 192 235 275 315
#     4  10  19  30  43  61  88 121 159 205 260 318
#     4   8  16  30  48  70  95 123 156 199 249 303
#     4   9  18  31  46  64  87 119 161 207 255 311
#     4  11  21  34  55  83 114 147 183 223 270 321
#
# _framework density 19.753086
#
# number of rings (size 3 to 8) (size 9 to 14) (size 15 to 20)
#    0.000    2.429    0.000    3.857    0.000    6.571 
#    0.000    2.857    0.000    0.857    0.000    0.000 
#    0.000    0.000    0.000    0.000    0.000    0.000 
#
# Total GULP energy -312022.863453 kJ/mol
# GULP energy per Si atom -5571.836847 kJ/mol
# Density = 1.970813 g / cm^3
# Si number density = 19.753086 Si / 1000 Ang^3
#
#
#
# Elastic Constant Matrix: (Units=GPa)
#
#
# Indices 1 2 3 4 5 6 
#
# 1 78.5988 20.2793 29.4458 0.0000 0.0000 0.0000
# 2 20.2793 30.7890 11.4740 0.0000 0.0000 0.0000
# 3 29.4458 11.4740 83.4685 0.0000 0.0000 0.0000
# 4 0.0000 0.0000 0.0000 5.7678 0.0000 0.0000
# 5 0.0000 0.0000 0.0000 0.0000 19.3257 0.0000
# 6 0.0000 0.0000 0.0000 0.0000 0.0000 13.3338
#
#
#
# Elastic Compliance Matrix: (Units=1/GPa)
#
#
# Indices 1 2 3 4 5 6 
#
# 1 0.016894 -0.009387 -0.004669 0.000000 0.000000 0.000000
# 2 -0.009387 0.039449 -0.002111 0.000000 0.000000 0.000000
# 3 -0.004669 -0.002111 0.013918 0.000000 0.000000 0.000000
# 4 0.000000 0.000000 0.000000 0.173376 0.000000 0.000000
# 5 0.000000 0.000000 0.000000 0.000000 0.051745 0.000000
# 6 0.000000 0.000000 0.000000 0.000000 0.000000 0.074997
#
#
# Mechanical properties :
#
#
# Convention : Reuss Voigt Hill
#
# Bulk Modulus (GPa) = 26.36772 35.02829 30.69801
# Shear Modulus (GPa) = 12.03785 16.46262 14.25024
#
# Velocity S-wave (km/s) = 2.47131 2.89003 2.68884
# Velocity P-wave (km/s) = 4.63905 5.37661 5.02139
#
# Compressibility (1/GPa) = 0.03792515
#
# Stress axis : x y z
#
# Youngs Moduli (GPa) = 59.19195 25.34930 71.84909
#
# Poissons Ratio (x) = 0.23796 0.33550
# Poissons Ratio (y) = 0.55565 0.15169
# Poissons Ratio (z) = 0.27639 0.05352
#
# Static dielectric constant tensor:
#      x y z
#    x 1.691270 0.000000 0.000000 
#    y 0.000000 1.760750 0.000000 
#    z 0.000000 0.000000 1.710730 
# 
# From -- ./inp_files/21848.got.cif
#   From: 2010.05.17/outbox.ucp.g08.bks.cvg/sg51_11_cif.got.tgz:21848.got - 2010.06.11 16:27:58.
