data_PCOD9407701
_publ_section_title
;
Structure prediction by ZEFSAII (Michael W. Deem and Ramdas Pophale) SiO2 
 PCOD9407701
Probable space group: P M M A
;
_chemical_formula_sum "Si O2"
_cell_formula_units_Z 48
_cell_length_a 30.000000
_cell_length_b 9.000000
_cell_length_c 9.000000
_cell_angle_alpha 90.000000
_cell_angle_beta 90.000000
_cell_angle_gamma 90.000000
_cell_volume 2430.000000
_symmetry_space_group_name_H-M "P M M A"
_symmetry_group_IT_number 51
_symmetry_cell_setting 'orthorhombic'
loop_
_space_group_symop_operation_xyz
x,y,z
1/2-x,-y,z
1/2+x,-y,-z
-x,y,-z
-x,-y,-z
1/2+x,y,-z
1/2-x,y,z
x,-y,z
loop_
_atom_site_type_symbol
_atom_site_label
_atom_site_fract_x
_atom_site_fract_y
_atom_site_fract_z
Si Si1 0.301498 0.834021 0.821152
Si Si2 0.858268 0.830765 0.470324
Si Si3 0.452276 0.678820 0.572440
Si Si4 0.954587 0.680641 0.077874
Si Si5 0.140007 0.676460 0.043295
Si Si6 0.800330 0.321056 0.697140
O O1 0.250000 0.808527 0.772512
O O2 0.339854 0.837385 0.697005
O O3 0.319868 0.710393 0.930863
O O4 0.301730 0.000000 0.890508
O O5 0.907021 0.756693 0.484736
O O6 0.818860 0.734792 0.542499
O O7 0.859377 0.000000 0.527080
O O8 0.500000 0.720604 0.500000
O O9 0.447210 0.500000 0.552918
O O10 0.454968 0.713350 0.747534
O O11 0.954525 0.500000 0.065470
O O12 0.908221 0.735893 0.006011
O O13 0.000000 0.733853 0.000000
O O14 0.134398 0.500000 0.056426
O O15 0.160693 0.735688 0.194773
O O16 0.750000 0.268955 0.729715
O O17 0.799525 0.500000 0.703316
#
# Coordination Sequence:
#
# PCOD9407701 Si02
#       6
#     8   8   8   8   8   8
#     4  10  21  37  57  81 112 151 191 232 282 343
#     4  11  23  39  59  83 118 157 196 238 286 346
#     4  10  21  37  61  89 116 149 192 239 291 347
#     4   9  18  33  56  87 116 145 182 230 288 345
#     4  10  20  36  60  87 116 146 188 241 290 343
#     4  10  22  38  57  85 118 152 195 245 292 341
#
# _framework density 19.753086
#
# number of rings (size 3 to 8) (size 9 to 14) (size 15 to 20)
#    0.000    2.000    1.667    1.500    2.333    3.667 
#    0.000    0.000    0.000    1.000    0.000    0.000 
#    0.000    0.000    0.000    0.000    0.000    0.000 
#
# Total GULP energy -267220.018700 kJ/mol
# GULP energy per Si atom -5567.083723 kJ/mol
# Density = 1.970813 g / cm^3
# Si number density = 19.753086 Si / 1000 Ang^3
#
#
#
# Elastic Constant Matrix: (Units=GPa)
#
#
# Indices 1 2 3 4 5 6 
#
# 1 148.3266 16.8021 13.5532 0.0000 0.0000 0.0000
# 2 16.8021 -14.7846 3.9864 0.0000 0.0000 0.0000
# 3 13.5532 3.9864 27.0568 0.0000 0.0000 0.0000
# 4 0.0000 0.0000 0.0000 -5.2931 0.0000 0.0000
# 5 0.0000 0.0000 0.0000 0.0000 31.1660 0.0000
# 6 0.0000 0.0000 0.0000 0.0000 0.0000 0.7338
#
#
#
# Elastic Compliance Matrix: (Units=1/GPa)
#
#
# Indices 1 2 3 4 5 6 
#
# 1 0.006419 0.006182 -0.004126 0.000000 0.000000 0.000000
# 2 0.006182 -0.059100 0.005611 0.000000 0.000000 0.000000
# 3 -0.004126 0.005611 0.038199 0.000000 0.000000 0.000000
# 4 0.000000 0.000000 0.000000 -0.188925 0.000000 0.000000
# 5 0.000000 0.000000 0.000000 0.000000 0.032086 0.000000
# 6 0.000000 0.000000 0.000000 0.000000 0.000000 1.362787
#
#
# Mechanical properties :
#
#
# Convention : Reuss Voigt Hill
#
# Bulk Modulus (GPa) = 1173.72987 25.47579 599.60283
# Shear Modulus (GPa) = 4.25019 13.73848 8.99434
#
# Velocity S-wave (km/s) = 1.46844 2.64011 2.13618
# Velocity P-wave (km/s) = 24.46152 4.71367 17.61511
#
# Compressibility (1/GPa) = 0.00085198
#
# Stress axis : x y z
#
# Youngs Moduli (GPa) = 155.79698 -16.92056 26.17840
#
# Poissons Ratio (x) = 0.10460 0.10801
# Poissons Ratio (y) = -0.96313 -0.14688
# Poissons Ratio (z) = 0.64282 0.09494
#
# Static dielectric constant tensor:
#      x y z
#    x 1.665870 0.000000 0.000000 
#    y 0.000000 1.684680 0.000000 
#    z 0.000000 0.000000 1.790190 
# 
# From -- ./inp_files/12741.got.cif
#   From: 2010.05.17/outbox.ucp.g08.bks.cvg/sg51_7_cif.got.tgz:12741.got - 2010.06.11 16:27:58.
