data_PCOD9407963
_publ_section_title
;
Structure prediction by ZEFSAII (Michael W. Deem and Ramdas Pophale) SiO2 
 PCOD9407963
Probable space group: P N N A
;
_chemical_formula_sum "Si O2"
_cell_formula_units_Z 48
_cell_length_a 20.360742
_cell_length_b 12.591027
_cell_length_c 9.202581
_cell_angle_alpha 90.000000
_cell_angle_beta 90.000000
_cell_angle_gamma 90.000000
_cell_volume 2359.198073
_symmetry_space_group_name_H-M "P N N A"
_symmetry_group_IT_number 52
_symmetry_cell_setting 'orthorhombic'
loop_
_space_group_symop_operation_xyz
x,y,z
1/2-x,-y,z
x,1/2-y,1/2-z
1/2-x,1/2+y,1/2-z
-x,-y,-z
1/2+x,y,-z
-x,1/2+y,1/2+z
1/2+x,1/2-y,1/2+z
loop_
_atom_site_type_symbol
_atom_site_label
_atom_site_fract_x
_atom_site_fract_y
_atom_site_fract_z
Si Si1 0.865182 0.517531 0.306192
Si Si2 0.597655 0.250000 0.250000
Si Si3 0.436181 0.741673 0.057261
Si Si4 0.250000 0.500000 0.915504
Si Si5 0.385535 0.969624 0.128713
Si Si6 0.503609 0.037121 0.665994
Si Si7 0.295169 0.846904 0.337946
O O1 0.860964 0.646680 0.295625
O O2 0.862387 0.482657 0.475226
O O3 0.936438 0.485238 0.247974
O O4 0.810806 0.479121 0.192400
O O5 0.553942 0.221539 0.387860
O O6 0.430062 0.867146 0.080398
O O7 0.482087 0.663363 0.147014
O O8 0.362766 0.701336 0.096655
O O9 0.260063 0.597802 0.027274
O O10 0.436247 0.018518 0.245516
O O11 0.322399 0.931500 0.220278
O O12 0.500000 0.000000 0.500000
O O13 0.261822 0.750000 0.250000
#
# Coordination Sequence:
#
# PCOD9407963 Si02
#       7
#     8   4   8   4   8   8   8
#     4  11  22  34  60  88 122 154 205 243 303 358
#     4  10  16  34  54  88 106 158 194 240 288 364
#     4   9  17  33  60  84 113 147 193 244 300 357
#     4  12  22  38  62  90 120 164 206 252 302 360
#     4   9  20  36  61  86 117 153 197 251 303 365
#     4  11  18  33  56  90 117 147 192 252 298 352
#     4   9  18  36  59  86 114 156 205 252 294 362
#
# _framework density 20.345897000000001
#
# number of rings (size 3 to 8) (size 9 to 14) (size 15 to 20)
#    0.000    2.000    3.333    3.000    0.000    0.667 
#    0.000    0.000    5.500    0.000    0.000    0.000 
#    0.000    0.000    0.000    0.000    0.000    0.000 
#
# Total GULP energy -267310.196402 kJ/mol
# GULP energy per Si atom -5568.962425 kJ/mol
# Density = 2.029959 g / cm^3
# Si number density = 20.345897 Si / 1000 Ang^3
#
#
#
# Elastic Constant Matrix: (Units=GPa)
#
#
# Indices 1 2 3 4 5 6 
#
# 1 58.9763 15.5892 44.2483 0.0000 0.0000 0.0000
# 2 15.5892 35.3535 12.8708 0.0000 0.0000 0.0000
# 3 44.2483 12.8708 201.7245 0.0000 0.0000 0.0000
# 4 0.0000 0.0000 0.0000 36.8783 0.0000 0.0000
# 5 0.0000 0.0000 0.0000 0.0000 34.7648 0.0000
# 6 0.0000 0.0000 0.0000 0.0000 0.0000 0.9189
#
#
#
# Elastic Compliance Matrix: (Units=1/GPa)
#
#
# Indices 1 2 3 4 5 6 
#
# 1 0.022446 -0.008298 -0.004394 0.000000 0.000000 0.000000
# 2 -0.008298 0.032026 -0.000223 0.000000 0.000000 0.000000
# 3 -0.004394 -0.000223 0.005935 0.000000 0.000000 0.000000
# 4 0.000000 0.000000 0.000000 0.027116 0.000000 0.000000
# 5 0.000000 0.000000 0.000000 0.000000 0.028765 0.000000
# 6 0.000000 0.000000 0.000000 0.000000 0.000000 1.088212
#
#
# Mechanical properties :
#
#
# Convention : Reuss Voigt Hill
#
# Bulk Modulus (GPa) = 28.92101 49.05231 38.98666
# Shear Modulus (GPa) = 4.02623 29.40214 16.71419
#
# Velocity S-wave (km/s) = 1.40826 3.80559 2.86929
# Velocity P-wave (km/s) = 4.10972 6.59330 5.49369
#
# Compressibility (1/GPa) = 0.03457694
#
# Stress axis : x y z
#
# Youngs Moduli (GPa) = 44.55107 31.22462 168.48196
#
# Poissons Ratio (x) = 0.25910 0.74033
# Poissons Ratio (y) = 0.36968 0.03761
# Poissons Ratio (z) = 0.19576 0.00697
#
# Static dielectric constant tensor:
#      x y z
#    x 1.714860 0.000000 0.000000 
#    y 0.000000 1.810360 0.000000 
#    z 0.000000 0.000000 1.836270 
# 
# From -- ./inp_files/13336.got.cif
#   From: 2010.05.17/outbox.cif.g08.bks.cpg/sg52_7_cif.got.tgz:13336.got - 2010.06.03 12:15:38.
