data_PCOD9407395
_publ_section_title
;
Structure prediction by ZEFSAII (Michael W. Deem and Ramdas Pophale) SiO2 
 PCOD9407395
Probable space group: P M M A
;
_chemical_formula_sum "Si O2"
_cell_formula_units_Z 48
_cell_length_a 9.288997
_cell_length_b 9.476279
_cell_length_c 32.029472
_cell_angle_alpha 90.000000
_cell_angle_beta 90.000000
_cell_angle_gamma 90.000000
_cell_volume 2819.398347
_symmetry_space_group_name_H-M "P M M A"
_symmetry_group_IT_number 51
_symmetry_cell_setting 'orthorhombic'
loop_
_space_group_symop_operation_xyz
x,y,z
1/2-x,-y,z
1/2+x,-y,-z
-x,y,-z
-x,-y,-z
1/2+x,y,-z
1/2-x,y,z
x,-y,z
loop_
_atom_site_type_symbol
_atom_site_label
_atom_site_fract_x
_atom_site_fract_y
_atom_site_fract_z
Si Si1 0.084203 0.327903 0.958605
Si Si2 0.577641 0.833663 0.457119
Si Si3 0.579033 0.668161 0.874718
Si Si4 0.074515 0.337626 0.624680
Si Si5 0.077330 0.166202 0.706453
Si Si6 0.921522 0.167004 0.791608
O O1 0.250000 0.283325 0.959559
O O2 0.082011 0.500000 0.958988
O O3 0.005852 0.284842 0.915927
O O4 0.000000 0.281007 0.000000
O O5 0.500000 0.792480 0.500000
O O6 0.750000 0.817386 0.461866
O O7 0.529567 0.743501 0.417249
O O8 0.549255 0.000000 0.449578
O O9 0.750000 0.692089 0.880951
O O10 0.558019 0.500000 0.869492
O O11 0.533552 0.748145 0.832765
O O12 0.250000 0.335475 0.624706
O O13 0.028207 0.500000 0.624780
O O14 0.029276 0.255764 0.666459
O O15 0.250000 0.180102 0.710592
O O16 0.002490 0.210857 0.749469
O O17 0.045942 0.000000 0.699582
O O18 0.750000 0.187134 0.786167
O O19 0.947764 0.000000 0.797776
#
# Coordination Sequence:
#
# PCOD9407395 Si02
#       6
#     8   8   8   8   8   8
#     4   9  16  26  42  65  92 120 150 185 224 265
#     4   9  17  30  48  68  90 118 152 187 222 263
#     4   9  17  29  45  65  89 117 148 182 221 264
#     4   9  17  29  46  68  92 118 148 183 224 267
#     4   9  17  30  48  67  86 112 148 185 218 258
#     4   9  18  32  48  66  90 120 150 181 222 269
#
# _framework density 17.024909000000001
#
# number of rings (size 3 to 8) (size 9 to 14) (size 15 to 20)
#    0.000    3.000    0.000    1.000    0.000    5.667 
#    0.000    0.833    0.000    5.500    0.000    0.000 
#    0.000    0.000    0.000    0.000    0.000    0.000 
#
# Total GULP energy -267507.247176 kJ/mol
# GULP energy per Si atom -5573.067649 kJ/mol
# Density = 1.698616 g / cm^3
# Si number density = 17.024909 Si / 1000 Ang^3
#
#
#
# Elastic Constant Matrix: (Units=GPa)
#
#
# Indices 1 2 3 4 5 6 
#
# 1 38.1756 35.0863 70.7251 0.0000 0.0000 0.0000
# 2 35.0863 52.8200 87.2758 0.0000 0.0000 0.0000
# 3 70.7251 87.2758 224.9273 0.0000 0.0000 0.0000
# 4 0.0000 0.0000 0.0000 32.0620 0.0000 0.0000
# 5 0.0000 0.0000 0.0000 0.0000 35.3713 0.0000
# 6 0.0000 0.0000 0.0000 0.0000 0.0000 11.9987
#
#
#
# Elastic Compliance Matrix: (Units=1/GPa)
#
#
# Indices 1 2 3 4 5 6 
#
# 1 0.077792 -0.031369 -0.012289 0.000000 0.000000 0.000000
# 2 -0.031369 0.065405 -0.015515 0.000000 0.000000 0.000000
# 3 -0.012289 -0.015515 0.014330 0.000000 0.000000 0.000000
# 4 0.000000 0.000000 0.000000 0.031190 0.000000 0.000000
# 5 0.000000 0.000000 0.000000 0.000000 0.028271 0.000000
# 6 0.000000 0.000000 0.000000 0.000000 0.000000 0.083342
#
#
# Mechanical properties :
#
#
# Convention : Reuss Voigt Hill
#
# Bulk Modulus (GPa) = 25.52228 78.01082 51.76655
# Shear Modulus (GPa) = 11.58117 24.07544 17.82830
#
# Velocity S-wave (km/s) = 2.61099 3.76457 3.23954
# Velocity P-wave (km/s) = 4.91053 8.05090 6.66822
#
# Compressibility (1/GPa) = 0.03918146
#
# Stress axis : x y z
#
# Youngs Moduli (GPa) = 12.85484 15.28938 69.78427
#
# Poissons Ratio (x) = 0.47961 0.85756
# Poissons Ratio (y) = 0.40324 1.08268
# Poissons Ratio (z) = 0.15797 0.23721
#
# Static dielectric constant tensor:
#      x y z
#    x 1.568170 0.000000 0.000000 
#    y 0.000000 1.569270 0.000000 
#    z 0.000000 0.000000 1.554720 
# 
# From -- ./inp_files/37051.got.cif
#   From: 2010.05.17/outbox.cif.g08.bks.cpg/sg51_19_cif.got.tgz:37051.got - 2010.06.03 11:52:47.
