data_PCOD9407697
_publ_section_title
;
Structure prediction by ZEFSAII (Michael W. Deem and Ramdas Pophale) SiO2 
 PCOD9407697
Probable space group: P M M A
;
_chemical_formula_sum "Si O2"
_cell_formula_units_Z 48
_cell_length_a 15.000000
_cell_length_b 18.000000
_cell_length_c 9.000000
_cell_angle_alpha 90.000000
_cell_angle_beta 90.000000
_cell_angle_gamma 90.000000
_cell_volume 2430.000000
_symmetry_space_group_name_H-M "P M M A"
_symmetry_group_IT_number 51
_symmetry_cell_setting 'orthorhombic'
loop_
_space_group_symop_operation_xyz
x,y,z
1/2-x,-y,z
1/2+x,-y,-z
-x,y,-z
-x,-y,-z
1/2+x,y,-z
1/2-x,y,z
x,-y,z
loop_
_atom_site_type_symbol
_atom_site_label
_atom_site_fract_x
_atom_site_fract_y
_atom_site_fract_z
Si Si1 0.851690 0.805268 0.675680
Si Si2 0.845089 0.357870 0.789699
Si Si3 0.023150 0.585088 0.671535
Si Si4 0.591376 0.695958 0.092702
Si Si5 0.528201 0.143155 0.157979
Si Si6 0.853233 0.917646 0.408089
O O1 0.750000 0.824886 0.724436
O O2 0.855528 0.715808 0.685934
O O3 0.865850 0.848960 0.521205
O O4 0.933970 0.830706 0.775056
O O5 0.750000 0.393080 0.755333
O O6 0.928691 0.409344 0.756880
O O7 0.843846 0.329512 0.960923
O O8 0.056696 0.500000 0.676045
O O9 0.085239 0.643283 0.762258
O O10 0.000000 0.604268 0.500000
O O11 0.589953 0.782792 0.136172
O O12 0.500000 0.688253 0.000000
O O13 0.579955 0.091693 0.271958
O O14 0.500000 0.110237 0.000000
O O15 0.750000 0.914585 0.359021
O O16 0.866629 0.000000 0.478210
#
# Coordination Sequence:
#
# PCOD9407697 Si02
#       6
#     8   8   8   8   8   8
#     4  10  20  36  58  85 117 151 195 246 290 343
#     4  10  20  36  58  86 115 151 201 246 293 349
#     4  10  21  36  57  84 117 157 196 241 295 351
#     4   9  18  35  55  83 113 149 187 239 283 348
#     4  11  20  35  61  89 116 154 193 241 294 352
#     4  10  24  42  59  85 119 155 197 245 299 357
#
# _framework density 19.753086
#
# number of rings (size 3 to 8) (size 9 to 14) (size 15 to 20)
#    0.000    2.000    5.000    0.500    2.333    6.333 
#    0.000    0.833    0.000    3.000    0.000    0.000 
#    0.000    0.000    0.000    0.000    0.000    0.000 
#
# Total GULP energy -267282.197500 kJ/mol
# GULP energy per Si atom -5568.379115 kJ/mol
# Density = 1.970813 g / cm^3
# Si number density = 19.753086 Si / 1000 Ang^3
#
#
#
# Elastic Constant Matrix: (Units=GPa)
#
#
# Indices 1 2 3 4 5 6 
#
# 1 41.3124 -10.1921 -4.9207 0.0000 0.0000 0.0000
# 2 -10.1921 64.1984 30.2721 0.0000 0.0000 0.0000
# 3 -4.9207 30.2721 71.2134 0.0000 0.0000 0.0000
# 4 0.0000 0.0000 0.0000 11.0836 0.0000 0.0000
# 5 0.0000 0.0000 0.0000 0.0000 15.4996 0.0000
# 6 0.0000 0.0000 0.0000 0.0000 0.0000 16.3221
#
#
#
# Elastic Compliance Matrix: (Units=1/GPa)
#
#
# Indices 1 2 3 4 5 6 
#
# 1 0.025193 0.003976 0.000051 0.000000 0.000000 0.000000
# 2 0.003976 0.020109 -0.008274 0.000000 0.000000 0.000000
# 3 0.000051 -0.008274 0.017563 0.000000 0.000000 0.000000
# 4 0.000000 0.000000 0.000000 0.090223 0.000000 0.000000
# 5 0.000000 0.000000 0.000000 0.000000 0.064518 0.000000
# 6 0.000000 0.000000 0.000000 0.000000 0.000000 0.061267
#
#
# Mechanical properties :
#
#
# Convention : Reuss Voigt Hill
#
# Bulk Modulus (GPa) = 18.39234 23.00476 20.69855
# Shear Modulus (GPa) = 16.36716 19.35206 17.85961
#
# Velocity S-wave (km/s) = 2.88164 3.13341 3.01016
# Velocity P-wave (km/s) = 4.51698 4.97619 4.75214
#
# Compressibility (1/GPa) = 0.05437045
#
# Stress axis : x y z
#
# Youngs Moduli (GPa) = 39.69406 49.72855 56.93852
#
# Poissons Ratio (x) = -0.19770 -0.00289
# Poissons Ratio (y) = -0.15781 0.47108
# Poissons Ratio (z) = -0.00201 0.41143
#
# Static dielectric constant tensor:
#      x y z
#    x 1.687440 0.000000 0.000000 
#    y 0.000000 1.716570 0.000000 
#    z 0.000000 0.000000 1.718490 
# 
# From -- ./inp_files/8285.got.cif
#   From: 2010.05.17/outbox.ucp.g08.bks.cvg/sg51_5_cif.got.tgz:8285.got - 2010.06.11 16:27:58.
