data_PCOD9407012
_publ_section_title
;
Structure prediction by ZEFSAII (Michael W. Deem and Ramdas Pophale) SiO2 
 PCOD9407012
Probable space group: P M M A
;
_chemical_formula_sum "Si O2"
_cell_formula_units_Z 64
_cell_length_a 14.479943
_cell_length_b 13.902798
_cell_length_c 16.819322
_cell_angle_alpha 90.000000
_cell_angle_beta 90.000000
_cell_angle_gamma 90.000000
_cell_volume 3385.926684
_symmetry_space_group_name_H-M "P M M A"
_symmetry_group_IT_number 51
_symmetry_cell_setting 'orthorhombic'
loop_
_space_group_symop_operation_xyz
x,y,z
1/2-x,-y,z
1/2+x,-y,-z
-x,y,-z
-x,-y,-z
1/2+x,y,-z
1/2-x,y,z
x,-y,z
loop_
_atom_site_type_symbol
_atom_site_label
_atom_site_fract_x
_atom_site_fract_y
_atom_site_fract_z
Si Si1 0.492902 0.737498 0.330817
Si Si2 0.643909 0.722074 0.079093
Si Si3 0.645126 0.215212 0.454439
Si Si4 0.356035 0.740325 0.112127
Si Si5 0.145175 0.387991 0.432829
Si Si6 0.140476 0.111976 0.377216
Si Si7 0.992931 0.612346 0.182304
Si Si8 0.009618 0.891509 0.904048
O O1 0.571606 0.785843 0.384717
O O2 0.432986 0.657202 0.377616
O O3 0.418571 0.822252 0.318155
O O4 0.532472 0.681667 0.255741
O O5 0.750000 0.713782 0.103900
O O6 0.579866 0.637735 0.113210
O O7 0.596722 0.821370 0.108911
O O8 0.640670 0.723113 0.983196
O O9 0.750000 0.191491 0.430393
O O10 0.642856 0.324317 0.487795
O O11 0.622229 0.151137 0.532558
O O12 0.250000 0.752046 0.136168
O O13 0.407308 0.651581 0.154176
O O14 0.419492 0.834285 0.125775
O O15 0.250000 0.374897 0.399684
O O16 0.130531 0.500000 0.446809
O O17 0.250000 0.124819 0.364351
O O18 0.117943 0.000000 0.371739
O O19 0.993899 0.500000 0.201463
O O20 0.018434 0.000000 0.873334
O O21 0.000000 0.897244 0.000000
#
# Coordination Sequence:
#
# PCOD9407012 Si02
#       8
#     8   8   8   8   8   8   8   8
#     4  11  21  33  51  75 107 141 170 207 263 324
#     4   9  19  37  58  78 103 138 185 238 282 325
#     4   9  19  33  50  76 105 134 174 218 251 291
#     4   9  19  36  57  80 105 137 182 235 285 331
#     4   9  17  30  49  72  98 130 168 208 248 294
#     4   9  18  35  60  86 109 137 177 221 261 306
#     4  11  24  38  52  75 107 142 182 229 282 341
#     4   8  14  27  51  83 112 133 158 200 257 320
#
# _framework density 18.901767
#
# number of rings (size 3 to 8) (size 9 to 14) (size 15 to 20)
#    0.000    2.625    0.000    4.125    0.000    6.000 
#    0.000    6.250    0.000    0.000    0.000    3.500 
#    0.000    0.000    0.000    0.000    0.000    0.000 
#
# Total GULP energy -356818.030880 kJ/mol
# GULP energy per Si atom -5575.281733 kJ/mol
# Density = 1.885875 g / cm^3
# Si number density = 18.901767 Si / 1000 Ang^3
#
#
#
# Elastic Constant Matrix: (Units=GPa)
#
#
# Indices 1 2 3 4 5 6 
#
# 1 60.2338 4.7017 4.7957 0.0000 0.0000 0.0000
# 2 4.7017 113.4219 5.3993 0.0000 0.0000 0.0000
# 3 4.7957 5.3993 25.7796 0.0000 0.0000 0.0000
# 4 0.0000 0.0000 0.0000 11.4748 0.0000 0.0000
# 5 0.0000 0.0000 0.0000 0.0000 6.3749 0.0000
# 6 0.0000 0.0000 0.0000 0.0000 0.0000 5.2714
#
#
#
# Elastic Compliance Matrix: (Units=1/GPa)
#
#
# Indices 1 2 3 4 5 6 
#
# 1 0.016886 -0.000556 -0.003025 0.000000 0.000000 0.000000
# 2 -0.000556 0.008924 -0.001766 0.000000 0.000000 0.000000
# 3 -0.003025 -0.001766 0.039723 0.000000 0.000000 0.000000
# 4 0.000000 0.000000 0.000000 0.087147 0.000000 0.000000
# 5 0.000000 0.000000 0.000000 0.000000 0.156866 0.000000
# 6 0.000000 0.000000 0.000000 0.000000 0.000000 0.189703
#
#
# Mechanical properties :
#
#
# Convention : Reuss Voigt Hill
#
# Bulk Modulus (GPa) = 18.23486 25.46986 21.85236
# Shear Modulus (GPa) = 9.46570 16.92678 13.19624
#
# Velocity S-wave (km/s) = 2.24025 2.99576 2.64512
# Velocity P-wave (km/s) = 4.04472 5.04680 4.57329
#
# Compressibility (1/GPa) = 0.05484001
#
# Stress axis : x y z
#
# Youngs Moduli (GPa) = 59.21989 112.06075 25.17438
#
# Poissons Ratio (x) = 0.06230 0.07615
# Poissons Ratio (y) = 0.03293 0.04445
# Poissons Ratio (z) = 0.17913 0.19785
#
# Static dielectric constant tensor:
#      x y z
#    x 1.669900 0.000000 0.000000 
#    y 0.000000 1.645770 0.000000 
#    z 0.000000 0.000000 1.696690 
# 
# From -- ./inp_files/29977.got.cif
#   From: 2010.05.17/outbox.cif.g08.bks.cpg/sg51_15_cif.got.tgz:29977.got - 2010.06.03 11:52:47.
