data_PCOD9407526
_publ_section_title
;
Structure prediction by ZEFSAII (Michael W. Deem and Ramdas Pophale) SiO2 
 PCOD9407526
Probable space group: P M M A
;
_chemical_formula_sum "Si O2"
_cell_formula_units_Z 56
_cell_length_a 21.000000
_cell_length_b 9.000000
_cell_length_c 18.000000
_cell_angle_alpha 90.000000
_cell_angle_beta 90.000000
_cell_angle_gamma 90.000000
_cell_volume 3402.000000
_symmetry_space_group_name_H-M "P M M A"
_symmetry_group_IT_number 51
_symmetry_cell_setting 'orthorhombic'
loop_
_space_group_symop_operation_xyz
x,y,z
1/2-x,-y,z
1/2+x,-y,-z
-x,y,-z
-x,-y,-z
1/2+x,y,-z
1/2-x,y,z
x,-y,z
loop_
_atom_site_type_symbol
_atom_site_label
_atom_site_fract_x
_atom_site_fract_y
_atom_site_fract_z
Si Si1 0.324879 0.820571 0.086661
Si Si2 0.897551 0.322383 0.775737
Si Si3 0.828205 0.820555 0.475707
Si Si4 0.546202 0.676031 0.193612
Si Si5 0.422823 0.820556 0.383500
Si Si6 0.568467 0.179256 0.036418
Si Si7 0.435860 0.319020 0.633156
O O1 0.250000 0.784405 0.073246
O O2 0.350311 0.745540 0.162685
O O3 0.329376 0.000000 0.094633
O O4 0.373242 0.778303 0.019087
O O5 0.887764 0.500000 0.767389
O O6 0.896522 0.243794 0.694915
O O7 0.969872 0.298960 0.804906
O O8 0.750000 0.780750 0.477296
O O9 0.869938 0.789207 0.551601
O O10 0.874356 0.744493 0.412440
O O11 0.829439 0.000000 0.465454
O O12 0.557666 0.500000 0.185561
O O13 0.573158 0.756797 0.120258
O O14 0.568930 0.717196 0.277782
O O15 0.494641 0.748615 0.393260
O O16 0.430420 0.000000 0.379845
O O17 0.568218 0.000000 0.041281
O O18 0.500000 0.224391 0.000000
O O19 0.438668 0.500000 0.626059
#
# Coordination Sequence:
#
# PCOD9407526 Si02
#       7
#     8   8   8   8   8   8   8
#     4  10  21  36  52  74 108 145 178 218 272 328
#     4  10  20  34  53  80 110 139 177 223 270 324
#     4  10  22  39  57  80 110 146 188 230 278 335
#     4   9  19  34  53  79 107 137 173 219 271 319
#     4  10  20  35  58  84 112 146 185 228 276 328
#     4  10  19  32  54  81 104 133 181 227 263 312
#     4  10  21  37  57  84 114 144 184 232 279 329
#
# _framework density 16.460905
#
# number of rings (size 3 to 8) (size 9 to 14) (size 15 to 20)
#    0.000    2.143    1.429    2.571    0.000    7.714 
#    0.000    2.143    0.000    2.571    0.000    0.000 
#    0.000    0.000    0.000    0.000    0.000    0.000 
#
# Total GULP energy -312014.158242 kJ/mol
# GULP energy per Si atom -5571.681397 kJ/mol
# Density = 1.642344 g / cm^3
# Si number density = 16.460905 Si / 1000 Ang^3
#
#
#
# Elastic Constant Matrix: (Units=GPa)
#
#
# Indices 1 2 3 4 5 6 
#
# 1 151.2379 45.7574 83.8832 0.0000 0.0000 0.0000
# 2 45.7574 60.5184 48.0551 0.0000 0.0000 0.0000
# 3 83.8832 48.0551 149.5746 0.0000 0.0000 0.0000
# 4 0.0000 0.0000 0.0000 35.3102 0.0000 0.0000
# 5 0.0000 0.0000 0.0000 0.0000 35.1387 0.0000
# 6 0.0000 0.0000 0.0000 0.0000 0.0000 27.6352
#
#
#
# Elastic Compliance Matrix: (Units=1/GPa)
#
#
# Indices 1 2 3 4 5 6 
#
# 1 0.010379 -0.004330 -0.004429 0.000000 0.000000 0.000000
# 2 -0.004330 0.023990 -0.005279 0.000000 0.000000 0.000000
# 3 -0.004429 -0.005279 0.010866 0.000000 0.000000 0.000000
# 4 0.000000 0.000000 0.000000 0.028320 0.000000 0.000000
# 5 0.000000 0.000000 0.000000 0.000000 0.028459 0.000000
# 6 0.000000 0.000000 0.000000 0.000000 0.000000 0.036186
#
#
# Mechanical properties :
#
#
# Convention : Reuss Voigt Hill
#
# Bulk Modulus (GPa) = 58.28451 79.63579 68.96015
# Shear Modulus (GPa) = 29.07053 31.85918 30.46485
#
# Velocity S-wave (km/s) = 4.20698 4.40414 4.30669
# Velocity P-wave (km/s) = 7.68654 8.62240 8.16788
#
# Compressibility (1/GPa) = 0.01715722
#
# Stress axis : x y z
#
# Youngs Moduli (GPa) = 96.34863 41.68451 92.03249
#
# Poissons Ratio (x) = 0.18050 0.40765
# Poissons Ratio (y) = 0.41721 0.48584
# Poissons Ratio (z) = 0.42677 0.22005
#
# Static dielectric constant tensor:
#      x y z
#    x 1.555420 0.000000 0.000000 
#    y 0.000000 1.558680 0.000000 
#    z 0.000000 0.000000 1.564970 
# 
# From -- ./inp_files/30405.got.cif
#   From: 2010.05.17/outbox.ucp.g08.bks.cvg/sg51_16_cif.got.tgz:30405.got - 2010.06.11 16:27:58.
