data_PCOD9407296
_publ_section_title
;
Structure prediction by ZEFSAII (Michael W. Deem and Ramdas Pophale) SiO2 
 PCOD9407296
Probable space group: P M M A
;
_chemical_formula_sum "Si O2"
_cell_formula_units_Z 48
_cell_length_a 32.986467
_cell_length_b 9.358750
_cell_length_c 7.323677
_cell_angle_alpha 90.000000
_cell_angle_beta 90.000000
_cell_angle_gamma 90.000000
_cell_volume 2260.907692
_symmetry_space_group_name_H-M "P M M A"
_symmetry_group_IT_number 51
_symmetry_cell_setting 'orthorhombic'
loop_
_space_group_symop_operation_xyz
x,y,z
1/2-x,-y,z
1/2+x,-y,-z
-x,y,-z
-x,-y,-z
1/2+x,y,-z
1/2-x,y,z
x,-y,z
loop_
_atom_site_type_symbol
_atom_site_label
_atom_site_fract_x
_atom_site_fract_y
_atom_site_fract_z
Si Si1 0.124866 0.834665 0.045540
Si Si2 0.119656 0.837147 0.492526
Si Si3 0.456218 0.661112 0.471924
Si Si4 0.293686 0.829153 0.462171
Si Si5 0.454135 0.336883 0.036480
Si Si6 0.795125 0.670933 0.926924
O O1 0.122709 0.832253 0.269456
O O2 0.083451 0.760962 0.977706
O O3 0.165411 0.748658 0.992351
O O4 0.127657 0.000000 0.991284
O O5 0.082374 0.740811 0.549966
O O6 0.164275 0.793558 0.560549
O O7 0.111650 0.000000 0.543868
O O8 0.500000 0.731771 0.500000
O O9 0.458384 0.500000 0.545159
O O10 0.450547 0.654094 0.255116
O O11 0.250000 0.808309 0.555013
O O12 0.293073 0.735548 0.278397
O O13 0.296499 0.000000 0.416386
O O14 0.451072 0.500000 0.965899
O O15 0.500000 0.284247 0.000000
O O16 0.750000 0.699150 0.006867
O O17 0.801105 0.500000 0.922276
#
# Coordination Sequence:
#
# PCOD9407296 Si02
#       6
#     8   8   8   8   8   8
#     4   9  16  25  37  53  75 103 132 162 198 238
#     4   8  14  23  35  52  73  99 129 158 191 230
#     4   9  17  28  41  57  78 104 132 161 195 234
#     4   8  13  21  32  47  70  99 128 157 191 233
#     4   9  17  29  44  60  79 104 133 165 201 238
#     4   9  15  21  31  49  73 101 132 163 194 232
#
# _framework density 21.230412000000001
#
# number of rings (size 3 to 8) (size 9 to 14) (size 15 to 20)
#    0.000    3.333    0.000    2.000    0.000    5.667 
#    0.000    0.000    0.000    0.000    0.000    0.000 
#    0.000    1.333    0.000   12.333    0.000   17.833 
#
# Total GULP energy -267442.262120 kJ/mol
# GULP energy per Si atom -5571.713794 kJ/mol
# Density = 2.118209 g / cm^3
# Si number density = 21.230412 Si / 1000 Ang^3
#
#
#
# Elastic Constant Matrix: (Units=GPa)
#
#
# Indices 1 2 3 4 5 6 
#
# 1 271.1868 117.9762 -0.0586 0.0000 0.0000 0.0000
# 2 117.9762 94.5326 13.3210 0.0000 0.0000 0.0000
# 3 -0.0586 13.3210 66.7986 0.0000 0.0000 0.0000
# 4 0.0000 0.0000 0.0000 -9.4799 0.0000 0.0000
# 5 0.0000 0.0000 0.0000 0.0000 8.1781 0.0000
# 6 0.0000 0.0000 0.0000 0.0000 0.0000 36.9034
#
#
#
# Elastic Compliance Matrix: (Units=1/GPa)
#
#
# Indices 1 2 3 4 5 6 
#
# 1 0.008357 -0.010732 0.002147 0.000000 0.000000 0.000000
# 2 -0.010732 0.024666 -0.004928 0.000000 0.000000 0.000000
# 3 0.002147 -0.004928 0.015955 0.000000 0.000000 0.000000
# 4 0.000000 0.000000 0.000000 -0.105486 0.000000 0.000000
# 5 0.000000 0.000000 0.000000 0.000000 0.122278 0.000000
# 6 0.000000 0.000000 0.000000 0.000000 0.000000 0.027098
#
#
# Mechanical properties :
#
#
# Convention : Reuss Voigt Hill
#
# Bulk Modulus (GPa) = 45.55272 77.22168 61.38720
# Shear Modulus (GPa) = 39.30541 27.20563 33.25552
#
# Velocity S-wave (km/s) = 4.30743 3.58361 3.96208
# Velocity P-wave (km/s) = 6.80011 7.31950 7.06458
#
# Compressibility (1/GPa) = 0.02195259
#
# Stress axis : x y z
#
# Youngs Moduli (GPa) = 119.66604 40.54201 62.67604
#
# Poissons Ratio (x) = 0.43508 -0.13459
# Poissons Ratio (y) = 1.28421 0.30888
# Poissons Ratio (z) = -0.25697 0.19980
#
# Static dielectric constant tensor:
#      x y z
#    x 1.810560 0.000000 0.000000 
#    y 0.000000 1.723650 0.000000 
#    z 0.000000 0.000000 1.937440 
# 
# From -- ./inp_files/19262.got.cif
#   From: 2010.05.17/outbox.cif.g08.bks.cpg/sg51_10_cif.got.tgz:19262.got - 2010.06.03 11:52:47.
