data_PCOD9407675
_publ_section_title
;
Structure prediction by ZEFSAII (Michael W. Deem and Ramdas Pophale) SiO2 
 PCOD9407675
Probable space group: P M M A
;
_chemical_formula_sum "Si O2"
_cell_formula_units_Z 64
_cell_length_a 15.000000
_cell_length_b 9.000000
_cell_length_c 24.000000
_cell_angle_alpha 90.000000
_cell_angle_beta 90.000000
_cell_angle_gamma 90.000000
_cell_volume 3240.000000
_symmetry_space_group_name_H-M "P M M A"
_symmetry_group_IT_number 51
_symmetry_cell_setting 'orthorhombic'
loop_
_space_group_symop_operation_xyz
x,y,z
1/2-x,-y,z
1/2+x,-y,-z
-x,y,-z
-x,-y,-z
1/2+x,y,-z
1/2-x,y,z
x,-y,z
loop_
_atom_site_type_symbol
_atom_site_label
_atom_site_fract_x
_atom_site_fract_y
_atom_site_fract_z
Si Si1 0.463619 0.676247 0.382028
Si Si2 0.649055 0.825263 0.394246
Si Si3 0.857675 0.330539 0.031772
Si Si4 0.642697 0.822231 0.916123
Si Si5 0.355776 0.822214 0.283448
Si Si6 0.647657 0.173420 0.528436
Si Si7 0.145298 0.178238 0.850204
Si Si8 0.468235 0.678305 0.184329
O O1 0.458752 0.500000 0.374613
O O2 0.564713 0.732895 0.373075
O O3 0.397728 0.761994 0.340327
O O4 0.425193 0.724700 0.442190
O O5 0.750000 0.779830 0.377131
O O6 0.645604 0.814832 0.461614
O O7 0.638366 0.000000 0.379881
O O8 0.750000 0.340139 0.028743
O O9 0.892323 0.500000 0.035012
O O10 0.875489 0.237981 0.087522
O O11 0.884645 0.245211 0.975881
O O12 0.750000 0.796225 0.907812
O O13 0.583741 0.742364 0.869533
O O14 0.629351 0.000000 0.914622
O O15 0.250000 0.792175 0.280125
O O16 0.409993 0.738224 0.235511
O O17 0.367947 0.000000 0.278607
O O18 0.750000 0.208439 0.545932
O O19 0.630233 0.000000 0.542634
O O20 0.250000 0.215043 0.837870
O O21 0.068612 0.255383 0.813630
O O22 0.136928 0.000000 0.847937
O O23 0.471503 0.500000 0.182856
#
# Coordination Sequence:
#
# PCOD9407675 Si02
#       8
#     8   8   8   8   8   8   8   8
#     4  12  24  36  56  88 123 157 194 241 297 351
#     4   9  19  37  60  85 117 160 206 247 287 338
#     4   9  17  31  53  83 118 152 188 235 290 341
#     4  10  20  35  56  83 117 156 196 235 280 343
#     4  11  25  46  69  89 113 149 193 239 285 338
#     4   9  18  34  57  85 118 159 205 247 288 341
#     4  10  21  39  62  86 115 152 193 235 280 338
#     4  12  25  40  61  88 117 148 186 237 294 347
#
# _framework density 19.753086
#
# number of rings (size 3 to 8) (size 9 to 14) (size 15 to 20)
#    0.000    1.750    0.000    5.625    0.000   10.000 
#    0.000    4.375    0.000    3.750    0.000    0.000 
#    0.000    0.000    0.000    0.000    0.000    0.000 
#
# Total GULP energy -357713.462065 kJ/mol
# GULP energy per Si atom -5589.272845 kJ/mol
# Density = 1.970813 g / cm^3
# Si number density = 19.753086 Si / 1000 Ang^3
#
#
#
# Elastic Constant Matrix: (Units=GPa)
#
#
# Indices 1 2 3 4 5 6 
#
# 1 124.1824 69.9931 28.7171 0.0000 0.0000 0.0000
# 2 69.9931 129.5929 24.2551 0.0000 0.0000 0.0000
# 3 28.7171 24.2551 37.3220 0.0000 0.0000 0.0000
# 4 0.0000 0.0000 0.0000 60.6966 0.0000 0.0000
# 5 0.0000 0.0000 0.0000 0.0000 29.2063 0.0000
# 6 0.0000 0.0000 0.0000 0.0000 0.0000 24.6125
#
#
#
# Elastic Compliance Matrix: (Units=1/GPa)
#
#
# Indices 1 2 3 4 5 6 
#
# 1 0.012668 -0.005712 -0.006035 0.000000 0.000000 0.000000
# 2 -0.005712 0.011361 -0.002988 0.000000 0.000000 0.000000
# 3 -0.006035 -0.002988 0.033379 0.000000 0.000000 0.000000
# 4 0.000000 0.000000 0.000000 0.016475 0.000000 0.000000
# 5 0.000000 0.000000 0.000000 0.000000 0.034239 0.000000
# 6 0.000000 0.000000 0.000000 0.000000 0.000000 0.040630
#
#
# Mechanical properties :
#
#
# Convention : Reuss Voigt Hill
#
# Bulk Modulus (GPa) = 35.79405 59.66976 47.73190
# Shear Modulus (GPa) = 26.66166 34.11189 30.38678
#
# Velocity S-wave (km/s) = 3.67788 4.16012 3.92641
# Velocity P-wave (km/s) = 6.01629 7.30403 6.69121
#
# Compressibility (1/GPa) = 0.02793761
#
# Stress axis : x y z
#
# Youngs Moduli (GPa) = 78.93956 88.02041 29.95890
#
# Poissons Ratio (x) = 0.50281 0.18080
# Poissons Ratio (y) = 0.45094 0.08952
# Poissons Ratio (z) = 0.47638 0.26300
#
# Static dielectric constant tensor:
#      x y z
#    x 1.706790 0.000000 0.000000 
#    y 0.000000 1.656910 0.000000 
#    z 0.000000 0.000000 1.743220 
# 
# From -- ./inp_files/35838.got.cif
#   From: 2010.05.17/outbox.ucp.g08.bks.cvg/sg51_18_cif.got.tgz:35838.got - 2010.06.11 16:27:58.
