data_PCOD9407559
_publ_section_title
;
Structure prediction by ZEFSAII (Michael W. Deem and Ramdas Pophale) SiO2 
 PCOD9407559
Probable space group: P M M A
;
_chemical_formula_sum "Si O2"
_cell_formula_units_Z 56
_cell_length_a 9.000000
_cell_length_b 15.000000
_cell_length_c 21.000000
_cell_angle_alpha 90.000000
_cell_angle_beta 90.000000
_cell_angle_gamma 90.000000
_cell_volume 2835.000000
_symmetry_space_group_name_H-M "P M M A"
_symmetry_group_IT_number 51
_symmetry_cell_setting 'orthorhombic'
loop_
_space_group_symop_operation_xyz
x,y,z
1/2-x,-y,z
1/2+x,-y,-z
-x,y,-z
-x,-y,-z
1/2+x,y,-z
1/2-x,y,z
x,-y,z
loop_
_atom_site_type_symbol
_atom_site_label
_atom_site_fract_x
_atom_site_fract_y
_atom_site_fract_z
Si Si1 0.919136 0.645548 0.697104
Si Si2 0.569743 0.598367 0.836698
Si Si3 0.078697 0.103280 0.836117
Si Si4 0.581853 0.392415 0.435632
Si Si5 0.579379 0.143035 0.704135
Si Si6 0.582253 0.893069 0.563243
Si Si7 0.070931 0.758520 0.070340
O O1 0.750000 0.611582 0.689165
O O2 0.984046 0.608421 0.763521
O O3 0.913063 0.750824 0.708815
O O4 0.003628 0.629424 0.631208
O O5 0.750000 0.605623 0.831913
O O6 0.531424 0.500000 0.859910
O O7 0.523568 0.673197 0.886803
O O8 0.250000 0.134683 0.835624
O O9 0.011707 0.110490 0.764873
O O10 0.984111 0.159201 0.886617
O O11 0.076588 0.000000 0.854458
O O12 0.500000 0.361153 0.500000
O O13 0.750000 0.358133 0.435127
O O14 0.585983 0.500000 0.439208
O O15 0.750000 0.108074 0.706371
O O16 0.516130 0.123291 0.633525
O O17 0.500000 0.859776 0.500000
O O18 0.750000 0.855872 0.564643
O O19 0.591037 0.000000 0.557021
O O20 0.250000 0.759115 0.064923
O O21 0.000000 0.758385 0.000000
#
# Coordination Sequence:
#
# PCOD9407559 Si02
#       7
#     8   8   8   8   8   8   8
#     4  10  19  34  57  84 114 151 195 244 300 358
#     4   9  18  35  61  91 123 160 200 240 290 353
#     4  11  24  41  63  92 124 160 202 248 300 355
#     4  10  21  36  53  76 108 149 198 251 306 361
#     4  10  20  36  58  85 115 152 198 246 299 357
#     4   9  18  32  50  73 105 145 190 240 291 345
#     4  11  23  42  66  94 127 162 199 242 293 351
#
# _framework density 19.753086
#
# number of rings (size 3 to 8) (size 9 to 14) (size 15 to 20)
#    0.000    2.000    1.429    2.143    0.000    5.429 
#    0.000    2.857    0.000    2.143    0.000    0.000 
#    0.000    0.000    0.000    0.000    0.000    0.000 
#
# Total GULP energy -312463.447671 kJ/mol
# GULP energy per Si atom -5579.704423 kJ/mol
# Density = 1.970813 g / cm^3
# Si number density = 19.753086 Si / 1000 Ang^3
#
#
#
# Elastic Constant Matrix: (Units=GPa)
#
#
# Indices 1 2 3 4 5 6 
#
# 1 79.6179 22.6878 66.8102 0.0000 0.0000 0.0000
# 2 22.6878 79.9678 42.2228 0.0000 0.0000 0.0000
# 3 66.8102 42.2228 191.1934 0.0000 0.0000 0.0000
# 4 0.0000 0.0000 0.0000 61.2393 0.0000 0.0000
# 5 0.0000 0.0000 0.0000 0.0000 35.0482 0.0000
# 6 0.0000 0.0000 0.0000 0.0000 0.0000 23.4951
#
#
#
# Elastic Compliance Matrix: (Units=1/GPa)
#
#
# Indices 1 2 3 4 5 6 
#
# 1 0.018057 -0.002028 -0.005862 0.000000 0.000000 0.000000
# 2 -0.002028 0.014383 -0.002468 0.000000 0.000000 0.000000
# 3 -0.005862 -0.002468 0.007824 0.000000 0.000000 0.000000
# 4 0.000000 0.000000 0.000000 0.016329 0.000000 0.000000
# 5 0.000000 0.000000 0.000000 0.000000 0.028532 0.000000
# 6 0.000000 0.000000 0.000000 0.000000 0.000000 0.042562
#
#
# Mechanical properties :
#
#
# Convention : Reuss Voigt Hill
#
# Bulk Modulus (GPa) = 51.15425 68.24673 59.70049
# Shear Modulus (GPa) = 32.27502 38.56041 35.41772
#
# Velocity S-wave (km/s) = 4.04657 4.42307 4.23900
# Velocity P-wave (km/s) = 6.91274 7.79164 7.36531
#
# Compressibility (1/GPa) = 0.01954872
#
# Stress axis : x y z
#
# Youngs Moduli (GPa) = 55.38088 69.52487 127.81752
#
# Poissons Ratio (x) = 0.14099 0.74925
# Poissons Ratio (y) = 0.11230 0.31543
# Poissons Ratio (z) = 0.32464 0.17157
#
# Static dielectric constant tensor:
#      x y z
#    x 1.708680 0.000000 0.000000 
#    y 0.000000 1.726810 0.000000 
#    z 0.000000 0.000000 1.668380 
# 
# From -- ./inp_files/32021.got.cif
#   From: 2010.05.17/outbox.ucp.g08.bks.cvg/sg51_17_cif.got.tgz:32021.got - 2010.06.11 16:27:58.
