data_PCOD9407129
_publ_section_title
;
Structure prediction by ZEFSAII (Michael W. Deem and Ramdas Pophale) SiO2 
 PCOD9407129
Probable space group: P M M A
;
_chemical_formula_sum "Si O2"
_cell_formula_units_Z 30
_cell_length_a 13.590346
_cell_length_b 11.214097
_cell_length_c 9.396622
_cell_angle_alpha 90.000000
_cell_angle_beta 90.000000
_cell_angle_gamma 90.000000
_cell_volume 1432.077689
_symmetry_space_group_name_H-M "P M M A"
_symmetry_group_IT_number 51
_symmetry_cell_setting 'orthorhombic'
loop_
_space_group_symop_operation_xyz
x,y,z
1/2-x,-y,z
1/2+x,-y,-z
-x,y,-z
-x,-y,-z
1/2+x,y,-z
1/2-x,y,z
x,-y,z
loop_
_atom_site_type_symbol
_atom_site_label
_atom_site_fract_x
_atom_site_fract_y
_atom_site_fract_z
Si Si1 0.426441 0.869352 0.133866
Si Si2 0.455914 0.728545 0.652910
Si Si3 0.250000 0.751227 0.002423
Si Si4 0.750000 0.144329 0.305108
Si Si5 0.473568 0.500000 0.166994
Si Si6 0.750000 0.500000 0.925339
O O1 0.483728 0.835974 0.274677
O O2 0.343965 0.775634 0.097782
O O3 0.381491 0.000000 0.143497
O O4 0.500000 0.868003 0.000000
O O5 0.500000 0.698407 0.500000
O O6 0.345919 0.781938 0.643815
O O7 0.477744 0.615909 0.756751
O O8 0.250000 0.613024 0.970208
O O9 0.250000 0.836760 0.866583
O O10 0.750000 0.000000 0.335194
O O11 0.352399 0.500000 0.166613
O O12 0.500000 0.500000 0.000000
#
# Coordination Sequence:
#
# PCOD9407129 Si02
#       6
#     8   8   4   4   4   2
#     4  11  22  40  67 100 137 180 241 301 351 418
#     4  12  27  46  71 107 148 192 235 296 374 439
#     4  12  22  41  69 108 132 189 246 301 362 414
#     4  12  26  46  73 104 146 192 246 305 357 431
#     4  12  25  49  75 108 145 191 248 305 362 430
#     4  12  24  40  74 102 150 176 234 312 362 428
#
# _framework density 20.948585999999999
#
# number of rings (size 3 to 8) (size 9 to 14) (size 15 to 20)
#    0.000    0.267    5.333    4.800    0.000    4.800 
#    0.000    0.000    0.000    0.000    0.000    0.000 
#    0.000    0.000    0.000    0.000    0.000    0.000 
#
# Total GULP energy -167571.192051 kJ/mol
# GULP energy per Si atom -5585.706402 kJ/mol
# Density = 2.090091 g / cm^3
# Si number density = 20.948586 Si / 1000 Ang^3
#
#
#
# Elastic Constant Matrix: (Units=GPa)
#
#
# Indices 1 2 3 4 5 6 
#
# 1 156.5860 53.3321 39.1485 0.0000 0.0000 0.0000
# 2 53.3321 149.5089 33.8472 0.0000 0.0000 0.0000
# 3 39.1485 33.8472 117.2007 0.0000 0.0000 0.0000
# 4 0.0000 0.0000 0.0000 105.8390 0.0000 0.0000
# 5 0.0000 0.0000 0.0000 0.0000 104.1258 0.0000
# 6 0.0000 0.0000 0.0000 0.0000 0.0000 27.2046
#
#
#
# Elastic Compliance Matrix: (Units=1/GPa)
#
#
# Indices 1 2 3 4 5 6 
#
# 1 0.007641 -0.002298 -0.001889 0.000000 0.000000 0.000000
# 2 -0.002298 0.007848 -0.001499 0.000000 0.000000 0.000000
# 3 -0.001889 -0.001499 0.009596 0.000000 0.000000 0.000000
# 4 0.000000 0.000000 0.000000 0.009448 0.000000 0.000000
# 5 0.000000 0.000000 0.000000 0.000000 0.009604 0.000000
# 6 0.000000 0.000000 0.000000 0.000000 0.000000 0.036759
#
#
# Mechanical properties :
#
#
# Convention : Reuss Voigt Hill
#
# Bulk Modulus (GPa) = 72.91928 75.10568 74.01248
# Shear Modulus (GPa) = 51.63267 67.23173 59.43220
#
# Velocity S-wave (km/s) = 4.96999 5.67127 5.33218
# Velocity P-wave (km/s) = 8.23521 8.87776 8.56252
#
# Compressibility (1/GPa) = 0.01371379
#
# Stress axis : x y z
#
# Youngs Moduli (GPa) = 130.86957 127.42671 104.20924
#
# Poissons Ratio (x) = 0.29285 0.19682
# Poissons Ratio (y) = 0.30076 0.15618
# Poissons Ratio (z) = 0.24717 0.19098
#
# Static dielectric constant tensor:
#      x y z
#    x 1.777580 0.000000 0.000000 
#    y 0.000000 1.764500 0.000000 
#    z 0.000000 0.000000 1.679470 
# 
# From -- ./inp_files/7547.got.cif
#   From: 2010.05.17/outbox.cif.g08.bks.cpg/sg51_4_cif.got.tgz:7547.got - 2010.06.03 11:52:47.
