data_PCOD9407955
_publ_section_title
;
Structure prediction by ZEFSAII (Michael W. Deem and Ramdas Pophale) SiO2 
 PCOD9407955
Probable space group: P N N A
;
_chemical_formula_sum "Si O2"
_cell_formula_units_Z 36
_cell_length_a 5.248734
_cell_length_b 18.083438
_cell_length_c 13.950016
_cell_angle_alpha 90.000000
_cell_angle_beta 90.000000
_cell_angle_gamma 90.000000
_cell_volume 1324.067943
_symmetry_space_group_name_H-M "P N N A"
_symmetry_group_IT_number 52
_symmetry_cell_setting 'orthorhombic'
loop_
_space_group_symop_operation_xyz
x,y,z
1/2-x,-y,z
x,1/2-y,1/2-z
1/2-x,1/2+y,1/2-z
-x,-y,-z
1/2+x,y,-z
-x,1/2+y,1/2+z
1/2+x,1/2-y,1/2+z
loop_
_atom_site_type_symbol
_atom_site_label
_atom_site_fract_x
_atom_site_fract_y
_atom_site_fract_z
Si Si1 0.631358 0.117325 0.244715
Si Si2 0.934499 0.250000 0.250000
Si Si3 0.991330 0.046601 0.387727
Si Si4 0.606980 0.647057 0.555664
Si Si5 0.209516 0.816731 0.409165
O O1 0.761940 0.189798 0.200762
O O2 0.865971 0.068789 0.284764
O O3 0.428744 0.107258 0.160060
O O4 0.504090 0.142134 0.345306
O O5 0.108592 0.214920 0.327531
O O6 0.089100 0.119647 0.446894
O O7 0.750000 0.000000 0.431183
O O8 0.250000 0.000000 0.369774
O O9 0.372807 0.623414 0.489716
O O10 0.607644 0.739001 0.549198
#
# Coordination Sequence:
#
# PCOD9407955 Si02
#       5
#     8   4   8   8   8
#     4  11  21  38  66  92 132 164 212 272 321 378
#     4  10  16  32  64  92 120 160 206 260 342 356
#     4  11  24  39  66  99 118 165 228 278 306 365
#     4  12  26  38  61 101 140 168 204 258 340 400
#     4  11  21  38  66  92 132 164 212 272 321 378
#
# _framework density 27.188938
#
# number of rings (size 3 to 8) (size 9 to 14) (size 15 to 20)
#    0.000    0.889    6.667    1.333    6.222    0.000 
#    0.000    0.000    0.000    8.000    0.000    0.000 
#    0.000    0.000    0.000    0.000    0.000    0.000 
#
# Total GULP energy -200816.938499 kJ/mol
# GULP energy per Si atom -5578.248292 kJ/mol
# Density = 2.712705 g / cm^3
# Si number density = 27.188938 Si / 1000 Ang^3
#
#
#
# Elastic Constant Matrix: (Units=GPa)
#
#
# Indices 1 2 3 4 5 6 
#
# 1 190.8604 21.1886 44.9920 0.0000 0.0000 0.0000
# 2 21.1886 59.0959 21.3705 0.0000 0.0000 0.0000
# 3 44.9920 21.3705 119.8058 0.0000 0.0000 0.0000
# 4 0.0000 0.0000 0.0000 23.5907 0.0000 0.0000
# 5 0.0000 0.0000 0.0000 0.0000 18.4274 0.0000
# 6 0.0000 0.0000 0.0000 0.0000 0.0000 27.8788
#
#
#
# Elastic Compliance Matrix: (Units=1/GPa)
#
#
# Indices 1 2 3 4 5 6 
#
# 1 0.005854 -0.001394 -0.001950 0.000000 0.000000 0.000000
# 2 -0.001394 0.018420 -0.002762 0.000000 0.000000 0.000000
# 3 -0.001950 -0.002762 0.009572 0.000000 0.000000 0.000000
# 4 0.000000 0.000000 0.000000 0.042390 0.000000 0.000000
# 5 0.000000 0.000000 0.000000 0.000000 0.054267 0.000000
# 6 0.000000 0.000000 0.000000 0.000000 0.000000 0.035870
#
#
# Mechanical properties :
#
#
# Convention : Reuss Voigt Hill
#
# Bulk Modulus (GPa) = 46.22312 60.54051 53.38182
# Shear Modulus (GPa) = 26.91140 32.79346 29.85243
#
# Velocity S-wave (km/s) = 3.14951 3.47671 3.31715
# Velocity P-wave (km/s) = 5.50123 6.19932 5.86068
#
# Compressibility (1/GPa) = 0.02163419
#
# Stress axis : x y z
#
# Youngs Moduli (GPa) = 170.82986 54.28795 104.47387
#
# Poissons Ratio (x) = 0.07567 0.20369
# Poissons Ratio (y) = 0.23810 0.28859
# Poissons Ratio (z) = 0.33307 0.14996
#
# Static dielectric constant tensor:
#      x y z
#    x 2.168440 0.000000 0.000000 
#    y 0.000000 2.424010 0.000000 
#    z 0.000000 0.000000 2.168500 
# 
# From -- ./inp_files/23564.got.cif
#   From: 2010.05.17/outbox.cif.g08.bks.cpg/sg52_12_cif.got.tgz:23564.got - 2010.06.03 12:15:38.
