data_PCOD9407724
_publ_section_title
;
Structure prediction by ZEFSAII (Michael W. Deem and Ramdas Pophale) SiO2 
 PCOD9407724
Probable space group: P M M A
;
_chemical_formula_sum "Si O2"
_cell_formula_units_Z 56
_cell_length_a 15.000000
_cell_length_b 15.000000
_cell_length_c 15.000000
_cell_angle_alpha 90.000000
_cell_angle_beta 90.000000
_cell_angle_gamma 90.000000
_cell_volume 3375.000000
_symmetry_space_group_name_H-M "P M M A"
_symmetry_group_IT_number 51
_symmetry_cell_setting 'orthorhombic'
loop_
_space_group_symop_operation_xyz
x,y,z
1/2-x,-y,z
1/2+x,-y,-z
-x,y,-z
-x,-y,-z
1/2+x,y,-z
1/2-x,y,z
x,-y,z
loop_
_atom_site_type_symbol
_atom_site_label
_atom_site_fract_x
_atom_site_fract_y
_atom_site_fract_z
Si Si1 0.032706 0.795664 0.808399
Si Si2 0.529879 0.607256 0.281518
Si Si3 0.647056 0.397519 0.609725
Si Si4 0.144089 0.708887 0.567757
Si Si5 0.146164 0.897259 0.945377
Si Si6 0.642977 0.105381 0.347446
Si Si7 0.146992 0.895817 0.160378
O O1 0.039928 0.688824 0.790383
O O2 0.079415 0.828140 0.899715
O O3 0.088749 0.853248 0.735556
O O4 0.930716 0.831048 0.804758
O O5 0.549550 0.500000 0.262843
O O6 0.427273 0.610253 0.314466
O O7 0.590063 0.646750 0.362723
O O8 0.750000 0.384007 0.638512
O O9 0.641116 0.500000 0.574982
O O10 0.625986 0.328562 0.530733
O O11 0.250000 0.696865 0.584773
O O12 0.125851 0.815264 0.579668
O O13 0.250000 0.882163 0.918974
O O14 0.122917 0.000000 0.920063
O O15 0.142645 0.892253 0.052457
O O16 0.750000 0.106427 0.330379
O O17 0.620195 0.000000 0.365098
O O18 0.250000 0.874222 0.185950
O O19 0.130349 0.000000 0.185440
#
# Coordination Sequence:
#
# PCOD9407724 Si02
#       7
#     8   8   8   8   8   8   8
#     4  11  19  28  47  68  92 125 154 181 223 272
#     4  10  21  33  45  66  94 121 152 192 234 272
#     4   9  17  31  51  69  84 109 150 197 236 267
#     4   9  17  29  48  71  91 116 151 190 233 275
#     4   9  17  30  50  75  97 116 145 184 222 265
#     4   9  17  28  43  67  97 124 150 181 220 272
#     4   9  18  31  48  72  97 119 147 184 223 263
#
# _framework density 16.592593000000001
#
# number of rings (size 3 to 8) (size 9 to 14) (size 15 to 20)
#    0.000    2.571    0.000    3.857    0.000    5.429 
#    0.000    0.000    0.000   10.286    0.000    4.000 
#    0.000    0.000    0.000    0.000    0.000    0.000 
#
# Total GULP energy -311814.317608 kJ/mol
# GULP energy per Si atom -5568.112814 kJ/mol
# Density = 1.655483 g / cm^3
# Si number density = 16.592593 Si / 1000 Ang^3
#
#
#
# Elastic Constant Matrix: (Units=GPa)
#
#
# Indices 1 2 3 4 5 6 
#
# 1 55.9805 33.6283 8.2786 0.0000 0.0000 0.0000
# 2 33.6283 143.7000 21.2869 0.0000 0.0000 0.0000
# 3 8.2786 21.2869 18.8596 0.0000 0.0000 0.0000
# 4 0.0000 0.0000 0.0000 27.3825 0.0000 0.0000
# 5 0.0000 0.0000 0.0000 0.0000 23.0334 0.0000
# 6 0.0000 0.0000 0.0000 0.0000 0.0000 29.8156
#
#
#
# Elastic Compliance Matrix: (Units=1/GPa)
#
#
# Indices 1 2 3 4 5 6 
#
# 1 0.021089 -0.004279 -0.004427 0.000000 0.000000 0.000000
# 2 -0.004279 0.009224 -0.008533 0.000000 0.000000 0.000000
# 3 -0.004427 -0.008533 0.064598 0.000000 0.000000 0.000000
# 4 0.000000 0.000000 0.000000 0.036520 0.000000 0.000000
# 5 0.000000 0.000000 0.000000 0.000000 0.043415 0.000000
# 6 0.000000 0.000000 0.000000 0.000000 0.000000 0.033539
#
#
# Mechanical properties :
#
#
# Convention : Reuss Voigt Hill
#
# Bulk Modulus (GPa) = 16.54744 38.32531 27.43637
# Shear Modulus (GPa) = 19.01076 26.40274 22.70675
#
# Velocity S-wave (km/s) = 3.38855 3.99336 3.70332
# Velocity P-wave (km/s) = 5.03032 6.66412 5.90401
#
# Compressibility (1/GPa) = 0.06043230
#
# Stress axis : x y z
#
# Youngs Moduli (GPa) = 47.41880 108.40762 15.48027
#
# Poissons Ratio (x) = 0.46391 0.06853
# Poissons Ratio (y) = 0.20292 0.13210
# Poissons Ratio (z) = 0.20992 0.92507
#
# Static dielectric constant tensor:
#      x y z
#    x 1.583530 0.000000 0.000000 
#    y 0.000000 1.563790 0.000000 
#    z 0.000000 0.000000 1.577900 
# 
# From -- ./inp_files/24316.got.cif
#   From: 2010.05.17/outbox.ucp.g08.bks.cvg/sg51_13_cif.got.tgz:24316.got - 2010.06.11 16:27:58.
