data_PCOD9407962
_publ_section_title
;
Structure prediction by ZEFSAII (Michael W. Deem and Ramdas Pophale) SiO2 
 PCOD9407962
Probable space group: P N N A
;
_chemical_formula_sum "Si O2"
_cell_formula_units_Z 52
_cell_length_a 13.594675
_cell_length_b 20.674735
_cell_length_c 8.496093
_cell_angle_alpha 90.000000
_cell_angle_beta 90.000000
_cell_angle_gamma 90.000000
_cell_volume 2387.965450
_symmetry_space_group_name_H-M "P N N A"
_symmetry_group_IT_number 52
_symmetry_cell_setting 'orthorhombic'
loop_
_space_group_symop_operation_xyz
x,y,z
1/2-x,-y,z
x,1/2-y,1/2-z
1/2-x,1/2+y,1/2-z
-x,-y,-z
1/2+x,y,-z
-x,1/2+y,1/2+z
1/2+x,1/2-y,1/2+z
loop_
_atom_site_type_symbol
_atom_site_label
_atom_site_fract_x
_atom_site_fract_y
_atom_site_fract_z
Si Si1 0.845480 0.539687 0.572314
Si Si2 0.669525 0.162622 0.125079
Si Si3 0.556309 0.949750 0.175340
Si Si4 0.467329 0.176043 0.039034
Si Si5 0.273633 0.239832 0.417034
Si Si6 0.030433 0.750000 0.750000
Si Si7 0.670981 0.636119 0.121411
O O1 0.750000 0.500000 0.623879
O O2 0.820235 0.612450 0.520968
O O3 0.887124 0.507471 0.410622
O O4 0.939729 0.537674 0.687115
O O5 0.553810 0.166339 0.163388
O O6 0.734350 0.135614 0.266445
O O7 0.714301 0.230070 0.063646
O O8 0.608850 0.927400 0.335486
O O9 0.563133 0.890849 0.045906
O O10 0.372985 0.216403 0.090586
O O11 0.519149 0.217997 0.899936
O O12 0.223262 0.250000 0.250000
O O13 0.297654 0.164716 0.453334
O O14 0.099779 0.693428 0.816452
#
# Coordination Sequence:
#
# PCOD9407962 Si02
#       7
#     8   8   8   8   8   4   8
#     4  10  17  28  52  88 111 135 191 242 274 332
#     4  11  19  31  55  80 108 145 185 236 279 333
#     4   9  17  30  51  81 108 143 184 241 281 324
#     4   9  18  31  50  74 107 141 190 222 284 333
#     4  11  22  35  50  77 113 150 186 233 285 348
#     4   8  14  30  48  66 102 144 164 228 274 340
#     4  10  16  34  52  71 109 143 180 228 291 326
#
# _framework density 21.775860000000002
#
# number of rings (size 3 to 8) (size 9 to 14) (size 15 to 20)
#    0.000    2.154    6.154    0.000    1.077    1.231 
#    0.000    0.000    0.000    0.000   12.000    6.462 
#    0.000    0.000    0.000    0.000    0.000    0.000 
#
# Total GULP energy -289864.233006 kJ/mol
# GULP energy per Si atom -5574.312173 kJ/mol
# Density = 2.172630 g / cm^3
# Si number density = 21.775860 Si / 1000 Ang^3
#
#
#
# Elastic Constant Matrix: (Units=GPa)
#
#
# Indices 1 2 3 4 5 6 
#
# 1 86.7081 5.5193 1.4369 0.0000 0.0000 0.0000
# 2 5.5193 54.3433 -0.0979 0.0000 0.0000 0.0000
# 3 1.4369 -0.0979 44.1410 0.0000 0.0000 0.0000
# 4 0.0000 0.0000 0.0000 22.6919 0.0000 0.0000
# 5 0.0000 0.0000 0.0000 0.0000 13.1795 0.0000
# 6 0.0000 0.0000 0.0000 0.0000 0.0000 23.7094
#
#
#
# Elastic Compliance Matrix: (Units=1/GPa)
#
#
# Indices 1 2 3 4 5 6 
#
# 1 0.011614 -0.001180 -0.000381 0.000000 0.000000 0.000000
# 2 -0.001180 0.018522 0.000080 0.000000 0.000000 0.000000
# 3 -0.000381 0.000080 0.022667 0.000000 0.000000 0.000000
# 4 0.000000 0.000000 0.000000 0.044069 0.000000 0.000000
# 5 0.000000 0.000000 0.000000 0.000000 0.075875 0.000000
# 6 0.000000 0.000000 0.000000 0.000000 0.000000 0.042177
#
#
# Mechanical properties :
#
#
# Convention : Reuss Voigt Hill
#
# Bulk Modulus (GPa) = 20.06411 22.10099 21.08255
# Shear Modulus (GPa) = 21.32188 23.80510 22.56349
#
# Velocity S-wave (km/s) = 3.13254 3.30993 3.22245
# Velocity P-wave (km/s) = 4.72415 4.97783 4.85265
#
# Compressibility (1/GPa) = 0.04984023
#
# Stress axis : x y z
#
# Youngs Moduli (GPa) = 86.10012 53.99115 44.11652
#
# Poissons Ratio (x) = 0.06372 0.01680
# Poissons Ratio (y) = 0.10162 -0.00351
# Poissons Ratio (z) = 0.03278 -0.00429
#
# Static dielectric constant tensor:
#      x y z
#    x 1.823160 0.000000 0.000000 
#    y 0.000000 1.848040 0.000000 
#    z 0.000000 0.000000 1.831710 
# 
# From -- ./inp_files/11045.got.cif
#   From: 2010.05.17/outbox.cif.g08.bks.cpg/sg52_6_cif.got.tgz:11045.got - 2010.06.03 12:15:38.
