data_PCOD9407338
_publ_section_title
;
Structure prediction by ZEFSAII (Michael W. Deem and Ramdas Pophale) SiO2 
 PCOD9407338
Probable space group: P M M A
;
_chemical_formula_sum "Si O2"
_cell_formula_units_Z 40
_cell_length_a 7.484514
_cell_length_b 7.770921
_cell_length_c 31.356435
_cell_angle_alpha 90.000000
_cell_angle_beta 90.000000
_cell_angle_gamma 90.000000
_cell_volume 1823.739396
_symmetry_space_group_name_H-M "P M M A"
_symmetry_group_IT_number 51
_symmetry_cell_setting 'orthorhombic'
loop_
_space_group_symop_operation_xyz
x,y,z
1/2-x,-y,z
1/2+x,-y,-z
-x,y,-z
-x,-y,-z
1/2+x,y,-z
1/2-x,y,z
x,-y,z
loop_
_atom_site_type_symbol
_atom_site_label
_atom_site_fract_x
_atom_site_fract_y
_atom_site_fract_z
Si Si1 0.045874 0.793616 0.862422
Si Si2 0.950691 0.292962 0.047194
Si Si3 0.531899 0.500000 0.293109
Si Si4 0.963867 0.194693 0.451388
Si Si5 0.030744 0.500000 0.608988
Si Si6 0.031106 0.801550 0.769451
O O1 0.250000 0.722605 0.863256
O O2 0.957687 0.751330 0.907914
O O3 0.969039 0.741633 0.816607
O O4 0.055302 0.000000 0.860168
O O5 0.750000 0.227923 0.052589
O O6 0.953869 0.500000 0.044809
O O7 0.000000 0.229927 0.000000
O O8 0.750000 0.500000 0.293282
O O9 0.473567 0.500000 0.342013
O O10 0.476144 0.330833 0.266918
O O11 0.750000 0.186689 0.446752
O O12 0.029055 0.332063 0.417139
O O13 0.000000 0.250433 0.500000
O O14 0.033999 0.000000 0.446201
O O15 0.250000 0.500000 0.608792
O O16 0.250000 0.801745 0.771033
O O17 0.977090 0.000000 0.762155
#
# Coordination Sequence:
#
# PCOD9407338 Si02
#       6
#     8   8   4   8   4   8
#     4   8  14  24  37  53  73  99 130 162 196 234
#     4   9  17  27  39  56  78 103 129 158 195 239
#     4   9  16  23  35  54  77 109 141 167 206 255
#     4   9  17  29  45  64  88 119 151 181 214 251
#     4   9  17  27  38  58  86 115 147 179 214 257
#     4   8  14  23  34  51  75 102 135 171 203 243
#
# _framework density 21.932960000000001
#
# number of rings (size 3 to 8) (size 9 to 14) (size 15 to 20)
#    0.000    3.400    0.000    1.500    1.400    1.200 
#    0.000    4.000    0.000    0.000    0.000    0.000 
#    0.000    3.200    0.000    2.400    0.000    0.800 
#
# Total GULP energy -222913.137699 kJ/mol
# GULP energy per Si atom -5572.828442 kJ/mol
# Density = 2.188304 g / cm^3
# Si number density = 21.932960 Si / 1000 Ang^3
#
#
#
# Elastic Constant Matrix: (Units=GPa)
#
#
# Indices 1 2 3 4 5 6 
#
# 1 56.3668 5.5407 11.5486 0.0000 0.0000 0.0000
# 2 5.5407 95.8301 112.0993 0.0000 0.0000 0.0000
# 3 11.5486 112.0993 273.5746 0.0000 0.0000 0.0000
# 4 0.0000 0.0000 0.000016878.3807 0.0000 0.0000
# 5 0.0000 0.0000 0.0000 0.0000 8.1416 0.0000
# 6 0.0000 0.0000 0.0000 0.0000 0.0000 -4.3453
#
#
#
# Elastic Compliance Matrix: (Units=1/GPa)
#
#
# Indices 1 2 3 4 5 6 
#
# 1 0.017900 -0.000290 -0.000637 0.000000 0.000000 0.000000
# 2 -0.000290 0.020046 -0.008202 0.000000 0.000000 0.000000
# 3 -0.000637 -0.008202 0.007043 0.000000 0.000000 0.000000
# 4 0.000000 0.000000 0.000000 0.000059 0.000000 0.000000
# 5 0.000000 0.000000 0.000000 0.000000 0.122826 0.000000
# 6 0.000000 0.000000 0.000000 0.000000 0.000000 -0.230131
#
#
# Mechanical properties :
#
#
# Convention : Reuss Voigt Hill
#
# Bulk Modulus (GPa) = 37.40872 76.01652 56.71262
# Shear Modulus (GPa) = -142.49393 3396.20759 1626.85683
#
# Velocity S-wave (km/s) = -8.06901 39.39303 27.26446
# Velocity P-wave (km/s) = 8.34979 45.86736 31.89119
#
# Compressibility (1/GPa) = 0.02673173
#
# Stress axis : x y z
#
# Youngs Moduli (GPa) = 55.86619 49.88485 141.98587
#
# Poissons Ratio (x) = 0.01447 0.09041
# Poissons Ratio (y) = 0.01620 1.16454
# Poissons Ratio (z) = 0.03557 0.40915
#
# Static dielectric constant tensor:
#      x y z
#    x 1.921280 0.000000 0.000000 
#    y 0.000000 1.775710 0.000000 
#    z 0.000000 0.000000 1.819470 
# 
# From -- ./inp_files/36052.got.cif
#   From: 2010.05.17/outbox.cif.g08.bks.cpg/sg51_19_cif.got.tgz:36052.got - 2010.06.03 11:52:47.
