data_PCOD9407510
_publ_section_title
;
Structure prediction by ZEFSAII (Michael W. Deem and Ramdas Pophale) SiO2 
 PCOD9407510
Probable space group: P M M A
;
_chemical_formula_sum "Si O2"
_cell_formula_units_Z 64
_cell_length_a 18.000000
_cell_length_b 9.000000
_cell_length_c 24.000000
_cell_angle_alpha 90.000000
_cell_angle_beta 90.000000
_cell_angle_gamma 90.000000
_cell_volume 3888.000000
_symmetry_space_group_name_H-M "P M M A"
_symmetry_group_IT_number 51
_symmetry_cell_setting 'orthorhombic'
loop_
_space_group_symop_operation_xyz
x,y,z
1/2-x,-y,z
1/2+x,-y,-z
-x,y,-z
-x,-y,-z
1/2+x,y,-z
1/2-x,y,z
x,-y,z
loop_
_atom_site_type_symbol
_atom_site_label
_atom_site_fract_x
_atom_site_fract_y
_atom_site_fract_z
Si Si1 0.953222 0.321191 0.866315
Si Si2 0.927615 0.329537 0.539984
Si Si3 0.335983 0.821078 0.555008
Si Si4 0.976776 0.178493 0.367367
Si Si5 0.028860 0.320993 0.754042
Si Si6 0.165524 0.174981 0.815069
Si Si7 0.664631 0.681348 0.953763
Si Si8 0.610067 0.678371 0.076274
O O1 0.946618 0.500000 0.862694
O O2 0.882518 0.265040 0.900653
O O3 0.971512 0.271675 0.803281
O O4 0.025525 0.292381 0.904702
O O5 0.908417 0.500000 0.553883
O O6 0.864185 0.252735 0.502579
O O7 0.000000 0.332265 0.500000
O O8 0.956880 0.239890 0.593535
O O9 0.250000 0.780567 0.567657
O O10 0.397666 0.781618 0.602328
O O11 0.339184 0.000000 0.549144
O O12 0.982483 0.248896 0.306181
O O13 0.979946 0.000000 0.364408
O O14 0.026857 0.500000 0.750053
O O15 0.108164 0.267577 0.778009
O O16 0.250000 0.192469 0.795690
O O17 0.158469 0.235794 0.878050
O O18 0.146435 0.000000 0.813434
O O19 0.750000 0.729208 0.952402
O O20 0.663684 0.500000 0.952473
O O21 0.627837 0.722023 0.013020
O O22 0.622748 0.500000 0.081431
#
# Coordination Sequence:
#
# PCOD9407510 Si02
#       8
#     8   8   8   8   8   8   8   8
#     4   8  15  27  42  62  90 121 151 189 236 281
#     4   9  17  30  49  73 100 129 162 198 232 269
#     4   9  18  32  50  74 104 133 157 186 232 288
#     4  10  19  32  51  73  98 130 166 201 238 283
#     4  10  20  33  49  67  89 122 163 203 238 275
#     4  10  20  32  45  63  91 124 154 188 233 285
#     4   9  15  23  41  69  93 113 144 188 237 288
#     4   9  16  27  45  67  90 116 148 186 230 284
#
# _framework density 16.460905
#
# number of rings (size 3 to 8) (size 9 to 14) (size 15 to 20)
#    0.000    2.750    0.000    3.000    0.000    5.750 
#    0.000    1.250    0.000    7.500    0.000    1.750 
#    0.000    0.000    0.000    0.000    0.000    0.000 
#
# Total GULP energy -356539.067489 kJ/mol
# GULP energy per Si atom -5570.922930 kJ/mol
# Density = 1.642344 g / cm^3
# Si number density = 16.460905 Si / 1000 Ang^3
#
#
#
# Elastic Constant Matrix: (Units=GPa)
#
#
# Indices 1 2 3 4 5 6 
#
# 1 57.0583 19.4372 57.0298 0.0000 0.0000 0.0000
# 2 19.4372 42.7264 40.8873 0.0000 0.0000 0.0000
# 3 57.0298 40.8873 154.0191 0.0000 0.0000 0.0000
# 4 0.0000 0.0000 0.0000 20.2845 0.0000 0.0000
# 5 0.0000 0.0000 0.0000 0.0000 12.8468 0.0000
# 6 0.0000 0.0000 0.0000 0.0000 0.0000 15.1814
#
#
#
# Elastic Compliance Matrix: (Units=1/GPa)
#
#
# Indices 1 2 3 4 5 6 
#
# 1 0.028279 -0.003813 -0.009459 0.000000 0.000000 0.000000
# 2 -0.003813 0.031890 -0.007054 0.000000 0.000000 0.000000
# 3 -0.009459 -0.007054 0.011868 0.000000 0.000000 0.000000
# 4 0.000000 0.000000 0.000000 0.049299 0.000000 0.000000
# 5 0.000000 0.000000 0.000000 0.000000 0.077840 0.000000
# 6 0.000000 0.000000 0.000000 0.000000 0.000000 0.065870
#
#
# Mechanical properties :
#
#
# Convention : Reuss Voigt Hill
#
# Bulk Modulus (GPa) = 31.86252 54.27914 43.07083
# Shear Modulus (GPa) = 15.81488 18.75919 17.28704
#
# Velocity S-wave (km/s) = 3.10297 3.37949 3.24418
# Velocity P-wave (km/s) = 5.67771 6.94796 6.34470
#
# Compressibility (1/GPa) = 0.03138484
#
# Stress axis : x y z
#
# Youngs Moduli (GPa) = 35.36197 31.35819 84.26268
#
# Poissons Ratio (x) = 0.11957 0.79702
# Poissons Ratio (y) = 0.13484 0.59437
# Poissons Ratio (z) = 0.33448 0.22119
#
# Static dielectric constant tensor:
#      x y z
#    x 1.562140 0.000000 0.000000 
#    y 0.000000 1.550280 0.000000 
#    z 0.000000 0.000000 1.546620 
# 
# From -- ./inp_files/35909.got.cif
#   From: 2010.05.17/outbox.ucp.g08.bks.cvg/sg51_18_cif.got.tgz:35909.got - 2010.06.11 16:27:58.
