data_PCOD9407954
_publ_section_title
;
Structure prediction by ZEFSAII (Michael W. Deem and Ramdas Pophale) SiO2 
 PCOD9407954
Probable space group: P N N A
;
_chemical_formula_sum "Si O2"
_cell_formula_units_Z 60
_cell_length_a 20.841676
_cell_length_b 12.071866
_cell_length_c 10.986149
_cell_angle_alpha 90.000000
_cell_angle_beta 90.000000
_cell_angle_gamma 90.000000
_cell_volume 2764.092236
_symmetry_space_group_name_H-M "P N N A"
_symmetry_group_IT_number 52
_symmetry_cell_setting 'orthorhombic'
loop_
_space_group_symop_operation_xyz
x,y,z
1/2-x,-y,z
x,1/2-y,1/2-z
1/2-x,1/2+y,1/2-z
-x,-y,-z
1/2+x,y,-z
-x,1/2+y,1/2+z
1/2+x,1/2-y,1/2+z
loop_
_atom_site_type_symbol
_atom_site_label
_atom_site_fract_x
_atom_site_fract_y
_atom_site_fract_z
Si Si1 0.347038 0.751566 0.442014
Si Si2 0.967482 0.424112 0.609843
Si Si3 0.690656 0.935672 0.183001
Si Si4 0.602542 0.400649 0.744422
Si Si5 0.983602 0.250000 0.250000
Si Si6 0.727052 0.878248 0.456691
Si Si7 0.899835 0.857510 0.176805
Si Si8 0.390075 0.251222 0.539428
O O1 0.342890 0.661363 0.334188
O O2 0.381905 0.859344 0.381179
O O3 0.281778 0.792377 0.503261
O O4 0.389003 0.684363 0.539418
O O5 0.911468 0.480105 0.690635
O O6 0.935527 0.316601 0.550969
O O7 0.000000 0.500000 0.500000
O O8 0.026571 0.388985 0.693792
O O9 0.716283 0.885025 0.310125
O O10 0.656002 0.843537 0.102935
O O11 0.750000 0.000000 0.121110
O O12 0.640701 0.034248 0.208379
O O13 0.533360 0.344622 0.712052
O O14 0.937176 0.207329 0.355401
O O15 0.658406 0.841000 0.508923
O O16 0.750000 0.000000 0.495105
O O17 0.879090 0.750000 0.250000
#
# Coordination Sequence:
#
# PCOD9407954 Si02
#       8
#     8   8   8   8   4   8   8   8
#     4  10  21  43  66  95 131 183 231 278 357 425
#     4  12  21  41  67 104 135 174 245 291 348 427
#     4  11  21  35  62  97 131 172 220 282 356 416
#     4  10  21  41  74  94 131 186 233 290 347 429
#     4  10  16  32  62  98 124 168 214 284 370 412
#     4  11  24  40  58  93 138 180 227 282 356 427
#     4  12  23  40  65 101 145 176 224 300 357 429
#     4  12  21  37  65  94 134 172 231 302 346 423
#
# _framework density 21.706945999999999
#
# number of rings (size 3 to 8) (size 9 to 14) (size 15 to 20)
#    0.000    1.067    5.333    3.200    0.000    1.067 
#    2.400    3.333    0.000    0.800    0.000    0.000 
#    0.000    0.000    0.000    0.000    0.000    0.000 
#
# Total GULP energy -334800.412431 kJ/mol
# GULP energy per Si atom -5580.006874 kJ/mol
# Density = 2.165754 g / cm^3
# Si number density = 21.706946 Si / 1000 Ang^3
#
#
#
# Elastic Constant Matrix: (Units=GPa)
#
#
# Indices 1 2 3 4 5 6 
#
# 1 114.8091 31.8529 18.9824 0.0000 0.0000 0.0000
# 2 31.8529 70.7375 8.5478 0.0000 0.0000 0.0000
# 3 18.9824 8.5478 43.8982 0.0000 0.0000 0.0000
# 4 0.0000 0.0000 0.0000 22.5371 0.0000 0.0000
# 5 0.0000 0.0000 0.0000 0.0000 28.9549 0.0000
# 6 0.0000 0.0000 0.0000 0.0000 0.0000 43.5635
#
#
#
# Elastic Compliance Matrix: (Units=1/GPa)
#
#
# Indices 1 2 3 4 5 6 
#
# 1 0.010513 -0.004285 -0.003711 0.000000 0.000000 0.000000
# 2 -0.004285 0.016224 -0.001306 0.000000 0.000000 0.000000
# 3 -0.003711 -0.001306 0.024639 0.000000 0.000000 0.000000
# 4 0.000000 0.000000 0.000000 0.044371 0.000000 0.000000
# 5 0.000000 0.000000 0.000000 0.000000 0.034536 0.000000
# 6 0.000000 0.000000 0.000000 0.000000 0.000000 0.022955
#
#
# Mechanical properties :
#
#
# Convention : Reuss Voigt Hill
#
# Bulk Modulus (GPa) = 30.51539 38.69012 34.60276
# Shear Modulus (GPa) = 27.35707 30.34855 28.85281
#
# Velocity S-wave (km/s) = 3.55391 3.74318 3.64977
# Velocity P-wave (km/s) = 5.56136 6.04519 5.80832
#
# Compressibility (1/GPa) = 0.03277035
#
# Stress axis : x y z
#
# Youngs Moduli (GPa) = 95.12301 61.63598 40.58577
#
# Poissons Ratio (x) = 0.26413 0.15063
# Poissons Ratio (y) = 0.40764 0.05301
# Poissons Ratio (z) = 0.35304 0.08050
#
# Static dielectric constant tensor:
#      x y z
#    x 1.780840 0.000000 0.000000 
#    y 0.000000 1.876700 0.000000 
#    z 0.000000 0.000000 1.906890 
# 
# From -- ./inp_files/21769.got.cif
#   From: 2010.05.17/outbox.cif.g08.bks.cpg/sg52_11_cif.got.tgz:21769.got - 2010.06.03 12:15:38.
