data_PCOD9407540
_publ_section_title
;
Structure prediction by ZEFSAII (Michael W. Deem and Ramdas Pophale) SiO2 
 PCOD9407540
Probable space group: P M M A
;
_chemical_formula_sum "Si O2"
_cell_formula_units_Z 40
_cell_length_a 9.000000
_cell_length_b 27.000000
_cell_length_c 9.000000
_cell_angle_alpha 90.000000
_cell_angle_beta 90.000000
_cell_angle_gamma 90.000000
_cell_volume 2187.000000
_symmetry_space_group_name_H-M "P M M A"
_symmetry_group_IT_number 51
_symmetry_cell_setting 'orthorhombic'
loop_
_space_group_symop_operation_xyz
x,y,z
1/2-x,-y,z
1/2+x,-y,-z
-x,y,-z
-x,-y,-z
1/2+x,y,-z
1/2-x,y,z
x,-y,z
loop_
_atom_site_type_symbol
_atom_site_label
_atom_site_fract_x
_atom_site_fract_y
_atom_site_fract_z
Si Si1 0.430695 0.336435 0.165878
Si Si2 0.071542 0.446324 0.163907
Si Si3 0.069143 0.242892 0.664129
Si Si4 0.930556 0.851202 0.836226
Si Si5 0.571934 0.942788 0.336246
O O1 0.250000 0.330221 0.161501
O O2 0.465058 0.391984 0.228955
O O3 0.508353 0.292543 0.256365
O O4 0.500000 0.334742 0.000000
O O5 0.250000 0.446425 0.149011
O O6 0.029212 0.500000 0.234101
O O7 0.000000 0.446466 0.000000
O O8 0.250000 0.241413 0.663485
O O9 0.000000 0.242420 0.500000
O O10 0.000763 0.195052 0.747075
O O11 0.750000 0.848939 0.837141
O O12 0.988665 0.902220 0.762854
O O13 0.000000 0.848613 0.000000
O O14 0.500000 0.939427 0.500000
O O15 0.750000 0.933035 0.341830
O O16 0.552130 0.000000 0.285220
#
# Coordination Sequence:
#
# PCOD9407540 Si02
#       5
#     8   8   8   8   8
#     4  10  19  33  54  82 114 147 185 229 278 330
#     4   8  14  25  44  72 106 142 179 221 269 322
#     4  12  25  42  61  82 110 145 187 232 283 340
#     4  12  25  42  63  88 118 151 190 235 284 334
#     4  10  21  39  63  91 123 159 197 235 278 330
#
# _framework density 18.289895000000001
#
# number of rings (size 3 to 8) (size 9 to 14) (size 15 to 20)
#    0.000    1.600    0.000    6.000    0.000    2.400 
#    0.000    0.000    0.000    0.600    0.000    0.000 
#    0.000    0.000    0.000    0.000    0.000    0.000 
#
# Total GULP energy -223186.188429 kJ/mol
# GULP energy per Si atom -5579.654711 kJ/mol
# Density = 1.824827 g / cm^3
# Si number density = 18.289895 Si / 1000 Ang^3
#
#
#
# Elastic Constant Matrix: (Units=GPa)
#
#
# Indices 1 2 3 4 5 6 
#
# 1 166.3066 86.0580 49.4415 0.0000 0.0000 0.0000
# 2 86.0580 200.2062 87.0544 0.0000 0.0000 0.0000
# 3 49.4415 87.0544 99.7319 0.0000 0.0000 0.0000
# 4 0.0000 0.0000 0.0000 -36.3745 0.0000 0.0000
# 5 0.0000 0.0000 0.0000 0.0000 31.1248 0.0000
# 6 0.0000 0.0000 0.0000 0.0000 0.0000 31.6838
#
#
#
# Elastic Compliance Matrix: (Units=1/GPa)
#
#
# Indices 1 2 3 4 5 6 
#
# 1 0.007875 -0.002720 -0.001530 0.000000 0.000000 0.000000
# 2 -0.002720 0.008990 -0.006499 0.000000 0.000000 0.000000
# 3 -0.001530 -0.006499 0.016458 0.000000 0.000000 0.000000
# 4 0.000000 0.000000 0.000000 -0.027492 0.000000 0.000000
# 5 0.000000 0.000000 0.000000 0.000000 0.032129 0.000000
# 6 0.000000 0.000000 0.000000 0.000000 0.000000 0.031562
#
#
# Mechanical properties :
#
#
# Convention : Reuss Voigt Hill
#
# Bulk Modulus (GPa) = 84.55988 101.26139 92.91064
# Shear Modulus (GPa) = 52.65336 21.53289 37.09312
#
# Velocity S-wave (km/s) = 5.37129 3.43492 4.50829
# Velocity P-wave (km/s) = 9.20875 8.43898 8.83226
#
# Compressibility (1/GPa) = 0.01182594
#
# Stress axis : x y z
#
# Youngs Moduli (GPa) = 126.97940 111.23772 60.76098
#
# Poissons Ratio (x) = 0.30256 0.09296
# Poissons Ratio (y) = 0.34537 0.39486
# Poissons Ratio (z) = 0.19428 0.72289
#
# Static dielectric constant tensor:
#      x y z
#    x 1.602680 0.000000 0.000000 
#    y 0.000000 1.673880 0.000000 
#    z 0.000000 0.000000 1.617740 
# 
# From -- ./inp_files/5223.got.cif
#   From: 2010.05.17/outbox.ucp.g08.bks.cvg/sg51_3_cif.got.tgz:5223.got - 2010.06.11 16:27:58.
