data_PCOD9407837
_publ_section_title
;
Structure prediction by ZEFSAII (Michael W. Deem and Ramdas Pophale) SiO2 
 PCOD9407837
Probable space group: P M M A
;
_chemical_formula_sum "Si O2"
_cell_formula_units_Z 48
_cell_length_a 30.000000
_cell_length_b 9.000000
_cell_length_c 9.000000
_cell_angle_alpha 90.000000
_cell_angle_beta 90.000000
_cell_angle_gamma 90.000000
_cell_volume 2430.000000
_symmetry_space_group_name_H-M "P M M A"
_symmetry_group_IT_number 51
_symmetry_cell_setting 'orthorhombic'
loop_
_space_group_symop_operation_xyz
x,y,z
1/2-x,-y,z
1/2+x,-y,-z
-x,y,-z
-x,-y,-z
1/2+x,y,-z
1/2-x,y,z
x,-y,z
loop_
_atom_site_type_symbol
_atom_site_label
_atom_site_fract_x
_atom_site_fract_y
_atom_site_fract_z
Si Si1 0.197191 0.169102 0.849645
Si Si2 0.033302 0.320832 0.194451
Si Si3 0.112843 0.820924 0.374686
Si Si4 0.871869 0.675033 0.312757
Si Si5 0.945967 0.179238 0.125879
Si Si6 0.199721 0.180018 0.189722
O O1 0.250000 0.160122 0.836825
O O2 0.178057 0.285220 0.733952
O O3 0.179538 0.000000 0.825946
O O4 0.188257 0.216827 0.019351
O O5 0.030167 0.500000 0.187592
O O6 0.071377 0.263900 0.303009
O O7 0.985527 0.246095 0.228013
O O8 0.046064 0.249178 0.035835
O O9 0.116219 0.765762 0.541455
O O10 0.159070 0.775710 0.294075
O O11 0.107667 0.000000 0.362516
O O12 0.880034 0.500000 0.325943
O O13 0.900591 0.751753 0.183902
O O14 0.946720 0.000000 0.121666
O O15 0.250000 0.233881 0.225620
O O16 0.201717 0.000000 0.194903
#
# Coordination Sequence:
#
# PCOD9407837 Si02
#       6
#     8   8   8   8   8   8
#     4   9  18  36  62  88 113 147 193 241 289 347
#     4  11  22  39  62  90 120 149 185 235 294 345
#     4  11  22  37  58  85 117 156 198 237 284 347
#     4  12  25  39  55  82 120 157 193 241 299 346
#     4  11  22  40  64  88 113 149 197 240 282 341
#     4   8  16  33  59  87 111 140 186 240 284 328
#
# _framework density 19.753086
#
# number of rings (size 3 to 8) (size 9 to 14) (size 15 to 20)
#    0.000    1.667    0.000    8.000    0.000    3.000 
#    0.000    5.833    0.000    3.500    0.000    0.000 
#    0.000    0.000    0.000    0.000    0.000    0.000 
#
# Total GULP energy -267863.080697 kJ/mol
# GULP energy per Si atom -5580.480848 kJ/mol
# Density = 1.970813 g / cm^3
# Si number density = 19.753086 Si / 1000 Ang^3
#
#
#
# Elastic Constant Matrix: (Units=GPa)
#
#
# Indices 1 2 3 4 5 6 
#
# 1 29.9632 13.1824 9.2624 0.0000 0.0000 0.0000
# 2 13.1824 102.7972 0.3763 0.0000 0.0000 0.0000
# 3 9.2624 0.3763 12.3223 0.0000 0.0000 0.0000
# 4 0.0000 0.0000 0.0000 17.8770 0.0000 0.0000
# 5 0.0000 0.0000 0.0000 0.0000 -36.0036 0.0000
# 6 0.0000 0.0000 0.0000 0.0000 0.0000 17.3412
#
#
#
# Elastic Compliance Matrix: (Units=1/GPa)
#
#
# Indices 1 2 3 4 5 6 
#
# 1 0.046768 -0.005869 -0.034976 0.000000 0.000000 0.000000
# 2 -0.005869 0.010466 0.004092 0.000000 0.000000 0.000000
# 3 -0.034976 0.004092 0.107319 0.000000 0.000000 0.000000
# 4 0.000000 0.000000 0.000000 0.055938 0.000000 0.000000
# 5 0.000000 0.000000 0.000000 0.000000 -0.027775 0.000000
# 6 0.000000 0.000000 0.000000 0.000000 0.000000 0.057666
#
#
# Mechanical properties :
#
#
# Convention : Reuss Voigt Hill
#
# Bulk Modulus (GPa) = 10.98324 21.19164 16.08744
# Shear Modulus (GPa) = 14.11488 7.99371 11.05429
#
# Velocity S-wave (km/s) = 2.67604 2.01385 2.36820
# Velocity P-wave (km/s) = 3.88852 4.01983 3.95472
#
# Compressibility (1/GPa) = 0.09104784
#
# Stress axis : x y z
#
# Youngs Moduli (GPa) = 21.38195 95.55115 9.31801
#
# Poissons Ratio (x) = 0.56083 0.32590
# Poissons Ratio (y) = 0.12550 -0.03813
# Poissons Ratio (z) = 0.74784 -0.39103
#
# Static dielectric constant tensor:
#      x y z
#    x 1.794610 0.000000 0.000000 
#    y 0.000000 1.654600 0.000000 
#    z 0.000000 0.000000 1.852330 
# 
# From -- ./inp_files/12788.got.cif
#   From: 2010.05.17/outbox.ucp.g08.bks.cvg/sg51_7_cif.got.tgz:12788.got - 2010.06.11 16:27:58.
