data_PCOD9407339
_publ_section_title
;
Structure prediction by ZEFSAII (Michael W. Deem and Ramdas Pophale) SiO2 
 PCOD9407339
Probable space group: P M M A
;
_chemical_formula_sum "Si O2"
_cell_formula_units_Z 40
_cell_length_a 11.293378
_cell_length_b 16.227440
_cell_length_c 9.497767
_cell_angle_alpha 90.000000
_cell_angle_beta 90.000000
_cell_angle_gamma 90.000000
_cell_volume 1740.585607
_symmetry_space_group_name_H-M "P M M A"
_symmetry_group_IT_number 51
_symmetry_cell_setting 'orthorhombic'
loop_
_space_group_symop_operation_xyz
x,y,z
1/2-x,-y,z
1/2+x,-y,-z
-x,y,-z
-x,-y,-z
1/2+x,y,-z
1/2-x,y,z
x,-y,z
loop_
_atom_site_type_symbol
_atom_site_label
_atom_site_fract_x
_atom_site_fract_y
_atom_site_fract_z
Si Si1 0.878640 0.154357 0.327945
Si Si2 0.619874 0.094137 0.757748
Si Si3 0.878283 0.660839 0.364966
Si Si4 0.620786 0.403544 0.678338
Si Si5 0.624057 0.774059 0.011255
O O1 0.750000 0.114220 0.357854
O O2 0.883209 0.242693 0.404916
O O3 0.873946 0.181248 0.162715
O O4 0.004561 0.109438 0.337936
O O5 0.750000 0.105062 0.688839
O O6 0.613181 0.000000 0.809086
O O7 0.618784 0.156799 0.888896
O O8 0.750000 0.647211 0.294510
O O9 0.876980 0.609114 0.508746
O O10 0.997539 0.639584 0.281434
O O11 0.750000 0.371541 0.726734
O O12 0.613689 0.500000 0.710842
O O13 0.750000 0.730004 0.997079
O O14 0.500000 0.727134 0.000000
#
# Coordination Sequence:
#
# PCOD9407339 Si02
#       5
#     8   8   8   8   8
#     4   9  17  26  37  57  83 109 137 168 204 245
#     4   9  17  28  41  57  79 109 143 176 210 246
#     4   9  16  26  40  60  87 113 134 160 197 241
#     4   9  17  29  46  67  88 109 132 158 194 242
#     4   8  14  24  36  51  74 103 134 166 199 237
#
# _framework density 22.980771000000001
#
# number of rings (size 3 to 8) (size 9 to 14) (size 15 to 20)
#    0.000    3.200    0.000    1.200    0.000    6.000 
#    0.000    4.000    0.000    0.000    0.000    2.800 
#    0.000   30.400    0.000  114.800    0.000   56.800 
#
# Total GULP energy -222692.085200 kJ/mol
# GULP energy per Si atom -5567.302130 kJ/mol
# Density = 2.292847 g / cm^3
# Si number density = 22.980771 Si / 1000 Ang^3
#
#
#
# Elastic Constant Matrix: (Units=GPa)
#
#
# Indices 1 2 3 4 5 6 
#
# 1 294.1439 27.6826 -0.4018 0.0000 0.0000 0.0000
# 2 27.6826 31.1660 3.4609 0.0000 0.0000 0.0000
# 3 -0.4018 3.4609 69.1443 0.0000 0.0000 0.0000
# 4 0.0000 0.0000 0.0000 13.0344 0.0000 0.0000
# 5 0.0000 0.0000 0.0000 0.0000 -12.6417 0.0000
# 6 0.0000 0.0000 0.0000 0.0000 0.0000 129.8534
#
#
#
# Elastic Compliance Matrix: (Units=1/GPa)
#
#
# Indices 1 2 3 4 5 6 
#
# 1 0.003712 -0.003318 0.000188 0.000000 0.000000 0.000000
# 2 -0.003318 0.035232 -0.001783 0.000000 0.000000 0.000000
# 3 0.000188 -0.001783 0.014553 0.000000 0.000000 0.000000
# 4 0.000000 0.000000 0.000000 0.076720 0.000000 0.000000
# 5 0.000000 0.000000 0.000000 0.000000 -0.079103 0.000000
# 6 0.000000 0.000000 0.000000 0.000000 0.000000 0.007701
#
#
# Mechanical properties :
#
#
# Convention : Reuss Voigt Hill
#
# Bulk Modulus (GPa) = 22.89898 50.65974 36.77936
# Shear Modulus (GPa) = 60.09784 50.29672 55.19728
#
# Velocity S-wave (km/s) = 5.11939 4.68337 4.90622
# Velocity P-wave (km/s) = 6.70300 7.16502 6.93786
#
# Compressibility (1/GPa) = 0.04367006
#
# Stress axis : x y z
#
# Youngs Moduli (GPa) = 269.37966 28.38368 68.71515
#
# Poissons Ratio (x) = 0.09418 -0.01290
# Poissons Ratio (y) = 0.89384 0.12250
# Poissons Ratio (z) = -0.05055 0.05060
#
# Static dielectric constant tensor:
#      x y z
#    x 1.989100 0.000000 0.000000 
#    y 0.000000 1.808130 0.000000 
#    z 0.000000 0.000000 1.834240 
# 
# From -- ./inp_files/23039.got.cif
#   From: 2010.05.17/outbox.cif.g08.bks.cpg/sg51_12_cif.got.tgz:23039.got - 2010.06.03 11:52:47.
