data_PCOD9407603
_publ_section_title
;
Structure prediction by ZEFSAII (Michael W. Deem and Ramdas Pophale) SiO2 
 PCOD9407603
Probable space group: P M M A
;
_chemical_formula_sum "Si O2"
_cell_formula_units_Z 48
_cell_length_a 9.000000
_cell_length_b 9.000000
_cell_length_c 30.000000
_cell_angle_alpha 90.000000
_cell_angle_beta 90.000000
_cell_angle_gamma 90.000000
_cell_volume 2430.000000
_symmetry_space_group_name_H-M "P M M A"
_symmetry_group_IT_number 51
_symmetry_cell_setting 'orthorhombic'
loop_
_space_group_symop_operation_xyz
x,y,z
1/2-x,-y,z
1/2+x,-y,-z
-x,y,-z
-x,-y,-z
1/2+x,y,-z
1/2-x,y,z
x,-y,z
loop_
_atom_site_type_symbol
_atom_site_label
_atom_site_fract_x
_atom_site_fract_y
_atom_site_fract_z
Si Si1 0.077521 0.333349 0.123232
Si Si2 0.423353 0.829129 0.367721
Si Si3 0.085223 0.675874 0.708142
Si Si4 0.925467 0.165559 0.047803
Si Si5 0.921333 0.819050 0.455597
Si Si6 0.582023 0.171463 0.198026
O O1 0.250000 0.324016 0.111979
O O2 0.043142 0.500000 0.138682
O O3 0.983840 0.290021 0.080442
O O4 0.034716 0.220171 0.161684
O O5 0.250000 0.829051 0.377419
O O6 0.462476 0.741855 0.323690
O O7 0.506779 0.763900 0.410237
O O8 0.471620 0.000000 0.361147
O O9 0.250000 0.727655 0.692940
O O10 0.082242 0.500000 0.706865
O O11 0.066149 0.731266 0.758130
O O12 0.750000 0.173412 0.043003
O O13 0.963143 0.000000 0.066003
O O14 0.000000 0.178635 0.000000
O O15 0.750000 0.782996 0.457114
O O16 0.000000 0.764600 0.500000
O O17 0.936828 0.000000 0.455014
O O18 0.750000 0.193251 0.179731
O O19 0.567159 0.000000 0.210368
#
# Coordination Sequence:
#
# PCOD9407603 Si02
#       6
#     8   8   8   8   8   8
#     4  11  24  39  56  82 116 152 188 226 272 326
#     4  10  20  33  51  77 108 142 181 223 268 320
#     4  10  21  37  57  80 107 141 180 222 271 326
#     4  10  21  38  61  87 114 147 188 232 278 327
#     4   9  16  27  46  73 105 139 176 221 270 318
#     4  10  21  38  61  86 110 140 181 227 275 327
#
# _framework density 19.753086
#
# number of rings (size 3 to 8) (size 9 to 14) (size 15 to 20)
#    0.000    2.000    0.000    3.500    0.000   10.333 
#    0.000    0.000    0.000    0.500    0.000    0.000 
#    0.000    0.000    0.000    0.000    0.000    0.000 
#
# Total GULP energy -267810.559883 kJ/mol
# GULP energy per Si atom -5579.386664 kJ/mol
# Density = 1.970813 g / cm^3
# Si number density = 19.753086 Si / 1000 Ang^3
#
#
#
# Elastic Constant Matrix: (Units=GPa)
#
#
# Indices 1 2 3 4 5 6 
#
# 1 15.9101 12.8971 29.9435 0.0000 0.0000 0.0000
# 2 12.8971 12.3564 15.3051 0.0000 0.0000 0.0000
# 3 29.9435 15.3051 32.4840 0.0000 0.0000 0.0000
# 4 0.0000 0.0000 0.0000 5.4321 0.0000 0.0000
# 5 0.0000 0.0000 0.0000 0.0000 33.5210 0.0000
# 6 0.0000 0.0000 0.0000 0.0000 0.0000 20.5017
#
#
#
# Elastic Compliance Matrix: (Units=1/GPa)
#
#
# Indices 1 2 3 4 5 6 
#
# 1 -0.083495 -0.019651 0.086224 0.000000 0.000000 0.000000
# 2 -0.019651 0.189726 -0.071277 0.000000 0.000000 0.000000
# 3 0.086224 -0.071277 -0.015114 0.000000 0.000000 0.000000
# 4 0.000000 0.000000 0.000000 0.184090 0.000000 0.000000
# 5 0.000000 0.000000 0.000000 0.000000 0.029832 0.000000
# 6 0.000000 0.000000 0.000000 0.000000 0.000000 0.048776
#
#
# Mechanical properties :
#
#
# Convention : Reuss Voigt Hill
#
# Bulk Modulus (GPa) = 12.23844 19.67133 15.95489
# Shear Modulus (GPa) = 12.80546 12.06462 12.43504
#
# Velocity S-wave (km/s) = 2.54889 2.47406 2.51175
# Velocity P-wave (km/s) = 3.85637 4.25929 4.06283
#
# Compressibility (1/GPa) = 0.08170973
#
# Stress axis : x y z
#
# Youngs Moduli (GPa) = -11.97671 5.27076 -66.16331
#
# Poissons Ratio (x) = 0.10358 5.70488
# Poissons Ratio (y) = -0.23536 -4.71589
# Poissons Ratio (z) = 1.03268 0.37568
#
# Static dielectric constant tensor:
#      x y z
#    x 1.689480 0.000000 0.000000 
#    y 0.000000 1.713980 0.000000 
#    z 0.000000 0.000000 1.665890 
# 
# From -- ./inp_files/36969.got.cif
#   From: 2010.05.17/outbox.ucp.g08.bks.cvg/sg51_19_cif.got.tgz:36969.got - 2010.06.11 16:27:58.
