data_PCOD9407805
_publ_section_title
;
Structure prediction by ZEFSAII (Michael W. Deem and Ramdas Pophale) SiO2 
 PCOD9407805
Probable space group: P M M A
;
_chemical_formula_sum "Si O2"
_cell_formula_units_Z 48
_cell_length_a 30.000000
_cell_length_b 9.000000
_cell_length_c 9.000000
_cell_angle_alpha 90.000000
_cell_angle_beta 90.000000
_cell_angle_gamma 90.000000
_cell_volume 2430.000000
_symmetry_space_group_name_H-M "P M M A"
_symmetry_group_IT_number 51
_symmetry_cell_setting 'orthorhombic'
loop_
_space_group_symop_operation_xyz
x,y,z
1/2-x,-y,z
1/2+x,-y,-z
-x,y,-z
-x,-y,-z
1/2+x,y,-z
1/2-x,y,z
x,-y,z
loop_
_atom_site_type_symbol
_atom_site_label
_atom_site_fract_x
_atom_site_fract_y
_atom_site_fract_z
Si Si1 0.922167 0.330968 0.173392
Si Si2 0.330192 0.329355 0.652320
Si Si3 0.250000 0.833149 0.159865
Si Si4 0.417592 0.675562 0.169321
Si Si5 0.750000 0.677481 0.145804
Si Si6 0.660231 0.829045 0.655851
Si Si7 0.999487 0.824467 0.668643
O O1 0.941103 0.500000 0.175114
O O2 0.876361 0.333654 0.261270
O O3 0.955085 0.219452 0.252637
O O4 0.913990 0.287686 0.003918
O O5 0.318997 0.500000 0.607785
O O6 0.293093 0.271155 0.764848
O O7 0.334162 0.228450 0.509622
O O8 0.293091 0.816115 0.260762
O O9 0.250000 0.000000 0.097222
O O10 0.250000 0.724572 0.022770
O O11 0.421709 0.500000 0.182990
O O12 0.375176 0.730762 0.258311
O O13 0.460297 0.751492 0.239231
O O14 0.750000 0.500000 0.149536
O O15 0.645440 0.000000 0.657731
O O16 0.000000 0.767444 0.500000
O O17 0.993097 0.000000 0.665202
#
# Coordination Sequence:
#
# PCOD9407805 Si02
#       7
#     8   8   4   8   4   8   8
#     4  10  22  39  59  85 116 151 192 238 290 345
#     4  10  21  38  60  87 118 152 192 240 291 340
#     4  10  23  40  58  84 120 158 193 236 290 342
#     4  11  23  40  62  87 116 151 192 240 292 344
#     4  10  21  38  62  90 118 152 199 246 286 340
#     4  11  23  39  59  86 119 155 196 238 285 345
#     4  11  24  40  59  86 118 152 192 237 286 344
#
# _framework density 19.753086
#
# number of rings (size 3 to 8) (size 9 to 14) (size 15 to 20)
#    0.000    1.500    0.000    4.500    0.000   11.333 
#    0.000    0.000    0.000    0.000    0.000    0.000 
#    0.000    0.000    0.000    0.000    0.000    0.000 
#
# Total GULP energy -268155.348991 kJ/mol
# GULP energy per Si atom -5586.569771 kJ/mol
# Density = 1.970813 g / cm^3
# Si number density = 19.753086 Si / 1000 Ang^3
#
#
#
# Elastic Constant Matrix: (Units=GPa)
#
#
# Indices 1 2 3 4 5 6 
#
# 1 -8.6372 31.7889 -63.6639 0.0000 0.0000 0.0000
# 2 31.7889 25.6075 51.2456 0.0000 0.0000 0.0000
# 3 -63.6639 51.2456 29.1870 0.0000 0.0000 0.0000
# 4 0.0000 0.0000 0.0000 42.6299 0.0000 0.0000
# 5 0.0000 0.0000 0.0000 0.0000 54.9262 0.0000
# 6 0.0000 0.0000 0.0000 0.0000 0.0000 26.4523
#
#
#
# Elastic Compliance Matrix: (Units=1/GPa)
#
#
# Indices 1 2 3 4 5 6 
#
# 1 0.005790 0.012914 -0.010045 0.000000 0.000000 0.000000
# 2 0.012914 0.013268 0.004873 0.000000 0.000000 0.000000
# 3 -0.010045 0.004873 0.003796 0.000000 0.000000 0.000000
# 4 0.000000 0.000000 0.000000 0.023458 0.000000 0.000000
# 5 0.000000 0.000000 0.000000 0.000000 0.018206 0.000000
# 6 0.000000 0.000000 0.000000 0.000000 0.000000 0.037804
#
#
# Mechanical properties :
#
#
# Convention : Reuss Voigt Hill
#
# Bulk Modulus (GPa) = 26.08363 9.43316 17.75839
# Shear Modulus (GPa) = 50.19238 26.58747 38.38993
#
# Velocity S-wave (km/s) = 5.04629 3.67275 4.41329
# Velocity P-wave (km/s) = 6.86927 4.77194 5.91432
#
# Compressibility (1/GPa) = 0.03833823
#
# Stress axis : x y z
#
# Youngs Moduli (GPa) = 172.71474 75.36943 263.43797
#
# Poissons Ratio (x) = -0.97332 2.64617
# Poissons Ratio (y) = -2.23043 -1.28373
# Poissons Ratio (z) = 1.73488 -0.36727
#
# Static dielectric constant tensor:
#      x y z
#    x 1.638080 0.000000 0.000000 
#    y 0.000000 1.702480 0.000000 
#    z 0.000000 0.000000 1.677540 
# 
# From -- ./inp_files/12910.got.cif
#   From: 2010.05.17/outbox.ucp.g08.bks.cvg/sg51_7_cif.got.tgz:12910.got - 2010.06.11 16:27:58.
