data_PCOD9407213
_publ_section_title
;
Structure prediction by ZEFSAII (Michael W. Deem and Ramdas Pophale) SiO2 
 PCOD9407213
Probable space group: P M M A
;
_chemical_formula_sum "Si O2"
_cell_formula_units_Z 32
_cell_length_a 10.186786
_cell_length_b 11.478147
_cell_length_c 13.687185
_cell_angle_alpha 90.000000
_cell_angle_beta 90.000000
_cell_angle_gamma 90.000000
_cell_volume 1600.379953
_symmetry_space_group_name_H-M "P M M A"
_symmetry_group_IT_number 51
_symmetry_cell_setting 'orthorhombic'
loop_
_space_group_symop_operation_xyz
x,y,z
1/2-x,-y,z
1/2+x,-y,-z
-x,y,-z
-x,-y,-z
1/2+x,y,-z
1/2-x,y,z
x,-y,z
loop_
_atom_site_type_symbol
_atom_site_label
_atom_site_fract_x
_atom_site_fract_y
_atom_site_fract_z
Si Si1 0.463795 0.500000 0.842479
Si Si2 0.750000 0.500000 0.327200
Si Si3 0.750000 0.750604 0.653802
Si Si4 0.250000 0.248596 0.578750
Si Si5 0.025900 0.138835 0.710426
Si Si6 0.899403 0.754403 0.081698
Si Si7 0.250000 0.500000 0.247568
O O1 0.377201 0.500000 0.743282
O O2 0.425454 0.382607 0.898587
O O3 0.617540 0.500000 0.816653
O O4 0.750000 0.616215 0.390633
O O5 0.750000 0.762499 0.537108
O O6 0.619115 0.810426 0.694958
O O7 0.750000 0.616186 0.687166
O O8 0.122978 0.189699 0.628112
O O9 0.078154 0.182289 0.815179
O O10 0.025552 0.000000 0.705834
O O11 0.750000 0.770356 0.049511
O O12 0.000000 0.796521 0.000000
#
# Coordination Sequence:
#
# PCOD9407213 Si02
#       7
#     4   2   4   4   8   8   2
#     4  12  21  42  70  96 143 181 220 279 352 410
#     4  12  19  44  71 100 134 184 217 286 355 408
#     4  12  26  44  69 109 135 181 231 287 339 408
#     4  12  24  44  75  99 139 181 233 281 349 404
#     4  12  26  47  69  97 143 188 230 282 335 404
#     4  12  26  45  72 104 137 179 229 283 348 409
#     4  12  23  40  71 102 142 176 219 284 355 400
#
# _framework density 19.995253000000002
#
# number of rings (size 3 to 8) (size 9 to 14) (size 15 to 20)
#    0.000    0.000    7.500    2.250    3.500    3.500 
#    0.000    3.750    0.000    0.000    0.000    0.000 
#    0.000    0.000    0.000    0.000    0.000    0.000 
#
# Total GULP energy -179249.896358 kJ/mol
# GULP energy per Si atom -5601.559261 kJ/mol
# Density = 1.994974 g / cm^3
# Si number density = 19.995253 Si / 1000 Ang^3
#
#
#
# Elastic Constant Matrix: (Units=GPa)
#
#
# Indices 1 2 3 4 5 6 
#
# 1 195.4979 35.2836 40.0798 0.0000 0.0000 0.0000
# 2 35.2836 142.2036 8.5947 0.0000 0.0000 0.0000
# 3 40.0798 8.5947 72.9524 0.0000 0.0000 0.0000
# 4 0.0000 0.0000 0.0000 -11.4281 0.0000 0.0000
# 5 0.0000 0.0000 0.0000 0.0000 30.6398 0.0000
# 6 0.0000 0.0000 0.0000 0.0000 0.0000 -99.7724
#
#
#
# Elastic Compliance Matrix: (Units=1/GPa)
#
#
# Indices 1 2 3 4 5 6 
#
# 1 0.005993 -0.001297 -0.003140 0.000000 0.000000 0.000000
# 2 -0.001297 0.007363 -0.000155 0.000000 0.000000 0.000000
# 3 -0.003140 -0.000155 0.015451 0.000000 0.000000 0.000000
# 4 0.000000 0.000000 0.000000 -0.087504 0.000000 0.000000
# 5 0.000000 0.000000 0.000000 0.000000 0.032637 0.000000
# 6 0.000000 0.000000 0.000000 0.000000 0.000000 -0.010023
#
#
# Mechanical properties :
#
#
# Convention : Reuss Voigt Hill
#
# Bulk Modulus (GPa) = 50.95887 64.28557 57.62222
# Shear Modulus (GPa) = -245.61000 5.66758 -119.97121
#
# Velocity S-wave (km/s) = -11.09508 1.68541 -7.75436
# Velocity P-wave (km/s) = 11.77258 6.00064 7.16191
#
# Compressibility (1/GPa) = 0.01962367
#
# Stress axis : x y z
#
# Youngs Moduli (GPa) = 166.86290 135.80696 64.72185
#
# Poissons Ratio (x) = 0.17617 0.20321
# Poissons Ratio (y) = 0.21646 0.01002
# Poissons Ratio (z) = 0.52390 0.02102
#
# Static dielectric constant tensor:
#      x y z
#    x 1.691270 0.000000 0.000000 
#    y 0.000000 1.674330 0.000000 
#    z 0.000000 0.000000 1.680300 
# 
# From -- ./inp_files/20189.got.cif
#   From: 2010.05.17/outbox.cif.g08.bks.cpg/sg51_11_cif.got.tgz:20189.got - 2010.06.03 11:52:47.
