data_PCOD9407792
_publ_section_title
;
Structure prediction by ZEFSAII (Michael W. Deem and Ramdas Pophale) SiO2 
 PCOD9407792
Probable space group: P M M A
;
_chemical_formula_sum "Si O2"
_cell_formula_units_Z 48
_cell_length_a 9.000000
_cell_length_b 30.000000
_cell_length_c 9.000000
_cell_angle_alpha 90.000000
_cell_angle_beta 90.000000
_cell_angle_gamma 90.000000
_cell_volume 2430.000000
_symmetry_space_group_name_H-M "P M M A"
_symmetry_group_IT_number 51
_symmetry_cell_setting 'orthorhombic'
loop_
_space_group_symop_operation_xyz
x,y,z
1/2-x,-y,z
1/2+x,-y,-z
-x,y,-z
-x,-y,-z
1/2+x,y,-z
1/2-x,y,z
x,-y,z
loop_
_atom_site_type_symbol
_atom_site_label
_atom_site_fract_x
_atom_site_fract_y
_atom_site_fract_z
Si Si1 0.423172 0.349276 0.344109
Si Si2 0.928850 0.000000 0.159143
Si Si3 0.571932 0.086560 0.341785
Si Si4 0.572375 0.579763 0.158551
Si Si5 0.073031 0.827605 0.844798
Si Si6 0.071426 0.500000 0.339965
Si Si7 0.078293 0.757298 0.345235
O O1 0.500000 0.361557 0.500000
O O2 0.250000 0.363418 0.340386
O O3 0.519458 0.372502 0.218091
O O4 0.427236 0.295993 0.330577
O O5 0.975328 0.955359 0.243637
O O6 0.750000 0.000000 0.149037
O O7 0.000000 0.000000 0.000000
O O8 0.500000 0.082376 0.500000
O O9 0.750000 0.085355 0.353495
O O10 0.530957 0.133417 0.268776
O O11 0.750000 0.575440 0.157586
O O12 0.494603 0.543372 0.261408
O O13 0.500000 0.572486 0.000000
O O14 0.250000 0.825465 0.857164
O O15 0.008075 0.781520 0.785229
O O16 0.000000 0.838967 0.000000
O O17 0.250000 0.500000 0.340174
O O18 0.000000 0.500000 0.500000
O O19 0.250000 0.771233 0.347555
O O20 0.000000 0.769375 0.500000
#
# Coordination Sequence:
#
# PCOD9407792 Si02
#       7
#     8   4   8   8   8   4   8
#     4  10  21  39  62  89 119 155 197 241 290 346
#     4  10  21  38  58  84 116 148 187 232 284 340
#     4  10  22  38  58  84 113 148 190 236 284 342
#     4  12  25  42  63  90 123 159 198 243 295 349
#     4  11  23  38  57  83 115 151 193 239 292 348
#     4  12  25  44  67  92 122 158 200 244 291 346
#     4  10  21  38  61  87 117 153 195 241 290 345
#
# _framework density 19.753086
#
# number of rings (size 3 to 8) (size 9 to 14) (size 15 to 20)
#    0.000    1.333    0.000    5.750    0.000    6.000 
#    0.000    0.000    0.000    0.000    0.000    0.000 
#    0.000    0.000    0.000    0.000    0.000    0.000 
#
# Total GULP energy -268253.297577 kJ/mol
# GULP energy per Si atom -5588.610366 kJ/mol
# Density = 1.970813 g / cm^3
# Si number density = 19.753086 Si / 1000 Ang^3
#
#
#
# Elastic Constant Matrix: (Units=GPa)
#
#
# Indices 1 2 3 4 5 6 
#
# 1 129.4000 44.1223 60.4100 0.0000 0.0000 0.0000
# 2 44.1223 34.6754 43.3701 0.0000 0.0000 0.0000
# 3 60.4100 43.3701 143.4945 0.0000 0.0000 0.0000
# 4 0.0000 0.0000 0.0000 18.8224 0.0000 0.0000
# 5 0.0000 0.0000 0.0000 0.0000 35.9367 0.0000
# 6 0.0000 0.0000 0.0000 0.0000 0.0000 15.1992
#
#
#
# Elastic Compliance Matrix: (Units=1/GPa)
#
#
# Indices 1 2 3 4 5 6 
#
# 1 0.013708 -0.016439 -0.000802 0.000000 0.000000 0.000000
# 2 -0.016439 0.066080 -0.013052 0.000000 0.000000 0.000000
# 3 -0.000802 -0.013052 0.011251 0.000000 0.000000 0.000000
# 4 0.000000 0.000000 0.000000 0.053128 0.000000 0.000000
# 5 0.000000 0.000000 0.000000 0.000000 0.027827 0.000000
# 6 0.000000 0.000000 0.000000 0.000000 0.000000 0.065793
#
#
# Mechanical properties :
#
#
# Convention : Reuss Voigt Hill
#
# Bulk Modulus (GPa) = 32.83632 67.04162 49.93897
# Shear Modulus (GPa) = 16.20616 24.63617 20.42116
#
# Velocity S-wave (km/s) = 2.86743 3.53541 3.21880
# Velocity P-wave (km/s) = 5.25570 7.11892 6.25705
#
# Compressibility (1/GPa) = 0.03045409
#
# Stress axis : x y z
#
# Youngs Moduli (GPa) = 72.95128 15.13306 88.87711
#
# Poissons Ratio (x) = 0.24877 0.07131
# Poissons Ratio (y) = 1.19922 1.16000
# Poissons Ratio (z) = 0.05854 0.19751
#
# Static dielectric constant tensor:
#      x y z
#    x 1.644620 0.000000 0.000000 
#    y 0.000000 1.703320 0.000000 
#    z 0.000000 0.000000 1.660650 
# 
# From -- ./inp_files/6125.got.cif
#   From: 2010.05.17/outbox.ucp.g08.bks.cvg/sg51_4_cif.got.tgz:6125.got - 2010.06.11 16:27:58.
