data_PCOD9407656
_publ_section_title
;
Structure prediction by ZEFSAII (Michael W. Deem and Ramdas Pophale) SiO2 
 PCOD9407656
Probable space group: P M M A
;
_chemical_formula_sum "Si O2"
_cell_formula_units_Z 48
_cell_length_a 15.000000
_cell_length_b 9.000000
_cell_length_c 18.000000
_cell_angle_alpha 90.000000
_cell_angle_beta 90.000000
_cell_angle_gamma 90.000000
_cell_volume 2430.000000
_symmetry_space_group_name_H-M "P M M A"
_symmetry_group_IT_number 51
_symmetry_cell_setting 'orthorhombic'
loop_
_space_group_symop_operation_xyz
x,y,z
1/2-x,-y,z
1/2+x,-y,-z
-x,y,-z
-x,-y,-z
1/2+x,y,-z
1/2-x,y,z
x,-y,z
loop_
_atom_site_type_symbol
_atom_site_label
_atom_site_fract_x
_atom_site_fract_y
_atom_site_fract_z
Si Si1 0.417536 0.677837 0.853641
Si Si2 0.146711 0.329410 0.010904
Si Si3 0.149675 0.678434 0.700068
Si Si4 0.750000 0.176793 0.713570
Si Si5 0.102680 0.822522 0.163959
Si Si6 0.750000 0.678815 0.551845
Si Si7 0.082353 0.681572 0.548113
O O1 0.406333 0.500000 0.859865
O O2 0.358777 0.733728 0.784484
O O3 0.514381 0.726618 0.828329
O O4 0.401999 0.732434 0.937718
O O5 0.250000 0.338883 0.989106
O O6 0.115764 0.500000 0.027534
O O7 0.139974 0.230341 0.084172
O O8 0.250000 0.701726 0.673229
O O9 0.135648 0.500000 0.705423
O O10 0.087468 0.734854 0.633446
O O11 0.666738 0.212224 0.767141
O O12 0.750000 0.255978 0.634510
O O13 0.750000 0.000000 0.701072
O O14 0.087346 0.000000 0.162532
O O15 0.750000 0.500000 0.558777
O O16 0.833576 0.722724 0.501709
O O17 0.080248 0.500000 0.551988
O O18 0.000000 0.733592 0.500000
#
# Coordination Sequence:
#
# PCOD9407656 Si02
#       7
#     8   8   8   4   8   4   8
#     4  10  21  34  55  86 113 140 180 226 273 323
#     4  10  20  36  57  82 113 146 182 224 271 325
#     4   9  16  30  51  77 114 151 177 213 269 326
#     4  10  24  42  56  73 106 146 182 227 278 328
#     4  11  23  40  57  76 106 146 188 228 275 327
#     4  10  20  34  58  87 110 138 184 229 270 326
#     4   9  17  29  48  81 118 143 172 221 274 323
#
# _framework density 19.753086
#
# number of rings (size 3 to 8) (size 9 to 14) (size 15 to 20)
#    0.000    2.167    1.667    1.500    2.333    6.000 
#    0.000    0.000    0.000    3.000    0.000    0.000 
#    0.000    0.000    0.000    0.000    0.000    0.000 
#
# Total GULP energy -267373.502134 kJ/mol
# GULP energy per Si atom -5570.281294 kJ/mol
# Density = 1.970813 g / cm^3
# Si number density = 19.753086 Si / 1000 Ang^3
#
#
#
# Elastic Constant Matrix: (Units=GPa)
#
#
# Indices 1 2 3 4 5 6 
#
# 1 51.5779 -14.4542 21.5198 0.0000 0.0000 0.0000
# 2 -14.4542 -8.3386 18.1013 0.0000 0.0000 0.0000
# 3 21.5198 18.1013 97.9360 0.0000 0.0000 0.0000
# 4 0.0000 0.0000 0.0000 8.1384 0.0000 0.0000
# 5 0.0000 0.0000 0.0000 0.0000 51.8865 0.0000
# 6 0.0000 0.0000 0.0000 0.0000 0.0000 4.1633
#
#
#
# Elastic Compliance Matrix: (Units=1/GPa)
#
#
# Indices 1 2 3 4 5 6 
#
# 1 0.013171 -0.020777 0.000946 0.000000 0.000000 0.000000
# 2 -0.020777 -0.052810 0.014326 0.000000 0.000000 0.000000
# 3 0.000946 0.014326 0.007355 0.000000 0.000000 0.000000
# 4 0.000000 0.000000 0.000000 0.122874 0.000000 0.000000
# 5 0.000000 0.000000 0.000000 0.000000 0.019273 0.000000
# 6 0.000000 0.000000 0.000000 0.000000 0.000000 0.240196
#
#
# Mechanical properties :
#
#
# Convention : Reuss Voigt Hill
#
# Bulk Modulus (GPa) = -23.09805 21.27878 -0.90964
# Shear Modulus (GPa) = 14.42435 20.57153 17.49794
#
# Velocity S-wave (km/s) = 2.70521 3.23063 2.97952
# Velocity P-wave (km/s) = 1.40043 4.97109 3.37272
#
# Compressibility (1/GPa) = -0.04329370
#
# Stress axis : x y z
#
# Youngs Moduli (GPa) = 75.92506 -18.93569 135.96221
#
# Poissons Ratio (x) = -0.39343 -0.12863
# Poissons Ratio (y) = 1.57749 -1.94782
# Poissons Ratio (z) = -0.07183 0.27128
#
# Static dielectric constant tensor:
#      x y z
#    x 1.814530 0.000000 0.000000 
#    y 0.000000 1.657450 0.000000 
#    z 0.000000 0.000000 1.723260 
# 
# From -- ./inp_files/29553.got.cif
#   From: 2010.05.17/outbox.ucp.g08.bks.cvg/sg51_15_cif.got.tgz:29553.got - 2010.06.11 16:27:58.
