data_PCOD9407484
_publ_section_title
;
Structure prediction by ZEFSAII (Michael W. Deem and Ramdas Pophale) SiO2 
 PCOD9407484
Probable space group: P M M A
;
_chemical_formula_sum "Si O2"
_cell_formula_units_Z 64
_cell_length_a 9.000000
_cell_length_b 24.000000
_cell_length_c 15.000000
_cell_angle_alpha 90.000000
_cell_angle_beta 90.000000
_cell_angle_gamma 90.000000
_cell_volume 3240.000000
_symmetry_space_group_name_H-M "P M M A"
_symmetry_group_IT_number 51
_symmetry_cell_setting 'orthorhombic'
loop_
_space_group_symop_operation_xyz
x,y,z
1/2-x,-y,z
1/2+x,-y,-z
-x,y,-z
-x,-y,-z
1/2+x,y,-z
1/2-x,y,z
x,-y,z
loop_
_atom_site_type_symbol
_atom_site_label
_atom_site_fract_x
_atom_site_fract_y
_atom_site_fract_z
Si Si1 0.075943 0.777694 0.906913
Si Si2 0.085767 0.328296 0.165189
Si Si3 0.930505 0.167354 0.402419
Si Si4 0.927894 0.562598 0.214904
Si Si5 0.427875 0.899558 0.902211
Si Si6 0.569290 0.060405 0.284450
Si Si7 0.073954 0.601089 0.586208
Si Si8 0.918131 0.285676 0.632803
O O1 0.250000 0.772675 0.914461
O O2 0.045277 0.837065 0.861573
O O3 0.013398 0.719966 0.874365
O O4 0.000000 0.787576 0.000000
O O5 0.250000 0.329089 0.124678
O O6 0.097558 0.307829 0.266877
O O7 0.011912 0.388687 0.163344
O O8 0.750000 0.171054 0.404743
O O9 0.975056 0.114768 0.340733
O O10 0.000000 0.158351 0.500000
O O11 0.998140 0.226716 0.370663
O O12 0.750000 0.569352 0.205239
O O13 0.968885 0.500000 0.188526
O O14 0.961920 0.571726 0.320004
O O15 0.250000 0.905119 0.914943
O O16 0.477978 0.936740 0.819352
O O17 0.500000 0.908118 0.000000
O O18 0.750000 0.061904 0.283276
O O19 0.523653 0.000000 0.322130
O O20 0.250000 0.601477 0.576099
O O21 0.000000 0.573965 0.500000
O O22 0.013303 0.664298 0.591312
O O23 0.750000 0.280731 0.594754
#
# Coordination Sequence:
#
# PCOD9407484 Si02
#       8
#     8   8   8   8   8   8   8   8
#     4  10  19  32  52  79 110 140 169 204 250 306
#     4  10  20  33  52  78 105 134 169 212 260 307
#     4  11  22  36  55  77 102 136 179 226 275 322
#     4   9  19  35  52  70  95 132 175 212 249 298
#     4   9  18  33  55  83 112 141 173 210 257 314
#     4   9  19  36  56  77 104 141 182 219 259 315
#     4  10  19  31  48  71 100 131 165 207 254 305
#     4  10  20  34  52  75 103 133 168 212 262 316
#
# _framework density 19.753086
#
# number of rings (size 3 to 8) (size 9 to 14) (size 15 to 20)
#    0.000    2.250    0.000    3.000    0.000    4.500 
#    0.000    1.250    0.000    3.000    0.000    0.000 
#    0.000    0.000    0.000    0.000    0.000    0.000 
#
# Total GULP energy -356541.650106 kJ/mol
# GULP energy per Si atom -5570.963283 kJ/mol
# Density = 1.970813 g / cm^3
# Si number density = 19.753086 Si / 1000 Ang^3
#
#
#
# Elastic Constant Matrix: (Units=GPa)
#
#
# Indices 1 2 3 4 5 6 
#
# 1 44.8278 38.0759 6.4430 0.0000 0.0000 0.0000
# 2 38.0759 124.3037 33.1967 0.0000 0.0000 0.0000
# 3 6.4430 33.1967 10.5071 0.0000 0.0000 0.0000
# 4 0.0000 0.0000 0.0000 -38.5250 0.0000 0.0000
# 5 0.0000 0.0000 0.0000 0.0000 20.8887 0.0000
# 6 0.0000 0.0000 0.0000 0.0000 0.0000 13.6043
#
#
#
# Elastic Compliance Matrix: (Units=1/GPa)
#
#
# Indices 1 2 3 4 5 6 
#
# 1 0.040470 -0.036925 0.091846 0.000000 0.000000 0.000000
# 2 -0.036925 0.085181 -0.246482 0.000000 0.000000 0.000000
# 3 0.091846 -0.246482 0.817597 0.000000 0.000000 0.000000
# 4 0.000000 0.000000 0.000000 -0.025957 0.000000 0.000000
# 5 0.000000 0.000000 0.000000 0.000000 0.047873 0.000000
# 6 0.000000 0.000000 0.000000 0.000000 0.000000 0.073506
#
#
# Mechanical properties :
#
#
# Convention : Reuss Voigt Hill
#
# Bulk Modulus (GPa) = 1.78531 37.22998 19.50764
# Shear Modulus (GPa) = 3.10848 5.98847 4.54848
#
# Velocity S-wave (km/s) = 1.25582 1.74306 1.51910
# Velocity P-wave (km/s) = 1.73452 4.78953 3.60195
#
# Compressibility (1/GPa) = 0.56012623
#
# Stress axis : x y z
#
# Youngs Moduli (GPa) = 24.70952 11.73969 1.22310
#
# Poissons Ratio (x) = 0.43349 -0.11234
# Poissons Ratio (y) = 0.91240 0.30147
# Poissons Ratio (z) = -2.26947 2.89362
#
# Static dielectric constant tensor:
#      x y z
#    x 1.678890 0.000000 0.000000 
#    y 0.000000 1.735810 0.000000 
#    z 0.000000 0.000000 1.764290 
# 
# From -- ./inp_files/22237.got.cif
#   From: 2010.05.17/outbox.ucp.g08.bks.cvg/sg51_12_cif.got.tgz:22237.got - 2010.06.11 16:27:58.
