data_PCOD9407783
_publ_section_title
;
Structure prediction by ZEFSAII (Michael W. Deem and Ramdas Pophale) SiO2 
 PCOD9407783
Probable space group: P M M A
;
_chemical_formula_sum "Si O2"
_cell_formula_units_Z 48
_cell_length_a 15.000000
_cell_length_b 9.000000
_cell_length_c 18.000000
_cell_angle_alpha 90.000000
_cell_angle_beta 90.000000
_cell_angle_gamma 90.000000
_cell_volume 2430.000000
_symmetry_space_group_name_H-M "P M M A"
_symmetry_group_IT_number 51
_symmetry_cell_setting 'orthorhombic'
loop_
_space_group_symop_operation_xyz
x,y,z
1/2-x,-y,z
1/2+x,-y,-z
-x,y,-z
-x,-y,-z
1/2+x,y,-z
1/2-x,y,z
x,-y,z
loop_
_atom_site_type_symbol
_atom_site_label
_atom_site_fract_x
_atom_site_fract_y
_atom_site_fract_z
Si Si1 0.648947 0.678590 0.922750
Si Si2 0.499153 0.832309 0.667691
Si Si3 0.148152 0.333816 0.409043
Si Si4 0.648148 0.333344 0.412781
Si Si5 0.356020 0.171659 0.923476
Si Si6 0.010692 0.674923 0.819140
O O1 0.750000 0.730322 0.908066
O O2 0.650165 0.500000 0.925847
O O3 0.578815 0.724907 0.861193
O O4 0.619662 0.740171 0.002138
O O5 0.586630 0.794309 0.621355
O O6 0.414549 0.793102 0.617820
O O7 0.497270 0.718397 0.734793
O O8 0.497524 0.000000 0.694569
O O9 0.250000 0.318472 0.384097
O O10 0.116811 0.500000 0.386731
O O11 0.146813 0.330781 0.498125
O O12 0.750000 0.315467 0.388017
O O13 0.617983 0.500000 0.390426
O O14 0.250000 0.183745 0.914054
O O15 0.406622 0.241707 0.855045
O O16 0.379661 0.000000 0.932470
O O17 0.021124 0.500000 0.830022
#
# Coordination Sequence:
#
# PCOD9407783 Si02
#       6
#     8   8   8   8   8   8
#     4   9  19  37  60  84 108 138 181 228 271 321
#     4  12  25  37  53  82 119 153 183 225 283 339
#     4   9  19  38  63  86 109 143 188 233 274 324
#     4   9  19  38  63  86 108 142 189 234 275 326
#     4  10  21  37  58  84 113 144 178 222 278 333
#     4  11  23  38  57  80 109 149 191 229 271 322
#
# _framework density 19.753086
#
# number of rings (size 3 to 8) (size 9 to 14) (size 15 to 20)
#    0.000    2.000    0.000    4.500    0.000    9.000 
#    0.000    3.333    0.000    0.000    0.000    0.000 
#    0.000    0.000    0.000    0.000    0.000    0.000 
#
# Total GULP energy -267856.312907 kJ/mol
# GULP energy per Si atom -5580.339852 kJ/mol
# Density = 1.970813 g / cm^3
# Si number density = 19.753086 Si / 1000 Ang^3
#
#
#
# Elastic Constant Matrix: (Units=GPa)
#
#
# Indices 1 2 3 4 5 6 
#
# 1 42.9083 23.3394 25.3396 0.0000 0.0000 0.0000
# 2 23.3394 -8.6095 1.1094 0.0000 0.0000 0.0000
# 3 25.3396 1.1094 34.3283 0.0000 0.0000 0.0000
# 4 0.0000 0.0000 0.0000 65.6764 0.0000 0.0000
# 5 0.0000 0.0000 0.0000 0.0000 44.1673 0.0000
# 6 0.0000 0.0000 0.0000 0.0000 0.0000 -75.1871
#
#
#
# Elastic Compliance Matrix: (Units=1/GPa)
#
#
# Indices 1 2 3 4 5 6 
#
# 1 0.012067 0.031435 -0.009924 0.000000 0.000000 0.000000
# 2 0.031435 -0.033784 -0.022112 0.000000 0.000000 0.000000
# 3 -0.009924 -0.022112 0.037170 0.000000 0.000000 0.000000
# 4 0.000000 0.000000 0.000000 0.015226 0.000000 0.000000
# 5 0.000000 0.000000 0.000000 0.000000 0.022641 0.000000
# 6 0.000000 0.000000 0.000000 0.000000 0.000000 -0.013300
#
#
# Mechanical properties :
#
#
# Convention : Reuss Voigt Hill
#
# Bulk Modulus (GPa) = 70.16501 18.68931 44.42716
# Shear Modulus (GPa) = 108.76008 8.18722 58.47365
#
# Velocity S-wave (km/s) = 7.42828 2.03808 5.44670
# Velocity P-wave (km/s) = 10.44847 3.87561 7.88007
#
# Compressibility (1/GPa) = 0.01425212
#
# Stress axis : x y z
#
# Youngs Moduli (GPa) = 82.86745 -29.59963 26.90326
#
# Poissons Ratio (x) = 0.93045 0.26698
# Poissons Ratio (y) = -2.60491 0.59488
# Poissons Ratio (z) = 0.82234 -0.65450
#
# Static dielectric constant tensor:
#      x y z
#    x 1.766090 0.000000 0.000000 
#    y 0.000000 1.685990 0.000000 
#    z 0.000000 0.000000 1.717300 
# 
# From -- ./inp_files/29392.got.cif
#   From: 2010.05.17/outbox.ucp.g08.bks.cvg/sg51_15_cif.got.tgz:29392.got - 2010.06.11 16:27:58.
