data_PCOD9407268
_publ_section_title
;
Structure prediction by ZEFSAII (Michael W. Deem and Ramdas Pophale) SiO2 
 PCOD9407268
Probable space group: P M M A
;
_chemical_formula_sum "Si O2"
_cell_formula_units_Z 64
_cell_length_a 19.413914
_cell_length_b 7.432784
_cell_length_c 22.633494
_cell_angle_alpha 90.000000
_cell_angle_beta 90.000000
_cell_angle_gamma 90.000000
_cell_volume 3266.000269
_symmetry_space_group_name_H-M "P M M A"
_symmetry_group_IT_number 51
_symmetry_cell_setting 'orthorhombic'
loop_
_space_group_symop_operation_xyz
x,y,z
1/2-x,-y,z
1/2+x,-y,-z
-x,y,-z
-x,-y,-z
1/2+x,y,-z
1/2-x,y,z
x,-y,z
loop_
_atom_site_type_symbol
_atom_site_label
_atom_site_fract_x
_atom_site_fract_y
_atom_site_fract_z
Si Si1 0.671265 0.220126 0.594908
Si Si2 0.507558 0.287457 0.810580
Si Si3 0.859437 0.797597 0.234745
Si Si4 0.578172 0.780585 0.485116
Si Si5 0.434270 0.784284 0.307248
Si Si6 0.585204 0.779500 0.352072
Si Si7 0.523573 0.710787 0.062543
Si Si8 0.675336 0.782006 0.107147
O O1 0.750000 0.279221 0.595172
O O2 0.629903 0.276556 0.536437
O O3 0.628144 0.279144 0.652225
O O4 0.671398 0.000000 0.594868
O O5 0.492040 0.500000 0.813351
O O6 0.440243 0.195187 0.782946
O O7 0.566580 0.262695 0.762045
O O8 0.513212 0.219476 0.877666
O O9 0.862807 0.717068 0.300365
O O10 0.827976 0.715650 0.175364
O O11 0.831618 0.000000 0.239837
O O12 0.500000 0.724741 0.500000
O O13 0.598867 0.724442 0.419091
O O14 0.577581 0.000000 0.485139
O O15 0.507379 0.722147 0.334804
O O16 0.435279 0.000000 0.311096
O O17 0.586352 0.000000 0.350079
O O18 0.505834 0.500000 0.060428
O O19 0.605734 0.725817 0.073975
O O20 0.500000 0.789939 0.000000
O O21 0.750000 0.729863 0.081900
O O22 0.672662 0.000000 0.109418
#
# Coordination Sequence:
#
# PCOD9407268 Si02
#       8
#     8   8   8   8   8   8   8   8
#     4   9  16  24  35  55  82 109 140 182 227 266
#     4   9  16  26  43  66  87 105 134 178 217 250
#     4   8  14  25  40  60  87 117 145 173 212 259
#     4   9  13  19  32  52  78 106 139 179 219 259
#     4   9  15  25  41  59  81 109 140 174 216 263
#     4   8  12  19  34  55  76 104 141 175 208 253
#     4   9  18  32  49  70  95 121 151 188 226 265
#     4   9  17  29  45  67  96 127 156 186 221 266
#
# _framework density 19.595834
#
# number of rings (size 3 to 8) (size 9 to 14) (size 15 to 20)
#    0.000    3.250    1.250    1.125    0.000    1.000 
#    0.000    0.625    0.000    4.875    0.000   10.500 
#    0.000    0.000    0.000    0.000    0.000    0.000 
#
# Total GULP energy -356432.834469 kJ/mol
# GULP energy per Si atom -5569.263039 kJ/mol
# Density = 1.955123 g / cm^3
# Si number density = 19.595834 Si / 1000 Ang^3
#
#
#
# Elastic Constant Matrix: (Units=GPa)
#
#
# Indices 1 2 3 4 5 6 
#
# 1 93.6810 -3.5035 71.9474 0.0000 0.0000 0.0000
# 2 -3.5035 63.7724 1.5940 0.0000 0.0000 0.0000
# 3 71.9474 1.5940 193.9438 0.0000 0.0000 0.0000
# 4 0.0000 0.0000 0.0000 8.9936 0.0000 0.0000
# 5 0.0000 0.0000 0.0000 0.0000 17.0817 0.0000
# 6 0.0000 0.0000 0.0000 0.0000 0.0000 4.5225
#
#
#
# Elastic Compliance Matrix: (Units=1/GPa)
#
#
# Indices 1 2 3 4 5 6 
#
# 1 0.014986 0.000962 -0.005567 0.000000 0.000000 0.000000
# 2 0.000962 0.015746 -0.000486 0.000000 0.000000 0.000000
# 3 -0.005567 -0.000486 0.007225 0.000000 0.000000 0.000000
# 4 0.000000 0.000000 0.000000 0.111190 0.000000 0.000000
# 5 0.000000 0.000000 0.000000 0.000000 0.058542 0.000000
# 6 0.000000 0.000000 0.000000 0.000000 0.000000 0.221115
#
#
# Mechanical properties :
#
#
# Convention : Reuss Voigt Hill
#
# Bulk Modulus (GPa) = 36.00386 54.60810 45.30598
# Shear Modulus (GPa) = 11.15459 24.87685 18.01572
#
# Velocity S-wave (km/s) = 2.38845 3.56687 3.03539
# Velocity P-wave (km/s) = 5.10092 6.70008 5.95443
#
# Compressibility (1/GPa) = 0.02777480
#
# Stress axis : x y z
#
# Youngs Moduli (GPa) = 66.72765 63.50901 138.39943
#
# Poissons Ratio (x) = -0.06112 0.77052
# Poissons Ratio (y) = -0.06422 0.06733
# Poissons Ratio (z) = 0.37150 0.03089
#
# Static dielectric constant tensor:
#      x y z
#    x 1.662680 0.000000 0.000000 
#    y 0.000000 1.761710 0.000000 
#    z 0.000000 0.000000 1.734590 
# 
# From -- ./inp_files/35946.got.cif
#   From: 2010.05.17/outbox.cif.g08.bks.cpg/sg51_18_cif.got.tgz:35946.got - 2010.06.03 11:52:47.
