data_PCOD9407332
_publ_section_title
;
Structure prediction by ZEFSAII (Michael W. Deem and Ramdas Pophale) SiO2 
 PCOD9407332
Probable space group: P M M A
;
_chemical_formula_sum "Si O2"
_cell_formula_units_Z 40
_cell_length_a 14.797896
_cell_length_b 9.441623
_cell_length_c 15.526619
_cell_angle_alpha 90.000000
_cell_angle_beta 90.000000
_cell_angle_gamma 90.000000
_cell_volume 2169.319510
_symmetry_space_group_name_H-M "P M M A"
_symmetry_group_IT_number 51
_symmetry_cell_setting 'orthorhombic'
loop_
_space_group_symop_operation_xyz
x,y,z
1/2-x,-y,z
1/2+x,-y,-z
-x,y,-z
-x,-y,-z
1/2+x,y,-z
1/2-x,y,z
x,-y,z
loop_
_atom_site_type_symbol
_atom_site_label
_atom_site_fract_x
_atom_site_fract_y
_atom_site_fract_z
Si Si1 0.139529 0.661795 0.090681
Si Si2 0.998409 0.827658 0.597964
Si Si3 0.139486 0.837225 0.924570
Si Si4 0.353553 0.172718 0.734019
Si Si5 0.357441 0.833403 0.260281
O O1 0.250000 0.661973 0.089533
O O2 0.109001 0.500000 0.092068
O O3 0.113546 0.745318 0.176862
O O4 0.110362 0.742399 0.004380
O O5 0.082852 0.781339 0.656379
O O6 0.000000 0.775772 0.500000
O O7 0.910242 0.790557 0.653693
O O8 0.001422 0.000000 0.594170
O O9 0.250000 0.839121 0.923562
O O10 0.113204 0.784754 0.829347
O O11 0.110051 0.000000 0.936153
O O12 0.250000 0.218061 0.722321
O O13 0.353744 0.000000 0.735843
O O14 0.250000 0.817732 0.271453
O O15 0.376360 0.000000 0.244171
#
# Coordination Sequence:
#
# PCOD9407332 Si02
#       5
#     8   8   8   8   8
#     4   9  16  26  43  67  92 119 151 185 221 262
#     4   9  17  28  43  65  91 117 149 190 230 267
#     4   8  13  23  41  64  89 117 147 179 219 267
#     4   8  14  25  42  64  89 117 149 185 225 267
#     4   9  17  29  45  66  93 123 151 180 219 267
#
# _framework density 18.438962
#
# number of rings (size 3 to 8) (size 9 to 14) (size 15 to 20)
#    0.000    3.400    0.000    1.800    0.000    3.200 
#    0.000    5.000    0.000    7.800    0.000    0.000 
#    0.000    6.400    0.000    0.000    0.000    0.000 
#
# Total GULP energy -222948.782859 kJ/mol
# GULP energy per Si atom -5573.719571 kJ/mol
# Density = 1.839699 g / cm^3
# Si number density = 18.438962 Si / 1000 Ang^3
#
#
#
# Elastic Constant Matrix: (Units=GPa)
#
#
# Indices 1 2 3 4 5 6 
#
# 1 56.4435 30.5950 62.8172 0.0000 0.0000 0.0000
# 2 30.5950 45.6974 68.2273 0.0000 0.0000 0.0000
# 3 62.8172 68.2273 228.9820 0.0000 0.0000 0.0000
# 4 0.0000 0.0000 0.0000 -5.0756 0.0000 0.0000
# 5 0.0000 0.0000 0.0000 0.0000 35.9297 0.0000
# 6 0.0000 0.0000 0.0000 0.0000 0.0000 4.0512
#
#
#
# Elastic Compliance Matrix: (Units=1/GPa)
#
#
# Indices 1 2 3 4 5 6 
#
# 1 0.029718 -0.013915 -0.004007 0.000000 0.000000 0.000000
# 2 -0.013915 0.045934 -0.009869 0.000000 0.000000 0.000000
# 3 -0.004007 -0.009869 0.008407 0.000000 0.000000 0.000000
# 4 0.000000 0.000000 0.000000 -0.197023 0.000000 0.000000
# 5 0.000000 0.000000 0.000000 0.000000 0.027832 0.000000
# 6 0.000000 0.000000 0.000000 0.000000 0.000000 0.246841
#
#
# Mechanical properties :
#
#
# Convention : Reuss Voigt Hill
#
# Bulk Modulus (GPa) = 35.11461 72.71132 53.91296
# Shear Modulus (GPa) = 22.04742 18.27997 20.16369
#
# Velocity S-wave (km/s) = 3.46164 3.15203 3.31045
# Velocity P-wave (km/s) = 5.92134 7.26403 6.62678
#
# Compressibility (1/GPa) = 0.02847817
#
# Stress axis : x y z
#
# Youngs Moduli (GPa) = 33.64916 21.77024 118.94907
#
# Poissons Ratio (x) = 0.30293 0.47659
# Poissons Ratio (y) = 0.46822 1.17394
# Poissons Ratio (z) = 0.13482 0.21486
#
# Static dielectric constant tensor:
#      x y z
#    x 1.680980 0.000000 0.000000 
#    y 0.000000 1.602920 0.000000 
#    z 0.000000 0.000000 1.623730 
# 
# From -- ./inp_files/23693.got.cif
#   From: 2010.05.17/outbox.cif.g08.bks.cpg/sg51_12_cif.got.tgz:23693.got - 2010.06.03 11:52:47.
