data_PCOD9407580
_publ_section_title
;
Structure prediction by ZEFSAII (Michael W. Deem and Ramdas Pophale) SiO2 
 PCOD9407580
Probable space group: P M M A
;
_chemical_formula_sum "Si O2"
_cell_formula_units_Z 64
_cell_length_a 15.000000
_cell_length_b 9.000000
_cell_length_c 24.000000
_cell_angle_alpha 90.000000
_cell_angle_beta 90.000000
_cell_angle_gamma 90.000000
_cell_volume 3240.000000
_symmetry_space_group_name_H-M "P M M A"
_symmetry_group_IT_number 51
_symmetry_cell_setting 'orthorhombic'
loop_
_space_group_symop_operation_xyz
x,y,z
1/2-x,-y,z
1/2+x,-y,-z
-x,y,-z
-x,-y,-z
1/2+x,y,-z
1/2-x,y,z
x,-y,z
loop_
_atom_site_type_symbol
_atom_site_label
_atom_site_fract_x
_atom_site_fract_y
_atom_site_fract_z
Si Si1 0.143895 0.661247 0.813276
Si Si2 0.150125 0.673663 0.985269
Si Si3 0.344212 0.821573 0.105417
Si Si4 0.474563 0.170286 0.607185
Si Si5 0.535862 0.172342 0.105536
Si Si6 0.152422 0.676876 0.390236
Si Si7 0.651157 0.676886 0.477245
Si Si8 0.643578 0.337095 0.315101
O O1 0.250000 0.663262 0.815120
O O2 0.115103 0.500000 0.837677
O O3 0.105209 0.798017 0.846031
O O4 0.117207 0.665363 0.749152
O O5 0.250000 0.689936 0.959280
O O6 0.138325 0.500000 0.998087
O O7 0.073281 0.733178 0.945642
O O8 0.151467 0.768615 0.041500
O O9 0.250000 0.764578 0.129027
O O10 0.439864 0.775179 0.128045
O O11 0.341606 0.000000 0.108040
O O12 0.564814 0.242494 0.630330
O O13 0.431167 0.249228 0.553600
O O14 0.399879 0.202706 0.652951
O O15 0.489730 0.000000 0.594987
O O16 0.531212 0.000000 0.089314
O O17 0.250000 0.726117 0.369596
O O18 0.145923 0.500000 0.381843
O O19 0.150035 0.704428 0.456864
O O20 0.750000 0.725413 0.456349
O O21 0.646166 0.500000 0.469754
O O22 0.750000 0.331835 0.318125
O O23 0.615860 0.500000 0.338634
#
# Coordination Sequence:
#
# PCOD9407580 Si02
#       8
#     8   8   8   8   8   8   8   8
#     4   9  19  36  56  77 100 126 158 199 246 291
#     4  10  20  32  47  70 100 132 165 201 241 285
#     4   9  19  35  50  66  95 133 169 203 238 280
#     4  12  23  31  47  77 108 135 163 201 253 306
#     4  11  21  31  49  75  99 128 164 199 243 298
#     4   9  19  36  55  72  94 132 179 217 246 284
#     4   9  18  33  52  73  99 134 175 212 244 287
#     4   9  19  37  58  76  97 129 167 204 243 292
#
# _framework density 19.753086
#
# number of rings (size 3 to 8) (size 9 to 14) (size 15 to 20)
#    0.000    2.250    0.000    4.875    0.000    9.750 
#    0.000    2.500    0.000    0.750    0.000    3.500 
#    0.000    0.000    0.000    0.000    0.000    0.000 
#
# Total GULP energy -356579.412133 kJ/mol
# GULP energy per Si atom -5571.553315 kJ/mol
# Density = 1.970813 g / cm^3
# Si number density = 19.753086 Si / 1000 Ang^3
#
#
#
# Elastic Constant Matrix: (Units=GPa)
#
#
# Indices 1 2 3 4 5 6 
#
# 1 67.4954 19.1302 -10.1474 0.0000 0.0000 0.0000
# 2 19.1302 5.2135 -11.7517 0.0000 0.0000 0.0000
# 3 -10.1474 -11.7517 16.2234 0.0000 0.0000 0.0000
# 4 0.0000 0.0000 0.0000 10.6634 0.0000 0.0000
# 5 0.0000 0.0000 0.0000 0.0000 10.1178 0.0000
# 6 0.0000 0.0000 0.0000 0.0000 0.0000 2.9837
#
#
#
# Elastic Compliance Matrix: (Units=1/GPa)
#
#
# Indices 1 2 3 4 5 6 
#
# 1 0.009689 0.034597 0.031121 0.000000 0.000000 0.000000
# 2 0.034597 -0.179590 -0.108449 0.000000 0.000000 0.000000
# 3 0.031121 -0.108449 0.002548 0.000000 0.000000 0.000000
# 4 0.000000 0.000000 0.000000 0.093779 0.000000 0.000000
# 5 0.000000 0.000000 0.000000 0.000000 0.098835 0.000000
# 6 0.000000 0.000000 0.000000 0.000000 0.000000 0.335149
#
#
# Mechanical properties :
#
#
# Convention : Reuss Voigt Hill
#
# Bulk Modulus (GPa) = -3.95542 9.26608 2.65533
# Shear Modulus (GPa) = 13.82739 10.86641 12.34690
#
# Velocity S-wave (km/s) = 2.64864 2.34799 2.50284
# Velocity P-wave (km/s) = 2.71053 3.47158 3.11439
#
# Compressibility (1/GPa) = -0.25281736
#
# Stress axis : x y z
#
# Youngs Moduli (GPa) = 103.21148 -5.56824 392.49553
#
# Poissons Ratio (x) = 0.19264 -12.21476
# Poissons Ratio (y) = -3.57077 42.56590
# Poissons Ratio (z) = -3.21202 -0.60387
#
# Static dielectric constant tensor:
#      x y z
#    x 1.765840 0.000000 0.000000 
#    y 0.000000 1.711020 0.000000 
#    z 0.000000 0.000000 1.697280 
# 
# From -- ./inp_files/35594.got.cif
#   From: 2010.05.17/outbox.ucp.g08.bks.cvg/sg51_18_cif.got.tgz:35594.got - 2010.06.11 16:27:58.
