data_PCOD9407716
_publ_section_title
;
Structure prediction by ZEFSAII (Michael W. Deem and Ramdas Pophale) SiO2 
 PCOD9407716
Probable space group: P M M A
;
_chemical_formula_sum "Si O2"
_cell_formula_units_Z 48
_cell_length_a 18.000000
_cell_length_b 15.000000
_cell_length_c 9.000000
_cell_angle_alpha 90.000000
_cell_angle_beta 90.000000
_cell_angle_gamma 90.000000
_cell_volume 2430.000000
_symmetry_space_group_name_H-M "P M M A"
_symmetry_group_IT_number 51
_symmetry_cell_setting 'orthorhombic'
loop_
_space_group_symop_operation_xyz
x,y,z
1/2-x,-y,z
1/2+x,-y,-z
-x,y,-z
-x,-y,-z
1/2+x,y,-z
1/2-x,y,z
x,-y,z
loop_
_atom_site_type_symbol
_atom_site_label
_atom_site_fract_x
_atom_site_fract_y
_atom_site_fract_z
Si Si1 0.162998 0.322315 0.941460
Si Si2 0.160893 0.684038 0.594050
Si Si3 0.839010 0.847397 0.857441
Si Si4 0.421002 0.500000 0.930857
Si Si5 0.162464 0.000000 0.646672
Si Si6 0.918850 0.500000 0.423182
Si Si7 0.587150 0.000000 0.044346
Si Si8 0.586468 0.149227 0.543058
O O1 0.250000 0.341408 0.939468
O O2 0.145191 0.297537 0.769744
O O3 0.121089 0.411847 0.978499
O O4 0.149364 0.247387 0.063583
O O5 0.250000 0.692599 0.570645
O O6 0.131078 0.587059 0.548728
O O7 0.112147 0.752704 0.501874
O O8 0.750000 0.858394 0.826203
O O9 0.890669 0.861842 0.714262
O O10 0.868998 0.916785 0.976843
O O11 0.429350 0.500000 0.753935
O O12 0.500000 0.500000 0.000000
O O13 0.140809 0.084791 0.548681
O O14 0.250000 0.000000 0.688693
O O15 0.104977 0.000000 0.782455
O O16 0.000000 0.500000 0.500000
O O17 0.500000 0.000000 0.000000
O O18 0.500000 0.133109 0.500000
#
# Coordination Sequence:
#
# PCOD9407716 Si02
#       8
#     8   8   8   4   4   4   4   8
#     4   9  20  38  61  85 114 152 199 246 292 350
#     4  10  20  38  61  86 116 158 205 249 301 368
#     4  11  23  41  63  89 121 160 202 249 301 359
#     4  10  21  35  57  85 117 154 191 239 298 353
#     4  12  24  42  66  90 118 160 206 244 290 364
#     4  10  21  37  57  85 119 156 200 251 302 353
#     4  12  25  42  65  94 124 156 196 248 303 356
#     4  12  25  41  61  90 125 159 197 250 308 360
#
# _framework density 19.753086
#
# number of rings (size 3 to 8) (size 9 to 14) (size 15 to 20)
#    0.000    1.333    0.000    6.000    0.000    8.000 
#    0.000    0.000    0.000    3.000    0.000    0.000 
#    0.000    0.000    0.000    0.000    0.000    0.000 
#
# Total GULP energy -268001.397991 kJ/mol
# GULP energy per Si atom -5583.362458 kJ/mol
# Density = 1.970813 g / cm^3
# Si number density = 19.753086 Si / 1000 Ang^3
#
#
#
# Elastic Constant Matrix: (Units=GPa)
#
#
# Indices 1 2 3 4 5 6 
#
# 1 40.0414 13.8815 21.3071 0.0000 0.0000 0.0000
# 2 13.8815 70.5202 18.8530 0.0000 0.0000 0.0000
# 3 21.3071 18.8530 45.4927 0.0000 0.0000 0.0000
# 4 0.0000 0.0000 0.0000 13.5128 0.0000 0.0000
# 5 0.0000 0.0000 0.0000 0.0000 38.5180 0.0000
# 6 0.0000 0.0000 0.0000 0.0000 0.0000 27.8180
#
#
#
# Elastic Compliance Matrix: (Units=1/GPa)
#
#
# Indices 1 2 3 4 5 6 
#
# 1 0.033721 -0.002716 -0.014668 0.000000 0.000000 0.000000
# 2 -0.002716 0.016166 -0.005427 0.000000 0.000000 0.000000
# 3 -0.014668 -0.005427 0.031101 0.000000 0.000000 0.000000
# 4 0.000000 0.000000 0.000000 0.074004 0.000000 0.000000
# 5 0.000000 0.000000 0.000000 0.000000 0.025962 0.000000
# 6 0.000000 0.000000 0.000000 0.000000 0.000000 0.035948
#
#
# Mechanical properties :
#
#
# Convention : Reuss Voigt Hill
#
# Bulk Modulus (GPa) = 28.27695 29.34860 28.81277
# Shear Modulus (GPa) = 18.22738 22.77061 20.49900
#
# Velocity S-wave (km/s) = 3.04099 3.39892 3.22493
# Velocity P-wave (km/s) = 5.16493 5.50395 5.33713
#
# Compressibility (1/GPa) = 0.03536449
#
# Stress axis : x y z
#
# Youngs Moduli (GPa) = 29.65503 61.85840 32.15371
#
# Poissons Ratio (x) = 0.16803 0.47163
# Poissons Ratio (y) = 0.08056 0.17450
# Poissons Ratio (z) = 0.43498 0.33572
#
# Static dielectric constant tensor:
#      x y z
#    x 1.635580 0.000000 0.000000 
#    y 0.000000 2.354420 0.000000 
#    z 0.000000 0.000000 1.671670 
# 
# From -- ./inp_files/9774.got.cif
#   From: 2010.05.17/outbox.ucp.g08.bks.cvg/sg51_5_cif.got.tgz:9774.got - 2010.06.11 16:27:58.
