data_PCOD9407087
_publ_section_title
;
Structure prediction by ZEFSAII (Michael W. Deem and Ramdas Pophale) SiO2 
 PCOD9407087
Probable space group: P M M A
;
_chemical_formula_sum "Si O2"
_cell_formula_units_Z 32
_cell_length_a 9.688469
_cell_length_b 11.970143
_cell_length_c 13.792771
_cell_angle_alpha 90.000000
_cell_angle_beta 90.000000
_cell_angle_gamma 90.000000
_cell_volume 1599.580195
_symmetry_space_group_name_H-M "P M M A"
_symmetry_group_IT_number 51
_symmetry_cell_setting 'orthorhombic'
loop_
_space_group_symop_operation_xyz
x,y,z
1/2-x,-y,z
1/2+x,-y,-z
-x,y,-z
-x,-y,-z
1/2+x,y,-z
1/2-x,y,z
x,-y,z
loop_
_atom_site_type_symbol
_atom_site_label
_atom_site_fract_x
_atom_site_fract_y
_atom_site_fract_z
Si Si1 0.475598 0.259670 0.309645
Si Si2 0.750000 0.870499 0.338895
Si Si3 0.087996 0.279306 0.085603
Si Si4 0.407138 0.500000 0.659383
Si Si5 0.750000 0.869845 0.571440
Si Si6 0.594364 0.500000 0.111638
O O1 0.619262 0.196190 0.302018
O O2 0.414192 0.249627 0.200558
O O3 0.506936 0.384492 0.352306
O O4 0.380512 0.193400 0.384279
O O5 0.750000 0.865563 0.455660
O O6 0.750000 0.000000 0.309979
O O7 0.250000 0.286490 0.057831
O O8 0.000247 0.393749 0.091776
O O9 0.000000 0.216041 0.000000
O O10 0.250000 0.500000 0.615229
O O11 0.385650 0.500000 0.774136
O O12 0.750000 0.000000 0.600368
O O13 0.750000 0.500000 0.068322
#
# Coordination Sequence:
#
# PCOD9407087 Si02
#       6
#     8   4   8   4   4   4
#     4  11  22  41  66  95 133 170 206 263 323 375
#     4  11  24  43  72  96 119 161 217 271 323 377
#     4  11  22  35  57  88 127 170 211 255 306 375
#     4   9  18  35  60  92 132 171 208 248 310 390
#     4  11  24  45  68  98 125 157 217 279 321 371
#     4   9  18  32  55  86 124 168 215 260 301 361
#
# _framework density 20.005251000000001
#
# number of rings (size 3 to 8) (size 9 to 14) (size 15 to 20)
#    0.000    1.500    2.500    3.000    3.500    2.500 
#    0.000    3.750    0.000    4.500    0.000    0.000 
#    0.000    0.000    0.000    0.000    0.000    0.000 
#
# Total GULP energy -178148.257842 kJ/mol
# GULP energy per Si atom -5567.133058 kJ/mol
# Density = 1.995972 g / cm^3
# Si number density = 20.005251 Si / 1000 Ang^3
#
#
#
# Elastic Constant Matrix: (Units=GPa)
#
#
# Indices 1 2 3 4 5 6 
#
# 1 177.1297 42.5282 16.8130 0.0000 0.0000 0.0000
# 2 42.5282 108.2081 15.8258 0.0000 0.0000 0.0000
# 3 16.8130 15.8258 40.4482 0.0000 0.0000 0.0000
# 4 0.0000 0.0000 0.0000 22.6385 0.0000 0.0000
# 5 0.0000 0.0000 0.0000 0.0000 23.2612 0.0000
# 6 0.0000 0.0000 0.0000 0.0000 0.0000 51.8424
#
#
#
# Elastic Compliance Matrix: (Units=1/GPa)
#
#
# Indices 1 2 3 4 5 6 
#
# 1 0.006350 -0.002238 -0.001764 0.000000 0.000000 0.000000
# 2 -0.002238 0.010591 -0.003214 0.000000 0.000000 0.000000
# 3 -0.001764 -0.003214 0.026714 0.000000 0.000000 0.000000
# 4 0.000000 0.000000 0.000000 0.044173 0.000000 0.000000
# 5 0.000000 0.000000 0.000000 0.000000 0.042990 0.000000
# 6 0.000000 0.000000 0.000000 0.000000 0.000000 0.019289
#
#
# Mechanical properties :
#
#
# Convention : Reuss Voigt Hill
#
# Bulk Modulus (GPa) = 34.21857 52.90223 43.56040
# Shear Modulus (GPa) = 28.68963 36.25635 32.47299
#
# Velocity S-wave (km/s) = 3.79107 4.26178 4.03330
# Velocity P-wave (km/s) = 6.02535 7.12170 6.59634
#
# Compressibility (1/GPa) = 0.02922390
#
# Stress axis : x y z
#
# Youngs Moduli (GPa) = 157.47250 94.42005 37.43407
#
# Poissons Ratio (x) = 0.21130 0.06604
# Poissons Ratio (y) = 0.35240 0.12030
# Poissons Ratio (z) = 0.27779 0.30343
#
# Static dielectric constant tensor:
#      x y z
#    x 1.638270 0.000000 0.000000 
#    y 0.000000 1.730810 0.000000 
#    z 0.000000 0.000000 1.773110 
# 
# From -- ./inp_files/20179.got.cif
#   From: 2010.05.17/outbox.cif.g08.bks.cpg/sg51_11_cif.got.tgz:20179.got - 2010.06.03 11:52:47.
