data_PCOD9407858
_publ_section_title
;
Structure prediction by ZEFSAII (Michael W. Deem and Ramdas Pophale) SiO2 
 PCOD9407858
Probable space group: P N N A
;
_chemical_formula_sum "Si O2"
_cell_formula_units_Z 48
_cell_length_a 12.601822
_cell_length_b 21.588400
_cell_length_c 7.078505
_cell_angle_alpha 90.000000
_cell_angle_beta 90.000000
_cell_angle_gamma 90.000000
_cell_volume 1925.729753
_symmetry_space_group_name_H-M "P N N A"
_symmetry_group_IT_number 52
_symmetry_cell_setting 'orthorhombic'
loop_
_space_group_symop_operation_xyz
x,y,z
1/2-x,-y,z
x,1/2-y,1/2-z
1/2-x,1/2+y,1/2-z
-x,-y,-z
1/2+x,y,-z
-x,1/2+y,1/2+z
1/2+x,1/2-y,1/2+z
loop_
_atom_site_type_symbol
_atom_site_label
_atom_site_fract_x
_atom_site_fract_y
_atom_site_fract_z
Si Si1 0.688481 0.939602 0.178463
Si Si2 0.554117 0.643065 0.824880
Si Si3 0.364596 0.485115 0.105657
Si Si4 0.517805 0.105884 0.722657
Si Si5 0.821439 0.822181 0.273904
Si Si6 0.288113 0.679751 0.214491
O O1 0.664115 0.960440 0.396565
O O2 0.569187 0.917895 0.128938
O O3 0.757963 0.877188 0.171198
O O4 0.750000 0.000000 0.100630
O O5 0.573348 0.570096 0.794882
O O6 0.447096 0.670384 0.739817
O O7 0.663448 0.671652 0.749266
O O8 0.536722 0.647874 0.056163
O O9 0.250000 0.500000 0.192347
O O10 0.432644 0.546777 0.114605
O O11 0.619822 0.139459 0.809713
O O12 0.789521 0.750000 0.250000
O O13 0.801139 0.836509 0.494252
O O14 0.316899 0.750000 0.250000
#
# Coordination Sequence:
#
# PCOD9407858 Si02
#       6
#     8   8   8   8   8   8
#     4  10  17  31  52  79 107 136 172 226 271 313
#     4  10  17  32  49  75 108 134 173 216 269 317
#     4  10  14  26  50  78 109 126 165 226 279 306
#     4  10  18  29  49  79 109 132 169 224 279 311
#     4  11  22  36  52  79 110 146 179 216 270 327
#     4  11  21  35  51  75 108 142 179 216 260 316
#
# _framework density 24.925613999999999
#
# number of rings (size 3 to 8) (size 9 to 14) (size 15 to 20)
#    0.000    1.667    5.000    6.500    0.000    0.667 
#    0.000    0.000    0.000    0.000    4.333    2.333 
#    0.000    0.000    0.000    0.000    0.000    0.000 
#
# Total GULP energy -268110.982130 kJ/mol
# GULP energy per Si atom -5585.645461 kJ/mol
# Density = 2.486888 g / cm^3
# Si number density = 24.925614 Si / 1000 Ang^3
#
#
#
# Elastic Constant Matrix: (Units=GPa)
#
#
# Indices 1 2 3 4 5 6 
#
# 1 192.8872 64.7313 16.8329 0.0000 0.0000 0.0000
# 2 64.7313 140.4143 -7.6617 0.0000 0.0000 0.0000
# 3 16.8329 -7.6617 91.4769 0.0000 0.0000 0.0000
# 4 0.0000 0.0000 0.0000 10.1089 0.0000 0.0000
# 5 0.0000 0.0000 0.0000 0.0000 2.1455 0.0000
# 6 0.0000 0.0000 0.0000 0.0000 0.0000 39.4001
#
#
#
# Elastic Compliance Matrix: (Units=1/GPa)
#
#
# Indices 1 2 3 4 5 6 
#
# 1 0.006309 -0.002986 -0.001411 0.000000 0.000000 0.000000
# 2 -0.002986 0.008567 0.001267 0.000000 0.000000 0.000000
# 3 -0.001411 0.001267 0.011297 0.000000 0.000000 0.000000
# 4 0.000000 0.000000 0.000000 0.098923 0.000000 0.000000
# 5 0.000000 0.000000 0.000000 0.000000 0.466097 0.000000
# 6 0.000000 0.000000 0.000000 0.000000 0.000000 0.025381
#
#
# Mechanical properties :
#
#
# Convention : Reuss Voigt Hill
#
# Bulk Modulus (GPa) = 50.21422 63.62038 56.91730
# Shear Modulus (GPa) = 7.94315 33.72261 20.83288
#
# Velocity S-wave (km/s) = 1.78708 3.68221 2.89416
# Velocity P-wave (km/s) = 4.94445 6.60740 5.83547
#
# Compressibility (1/GPa) = 0.01991468
#
# Stress axis : x y z
#
# Youngs Moduli (GPa) = 158.49145 116.72263 88.51520
#
# Poissons Ratio (x) = 0.34850 0.12490
# Poissons Ratio (y) = 0.47321 -0.11215
# Poissons Ratio (z) = 0.22365 -0.14788
#
# Static dielectric constant tensor:
#      x y z
#    x 2.093340 0.000000 0.000000 
#    y 0.000000 1.912340 0.000000 
#    z 0.000000 0.000000 2.095310 
# 
# From -- ./inp_files/18285.got.cif
#   From: 2010.05.17/outbox.cif.g08.bks.cpg/sg52_10_cif.got.tgz:18285.got - 2010.06.03 12:15:38.
