data_PCOD9407002
_publ_section_title
;
Structure prediction by ZEFSAII (Michael W. Deem and Ramdas Pophale) SiO2 
 PCOD9407002
Probable space group: P M M A
;
_chemical_formula_sum "Si O2"
_cell_formula_units_Z 42
_cell_length_a 20.507870
_cell_length_b 7.590160
_cell_length_c 12.936521
_cell_angle_alpha 90.000000
_cell_angle_beta 90.000000
_cell_angle_gamma 90.000000
_cell_volume 2013.673174
_symmetry_space_group_name_H-M "P M M A"
_symmetry_group_IT_number 51
_symmetry_cell_setting 'orthorhombic'
loop_
_space_group_symop_operation_xyz
x,y,z
1/2-x,-y,z
1/2+x,-y,-z
-x,y,-z
-x,-y,-z
1/2+x,y,-z
1/2-x,y,z
x,-y,z
loop_
_atom_site_type_symbol
_atom_site_label
_atom_site_fract_x
_atom_site_fract_y
_atom_site_fract_z
Si Si1 0.360237 0.201387 0.895878
Si Si2 0.148732 0.299108 0.121776
Si Si3 0.679064 0.291676 0.335949
Si Si4 0.959730 0.284723 0.401204
Si Si5 0.750000 0.000000 0.817920
Si Si6 0.000928 0.711966 0.172464
O O1 0.333950 0.271568 0.786742
O O2 0.438856 0.211673 0.887231
O O3 0.339195 0.000000 0.906033
O O4 0.337179 0.296808 0.998883
O O5 0.156486 0.500000 0.160688
O O6 0.072789 0.246291 0.133788
O O7 0.193640 0.155807 0.175294
O O8 0.750000 0.215857 0.361569
O O9 0.681166 0.500000 0.357446
O O10 0.615116 0.221543 0.393926
O O11 0.958405 0.500000 0.404127
O O12 0.992849 0.236637 0.292525
O O13 0.000000 0.223939 0.500000
O O14 0.993242 0.500000 0.164960
#
# Coordination Sequence:
#
# PCOD9407002 Si02
#       6
#     8   8   8   8   2   8
#     4  11  21  32  52  83 111 146 189 229 281 346
#     4  11  23  39  57  79 116 153 193 240 279 336
#     4   9  18  31  49  76 110 146 182 228 293 350
#     4   8  14  29  55  83 108 136 182 242 293 345
#     4  12  26  40  54  82 106 158 206 232 280 342
#     4   9  19  35  56  82 108 144 186 234 293 335
#
# _framework density 20.857408
#
# number of rings (size 3 to 8) (size 9 to 14) (size 15 to 20)
#    0.000    2.286    0.952    3.714    2.667    2.667 
#    0.000    0.000    2.095    9.143    0.000    0.000 
#    0.000    0.000    0.000    0.000    0.000    0.190 
#
# Total GULP energy -233999.621842 kJ/mol
# GULP energy per Si atom -5571.419568 kJ/mol
# Density = 2.080994 g / cm^3
# Si number density = 20.857408 Si / 1000 Ang^3
#
#
#
# Elastic Constant Matrix: (Units=GPa)
#
#
# Indices 1 2 3 4 5 6 
#
# 1 128.0984 17.1582 36.6582 0.0000 0.0000 0.0000
# 2 17.1582 72.6020 -2.6944 0.0000 0.0000 0.0000
# 3 36.6582 -2.6944 50.8658 0.0000 0.0000 0.0000
# 4 0.0000 0.0000 0.0000 -18.0829 0.0000 0.0000
# 5 0.0000 0.0000 0.0000 0.0000 -20.6967 0.0000
# 6 0.0000 0.0000 0.0000 0.0000 0.0000 20.4452
#
#
#
# Elastic Compliance Matrix: (Units=1/GPa)
#
#
# Indices 1 2 3 4 5 6 
#
# 1 0.010347 -0.002727 -0.007602 0.000000 0.000000 0.000000
# 2 -0.002727 0.014520 0.002735 0.000000 0.000000 0.000000
# 3 -0.007602 0.002735 0.025283 0.000000 0.000000 0.000000
# 4 0.000000 0.000000 0.000000 -0.055301 0.000000 0.000000
# 5 0.000000 0.000000 0.000000 0.000000 -0.048317 0.000000
# 6 0.000000 0.000000 0.000000 0.000000 0.000000 0.048911
#
#
# Mechanical properties :
#
#
# Convention : Reuss Voigt Hill
#
# Bulk Modulus (GPa) = 28.60308 39.31224 33.95766
# Shear Modulus (GPa) = 224.36378 9.69608 117.02993
#
# Velocity S-wave (km/s) = 10.38286 2.15843 7.49876
# Velocity P-wave (km/s) = 12.54918 5.01007 9.55465
#
# Compressibility (1/GPa) = 0.03496127
#
# Stress axis : x y z
#
# Youngs Moduli (GPa) = 96.64476 68.87147 39.55264
#
# Poissons Ratio (x) = 0.18784 0.30066
# Poissons Ratio (y) = 0.26360 -0.10817
# Poissons Ratio (z) = 0.73465 -0.18835
#
# Static dielectric constant tensor:
#      x y z
#    x 1.773130 0.000000 0.000000 
#    y 0.000000 1.752540 0.000000 
#    z 0.000000 0.000000 1.723360 
# 
# From -- ./inp_files/17921.got.cif
#   From: 2010.05.17/outbox.cif.g08.bks.cpg/sg51_9_cif.got.tgz:17921.got - 2010.06.03 11:52:47.
