data_PCOD9407546
_publ_section_title
;
Structure prediction by ZEFSAII (Michael W. Deem and Ramdas Pophale) SiO2 
 PCOD9407546
Probable space group: P M M A
;
_chemical_formula_sum "Si O2"
_cell_formula_units_Z 64
_cell_length_a 24.000000
_cell_length_b 9.000000
_cell_length_c 15.000000
_cell_angle_alpha 90.000000
_cell_angle_beta 90.000000
_cell_angle_gamma 90.000000
_cell_volume 3240.000000
_symmetry_space_group_name_H-M "P M M A"
_symmetry_group_IT_number 51
_symmetry_cell_setting 'orthorhombic'
loop_
_space_group_symop_operation_xyz
x,y,z
1/2-x,-y,z
1/2+x,-y,-z
-x,y,-z
-x,-y,-z
1/2+x,y,-z
1/2-x,y,z
x,-y,z
loop_
_atom_site_type_symbol
_atom_site_label
_atom_site_fract_x
_atom_site_fract_y
_atom_site_fract_z
Si Si1 0.522850 0.180334 0.278306
Si Si2 0.185992 0.167424 0.830850
Si Si3 0.038927 0.172189 0.926419
Si Si4 0.089054 0.679422 0.350097
Si Si5 0.683007 0.330754 0.344503
Si Si6 0.685395 0.321176 0.789932
Si Si7 0.403277 0.176909 0.546103
Si Si8 0.341957 0.828789 0.021444
O O1 0.541747 0.225532 0.176771
O O2 0.462657 0.251861 0.295848
O O3 0.558525 0.221295 0.367666
O O4 0.520843 0.000000 0.279745
O O5 0.250000 0.147491 0.806026
O O6 0.163608 0.270294 0.752364
O O7 0.187152 0.229747 0.931117
O O8 0.159714 0.000000 0.830507
O O9 0.096099 0.170476 0.981324
O O10 0.019829 0.000000 0.916012
O O11 0.000000 0.250769 0.000000
O O12 0.085528 0.500000 0.354298
O O13 0.144499 0.719398 0.292275
O O14 0.086613 0.744325 0.450979
O O15 0.750000 0.331618 0.347994
O O16 0.663720 0.500000 0.357921
O O17 0.657543 0.224472 0.419116
O O18 0.750000 0.277632 0.774485
O O19 0.683363 0.500000 0.797478
O O20 0.666279 0.254317 0.885557
O O21 0.408983 0.000000 0.534164
O O22 0.323630 0.000000 0.034789
#
# Coordination Sequence:
#
# PCOD9407546 Si02
#       8
#     8   8   8   8   8   8   8   8
#     4  10  21  39  62  88 119 154 193 240 297 357
#     4   9  17  30  49  75 108 144 183 229 278 329
#     4   9  17  30  52  82 114 147 181 220 271 332
#     4  11  24  41  61  85 114 150 196 250 305 360
#     4  10  21  36  55  82 117 156 196 239 291 352
#     4  10  23  42  60  81 115 157 196 239 296 357
#     4  11  23  39  61  87 115 151 196 247 304 363
#     4  10  19  33  56  84 112 146 191 237 278 329
#
# _framework density 19.753086
#
# number of rings (size 3 to 8) (size 9 to 14) (size 15 to 20)
#    0.000    2.000    0.000    3.375    0.000    9.000 
#    0.000    3.125    0.000    2.250    0.000    0.000 
#    0.000    0.000    0.000    0.000    0.000    0.000 
#
# Total GULP energy -356498.083033 kJ/mol
# GULP energy per Si atom -5570.282547 kJ/mol
# Density = 1.970813 g / cm^3
# Si number density = 19.753086 Si / 1000 Ang^3
#
#
#
# Elastic Constant Matrix: (Units=GPa)
#
#
# Indices 1 2 3 4 5 6 
#
# 1 85.3636 16.3966 51.4316 0.0000 0.0000 0.0000
# 2 16.3966 23.6747 22.0998 0.0000 0.0000 0.0000
# 3 51.4316 22.0998 140.6595 0.0000 0.0000 0.0000
# 4 0.0000 0.0000 0.0000 32.3881 0.0000 0.0000
# 5 0.0000 0.0000 0.0000 0.0000 30.8536 0.0000
# 6 0.0000 0.0000 0.0000 0.0000 0.0000 20.7814
#
#
#
# Elastic Compliance Matrix: (Units=1/GPa)
#
#
# Indices 1 2 3 4 5 6 
#
# 1 0.015839 -0.006520 -0.004767 0.000000 0.000000 0.000000
# 2 -0.006520 0.052183 -0.005815 0.000000 0.000000 0.000000
# 3 -0.004767 -0.005815 0.009766 0.000000 0.000000 0.000000
# 4 0.000000 0.000000 0.000000 0.030876 0.000000 0.000000
# 5 0.000000 0.000000 0.000000 0.000000 0.032411 0.000000
# 6 0.000000 0.000000 0.000000 0.000000 0.000000 0.048120
#
#
# Mechanical properties :
#
#
# Convention : Reuss Voigt Hill
#
# Bulk Modulus (GPa) = 22.94402 47.72822 35.33612
# Shear Modulus (GPa) = 21.01493 27.45593 24.23543
#
# Velocity S-wave (km/s) = 3.26526 3.73226 3.50654
# Velocity P-wave (km/s) = 5.08493 6.54124 5.85851
#
# Compressibility (1/GPa) = 0.04358433
#
# Stress axis : x y z
#
# Youngs Moduli (GPa) = 63.13477 19.16347 102.39552
#
# Poissons Ratio (x) = 0.12494 0.48814
# Poissons Ratio (y) = 0.41163 0.59541
# Poissons Ratio (z) = 0.30097 0.11143
#
# Static dielectric constant tensor:
#      x y z
#    x 1.903900 0.000000 0.000000 
#    y 0.000000 1.696980 0.000000 
#    z 0.000000 0.000000 1.681310 
# 
# From -- ./inp_files/26315.got.cif
#   From: 2010.05.17/outbox.ucp.g08.bks.cvg/sg51_14_cif.got.tgz:26315.got - 2010.06.11 16:27:58.
