data_PCOD9407788
_publ_section_title
;
Structure prediction by ZEFSAII (Michael W. Deem and Ramdas Pophale) SiO2 
 PCOD9407788
Probable space group: P M M A
;
_chemical_formula_sum "Si O2"
_cell_formula_units_Z 48
_cell_length_a 9.000000
_cell_length_b 15.000000
_cell_length_c 18.000000
_cell_angle_alpha 90.000000
_cell_angle_beta 90.000000
_cell_angle_gamma 90.000000
_cell_volume 2430.000000
_symmetry_space_group_name_H-M "P M M A"
_symmetry_group_IT_number 51
_symmetry_cell_setting 'orthorhombic'
loop_
_space_group_symop_operation_xyz
x,y,z
1/2-x,-y,z
1/2+x,-y,-z
-x,y,-z
-x,-y,-z
1/2+x,y,-z
1/2-x,y,z
x,-y,z
loop_
_atom_site_type_symbol
_atom_site_label
_atom_site_fract_x
_atom_site_fract_y
_atom_site_fract_z
Si Si1 0.426048 0.701464 0.826141
Si Si2 0.587288 0.000000 0.829395
Si Si3 0.919066 0.174944 0.929066
Si Si4 0.578172 0.000000 0.307985
Si Si5 0.573854 0.500000 0.224411
Si Si6 0.928561 0.809417 0.692845
Si Si7 0.426869 0.316177 0.572736
Si Si8 0.426702 0.500000 0.382903
O O1 0.250000 0.716580 0.814114
O O2 0.482152 0.741479 0.903169
O O3 0.451827 0.595285 0.815807
O O4 0.520872 0.764139 0.770279
O O5 0.586568 0.091107 0.873965
O O6 0.439605 0.000000 0.780764
O O7 0.750000 0.000000 0.787908
O O8 0.750000 0.203693 0.941837
O O9 0.000000 0.136593 0.000000
O O10 0.491783 0.091967 0.325176
O O11 0.750000 0.000000 0.332059
O O12 0.750000 0.500000 0.246779
O O13 0.469263 0.500000 0.296232
O O14 0.750000 0.807385 0.686799
O O15 0.013192 0.743429 0.638266
O O16 0.500000 0.275672 0.500000
O O17 0.250000 0.320778 0.569747
O O18 0.497143 0.413298 0.583328
O O19 0.250000 0.500000 0.394535
#
# Coordination Sequence:
#
# PCOD9407788 Si02
#       8
#     8   4   8   4   4   8   8   4
#     4  11  22  39  63  91 123 163 208 255 310 370
#     4  10  21  37  59  89 127 160 197 253 313 369
#     4  11  23  39  60  88 125 165 206 255 313 374
#     4  12  24  39  64  95 125 164 209 255 307 363
#     4  10  22  39  62  91 126 161 206 261 308 362
#     4  12  24  41  64  93 127 164 207 257 310 368
#     4  12  25  43  64  92 129 168 211 258 314 375
#     4  12  23  37  62  95 130 167 206 257 316 372
#
# _framework density 19.753086
#
# number of rings (size 3 to 8) (size 9 to 14) (size 15 to 20)
#    0.000    0.667    3.333    6.000    0.000    1.333 
#    0.000    0.833    0.000    0.000    0.000    0.000 
#    0.000    0.000    0.000    0.000    0.000    0.000 
#
# Total GULP energy -267659.181811 kJ/mol
# GULP energy per Si atom -5576.232954 kJ/mol
# Density = 1.970813 g / cm^3
# Si number density = 19.753086 Si / 1000 Ang^3
#
#
#
# Elastic Constant Matrix: (Units=GPa)
#
#
# Indices 1 2 3 4 5 6 
#
# 1 161.8647 48.5633 21.6568 0.0000 0.0000 0.0000
# 2 48.5633 111.9229 16.6911 0.0000 0.0000 0.0000
# 3 21.6568 16.6911 34.6971 0.0000 0.0000 0.0000
# 4 0.0000 0.0000 0.0000 84.8221 0.0000 0.0000
# 5 0.0000 0.0000 0.0000 0.0000 27.1963 0.0000
# 6 0.0000 0.0000 0.0000 0.0000 0.0000 166.8611
#
#
#
# Elastic Compliance Matrix: (Units=1/GPa)
#
#
# Indices 1 2 3 4 5 6 
#
# 1 0.007444 -0.002733 -0.003331 0.000000 0.000000 0.000000
# 2 -0.002733 0.010629 -0.003407 0.000000 0.000000 0.000000
# 3 -0.003331 -0.003407 0.032539 0.000000 0.000000 0.000000
# 4 0.000000 0.000000 0.000000 0.011789 0.000000 0.000000
# 5 0.000000 0.000000 0.000000 0.000000 0.036770 0.000000
# 6 0.000000 0.000000 0.000000 0.000000 0.000000 0.005993
#
#
# Mechanical properties :
#
#
# Convention : Reuss Voigt Hill
#
# Bulk Modulus (GPa) = 31.57705 53.58967 42.58336
# Shear Modulus (GPa) = 37.12980 70.54747 53.83863
#
# Velocity S-wave (km/s) = 4.34025 5.98266 5.22637
# Velocity P-wave (km/s) = 6.41386 8.65515 7.61739
#
# Compressibility (1/GPa) = 0.03166857
#
# Stress axis : x y z
#
# Youngs Moduli (GPa) = 134.34198 94.08516 30.73220
#
# Poissons Ratio (x) = 0.25713 0.10238
# Poissons Ratio (y) = 0.36716 0.10471
# Poissons Ratio (z) = 0.44755 0.32056
#
# Static dielectric constant tensor:
#      x y z
#    x 1.671470 0.000000 0.000000 
#    y 0.000000 1.786840 0.000000 
#    z 0.000000 0.000000 1.607580 
# 
# From -- ./inp_files/27706.got.cif
#   From: 2010.05.17/outbox.ucp.g08.bks.cvg/sg51_14_cif.got.tgz:27706.got - 2010.06.11 16:27:58.
