data_PCOD9407446
_publ_section_title
;
Structure prediction by ZEFSAII (Michael W. Deem and Ramdas Pophale) SiO2 
 PCOD9407446
Probable space group: P M M A
;
_chemical_formula_sum "Si O2"
_cell_formula_units_Z 48
_cell_length_a 18.000000
_cell_length_b 9.000000
_cell_length_c 15.000000
_cell_angle_alpha 90.000000
_cell_angle_beta 90.000000
_cell_angle_gamma 90.000000
_cell_volume 2430.000000
_symmetry_space_group_name_H-M "P M M A"
_symmetry_group_IT_number 51
_symmetry_cell_setting 'orthorhombic'
loop_
_space_group_symop_operation_xyz
x,y,z
1/2-x,-y,z
1/2+x,-y,-z
-x,y,-z
-x,-y,-z
1/2+x,y,-z
1/2-x,y,z
x,-y,z
loop_
_atom_site_type_symbol
_atom_site_label
_atom_site_fract_x
_atom_site_fract_y
_atom_site_fract_z
Si Si1 0.250000 0.321674 0.237558
Si Si2 0.250000 0.179887 0.433481
Si Si3 0.099144 0.322958 0.127213
Si Si4 0.835941 0.177061 0.040100
Si Si5 0.078272 0.178982 0.452162
Si Si6 0.333453 0.179341 0.749116
Si Si7 0.501679 0.178715 0.270274
O O1 0.250000 0.500000 0.254077
O O2 0.250000 0.235809 0.331272
O O3 0.175637 0.286421 0.181090
O O4 0.165745 0.226209 0.470330
O O5 0.250000 0.000000 0.437649
O O6 0.091135 0.500000 0.125586
O O7 0.031026 0.250847 0.181006
O O8 0.110641 0.261059 0.027715
O O9 0.750000 0.211714 0.016415
O O10 0.842758 0.211291 0.145191
O O11 0.846577 0.000000 0.030535
O O12 0.056644 0.211612 0.349392
O O13 0.000000 0.230353 0.500000
O O14 0.079550 0.000000 0.466043
O O15 0.250000 0.233547 0.721357
O O16 0.412906 0.226853 0.707421
O O17 0.330338 0.000000 0.738455
O O18 0.503912 0.000000 0.259927
#
# Coordination Sequence:
#
# PCOD9407446 Si02
#       7
#     4   4   8   8   8   8   8
#     4  10  20  32  48  72 103 134 166 208 251 302
#     4  10  18  32  56  78 103 136 168 204 249 308
#     4  11  21  32  48  74 106 134 168 212 258 304
#     4   9  17  30  49  70  96 132 174 214 251 299
#     4   9  18  32  50  79 111 133 161 205 254 303
#     4   8  16  32  51  72  97 130 174 218 255 294
#     4  10  19  33  54  75 101 134 170 212 253 306
#
# _framework density 19.753086
#
# number of rings (size 3 to 8) (size 9 to 14) (size 15 to 20)
#    0.000    2.500    2.500    1.500    0.000    1.333 
#    1.500    4.167    0.000    3.500    0.000    0.000 
#    0.000    0.000    0.000    0.000    0.000    0.000 
#
# Total GULP energy -267393.780966 kJ/mol
# GULP energy per Si atom -5570.703770 kJ/mol
# Density = 1.970813 g / cm^3
# Si number density = 19.753086 Si / 1000 Ang^3
#
#
#
# Elastic Constant Matrix: (Units=GPa)
#
#
# Indices 1 2 3 4 5 6 
#
# 1 165.6759 10.4213 8.6421 0.0000 0.0000 0.0000
# 2 10.4213 2.3611 4.4051 0.0000 0.0000 0.0000
# 3 8.6421 4.4051 5.8950 0.0000 0.0000 0.0000
# 4 0.0000 0.0000 0.0000 5.7672 0.0000 0.0000
# 5 0.0000 0.0000 0.0000 0.0000 38.7924 0.0000
# 6 0.0000 0.0000 0.0000 0.0000 0.0000 16.3413
#
#
#
# Elastic Compliance Matrix: (Units=1/GPa)
#
#
# Indices 1 2 3 4 5 6 
#
# 1 0.005886 0.025067 -0.027361 0.000000 0.000000 0.000000
# 2 0.025067 -0.967733 0.686410 0.000000 0.000000 0.000000
# 3 -0.027361 0.686410 -0.303186 0.000000 0.000000 0.000000
# 4 0.000000 0.000000 0.000000 0.173393 0.000000 0.000000
# 5 0.000000 0.000000 0.000000 0.000000 0.025778 0.000000
# 6 0.000000 0.000000 0.000000 0.000000 0.000000 0.061194
#
#
# Mechanical properties :
#
#
# Convention : Reuss Voigt Hill
#
# Bulk Modulus (GPa) = 9.68998 24.54103 17.11550
# Shear Modulus (GPa) = -2.13812 22.21109 10.03648
#
# Velocity S-wave (km/s) = -1.04153 3.35690 2.25655
# Velocity P-wave (km/s) = 1.86275 5.24175 3.93356
#
# Compressibility (1/GPa) = 0.10319939
#
# Stress axis : x y z
#
# Youngs Moduli (GPa) = 169.88406 -1.03334 -3.29831
#
# Poissons Ratio (x) = 0.02590 -0.09025
# Poissons Ratio (y) = -4.25849 2.26399
# Poissons Ratio (z) = 4.64827 0.70930
#
# Static dielectric constant tensor:
#      x y z
#    x 1.752420 0.000000 0.000000 
#    y 0.000000 1.643860 0.000000 
#    z 0.000000 0.000000 1.722760 
# 
# From -- ./inp_files/24845.got.cif
#   From: 2010.05.17/outbox.ucp.g08.bks.cvg/sg51_13_cif.got.tgz:24845.got - 2010.06.11 16:27:58.
