data_PCOD9407535
_publ_section_title
;
Structure prediction by ZEFSAII (Michael W. Deem and Ramdas Pophale) SiO2 
 PCOD9407535
Probable space group: P M M A
;
_chemical_formula_sum "Si O2"
_cell_formula_units_Z 64
_cell_length_a 15.000000
_cell_length_b 9.000000
_cell_length_c 24.000000
_cell_angle_alpha 90.000000
_cell_angle_beta 90.000000
_cell_angle_gamma 90.000000
_cell_volume 3240.000000
_symmetry_space_group_name_H-M "P M M A"
_symmetry_group_IT_number 51
_symmetry_cell_setting 'orthorhombic'
loop_
_space_group_symop_operation_xyz
x,y,z
1/2-x,-y,z
1/2+x,-y,-z
-x,y,-z
-x,-y,-z
1/2+x,y,-z
1/2-x,y,z
x,-y,z
loop_
_atom_site_type_symbol
_atom_site_label
_atom_site_fract_x
_atom_site_fract_y
_atom_site_fract_z
Si Si1 0.352867 0.175718 0.786863
Si Si2 0.351469 0.824112 0.981940
Si Si3 0.347287 0.679109 0.103797
Si Si4 0.482082 0.177063 0.683261
Si Si5 0.543170 0.323015 0.115380
Si Si6 0.149049 0.678532 0.357315
Si Si7 0.603798 0.672003 0.516686
Si Si8 0.654693 0.821801 0.406577
O O1 0.250000 0.207068 0.773439
O O2 0.417751 0.203282 0.735094
O O3 0.388696 0.270970 0.837732
O O4 0.358857 0.000000 0.801078
O O5 0.250000 0.803467 0.959182
O O6 0.423992 0.754815 0.941068
O O7 0.365860 0.000000 0.988546
O O8 0.353074 0.744468 0.041565
O O9 0.250000 0.726163 0.127243
O O10 0.346302 0.500000 0.101232
O O11 0.441537 0.721736 0.131288
O O12 0.576933 0.254624 0.684172
O O13 0.427633 0.235158 0.629438
O O14 0.494821 0.000000 0.677960
O O15 0.545819 0.500000 0.108088
O O16 0.250000 0.724497 0.345623
O O17 0.144284 0.500000 0.355522
O O18 0.123529 0.723743 0.420717
O O19 0.500000 0.677519 0.500000
O O20 0.633038 0.500000 0.512982
O O21 0.650228 0.767861 0.469497
O O22 0.750000 0.776301 0.381676
O O23 0.650631 0.000000 0.404896
#
# Coordination Sequence:
#
# PCOD9407535 Si02
#       8
#     8   8   8   8   8   8   8   8
#     4  10  22  41  62  82 107 140 176 219 275 331
#     4  10  20  33  52  81 116 152 188 226 271 325
#     4   9  19  36  55  77 110 150 187 224 269 320
#     4  10  21  38  59  80 105 137 178 226 273 322
#     4  11  22  35  55  83 112 145 186 230 274 323
#     4  10  21  37  56  79 110 146 182 221 267 320
#     4  10  19  33  53  77 108 145 180 216 260 317
#     4  10  20  33  52  79 108 138 174 217 267 322
#
# _framework density 19.753086
#
# number of rings (size 3 to 8) (size 9 to 14) (size 15 to 20)
#    0.000    2.000    1.250    2.250    0.000    8.750 
#    0.000    0.625    0.000    4.500    0.000    0.000 
#    0.000    0.000    0.000    0.000    0.000    0.000 
#
# Total GULP energy -357091.981020 kJ/mol
# GULP energy per Si atom -5579.562203 kJ/mol
# Density = 1.970813 g / cm^3
# Si number density = 19.753086 Si / 1000 Ang^3
#
#
#
# Elastic Constant Matrix: (Units=GPa)
#
#
# Indices 1 2 3 4 5 6 
#
# 1 134.3508 21.4010 11.3782 0.0000 0.0000 0.0000
# 2 21.4010 -8.0994 3.6256 0.0000 0.0000 0.0000
# 3 11.3782 3.6256 -7.8374 0.0000 0.0000 0.0000
# 4 0.0000 0.0000 0.0000 24.5153 0.0000 0.0000
# 5 0.0000 0.0000 0.0000 0.0000 20.1900 0.0000
# 6 0.0000 0.0000 0.0000 0.0000 0.0000 20.6554
#
#
#
# Elastic Compliance Matrix: (Units=1/GPa)
#
#
# Indices 1 2 3 4 5 6 
#
# 1 0.003823 0.015873 0.012893 0.000000 0.000000 0.000000
# 2 0.015873 -0.089808 -0.018502 0.000000 0.000000 0.000000
# 3 0.012893 -0.018502 -0.117435 0.000000 0.000000 0.000000
# 4 0.000000 0.000000 0.000000 0.040791 0.000000 0.000000
# 5 0.000000 0.000000 0.000000 0.000000 0.049529 0.000000
# 6 0.000000 0.000000 0.000000 0.000000 0.000000 0.048414
#
#
# Mechanical properties :
#
#
# Convention : Reuss Voigt Hill
#
# Bulk Modulus (GPa) = -5.46764 21.24709 7.88973
# Shear Modulus (GPa) = -34.20482 18.53941 -7.83270
#
# Velocity S-wave (km/s) = -4.16579 3.06691 -1.99347
# Velocity P-wave (km/s) = 5.09042 4.82918 1.13829
#
# Compressibility (1/GPa) = -0.18289440
#
# Stress axis : x y z
#
# Youngs Moduli (GPa) = 261.58160 -11.13483 -8.51531
#
# Poissons Ratio (x) = 0.17674 0.10979
# Poissons Ratio (y) = -4.15201 -0.15755
# Poissons Ratio (z) = -3.37255 -0.20602
#
# Static dielectric constant tensor:
#      x y z
#    x 1.756340 0.000000 0.000000 
#    y 0.000000 1.660670 0.000000 
#    z 0.000000 0.000000 1.687180 
# 
# From -- ./inp_files/35600.got.cif
#   From: 2010.05.17/outbox.ucp.g08.bks.cvg/sg51_18_cif.got.tgz:35600.got - 2010.06.11 16:27:58.
