data_PCOD9407741
_publ_section_title
;
Structure prediction by ZEFSAII (Michael W. Deem and Ramdas Pophale) SiO2 
 PCOD9407741
Probable space group: P M M A
;
_chemical_formula_sum "Si O2"
_cell_formula_units_Z 64
_cell_length_a 9.000000
_cell_length_b 18.000000
_cell_length_c 21.000000
_cell_angle_alpha 90.000000
_cell_angle_beta 90.000000
_cell_angle_gamma 90.000000
_cell_volume 3402.000000
_symmetry_space_group_name_H-M "P M M A"
_symmetry_group_IT_number 51
_symmetry_cell_setting 'orthorhombic'
loop_
_space_group_symop_operation_xyz
x,y,z
1/2-x,-y,z
1/2+x,-y,-z
-x,y,-z
-x,-y,-z
1/2+x,y,-z
1/2-x,y,z
x,-y,z
loop_
_atom_site_type_symbol
_atom_site_label
_atom_site_fract_x
_atom_site_fract_y
_atom_site_fract_z
Si Si1 0.927211 0.585068 0.562278
Si Si2 0.427808 0.086619 0.809239
Si Si3 0.071604 0.680413 0.315048
Si Si4 0.920003 0.090777 0.936700
Si Si5 0.428620 0.585849 0.193922
Si Si6 0.580644 0.409394 0.063456
Si Si7 0.427208 0.161593 0.680069
Si Si8 0.082285 0.089201 0.437216
O O1 0.750000 0.584701 0.554563
O O2 0.979202 0.500000 0.567579
O O3 0.962448 0.627189 0.626283
O O4 0.000000 0.619691 0.500000
O O5 0.250000 0.090447 0.814262
O O6 0.498763 0.116202 0.873455
O O7 0.478699 0.129930 0.747617
O O8 0.467972 0.000000 0.801848
O O9 0.250000 0.692135 0.312893
O O10 0.025167 0.639341 0.250621
O O11 0.988355 0.756375 0.325865
O O12 0.750000 0.112693 0.936465
O O13 0.926561 0.000000 0.936902
O O14 0.000000 0.116913 0.000000
O O15 0.250000 0.586018 0.190452
O O16 0.474099 0.500000 0.205994
O O17 0.495001 0.611133 0.127181
O O18 0.750000 0.384664 0.065364
O O19 0.580133 0.500000 0.061502
O O20 0.500000 0.382988 0.000000
O O21 0.250000 0.159495 0.678214
O O22 0.491760 0.111907 0.624222
O O23 0.250000 0.118056 0.433777
O O24 0.000000 0.117419 0.500000
O O25 0.088324 0.000000 0.441028
#
# Coordination Sequence:
#
# PCOD9407741 Si02
#       8
#     8   8   8   8   8   8   8   8
#     4   9  18  34  56  80 104 132 168 210 256 305
#     4   9  18  33  52  73  99 133 172 213 256 302
#     4  10  21  36  53  74 104 140 176 215 259 309
#     4   9  16  26  44  72 103 132 164 206 255 305
#     4   9  17  31  52  75  99 132 174 218 265 315
#     4   9  16  26  43  70 102 132 164 207 258 311
#     4  11  23  37  54  77 108 144 179 216 259 308
#     4  10  21  38  61  86 110 137 172 215 261 310
#
# _framework density 18.812463000000001
#
# number of rings (size 3 to 8) (size 9 to 14) (size 15 to 20)
#    0.000    2.500    0.000    2.250    0.000    8.250 
#    0.000    2.500    0.000    4.500    0.000    5.250 
#    0.000    0.000    0.000    0.000    0.000    0.000 
#
# Total GULP energy -356868.490345 kJ/mol
# GULP energy per Si atom -5576.070162 kJ/mol
# Density = 1.876965 g / cm^3
# Si number density = 18.812463 Si / 1000 Ang^3
#
#
#
# Elastic Constant Matrix: (Units=GPa)
#
#
# Indices 1 2 3 4 5 6 
#
# 1 6.2130 24.9060 40.9279 0.0000 0.0000 0.0000
# 2 24.9060 3.3522 16.2468 0.0000 0.0000 0.0000
# 3 40.9279 16.2468 124.5805 0.0000 0.0000 0.0000
# 4 0.0000 0.0000 0.0000 -105.3921 0.0000 0.0000
# 5 0.0000 0.0000 0.0000 0.0000 31.6179 0.0000
# 6 0.0000 0.0000 0.0000 0.0000 0.0000 22.4703
#
#
#
# Elastic Compliance Matrix: (Units=1/GPa)
#
#
# Indices 1 2 3 4 5 6 
#
# 1 -0.003148 0.049939 -0.005479 0.000000 0.000000 0.000000
# 2 0.049939 0.018458 -0.018813 0.000000 0.000000 0.000000
# 3 -0.005479 -0.018813 0.012280 0.000000 0.000000 0.000000
# 4 0.000000 0.000000 0.000000 -0.009488 0.000000 0.000000
# 5 0.000000 0.000000 0.000000 0.000000 0.031628 0.000000
# 6 0.000000 0.000000 0.000000 0.000000 0.000000 0.044503
#
#
# Mechanical properties :
#
#
# Convention : Reuss Voigt Hill
#
# Bulk Modulus (GPa) = 12.67666 33.14525 22.91095
# Shear Modulus (GPa) = 72.21851 -6.78977 32.71437
#
# Velocity S-wave (km/s) = 6.20258 -1.90185 4.17462
# Velocity P-wave (km/s) = 7.61899 3.58250 5.95329
#
# Compressibility (1/GPa) = 0.07888512
#
# Stress axis : x y z
#
# Youngs Moduli (GPa) = -317.69732 54.17601 81.43128
#
# Poissons Ratio (x) = -2.70550 0.44613
# Poissons Ratio (y) = 15.86553 1.53201
# Poissons Ratio (z) = -1.74053 1.01924
#
# Static dielectric constant tensor:
#      x y z
#    x 1.635630 0.000000 0.000000 
#    y 0.000000 1.640620 0.000000 
#    z 0.000000 0.000000 1.632440 
# 
# From -- ./inp_files/32306.got.cif
#   From: 2010.05.17/outbox.ucp.g08.bks.cvg/sg51_17_cif.got.tgz:32306.got - 2010.06.11 16:27:58.
