data_PCOD9407437
_publ_section_title
;
Structure prediction by ZEFSAII (Michael W. Deem and Ramdas Pophale) SiO2 
 PCOD9407437
Probable space group: P M M A
;
_chemical_formula_sum "Si O2"
_cell_formula_units_Z 64
_cell_length_a 21.000000
_cell_length_b 9.000000
_cell_length_c 18.000000
_cell_angle_alpha 90.000000
_cell_angle_beta 90.000000
_cell_angle_gamma 90.000000
_cell_volume 3402.000000
_symmetry_space_group_name_H-M "P M M A"
_symmetry_group_IT_number 51
_symmetry_cell_setting 'orthorhombic'
loop_
_space_group_symop_operation_xyz
x,y,z
1/2-x,-y,z
1/2+x,-y,-z
-x,y,-z
-x,-y,-z
1/2+x,y,-z
1/2-x,y,z
x,-y,z
loop_
_atom_site_type_symbol
_atom_site_label
_atom_site_fract_x
_atom_site_fract_y
_atom_site_fract_z
Si Si1 0.871687 0.172696 0.397448
Si Si2 0.573226 0.328942 0.528878
Si Si3 0.817961 0.820253 0.857518
Si Si4 0.454881 0.829722 0.176335
Si Si5 0.410629 0.179579 0.862569
Si Si6 0.322291 0.675739 0.741023
Si Si7 0.482383 0.164458 0.348826
Si Si8 0.178847 0.325551 0.981906
O O1 0.878999 0.230019 0.481139
O O2 0.829212 0.272218 0.343943
O O3 0.943809 0.191233 0.366485
O O4 0.854067 0.000000 0.393084
O O5 0.500000 0.307692 0.500000
O O6 0.589415 0.500000 0.519323
O O7 0.565109 0.279053 0.613168
O O8 0.750000 0.769495 0.824464
O O9 0.884793 0.762509 0.826474
O O10 0.817715 0.000000 0.853230
O O11 0.819052 0.764363 0.941803
O O12 0.516398 0.764299 0.135984
O O13 0.474604 0.836360 0.261646
O O14 0.449120 0.000000 0.148076
O O15 0.373103 0.234337 0.789594
O O16 0.372001 0.249405 0.929663
O O17 0.410570 0.000000 0.863814
O O18 0.250000 0.705659 0.765810
O O19 0.334484 0.500000 0.748082
O O20 0.467414 0.000000 0.379712
O O21 0.250000 0.316800 0.948289
O O22 0.165465 0.500000 0.994264
#
# Coordination Sequence:
#
# PCOD9407437 Si02
#       8
#     8   8   8   8   8   8   8   8
#     4  10  18  31  51  73  98 134 178 219 258 306
#     4   9  17  28  45  72 102 132 169 213 258 305
#     4   9  18  35  59  81 100 131 174 213 255 315
#     4   9  18  33  53  79 109 135 167 218 270 308
#     4  11  21  35  54  77 104 137 176 217 260 310
#     4  11  23  36  50  72 106 144 177 216 267 316
#     4   9  16  30  49  72 102 135 169 210 262 308
#     4  10  21  37  54  74 105 140 173 215 261 305
#
# _framework density 18.812463000000001
#
# number of rings (size 3 to 8) (size 9 to 14) (size 15 to 20)
#    0.000    2.250    1.250    2.250    0.000    5.750 
#    0.000    4.375    0.000    0.750    0.000    1.750 
#    0.000    0.000    0.000    0.000    0.000    0.000 
#
# Total GULP energy -356316.475451 kJ/mol
# GULP energy per Si atom -5567.444929 kJ/mol
# Density = 1.876965 g / cm^3
# Si number density = 18.812463 Si / 1000 Ang^3
#
#
#
# Elastic Constant Matrix: (Units=GPa)
#
#
# Indices 1 2 3 4 5 6 
#
# 1 91.6515 18.2449 4.5631 0.0000 0.0000 0.0000
# 2 18.2449 -5.2950 -7.8209 0.0000 0.0000 0.0000
# 3 4.5631 -7.8209 1.5656 0.0000 0.0000 0.0000
# 4 0.0000 0.0000 0.0000 -152.5013 0.0000 0.0000
# 5 0.0000 0.0000 0.0000 0.0000 -173.2801 0.0000
# 6 0.0000 0.0000 0.0000 0.0000 0.0000 11.8947
#
#
#
# Elastic Compliance Matrix: (Units=1/GPa)
#
#
# Indices 1 2 3 4 5 6 
#
# 1 0.008597 0.007953 0.014672 0.000000 0.000000 0.000000
# 2 0.007953 -0.015184 -0.099029 0.000000 0.000000 0.000000
# 3 0.014672 -0.099029 0.101272 0.000000 0.000000 0.000000
# 4 0.000000 0.000000 0.000000 -0.006557 0.000000 0.000000
# 5 0.000000 0.000000 0.000000 0.000000 -0.005771 0.000000
# 6 0.000000 0.000000 0.000000 0.000000 0.000000 0.084071
#
#
# Mechanical properties :
#
#
# Convention : Reuss Voigt Hill
#
# Bulk Modulus (GPa) = -17.20476 13.09958 -2.05259
# Shear Modulus (GPa) = 16.67423 -57.91503 -20.62040
#
# Velocity S-wave (km/s) = 2.98038 -5.55448 -3.31434
# Velocity P-wave (km/s) = 1.63654 5.84449 3.96735
#
# Compressibility (1/GPa) = -0.05812345
#
# Stress axis : x y z
#
# Youngs Moduli (GPa) = 116.31619 -65.86091 9.87438
#
# Poissons Ratio (x) = 0.52379 -0.14487
# Poissons Ratio (y) = -0.92506 0.97785
# Poissons Ratio (z) = -1.70654 -6.52215
#
# Static dielectric constant tensor:
#      x y z
#    x 1.699440 0.000000 0.000000 
#    y 0.000000 1.639320 0.000000 
#    z 0.000000 0.000000 1.679420 
# 
# From -- ./inp_files/30516.got.cif
#   From: 2010.05.17/outbox.ucp.g08.bks.cvg/sg51_16_cif.got.tgz:30516.got - 2010.06.11 16:27:58.
