data_PCOD9407702
_publ_section_title
;
Structure prediction by ZEFSAII (Michael W. Deem and Ramdas Pophale) SiO2 
 PCOD9407702
Probable space group: P M M A
;
_chemical_formula_sum "Si O2"
_cell_formula_units_Z 64
_cell_length_a 15.000000
_cell_length_b 9.000000
_cell_length_c 24.000000
_cell_angle_alpha 90.000000
_cell_angle_beta 90.000000
_cell_angle_gamma 90.000000
_cell_volume 3240.000000
_symmetry_space_group_name_H-M "P M M A"
_symmetry_group_IT_number 51
_symmetry_cell_setting 'orthorhombic'
loop_
_space_group_symop_operation_xyz
x,y,z
1/2-x,-y,z
1/2+x,-y,-z
-x,y,-z
-x,-y,-z
1/2+x,y,-z
1/2-x,y,z
x,-y,z
loop_
_atom_site_type_symbol
_atom_site_label
_atom_site_fract_x
_atom_site_fract_y
_atom_site_fract_z
Si Si1 0.646125 0.671664 0.362961
Si Si2 0.995516 0.178603 0.437348
Si Si3 0.648750 0.833187 0.873487
Si Si4 0.654831 0.175697 0.127030
Si Si5 0.103619 0.671321 0.760354
Si Si6 0.350422 0.175167 0.354167
Si Si7 0.610338 0.670335 0.761552
Si Si8 0.999936 0.664687 0.934046
O O1 0.750000 0.672992 0.375201
O O2 0.614039 0.500000 0.363552
O O3 0.591729 0.765716 0.406579
O O4 0.630586 0.728821 0.300289
O O5 0.000000 0.235623 0.500000
O O6 0.078934 0.226049 0.399758
O O7 0.996538 0.000000 0.438944
O O8 0.750000 0.836690 0.892412
O O9 0.645242 0.773927 0.810623
O O10 0.592366 0.723605 0.910838
O O11 0.611233 0.000000 0.875716
O O12 0.750000 0.227876 0.104562
O O13 0.642301 0.238011 0.188836
O O14 0.576109 0.231474 0.089038
O O15 0.653540 0.000000 0.129462
O O16 0.133774 0.500000 0.764228
O O17 0.996847 0.674465 0.764325
O O18 0.250000 0.188681 0.375433
O O19 0.360988 0.267589 0.297934
O O20 0.366461 0.000000 0.341550
O O21 0.638966 0.500000 0.769290
O O22 0.016595 0.500000 0.911380
O O23 0.000000 0.662382 0.000000
#
# Coordination Sequence:
#
# PCOD9407702 Si02
#       8
#     8   8   8   8   8   8   8   8
#     4  10  21  38  60  86 117 153 191 235 290 348
#     4  10  22  39  59  83 112 151 197 244 292 342
#     4  11  24  41  63  91 123 159 196 240 297 354
#     4  11  24  40  62  93 125 158 197 241 292 352
#     4  10  20  36  60  88 120 157 194 237 293 352
#     4  10  21  37  57  82 115 154 194 239 293 351
#     4  11  21  35  60  91 120 153 193 239 292 351
#     4  11  25  44  65  89 118 157 204 250 295 344
#
# _framework density 19.753086
#
# number of rings (size 3 to 8) (size 9 to 14) (size 15 to 20)
#    0.000    1.500    2.500    2.250    0.000    7.750 
#    0.000    3.750    0.000    0.000    0.000    0.000 
#    0.000    0.000    0.000    0.000    0.000    0.000 
#
# Total GULP energy -357429.683029 kJ/mol
# GULP energy per Si atom -5584.838797 kJ/mol
# Density = 1.970813 g / cm^3
# Si number density = 19.753086 Si / 1000 Ang^3
#
#
#
# Elastic Constant Matrix: (Units=GPa)
#
#
# Indices 1 2 3 4 5 6 
#
# 1 77.4905 15.0851 25.6724 0.0000 0.0000 0.0000
# 2 15.0851 22.1873 16.9019 0.0000 0.0000 0.0000
# 3 25.6724 16.9019 78.6843 0.0000 0.0000 0.0000
# 4 0.0000 0.0000 0.0000 32.4713 0.0000 0.0000
# 5 0.0000 0.0000 0.0000 0.0000 8.6640 0.0000
# 6 0.0000 0.0000 0.0000 0.0000 0.0000 -21.2251
#
#
#
# Elastic Compliance Matrix: (Units=1/GPa)
#
#
# Indices 1 2 3 4 5 6 
#
# 1 0.015582 -0.008036 -0.003358 0.000000 0.000000 0.000000
# 2 -0.008036 0.058034 -0.009844 0.000000 0.000000 0.000000
# 3 -0.003358 -0.009844 0.015919 0.000000 0.000000 0.000000
# 4 0.000000 0.000000 0.000000 0.030796 0.000000 0.000000
# 5 0.000000 0.000000 0.000000 0.000000 0.115420 0.000000
# 6 0.000000 0.000000 0.000000 0.000000 0.000000 -0.047114
#
#
# Mechanical properties :
#
#
# Convention : Reuss Voigt Hill
#
# Bulk Modulus (GPa) = 21.25003 32.63121 26.94062
# Shear Modulus (GPa) = 20.25947 12.02891 16.14419
#
# Velocity S-wave (km/s) = 3.20603 2.47040 2.86195
# Velocity P-wave (km/s) = 4.94833 4.96916 4.95876
#
# Compressibility (1/GPa) = 0.04705875
#
# Stress axis : x y z
#
# Youngs Moduli (GPa) = 64.17836 17.23139 62.81780
#
# Poissons Ratio (x) = 0.13847 0.21092
# Poissons Ratio (y) = 0.51574 0.61838
# Poissons Ratio (z) = 0.21549 0.16963
#
# Static dielectric constant tensor:
#      x y z
#    x 1.701410 0.000000 0.000000 
#    y 0.000000 1.683520 0.000000 
#    z 0.000000 0.000000 1.655020 
# 
# From -- ./inp_files/35717.got.cif
#   From: 2010.05.17/outbox.ucp.g08.bks.cvg/sg51_18_cif.got.tgz:35717.got - 2010.06.11 16:27:58.
