data_PCOD9407834
_publ_section_title
;
Structure prediction by ZEFSAII (Michael W. Deem and Ramdas Pophale) SiO2 
 PCOD9407834
Probable space group: P M M A
;
_chemical_formula_sum "Si O2"
_cell_formula_units_Z 56
_cell_length_a 9.000000
_cell_length_b 15.000000
_cell_length_c 21.000000
_cell_angle_alpha 90.000000
_cell_angle_beta 90.000000
_cell_angle_gamma 90.000000
_cell_volume 2835.000000
_symmetry_space_group_name_H-M "P M M A"
_symmetry_group_IT_number 51
_symmetry_cell_setting 'orthorhombic'
loop_
_space_group_symop_operation_xyz
x,y,z
1/2-x,-y,z
1/2+x,-y,-z
-x,y,-z
-x,-y,-z
1/2+x,y,-z
1/2-x,y,z
x,-y,z
loop_
_atom_site_type_symbol
_atom_site_label
_atom_site_fract_x
_atom_site_fract_y
_atom_site_fract_z
Si Si1 0.074178 0.099920 0.161942
Si Si2 0.083537 0.398509 0.083097
Si Si3 0.074622 0.725415 0.677505
Si Si4 0.419912 0.597851 0.235574
Si Si5 0.073816 0.902679 0.313762
Si Si6 0.577580 0.778028 0.062626
Si Si7 0.428051 0.601912 0.562773
O O1 0.250000 0.112114 0.151732
O O2 0.049390 0.102562 0.237577
O O3 0.988034 0.174529 0.124273
O O4 0.033028 0.000000 0.140128
O O5 0.250000 0.370133 0.062514
O O6 0.058290 0.500000 0.062758
O O7 0.084868 0.401050 0.159615
O O8 0.963046 0.326300 0.064729
O O9 0.250000 0.729376 0.682614
O O10 0.028120 0.655020 0.624499
O O11 0.008054 0.683058 0.740978
O O12 0.011764 0.820234 0.658416
O O13 0.250000 0.603851 0.258693
O O14 0.481578 0.500000 0.255112
O O15 0.250000 0.894814 0.323994
O O16 0.024760 0.000000 0.335885
O O17 0.750000 0.792086 0.059180
O O18 0.500000 0.816660 0.000000
O O19 0.500000 0.641645 0.500000
O O20 0.250000 0.603000 0.557448
O O21 0.478380 0.500000 0.568420
#
# Coordination Sequence:
#
# PCOD9407834 Si02
#       7
#     8   8   8   8   8   8   8
#     4   9  19  38  61  81 104 134 167 208 258 308
#     4   9  19  37  57  75 100 134 171 213 257 302
#     4  11  21  31  49  79 112 141 170 214 267 310
#     4   9  18  32  51  76 105 138 173 206 248 308
#     4   9  19  36  57  80 106 138 174 210 252 307
#     4  12  25  38  54  76 102 133 170 212 257 309
#     4   9  19  35  52  73 105 144 183 220 258 301
#
# _framework density 19.753086
#
# number of rings (size 3 to 8) (size 9 to 14) (size 15 to 20)
#    0.000    2.286    0.000    4.714    0.000    8.000 
#    0.000    4.286    0.000    0.429    0.000    0.000 
#    0.000    0.000    0.000    0.000    0.000    0.000 
#
# Total GULP energy -312314.479479 kJ/mol
# GULP energy per Si atom -5577.044276 kJ/mol
# Density = 1.970813 g / cm^3
# Si number density = 19.753086 Si / 1000 Ang^3
#
#
#
# Elastic Constant Matrix: (Units=GPa)
#
#
# Indices 1 2 3 4 5 6 
#
# 1 -9.0697 25.0765 24.3178 0.0000 0.0000 0.0000
# 2 25.0765 65.6639 12.9511 0.0000 0.0000 0.0000
# 3 24.3178 12.9511 33.5807 0.0000 0.0000 0.0000
# 4 0.0000 0.0000 0.0000 -5.0608 0.0000 0.0000
# 5 0.0000 0.0000 0.0000 0.0000 19.3041 0.0000
# 6 0.0000 0.0000 0.0000 0.0000 0.0000 35.6645
#
#
#
# Elastic Compliance Matrix: (Units=1/GPa)
#
#
# Indices 1 2 3 4 5 6 
#
# 1 -0.032529 0.008417 0.020310 0.000000 0.000000 0.000000
# 2 0.008417 0.014305 -0.011612 0.000000 0.000000 0.000000
# 3 0.020310 -0.011612 0.019549 0.000000 0.000000 0.000000
# 4 0.000000 0.000000 0.000000 -0.197597 0.000000 0.000000
# 5 0.000000 0.000000 0.000000 0.000000 0.051802 0.000000
# 6 0.000000 0.000000 0.000000 0.000000 0.000000 0.028039
#
#
# Mechanical properties :
#
#
# Convention : Reuss Voigt Hill
#
# Bulk Modulus (GPa) = 28.12526 23.87398 25.99962
# Shear Modulus (GPa) = -36.02090 11.83688 -12.09201
#
# Velocity S-wave (km/s) = -4.27495 2.45060 -2.47687
# Velocity P-wave (km/s) = 3.17767 4.48550 2.23854
#
# Compressibility (1/GPa) = 0.03555523
#
# Stress axis : x y z
#
# Youngs Moduli (GPa) = -30.74144 69.90532 51.15227
#
# Poissons Ratio (x) = -0.58838 -1.03892
# Poissons Ratio (y) = 0.25874 0.59399
# Poissons Ratio (z) = 0.62437 0.81175
#
# Static dielectric constant tensor:
#      x y z
#    x 1.781700 0.000000 0.000000 
#    y 0.000000 1.705600 0.000000 
#    z 0.000000 0.000000 1.746230 
# 
# From -- ./inp_files/31865.got.cif
#   From: 2010.05.17/outbox.ucp.g08.bks.cvg/sg51_16_cif.got.tgz:31865.got - 2010.06.11 16:27:58.
