data_PCOD9407775
_publ_section_title
;
Structure prediction by ZEFSAII (Michael W. Deem and Ramdas Pophale) SiO2 
 PCOD9407775
Probable space group: P M M A
;
_chemical_formula_sum "Si O2"
_cell_formula_units_Z 40
_cell_length_a 9.000000
_cell_length_b 9.000000
_cell_length_c 27.000000
_cell_angle_alpha 90.000000
_cell_angle_beta 90.000000
_cell_angle_gamma 90.000000
_cell_volume 2187.000000
_symmetry_space_group_name_H-M "P M M A"
_symmetry_group_IT_number 51
_symmetry_cell_setting 'orthorhombic'
loop_
_space_group_symop_operation_xyz
x,y,z
1/2-x,-y,z
1/2+x,-y,-z
-x,y,-z
-x,-y,-z
1/2+x,y,-z
1/2-x,y,z
x,-y,z
loop_
_atom_site_type_symbol
_atom_site_label
_atom_site_fract_x
_atom_site_fract_y
_atom_site_fract_z
Si Si1 0.925018 0.177233 0.352155
Si Si2 0.574586 0.321805 0.551915
Si Si3 0.574556 0.678240 0.743683
Si Si4 0.927141 0.176694 0.051078
Si Si5 0.574986 0.678202 0.153454
O O1 0.750000 0.211836 0.353506
O O2 0.001976 0.244624 0.400753
O O3 0.995142 0.244837 0.302440
O O4 0.943769 0.000000 0.351921
O O5 0.500000 0.275724 0.500000
O O6 0.750000 0.291039 0.550316
O O7 0.554495 0.500000 0.556760
O O8 0.750000 0.707142 0.741810
O O9 0.551688 0.500000 0.739826
O O10 0.509225 0.726486 0.796844
O O11 0.750000 0.200467 0.047764
O O12 0.979934 0.251857 0.101959
O O13 0.954546 0.000000 0.054630
O O14 0.000000 0.231210 0.000000
O O15 0.750000 0.715278 0.158801
O O16 0.562237 0.500000 0.149775
#
# Coordination Sequence:
#
# PCOD9407775 Si02
#       5
#     8   8   8   8   8
#     4  11  24  39  56  81 112 146 183 222 267 318
#     4  10  21  38  61  87 113 144 183 224 267 317
#     4  10  21  37  57  81 108 139 177 221 269 321
#     4   9  18  32  49  70  98 132 169 209 255 309
#     4   9  18  33  52  74 101 134 171 212 260 312
#
# _framework density 18.289895000000001
#
# number of rings (size 3 to 8) (size 9 to 14) (size 15 to 20)
#    0.000    2.200    0.000    2.400    0.000    8.800 
#    0.000    2.000    0.000    0.000    0.000    0.000 
#    0.000    0.000    0.000    0.000    0.000    0.000 
#
# Total GULP energy -223340.374830 kJ/mol
# GULP energy per Si atom -5583.509371 kJ/mol
# Density = 1.824827 g / cm^3
# Si number density = 18.289895 Si / 1000 Ang^3
#
#
#
# Elastic Constant Matrix: (Units=GPa)
#
#
# Indices 1 2 3 4 5 6 
#
# 1 99.3551 62.6713 110.0951 0.0000 0.0000 0.0000
# 2 62.6713 26.3412 68.5415 0.0000 0.0000 0.0000
# 3 110.0951 68.5415 240.6510 0.0000 0.0000 0.0000
# 4 0.0000 0.0000 0.0000 -172.7326 0.0000 0.0000
# 5 0.0000 0.0000 0.0000 0.0000 43.7592 0.0000
# 6 0.0000 0.0000 0.0000 0.0000 0.0000 21.9099
#
#
#
# Elastic Compliance Matrix: (Units=1/GPa)
#
#
# Indices 1 2 3 4 5 6 
#
# 1 -0.010548 0.048435 -0.008970 0.000000 0.000000 0.000000
# 2 0.048435 -0.075772 -0.000577 0.000000 0.000000 0.000000
# 3 -0.008970 -0.000577 0.008423 0.000000 0.000000 0.000000
# 4 0.000000 0.000000 0.000000 -0.005789 0.000000 0.000000
# 5 0.000000 0.000000 0.000000 0.000000 0.022852 0.000000
# 6 0.000000 0.000000 0.000000 0.000000 0.000000 0.045641
#
#
# Mechanical properties :
#
#
# Convention : Reuss Voigt Hill
#
# Bulk Modulus (GPa) = -8327.89746 94.32924 -4116.78411
# Shear Modulus (GPa) = -53.75828 -13.07674 -33.41751
#
# Velocity S-wave (km/s) = -5.42735 -2.67679 -4.27910
# Velocity P-wave (km/s) = 67.84127 6.49098 47.75094
#
# Compressibility (1/GPa) = -0.00012008
#
# Stress axis : x y z
#
# Youngs Moduli (GPa) = -94.80505 -13.19746 118.71691
#
# Poissons Ratio (x) = 0.63923 1.06485
# Poissons Ratio (y) = 4.59193 0.06856
# Poissons Ratio (z) = -0.85037 -0.00762
#
# Static dielectric constant tensor:
#      x y z
#    x 1.618160 0.000000 0.000000 
#    y 0.000000 1.617600 0.000000 
#    z 0.000000 0.000000 1.597670 
# 
# From -- ./inp_files/34299.got.cif
#   From: 2010.05.17/outbox.ucp.g08.bks.cvg/sg51_18_cif.got.tgz:34299.got - 2010.06.11 16:27:58.
