data_PCOD9407297
_publ_section_title
;
Structure prediction by ZEFSAII (Michael W. Deem and Ramdas Pophale) SiO2 
 PCOD9407297
Probable space group: P M M A
;
_chemical_formula_sum "Si O2"
_cell_formula_units_Z 56
_cell_length_a 14.404131
_cell_length_b 9.317844
_cell_length_c 19.143491
_cell_angle_alpha 90.000000
_cell_angle_beta 90.000000
_cell_angle_gamma 90.000000
_cell_volume 2569.352175
_symmetry_space_group_name_H-M "P M M A"
_symmetry_group_IT_number 51
_symmetry_cell_setting 'orthorhombic'
loop_
_space_group_symop_operation_xyz
x,y,z
1/2-x,-y,z
1/2+x,-y,-z
-x,y,-z
-x,-y,-z
1/2+x,y,-z
1/2-x,y,z
x,-y,z
loop_
_atom_site_type_symbol
_atom_site_label
_atom_site_fract_x
_atom_site_fract_y
_atom_site_fract_z
Si Si1 0.638261 0.667976 0.326716
Si Si2 0.143215 0.337312 0.371531
Si Si3 0.364155 0.835706 0.239699
Si Si4 0.394039 0.662966 0.521029
Si Si5 0.363728 0.165112 0.962834
Si Si6 0.363490 0.664757 0.101204
Si Si7 0.863388 0.667734 0.174686
O O1 0.750000 0.670482 0.326181
O O2 0.609352 0.500000 0.327108
O O3 0.612138 0.731008 0.402369
O O4 0.607760 0.725933 0.251151
O O5 0.250000 0.354740 0.351111
O O6 0.102836 0.500000 0.374160
O O7 0.101799 0.239210 0.311177
O O8 0.145470 0.272665 0.449551
O O9 0.250000 0.839265 0.240164
O O10 0.391762 0.742676 0.172591
O O11 0.394953 0.000000 0.234391
O O12 0.500000 0.651898 0.500000
O O13 0.354605 0.500000 0.526951
O O14 0.250000 0.166831 0.962481
O O15 0.394991 0.243633 0.892207
O O16 0.392745 0.000000 0.964493
O O17 0.392755 0.249034 0.032411
O O18 0.250000 0.663856 0.100985
O O19 0.394192 0.500000 0.099159
O O20 0.750000 0.670437 0.173771
O O21 0.889512 0.500000 0.168881
#
# Coordination Sequence:
#
# PCOD9407297 Si02
#       7
#     8   8   8   8   8   8   8
#     4   8  13  22  37  56  78 106 140 175 210 249
#     4   9  16  26  41  60  82 109 140 172 208 251
#     4   9  16  25  37  54  77 105 138 174 208 242
#     4   9  16  25  39  61  86 108 134 173 216 252
#     4   9  15  21  30  47  74 106 136 166 202 241
#     4   9  15  22  33  50  75 107 139 168 201 243
#     4   8  13  21  33  49  70  99 135 169 199 236
#
# _framework density 21.795376000000001
#
# number of rings (size 3 to 8) (size 9 to 14) (size 15 to 20)
#    0.000    3.286    0.000    2.571    0.000    6.857 
#    0.000    0.000    0.000    1.286    0.000    4.000 
#    0.000    1.143    0.000   13.429    0.000   16.286 
#
# Total GULP energy -312246.465374 kJ/mol
# GULP energy per Si atom -5575.829739 kJ/mol
# Density = 2.174577 g / cm^3
# Si number density = 21.795376 Si / 1000 Ang^3
#
#
#
# Elastic Constant Matrix: (Units=GPa)
#
#
# Indices 1 2 3 4 5 6 
#
# 1 50.2527 -1.9811 9.1357 0.0000 0.0000 0.0000
# 2 -1.9811 119.6788 113.3335 0.0000 0.0000 0.0000
# 3 9.1357 113.3335 276.4363 0.0000 0.0000 0.0000
# 4 0.0000 0.0000 0.0000 -21.7669 0.0000 0.0000
# 5 0.0000 0.0000 0.0000 0.0000 12.3483 0.0000
# 6 0.0000 0.0000 0.0000 0.0000 0.0000 -3.2042
#
#
#
# Elastic Compliance Matrix: (Units=1/GPa)
#
#
# Indices 1 2 3 4 5 6 
#
# 1 0.020201 0.001580 -0.001315 0.000000 0.000000 0.000000
# 2 0.001580 0.013782 -0.005703 0.000000 0.000000 0.000000
# 3 -0.001315 -0.005703 0.005999 0.000000 0.000000 0.000000
# 4 0.000000 0.000000 0.000000 -0.045941 0.000000 0.000000
# 5 0.000000 0.000000 0.000000 0.000000 0.080983 0.000000
# 6 0.000000 0.000000 0.000000 0.000000 0.000000 -0.312093
#
#
# Mechanical properties :
#
#
# Convention : Reuss Voigt Hill
#
# Bulk Modulus (GPa) = 34.35723 76.37154 55.36439
# Shear Modulus (GPa) = -23.09558 19.20077 -1.94740
#
# Velocity S-wave (km/s) = -3.25877 2.97131 -0.94627
# Velocity P-wave (km/s) = 1.27998 6.84747 4.92576
#
# Compressibility (1/GPa) = 0.02910595
#
# Stress axis : x y z
#
# Youngs Moduli (GPa) = 49.50285 72.55779 166.69718
#
# Poissons Ratio (x) = -0.11464 0.21927
# Poissons Ratio (y) = -0.07822 0.95061
# Poissons Ratio (z) = 0.06512 0.41377
#
# Static dielectric constant tensor:
#      x y z
#    x 2.013380 0.000000 0.000000 
#    y 0.000000 1.740900 0.000000 
#    z 0.000000 0.000000 1.822890 
# 
# From -- ./inp_files/30454.got.cif
#   From: 2010.05.17/outbox.cif.g08.bks.cpg/sg51_16_cif.got.tgz:30454.got - 2010.06.03 11:52:47.
