data_PCOD9407302
_publ_section_title
;
Structure prediction by ZEFSAII (Michael W. Deem and Ramdas Pophale) SiO2 
 PCOD9407302
Probable space group: P M M A
;
_chemical_formula_sum "Si O2"
_cell_formula_units_Z 48
_cell_length_a 7.625228
_cell_length_b 14.250777
_cell_length_c 25.106419
_cell_angle_alpha 90.000000
_cell_angle_beta 90.000000
_cell_angle_gamma 90.000000
_cell_volume 2728.199661
_symmetry_space_group_name_H-M "P M M A"
_symmetry_group_IT_number 51
_symmetry_cell_setting 'orthorhombic'
loop_
_space_group_symop_operation_xyz
x,y,z
1/2-x,-y,z
1/2+x,-y,-z
-x,y,-z
-x,-y,-z
1/2+x,y,-z
1/2-x,y,z
x,-y,z
loop_
_atom_site_type_symbol
_atom_site_label
_atom_site_fract_x
_atom_site_fract_y
_atom_site_fract_z
Si Si1 0.957440 0.106583 0.442872
Si Si2 0.541385 0.107151 0.672740
Si Si3 0.540311 0.293735 0.940114
Si Si4 0.036092 0.105097 0.112798
Si Si5 0.536054 0.793175 0.778442
Si Si6 0.964516 0.605000 0.833828
O O1 0.750000 0.099445 0.440530
O O2 0.000000 0.151442 0.500000
O O3 0.013934 0.148179 0.386372
O O4 0.034804 0.000000 0.444131
O O5 0.750000 0.100241 0.680305
O O6 0.472757 0.167510 0.722082
O O7 0.470568 0.000000 0.673581
O O8 0.750000 0.290746 0.935151
O O9 0.476176 0.188221 0.926438
O O10 0.479139 0.362344 0.893043
O O11 0.500000 0.322157 0.000000
O O12 0.250000 0.103247 0.111195
O O13 0.987650 0.138699 0.172431
O O14 0.974208 0.000000 0.101154
O O15 0.750000 0.791865 0.777613
O O16 0.479838 0.688209 0.794215
O O17 0.750000 0.604171 0.833406
O O18 0.023800 0.500000 0.821469
#
# Coordination Sequence:
#
# PCOD9407302 Si02
#       6
#     8   8   8   8   8   8
#     4   9  16  25  36  51  75 108 141 166 186 211
#     4   9  15  22  35  56  79 101 126 157 189 219
#     4   9  17  27  39  56  75  95 122 154 187 225
#     4   8  13  22  36  53  73  97 124 154 186 219
#     4   8  13  21  35  55  75  95 123 156 187 223
#     4   8  14  25  40  57  76  96 119 152 192 228
#
# _framework density 17.59402
#
# number of rings (size 3 to 8) (size 9 to 14) (size 15 to 20)
#    0.000    3.500    0.000    3.000    0.000    4.667 
#    0.000    0.000    0.000    4.000    0.000    0.000 
#    0.000    0.667    0.000    1.167    0.000    1.667 
#
# Total GULP energy -267265.549786 kJ/mol
# GULP energy per Si atom -5568.032287 kJ/mol
# Density = 1.755398 g / cm^3
# Si number density = 17.594020 Si / 1000 Ang^3
#
#
#
# Elastic Constant Matrix: (Units=GPa)
#
#
# Indices 1 2 3 4 5 6 
#
# 1 34.0202 4.8831 1.0216 0.0000 0.0000 0.0000
# 2 4.8831 75.9248 29.3084 0.0000 0.0000 0.0000
# 3 1.0216 29.3084 125.2263 0.0000 0.0000 0.0000
# 4 0.0000 0.0000 0.0000 37.2108 0.0000 0.0000
# 5 0.0000 0.0000 0.0000 0.0000 14.2749 0.0000
# 6 0.0000 0.0000 0.0000 0.0000 0.0000 -2.0803
#
#
#
# Elastic Compliance Matrix: (Units=1/GPa)
#
#
# Indices 1 2 3 4 5 6 
#
# 1 0.029674 -0.001995 0.000225 0.000000 0.000000 0.000000
# 2 -0.001995 0.014613 -0.003404 0.000000 0.000000 0.000000
# 3 0.000225 -0.003404 0.008780 0.000000 0.000000 0.000000
# 4 0.000000 0.000000 0.000000 0.026874 0.000000 0.000000
# 5 0.000000 0.000000 0.000000 0.000000 0.070053 0.000000
# 6 0.000000 0.000000 0.000000 0.000000 0.000000 -0.480706
#
#
# Mechanical properties :
#
#
# Convention : Reuss Voigt Hill
#
# Bulk Modulus (GPa) = 23.40879 33.95529 28.68204
# Shear Modulus (GPa) = -16.33328 23.21164 3.43918
#
# Velocity S-wave (km/s) = -3.05018 3.63615 1.39964
# Velocity P-wave (km/s) = 0.96389 6.08029 4.35311
#
# Compressibility (1/GPa) = 0.04271899
#
# Stress axis : x y z
#
# Youngs Moduli (GPa) = 33.69960 68.43129 113.89059
#
# Poissons Ratio (x) = 0.13654 -0.02561
# Poissons Ratio (y) = 0.06724 0.38767
# Poissons Ratio (z) = -0.00758 0.23293
#
# Static dielectric constant tensor:
#      x y z
#    x 1.658410 0.000000 0.000000 
#    y 0.000000 1.592340 0.000000 
#    z 0.000000 0.000000 1.623770 
# 
# From -- ./inp_files/34642.got.cif
#   From: 2010.05.17/outbox.cif.g08.bks.cpg/sg51_18_cif.got.tgz:34642.got - 2010.06.03 11:52:47.
