data_PCOD9407780
_publ_section_title
;
Structure prediction by ZEFSAII (Michael W. Deem and Ramdas Pophale) SiO2 
 PCOD9407780
Probable space group: P M M A
;
_chemical_formula_sum "Si O2"
_cell_formula_units_Z 64
_cell_length_a 15.000000
_cell_length_b 9.000000
_cell_length_c 24.000000
_cell_angle_alpha 90.000000
_cell_angle_beta 90.000000
_cell_angle_gamma 90.000000
_cell_volume 3240.000000
_symmetry_space_group_name_H-M "P M M A"
_symmetry_group_IT_number 51
_symmetry_cell_setting 'orthorhombic'
loop_
_space_group_symop_operation_xyz
x,y,z
1/2-x,-y,z
1/2+x,-y,-z
-x,y,-z
-x,-y,-z
1/2+x,y,-z
1/2-x,y,z
x,-y,z
loop_
_atom_site_type_symbol
_atom_site_label
_atom_site_fract_x
_atom_site_fract_y
_atom_site_fract_z
Si Si1 0.000107 0.665145 0.565736
Si Si2 0.643748 0.172469 0.142264
Si Si3 0.358499 0.831177 0.249910
Si Si4 0.149484 0.677816 0.137859
Si Si5 0.486635 0.325898 0.934895
Si Si6 0.643459 0.171902 0.366885
Si Si7 0.149089 0.821520 0.370655
Si Si8 0.358754 0.331501 0.745778
O O1 0.987120 0.500000 0.588921
O O2 0.091493 0.731170 0.588725
O O3 0.000000 0.658711 0.500000
O O4 0.919062 0.767100 0.584313
O O5 0.750000 0.190125 0.137435
O O6 0.595061 0.233013 0.088250
O O7 0.611582 0.265955 0.195476
O O8 0.624701 0.000000 0.151824
O O9 0.250000 0.837114 0.252974
O O10 0.381225 0.729254 0.198496
O O11 0.385957 0.772543 0.310032
O O12 0.390165 0.000000 0.241269
O O13 0.250000 0.734989 0.128104
O O14 0.153330 0.500000 0.135579
O O15 0.076851 0.729167 0.094150
O O16 0.472798 0.500000 0.920278
O O17 0.500000 0.315719 0.000000
O O18 0.750000 0.187518 0.371940
O O19 0.616309 0.228122 0.305702
O O20 0.619863 0.000000 0.373473
O O21 0.250000 0.767962 0.379834
O O22 0.151930 0.000000 0.368411
O O23 0.250000 0.332325 0.747039
O O24 0.388868 0.500000 0.737622
#
# Coordination Sequence:
#
# PCOD9407780 Si02
#       8
#     8   8   8   8   8   8   8   8
#     4  11  25  41  56  79 112 150 192 234 276 329
#     4  10  21  37  57  82 113 147 183 227 278 331
#     4   8  15  30  53  81 109 136 169 210 262 324
#     4   9  18  33  53  78 107 137 172 218 269 321
#     4  10  22  38  55  77 106 144 190 234 277 328
#     4  10  21  38  61  87 114 146 185 231 283 337
#     4   9  19  37  60  84 111 143 180 226 278 331
#     4   9  17  32  57  87 116 145 179 222 275 336
#
# _framework density 19.753086
#
# number of rings (size 3 to 8) (size 9 to 14) (size 15 to 20)
#    0.000    2.500    0.000    2.250    0.000    7.500 
#    0.000    7.500    0.000    1.500    0.000    0.000 
#    0.000    0.000    0.000    0.000    0.000    0.000 
#
# Total GULP energy -357041.373612 kJ/mol
# GULP energy per Si atom -5578.771463 kJ/mol
# Density = 1.970813 g / cm^3
# Si number density = 19.753086 Si / 1000 Ang^3
#
#
#
# Elastic Constant Matrix: (Units=GPa)
#
#
# Indices 1 2 3 4 5 6 
#
# 1 22.6588 20.0201 22.3158 0.0000 0.0000 0.0000
# 2 20.0201 10.0408 17.0318 0.0000 0.0000 0.0000
# 3 22.3158 17.0318 54.1627 0.0000 0.0000 0.0000
# 4 0.0000 0.0000 0.0000 32.3868 0.0000 0.0000
# 5 0.0000 0.0000 0.0000 0.0000 28.3783 0.0000
# 6 0.0000 0.0000 0.0000 0.0000 0.0000 16.6816
#
#
#
# Elastic Compliance Matrix: (Units=1/GPa)
#
#
# Indices 1 2 3 4 5 6 
#
# 1 -0.044204 0.122680 -0.020365 0.000000 0.000000 0.000000
# 2 0.122680 -0.127036 -0.010599 0.000000 0.000000 0.000000
# 3 -0.020365 -0.010599 0.030186 0.000000 0.000000 0.000000
# 4 0.000000 0.000000 0.000000 0.030877 0.000000 0.000000
# 5 0.000000 0.000000 0.000000 0.000000 0.035238 0.000000
# 6 0.000000 0.000000 0.000000 0.000000 0.000000 0.059946
#
#
# Mechanical properties :
#
#
# Convention : Reuss Voigt Hill
#
# Bulk Modulus (GPa) = 23.59629 22.84419 23.22024
# Shear Modulus (GPa) = -27.12984 17.32231 -4.90377
#
# Velocity S-wave (km/s) = -3.71003 2.96453 -1.57731
# Velocity P-wave (km/s) = 2.52603 4.82783 2.90922
#
# Compressibility (1/GPa) = 0.04237954
#
# Stress axis : x y z
#
# Youngs Moduli (GPa) = -22.62254 -7.87176 33.12743
#
# Poissons Ratio (x) = 0.96571 0.67464
# Poissons Ratio (y) = 2.77534 0.35111
# Poissons Ratio (z) = -0.46071 -0.08343
#
# Static dielectric constant tensor:
#      x y z
#    x 1.707870 0.000000 0.000000 
#    y 0.000000 1.673930 0.000000 
#    z 0.000000 0.000000 1.675220 
# 
# From -- ./inp_files/35807.got.cif
#   From: 2010.05.17/outbox.ucp.g08.bks.cvg/sg51_18_cif.got.tgz:35807.got - 2010.06.11 16:27:58.
