data_PCOD9407458
_publ_section_title
;
Structure prediction by ZEFSAII (Michael W. Deem and Ramdas Pophale) SiO2 
 PCOD9407458
Probable space group: P M M A
;
_chemical_formula_sum "Si O2"
_cell_formula_units_Z 56
_cell_length_a 9.000000
_cell_length_b 21.000000
_cell_length_c 15.000000
_cell_angle_alpha 90.000000
_cell_angle_beta 90.000000
_cell_angle_gamma 90.000000
_cell_volume 2835.000000
_symmetry_space_group_name_H-M "P M M A"
_symmetry_group_IT_number 51
_symmetry_cell_setting 'orthorhombic'
loop_
_space_group_symop_operation_xyz
x,y,z
1/2-x,-y,z
1/2+x,-y,-z
-x,y,-z
-x,-y,-z
1/2+x,y,-z
1/2-x,y,z
x,-y,z
loop_
_atom_site_type_symbol
_atom_site_label
_atom_site_fract_x
_atom_site_fract_y
_atom_site_fract_z
Si Si1 0.925993 0.617310 0.910204
Si Si2 0.570868 0.206716 0.324708
Si Si3 0.926402 0.429575 0.263299
Si Si4 0.072842 0.892722 0.912148
Si Si5 0.927313 0.237626 0.861799
Si Si6 0.429884 0.931545 0.711848
Si Si7 0.573720 0.333286 0.412254
O O1 0.750000 0.613303 0.915053
O O2 0.965717 0.692137 0.896010
O O3 0.987923 0.578340 0.827929
O O4 0.000000 0.594273 0.000000
O O5 0.750000 0.208260 0.305171
O O6 0.480349 0.231623 0.239921
O O7 0.526753 0.133226 0.338422
O O8 0.541668 0.258600 0.399619
O O9 0.750000 0.421303 0.247084
O O10 0.948404 0.500000 0.301894
O O11 0.978221 0.373972 0.328403
O O12 0.250000 0.895092 0.919298
O O13 0.030425 0.922618 0.816490
O O14 0.016536 0.819940 0.906682
O O15 0.000000 0.922122 0.000000
O O16 0.750000 0.227826 0.870807
O O17 0.250000 0.933183 0.708807
O O18 0.486197 0.000000 0.679648
O O19 0.500000 0.358862 0.500000
O O20 0.750000 0.340530 0.417422
#
# Coordination Sequence:
#
# PCOD9407458 Si02
#       7
#     8   8   8   8   8   8   8
#     4  11  23  36  55  82 112 150 192 234 278 325
#     4   9  17  32  55  79 106 141 176 221 273 320
#     4  10  22  41  62  83 113 150 185 227 277 327
#     4  10  19  29  43  65  97 136 179 227 277 323
#     4  10  19  31  50  76 104 138 181 227 277 324
#     4   8  15  28  47  71  98 133 178 222 269 324
#     4  10  21  37  60  89 116 144 181 223 275 334
#
# _framework density 19.753086
#
# number of rings (size 3 to 8) (size 9 to 14) (size 15 to 20)
#    0.000    2.286    1.429    2.571    0.000    5.143 
#    0.000    0.000    0.000   10.714    0.000    0.000 
#    0.000    0.000    0.000    0.000    0.000    0.000 
#
# Total GULP energy -312174.150759 kJ/mol
# GULP energy per Si atom -5574.538406 kJ/mol
# Density = 1.970813 g / cm^3
# Si number density = 19.753086 Si / 1000 Ang^3
#
#
#
# Elastic Constant Matrix: (Units=GPa)
#
#
# Indices 1 2 3 4 5 6 
#
# 1 5.2358 28.1627 18.3014 0.0000 0.0000 0.0000
# 2 28.1627 99.5051 31.2302 0.0000 0.0000 0.0000
# 3 18.3014 31.2302 70.1307 0.0000 0.0000 0.0000
# 4 0.0000 0.0000 0.0000 -21.6623 0.0000 0.0000
# 5 0.0000 0.0000 0.0000 0.0000 22.3167 0.0000
# 6 0.0000 0.0000 0.0000 0.0000 0.0000 12.2201
#
#
#
# Elastic Compliance Matrix: (Units=1/GPa)
#
#
# Indices 1 2 3 4 5 6 
#
# 1 -0.237013 0.055414 0.037175 0.000000 0.000000 0.000000
# 2 0.055414 -0.001273 -0.013894 0.000000 0.000000 0.000000
# 3 0.037175 -0.013894 0.010745 0.000000 0.000000 0.000000
# 4 0.000000 0.000000 0.000000 -0.046163 0.000000 0.000000
# 5 0.000000 0.000000 0.000000 0.000000 0.044809 0.000000
# 6 0.000000 0.000000 0.000000 0.000000 0.000000 0.081832
#
#
# Mechanical properties :
#
#
# Convention : Reuss Voigt Hill
#
# Bulk Modulus (GPa) = -14.25477 36.69559 11.22041
# Shear Modulus (GPa) = -15.25154 9.05340 -3.09907
#
# Velocity S-wave (km/s) = -2.78170 2.14318 -1.25392
# Velocity P-wave (km/s) = 4.18919 4.97411 1.89638
#
# Compressibility (1/GPa) = -0.07015194
#
# Stress axis : x y z
#
# Youngs Moduli (GPa) = -4.21918 -785.42292 93.06623
#
# Poissons Ratio (x) = 43.52318 -3.45972
# Poissons Ratio (y) = 0.23380 1.29305
# Poissons Ratio (z) = 0.15685 -10.91257
#
# Static dielectric constant tensor:
#      x y z
#    x 1.651100 0.000000 0.000000 
#    y 0.000000 1.722210 0.000000 
#    z 0.000000 0.000000 1.688170 
# 
# From -- ./inp_files/21860.got.cif
#   From: 2010.05.17/outbox.ucp.g08.bks.cvg/sg51_11_cif.got.tgz:21860.got - 2010.06.11 16:27:58.
