data_PCOD9407839
_publ_section_title
;
Structure prediction by ZEFSAII (Michael W. Deem and Ramdas Pophale) SiO2 
 PCOD9407839
Probable space group: P M M A
;
_chemical_formula_sum "Si O2"
_cell_formula_units_Z 48
_cell_length_a 18.000000
_cell_length_b 9.000000
_cell_length_c 15.000000
_cell_angle_alpha 90.000000
_cell_angle_beta 90.000000
_cell_angle_gamma 90.000000
_cell_volume 2430.000000
_symmetry_space_group_name_H-M "P M M A"
_symmetry_group_IT_number 51
_symmetry_cell_setting 'orthorhombic'
loop_
_space_group_symop_operation_xyz
x,y,z
1/2-x,-y,z
1/2+x,-y,-z
-x,y,-z
-x,-y,-z
1/2+x,y,-z
1/2-x,y,z
x,-y,z
loop_
_atom_site_type_symbol
_atom_site_label
_atom_site_fract_x
_atom_site_fract_y
_atom_site_fract_z
Si Si1 0.913185 0.322492 0.966736
Si Si2 0.331964 0.176590 0.360865
Si Si3 0.664501 0.668337 0.458410
Si Si4 0.750000 0.168774 0.009866
Si Si5 0.750000 0.166630 0.219755
Si Si6 0.400477 0.673433 0.727264
Si Si7 0.049904 0.178377 0.216556
O O1 0.907090 0.500000 0.980813
O O2 0.919296 0.269459 0.865850
O O3 0.831655 0.249441 0.993690
O O4 0.000000 0.281648 0.000000
O O5 0.250000 0.237715 0.336563
O O6 0.346609 0.219259 0.462213
O O7 0.398904 0.224726 0.299256
O O8 0.328179 0.000000 0.352450
O O9 0.750000 0.686601 0.424815
O O10 0.660011 0.500000 0.493669
O O11 0.606136 0.683168 0.379525
O O12 0.750000 0.149494 0.114809
O O13 0.750000 0.000000 0.968105
O O14 0.822939 0.259278 0.241920
O O15 0.750000 0.000000 0.261322
O O16 0.408130 0.500000 0.752598
O O17 0.466357 0.770902 0.765484
O O18 0.053770 0.000000 0.202408
#
# Coordination Sequence:
#
# PCOD9407839 Si02
#       7
#     8   8   8   4   4   8   8
#     4  11  25  45  68  96 129 166 212 265 323 384
#     4   9  20  38  59  84 117 159 204 253 305 359
#     4   9  18  35  57  84 117 159 206 250 300 358
#     4  11  25  43  67  96 127 166 209 259 320 387
#     4  11  23  39  63  94 123 156 203 249 306 373
#     4  11  22  38  60  88 126 164 203 252 307 363
#     4  11  24  40  61  90 124 161 207 257 310 369
#
# _framework density 19.753086
#
# number of rings (size 3 to 8) (size 9 to 14) (size 15 to 20)
#    0.000    1.667    0.833    3.000    1.167    8.667 
#    0.000    3.333    0.000    0.000    0.000    0.000 
#    0.000    0.000    0.000    0.000    0.000    0.000 
#
# Total GULP energy -267252.775571 kJ/mol
# GULP energy per Si atom -5567.766158 kJ/mol
# Density = 1.970813 g / cm^3
# Si number density = 19.753086 Si / 1000 Ang^3
#
#
#
# Elastic Constant Matrix: (Units=GPa)
#
#
# Indices 1 2 3 4 5 6 
#
# 1 116.2743 32.1965 35.9099 0.0000 0.0000 0.0000
# 2 32.1965 36.1600 19.0241 0.0000 0.0000 0.0000
# 3 35.9099 19.0241 41.9055 0.0000 0.0000 0.0000
# 4 0.0000 0.0000 0.0000 25.8476 0.0000 0.0000
# 5 0.0000 0.0000 0.0000 0.0000 34.3493 0.0000
# 6 0.0000 0.0000 0.0000 0.0000 0.0000 14.3800
#
#
#
# Elastic Compliance Matrix: (Units=1/GPa)
#
#
# Indices 1 2 3 4 5 6 
#
# 1 0.013102 -0.007566 -0.007793 0.000000 0.000000 0.000000
# 2 -0.007566 0.040702 -0.011994 0.000000 0.000000 0.000000
# 3 -0.007793 -0.011994 0.035986 0.000000 0.000000 0.000000
# 4 0.000000 0.000000 0.000000 0.038688 0.000000 0.000000
# 5 0.000000 0.000000 0.000000 0.000000 0.029113 0.000000
# 6 0.000000 0.000000 0.000000 0.000000 0.000000 0.069541
#
#
# Mechanical properties :
#
#
# Convention : Reuss Voigt Hill
#
# Bulk Modulus (GPa) = 28.50285 40.95563 34.72924
# Shear Modulus (GPa) = 17.03390 22.06267 19.54828
#
# Velocity S-wave (km/s) = 2.93975 3.34566 3.14925
# Velocity P-wave (km/s) = 5.09742 5.97523 5.55370
#
# Compressibility (1/GPa) = 0.03508421
#
# Stress axis : x y z
#
# Youngs Moduli (GPa) = 76.32358 24.56891 27.78865
#
# Poissons Ratio (x) = 0.18589 0.21655
# Poissons Ratio (y) = 0.57748 0.33330
# Poissons Ratio (z) = 0.59476 0.29468
#
# Static dielectric constant tensor:
#      x y z
#    x 1.739500 0.000000 0.000000 
#    y 0.000000 1.717130 0.000000 
#    z 0.000000 0.000000 1.718230 
# 
# From -- ./inp_files/24930.got.cif
#   From: 2010.05.17/outbox.ucp.g08.bks.cvg/sg51_13_cif.got.tgz:24930.got - 2010.06.11 16:27:58.
