data_PCOD9407677
_publ_section_title
;
Structure prediction by ZEFSAII (Michael W. Deem and Ramdas Pophale) SiO2 
 PCOD9407677
Probable space group: P M M A
;
_chemical_formula_sum "Si O2"
_cell_formula_units_Z 64
_cell_length_a 24.000000
_cell_length_b 9.000000
_cell_length_c 15.000000
_cell_angle_alpha 90.000000
_cell_angle_beta 90.000000
_cell_angle_gamma 90.000000
_cell_volume 3240.000000
_symmetry_space_group_name_H-M "P M M A"
_symmetry_group_IT_number 51
_symmetry_cell_setting 'orthorhombic'
loop_
_space_group_symop_operation_xyz
x,y,z
1/2-x,-y,z
1/2+x,-y,-z
-x,y,-z
-x,-y,-z
1/2+x,y,-z
1/2-x,y,z
x,-y,z
loop_
_atom_site_type_symbol
_atom_site_label
_atom_site_fract_x
_atom_site_fract_y
_atom_site_fract_z
Si Si1 0.903101 0.176827 0.103954
Si Si2 0.132531 0.176028 0.083026
Si Si3 0.187845 0.678450 0.245038
Si Si4 0.689108 0.678034 0.453959
Si Si5 0.398872 0.320287 0.399152
Si Si6 0.497218 0.823399 0.668995
Si Si7 0.128844 0.825059 0.695972
Si Si8 0.016874 0.322980 0.139679
O O1 0.878017 0.213502 0.200207
O O2 0.960309 0.267500 0.092809
O O3 0.917307 0.000000 0.105054
O O4 0.861475 0.202841 0.022394
O O5 0.175660 0.252885 0.148894
O O6 0.071847 0.242239 0.105173
O O7 0.132740 0.000000 0.098969
O O8 0.250000 0.720286 0.276933
O O9 0.186321 0.500000 0.239542
O O10 0.137714 0.720384 0.311546
O O11 0.750000 0.731705 0.482182
O O12 0.689580 0.500000 0.457371
O O13 0.640527 0.726462 0.519974
O O14 0.674280 0.732545 0.356007
O O15 0.406504 0.500000 0.399547
O O16 0.457760 0.238200 0.399692
O O17 0.431980 0.798995 0.651652
O O18 0.509815 0.731416 0.758698
O O19 0.504741 0.000000 0.684066
O O20 0.141040 0.000000 0.689551
O O21 0.022662 0.500000 0.134081
#
# Coordination Sequence:
#
# PCOD9407677 Si02
#       8
#     8   8   8   8   8   8   8   8
#     4   9  20  37  55  78 111 149 187 230 282 332
#     4  11  21  34  54  79 110 148 190 233 277 331
#     4  10  21  37  56  79 111 150 190 234 283 338
#     4  10  22  40  61  85 112 145 188 236 285 336
#     4  10  20  36  59  85 114 148 185 228 283 345
#     4  10  20  35  56  84 119 153 185 227 282 340
#     4   9  20  39  59  81 112 149 189 233 283 336
#     4  11  20  31  51  82 116 149 185 226 275 333
#
# _framework density 19.753086
#
# number of rings (size 3 to 8) (size 9 to 14) (size 15 to 20)
#    0.000    2.000    1.250    3.375    0.000    8.000 
#    0.000    3.125    0.000    6.000    0.000    0.000 
#    0.000    0.000    0.000    0.000    0.000    0.000 
#
# Total GULP energy -357207.891326 kJ/mol
# GULP energy per Si atom -5581.373302 kJ/mol
# Density = 1.970813 g / cm^3
# Si number density = 19.753086 Si / 1000 Ang^3
#
#
#
# Elastic Constant Matrix: (Units=GPa)
#
#
# Indices 1 2 3 4 5 6 
#
# 1 13.8141 7.3645 27.0091 0.0000 0.0000 0.0000
# 2 7.3645 2.1389 9.2442 0.0000 0.0000 0.0000
# 3 27.0091 9.2442 63.7980 0.0000 0.0000 0.0000
# 4 0.0000 0.0000 0.0000 22.1611 0.0000 0.0000
# 5 0.0000 0.0000 0.0000 0.0000 14.5148 0.0000
# 6 0.0000 0.0000 0.0000 0.0000 0.0000 58.8769
#
#
#
# Elastic Compliance Matrix: (Units=1/GPa)
#
#
# Indices 1 2 3 4 5 6 
#
# 1 -0.079893 0.344871 -0.016148 0.000000 0.000000 0.000000
# 2 0.344871 -0.237824 -0.111542 0.000000 0.000000 0.000000
# 3 -0.016148 -0.111542 0.038673 0.000000 0.000000 0.000000
# 4 0.000000 0.000000 0.000000 0.045124 0.000000 0.000000
# 5 0.000000 0.000000 0.000000 0.000000 0.068895 0.000000
# 6 0.000000 0.000000 0.000000 0.000000 0.000000 0.016985
#
#
# Mechanical properties :
#
#
# Convention : Reuss Voigt Hill
#
# Bulk Modulus (GPa) = 6.43842 18.55406 12.49624
# Shear Modulus (GPa) = -9.42277 21.51944 6.04834
#
# Velocity S-wave (km/s) = -2.18647 3.30422 1.75175
# Velocity P-wave (km/s) = 1.76285 4.89597 3.22977
#
# Compressibility (1/GPa) = 0.15531769
#
# Stress axis : x y z
#
# Youngs Moduli (GPa) = -12.51677 -4.20478 25.85774
#
# Poissons Ratio (x) = 1.45011 0.41756
# Poissons Ratio (y) = 4.31667 2.88422
# Poissons Ratio (z) = -0.20212 -0.46901
#
# Static dielectric constant tensor:
#      x y z
#    x 1.691710 0.000000 0.000000 
#    y 0.000000 1.654680 0.000000 
#    z 0.000000 0.000000 1.749320 
# 
# From -- ./inp_files/26349.got.cif
#   From: 2010.05.17/outbox.ucp.g08.bks.cvg/sg51_14_cif.got.tgz:26349.got - 2010.06.11 16:27:58.
