data_PCOD9407237
_publ_section_title
;
Structure prediction by ZEFSAII (Michael W. Deem and Ramdas Pophale) SiO2 
 PCOD9407237
Probable space group: P M M A
;
_chemical_formula_sum "Si O2"
_cell_formula_units_Z 64
_cell_length_a 14.283366
_cell_length_b 9.417486
_cell_length_c 21.924685
_cell_angle_alpha 90.000000
_cell_angle_beta 90.000000
_cell_angle_gamma 90.000000
_cell_volume 2949.163909
_symmetry_space_group_name_H-M "P M M A"
_symmetry_group_IT_number 51
_symmetry_cell_setting 'orthorhombic'
loop_
_space_group_symop_operation_xyz
x,y,z
1/2-x,-y,z
1/2+x,-y,-z
-x,y,-z
-x,-y,-z
1/2+x,y,-z
1/2-x,y,z
x,-y,z
loop_
_atom_site_type_symbol
_atom_site_label
_atom_site_fract_x
_atom_site_fract_y
_atom_site_fract_z
Si Si1 0.135663 0.834764 0.982224
Si Si2 0.605206 0.661377 0.523068
Si Si3 0.636722 0.335585 0.658745
Si Si4 0.364540 0.163037 0.221732
Si Si5 0.640301 0.827256 0.150455
Si Si6 0.865330 0.163974 0.282546
Si Si7 0.357349 0.659563 0.605221
Si Si8 0.864627 0.336813 0.898310
O O1 0.250000 0.832864 0.980231
O O2 0.106783 0.740034 0.039159
O O3 0.109683 0.000000 0.991335
O O4 0.101845 0.783948 0.915478
O O5 0.500000 0.653489 0.500000
O O6 0.643947 0.500000 0.528491
O O7 0.611458 0.720897 0.590974
O O8 0.647335 0.728698 0.461972
O O9 0.750000 0.338238 0.660172
O O10 0.604812 0.500000 0.664799
O O11 0.606537 0.241139 0.716010
O O12 0.250000 0.161424 0.221612
O O13 0.393402 0.247774 0.161173
O O14 0.396353 0.000000 0.219265
O O15 0.750000 0.786299 0.150285
O O16 0.602361 0.780926 0.216208
O O17 0.637432 0.000000 0.150844
O O18 0.750000 0.164904 0.281268
O O19 0.900975 0.251492 0.340412
O O20 0.892022 0.000000 0.289306
O O21 0.250000 0.642521 0.623429
O O22 0.398228 0.500000 0.600513
O O23 0.750000 0.337557 0.898081
O O24 0.895511 0.500000 0.895151
#
# Coordination Sequence:
#
# PCOD9407237 Si02
#       8
#     8   8   8   8   8   8   8   8
#     4   8  12  18  28  41  60  91 129 163 194 230
#     4   9  17  29  45  63  82 106 134 161 194 242
#     4   9  16  27  44  63  80 100 130 168 204 235
#     4   9  16  25  37  53  73  98 129 164 200 238
#     4   7  10  17  29  44  63  91 128 164 194 229
#     4   8  13  22  36  53  73  99 132 167 201 238
#     4   9  16  26  41  61  82 103 131 168 204 235
#     4   9  15  21  29  44  68  97 129 164 199 234
#
# _framework density 21.701065
#
# number of rings (size 3 to 8) (size 9 to 14) (size 15 to 20)
#    0.000    3.500    0.000    2.625    0.000    4.500 
#    0.000    1.250    0.000    8.250    0.000    0.000 
#    0.000    0.000    0.000    1.125    0.000   24.750 
#
# Total GULP energy -356708.142380 kJ/mol
# GULP energy per Si atom -5573.564725 kJ/mol
# Density = 2.165167 g / cm^3
# Si number density = 21.701065 Si / 1000 Ang^3
#
#
#
# Elastic Constant Matrix: (Units=GPa)
#
#
# Indices 1 2 3 4 5 6 
#
# 1 49.2954 0.7420 12.6952 0.0000 0.0000 0.0000
# 2 0.7420 95.3250 114.2135 0.0000 0.0000 0.0000
# 3 12.6952 114.2135 284.5613 0.0000 0.0000 0.0000
# 4 0.0000 0.0000 0.0000 39.5120 0.0000 0.0000
# 5 0.0000 0.0000 0.0000 0.0000 9.5322 0.0000
# 6 0.0000 0.0000 0.0000 0.0000 0.0000 -5.3809
#
#
#
# Elastic Compliance Matrix: (Units=1/GPa)
#
#
# Indices 1 2 3 4 5 6 
#
# 1 0.020684 0.001820 -0.001653 0.000000 0.000000 0.000000
# 2 0.001820 0.020369 -0.008257 0.000000 0.000000 0.000000
# 3 -0.001653 -0.008257 0.006902 0.000000 0.000000 0.000000
# 4 0.000000 0.000000 0.000000 0.025309 0.000000 0.000000
# 5 0.000000 0.000000 0.000000 0.000000 0.104908 0.000000
# 6 0.000000 0.000000 0.000000 0.000000 0.000000 -0.185842
#
#
# Mechanical properties :
#
#
# Convention : Reuss Voigt Hill
#
# Bulk Modulus (GPa) = 31.47139 76.05370 53.76254
# Shear Modulus (GPa) = 261.76081 28.83472 145.29776
#
# Velocity S-wave (km/s) = 10.99468 3.64912 8.19143
# Velocity P-wave (km/s) = 13.25561 7.27165 10.69084
#
# Compressibility (1/GPa) = 0.03177490
#
# Stress axis : x y z
#
# Youngs Moduli (GPa) = 48.34607 49.09456 144.88871
#
# Poissons Ratio (x) = -0.08934 0.23953
# Poissons Ratio (y) = -0.08798 1.19628
# Poissons Ratio (z) = 0.07992 0.40535
#
# Static dielectric constant tensor:
#      x y z
#    x 2.069280 0.000000 0.000000 
#    y 0.000000 1.762640 0.000000 
#    z 0.000000 0.000000 1.822910 
# 
# From -- ./inp_files/34157.got.cif
#   From: 2010.05.17/outbox.cif.g08.bks.cpg/sg51_18_cif.got.tgz:34157.got - 2010.06.03 11:52:47.
