data_PCOD9407765
_publ_section_title
;
Structure prediction by ZEFSAII (Michael W. Deem and Ramdas Pophale) SiO2 
 PCOD9407765
Probable space group: P M M A
;
_chemical_formula_sum "Si O2"
_cell_formula_units_Z 48
_cell_length_a 15.000000
_cell_length_b 9.000000
_cell_length_c 18.000000
_cell_angle_alpha 90.000000
_cell_angle_beta 90.000000
_cell_angle_gamma 90.000000
_cell_volume 2430.000000
_symmetry_space_group_name_H-M "P M M A"
_symmetry_group_IT_number 51
_symmetry_cell_setting 'orthorhombic'
loop_
_space_group_symop_operation_xyz
x,y,z
1/2-x,-y,z
1/2+x,-y,-z
-x,y,-z
-x,-y,-z
1/2+x,y,-z
1/2-x,y,z
x,-y,z
loop_
_atom_site_type_symbol
_atom_site_label
_atom_site_fract_x
_atom_site_fract_y
_atom_site_fract_z
Si Si1 0.394112 0.662274 0.485386
Si Si2 0.991410 0.178369 0.912250
Si Si3 0.437840 0.166830 0.341777
Si Si4 0.148116 0.768624 0.648188
Si Si5 0.148387 0.672302 0.817905
Si Si6 0.855374 0.322156 0.801147
O O1 0.500000 0.654481 0.500000
O O2 0.363413 0.500000 0.459306
O O3 0.389876 0.778044 0.417690
O O4 0.352211 0.694715 0.566075
O O5 0.905523 0.248969 0.871433
O O6 0.075840 0.233001 0.862745
O O7 0.986208 0.000000 0.908045
O O8 0.000000 0.219377 0.000000
O O9 0.546536 0.163883 0.352022
O O10 0.407147 0.268597 0.273202
O O11 0.409730 0.000000 0.324533
O O12 0.250000 0.837067 0.652013
O O13 0.142854 0.684501 0.727718
O O14 0.250000 0.716460 0.837478
O O15 0.135000 0.500000 0.837351
O O16 0.750000 0.283473 0.797350
O O17 0.862762 0.500000 0.806410
#
# Coordination Sequence:
#
# PCOD9407765 Si02
#       6
#     8   8   8   8   8   8
#     4   9  19  35  56  84 121 166 215 263 309 363
#     4  11  25  44  67  97 132 168 204 251 316 385
#     4  11  23  40  63  92 129 172 215 264 323 380
#     4  10  21  36  60  95 131 168 214 263 314 373
#     4  10  21  38  64  97 131 168 211 259 311 370
#     4  11  25  45  70  96 123 164 218 270 319 374
#
# _framework density 19.753086
#
# number of rings (size 3 to 8) (size 9 to 14) (size 15 to 20)
#    0.000    1.667    1.667    2.000    0.000   10.000 
#    0.000    5.000    0.000    0.000    0.000    0.000 
#    0.000    0.000    0.000    0.000    0.000    0.000 
#
# Total GULP energy -267408.164395 kJ/mol
# GULP energy per Si atom -5571.003425 kJ/mol
# Density = 1.970813 g / cm^3
# Si number density = 19.753086 Si / 1000 Ang^3
#
#
#
# Elastic Constant Matrix: (Units=GPa)
#
#
# Indices 1 2 3 4 5 6 
#
# 1 128.3134 47.0723 51.3202 0.0000 0.0000 0.0000
# 2 47.0723 86.6205 42.5597 0.0000 0.0000 0.0000
# 3 51.3202 42.5597 134.3692 0.0000 0.0000 0.0000
# 4 0.0000 0.0000 0.0000 26.4689 0.0000 0.0000
# 5 0.0000 0.0000 0.0000 0.0000 28.1552 0.0000
# 6 0.0000 0.0000 0.0000 0.0000 0.0000 -0.6603
#
#
#
# Elastic Compliance Matrix: (Units=1/GPa)
#
#
# Indices 1 2 3 4 5 6 
#
# 1 0.010446 -0.004401 -0.002596 0.000000 0.000000 0.000000
# 2 -0.004401 0.015527 -0.003237 0.000000 0.000000 0.000000
# 3 -0.002596 -0.003237 0.009459 0.000000 0.000000 0.000000
# 4 0.000000 0.000000 0.000000 0.037780 0.000000 0.000000
# 5 0.000000 0.000000 0.000000 0.000000 0.035517 0.000000
# 6 0.000000 0.000000 0.000000 0.000000 0.000000 -1.514379
#
#
# Mechanical properties :
#
#
# Convention : Reuss Voigt Hill
#
# Bulk Modulus (GPa) = 66.82740 70.13414 68.48077
# Shear Modulus (GPa) = -3.62268 24.68282 10.53007
#
# Velocity S-wave (km/s) = -1.35571 3.53876 2.31137
# Velocity P-wave (km/s) = 5.60840 7.23046 6.47046
#
# Compressibility (1/GPa) = 0.01496392
#
# Stress axis : x y z
#
# Youngs Moduli (GPa) = 95.72776 64.40432 105.72170
#
# Poissons Ratio (x) = 0.28348 0.27442
# Poissons Ratio (y) = 0.42135 0.34221
# Poissons Ratio (z) = 0.24848 0.20847
#
# Static dielectric constant tensor:
#      x y z
#    x 1.713000 0.000000 0.000000 
#    y 0.000000 1.711110 0.000000 
#    z 0.000000 0.000000 1.658090 
# 
# From -- ./inp_files/29457.got.cif
#   From: 2010.05.17/outbox.ucp.g08.bks.cvg/sg51_15_cif.got.tgz:29457.got - 2010.06.11 16:27:58.
