data_PCOD9407605
_publ_section_title
;
Structure prediction by ZEFSAII (Michael W. Deem and Ramdas Pophale) SiO2 
 PCOD9407605
Probable space group: P M M A
;
_chemical_formula_sum "Si O2"
_cell_formula_units_Z 64
_cell_length_a 18.000000
_cell_length_b 9.000000
_cell_length_c 21.000000
_cell_angle_alpha 90.000000
_cell_angle_beta 90.000000
_cell_angle_gamma 90.000000
_cell_volume 3402.000000
_symmetry_space_group_name_H-M "P M M A"
_symmetry_group_IT_number 51
_symmetry_cell_setting 'orthorhombic'
loop_
_space_group_symop_operation_xyz
x,y,z
1/2-x,-y,z
1/2+x,-y,-z
-x,y,-z
-x,-y,-z
1/2+x,y,-z
1/2-x,y,z
x,-y,z
loop_
_atom_site_type_symbol
_atom_site_label
_atom_site_fract_x
_atom_site_fract_y
_atom_site_fract_z
Si Si1 0.829107 0.675796 0.885048
Si Si2 0.665251 0.820918 0.635083
Si Si3 0.837911 0.168081 0.280332
Si Si4 0.582362 0.177148 0.510653
Si Si5 0.839302 0.335179 0.401244
Si Si6 0.984559 0.331381 0.927000
Si Si7 0.906093 0.327904 0.754046
Si Si8 0.455790 0.828117 0.820099
O O1 0.750000 0.743063 0.901758
O O2 0.826944 0.500000 0.901678
O O3 0.903193 0.737228 0.916467
O O4 0.844876 0.684181 0.809934
O O5 0.750000 0.767303 0.637136
O O6 0.623432 0.763869 0.572696
O O7 0.620220 0.768090 0.695497
O O8 0.667015 0.000000 0.633179
O O9 0.750000 0.178899 0.274248
O O10 0.864791 0.286445 0.331533
O O11 0.878084 0.190016 0.214237
O O12 0.855710 0.000000 0.303003
O O13 0.500000 0.237523 0.500000
O O14 0.631358 0.216681 0.450444
O O15 0.576863 0.000000 0.517717
O O16 0.750000 0.333461 0.401330
O O17 0.864842 0.500000 0.418035
O O18 0.984588 0.500000 0.899670
O O19 0.043835 0.233957 0.890633
O O20 0.000000 0.341006 0.000000
O O21 0.913766 0.500000 0.736825
O O22 0.982132 0.265199 0.782784
O O23 0.477249 0.000000 0.818214
#
# Coordination Sequence:
#
# PCOD9407605 Si02
#       8
#     8   8   8   8   8   8   8   8
#     4   8  14  27  48  72  98 132 174 211 244 294
#     4  10  21  36  53  75 105 139 176 220 265 311
#     4   9  19  36  57  78 102 137 178 217 261 317
#     4  10  22  38  55  75 102 140 182 220 262 317
#     4  10  21  36  55  79 105 133 170 221 275 321
#     4   9  18  33  52  76 108 143 177 214 259 310
#     4  10  20  33  52  78 107 138 171 214 268 322
#     4  10  20  34  55  80 106 137 175 217 260 310
#
# _framework density 18.812463000000001
#
# number of rings (size 3 to 8) (size 9 to 14) (size 15 to 20)
#    0.000    2.500    0.000    2.625    1.750    4.000 
#    0.000    0.625    0.000    4.125    0.000    0.000 
#    0.000    0.000    0.000    0.000    0.000    0.000 
#
# Total GULP energy -356335.468138 kJ/mol
# GULP energy per Si atom -5567.741690 kJ/mol
# Density = 1.876965 g / cm^3
# Si number density = 18.812463 Si / 1000 Ang^3
#
#
#
# Elastic Constant Matrix: (Units=GPa)
#
#
# Indices 1 2 3 4 5 6 
#
# 1 -45.6122 26.0131 12.0065 0.0000 0.0000 0.0000
# 2 26.0131 -18.5860 12.3370 0.0000 0.0000 0.0000
# 3 12.0065 12.3370 63.1987 0.0000 0.0000 0.0000
# 4 0.0000 0.0000 0.0000 41.7387 0.0000 0.0000
# 5 0.0000 0.0000 0.0000 0.0000 3.6221 0.0000
# 6 0.0000 0.0000 0.0000 0.0000 0.0000 15.6977
#
#
#
# Elastic Compliance Matrix: (Units=1/GPa)
#
#
# Indices 1 2 3 4 5 6 
#
# 1 -0.047152 -0.053160 0.019335 0.000000 0.000000 0.000000
# 2 -0.053160 -0.107565 0.031097 0.000000 0.000000 0.000000
# 3 0.019335 0.031097 0.006079 0.000000 0.000000 0.000000
# 4 0.000000 0.000000 0.000000 0.023959 0.000000 0.000000
# 5 0.000000 0.000000 0.000000 0.000000 0.276085 0.000000
# 6 0.000000 0.000000 0.000000 0.000000 0.000000 0.063704
#
#
# Mechanical properties :
#
#
# Convention : Reuss Voigt Hill
#
# Bulk Modulus (GPa) = -6.48958 11.07928 2.29485
# Shear Modulus (GPa) = 29.55071 8.78796 19.16933
#
# Velocity S-wave (km/s) = 3.96764 2.16367 3.19559
# Velocity P-wave (km/s) = 4.18717 3.48484 3.85205
#
# Compressibility (1/GPa) = -0.15409315
#
# Stress axis : x y z
#
# Youngs Moduli (GPa) = -21.20803 -9.29667 164.49032
#
# Poissons Ratio (x) = -0.49421 -3.18046
# Poissons Ratio (y) = -1.12742 -5.11516
# Poissons Ratio (z) = 0.41006 0.28910
#
# Static dielectric constant tensor:
#      x y z
#    x 1.663370 0.000000 0.000000 
#    y 0.000000 1.663770 0.000000 
#    z 0.000000 0.000000 1.642540 
# 
# From -- ./inp_files/33846.got.cif
#   From: 2010.05.17/outbox.ucp.g08.bks.cvg/sg51_17_cif.got.tgz:33846.got - 2010.06.11 16:27:58.
