data_PCOD9407814
_publ_section_title
;
Structure prediction by ZEFSAII (Michael W. Deem and Ramdas Pophale) SiO2 
 PCOD9407814
Probable space group: P M M A
;
_chemical_formula_sum "Si O2"
_cell_formula_units_Z 48
_cell_length_a 15.000000
_cell_length_b 9.000000
_cell_length_c 18.000000
_cell_angle_alpha 90.000000
_cell_angle_beta 90.000000
_cell_angle_gamma 90.000000
_cell_volume 2430.000000
_symmetry_space_group_name_H-M "P M M A"
_symmetry_group_IT_number 51
_symmetry_cell_setting 'orthorhombic'
loop_
_space_group_symop_operation_xyz
x,y,z
1/2-x,-y,z
1/2+x,-y,-z
-x,y,-z
-x,-y,-z
1/2+x,y,-z
1/2-x,y,z
x,-y,z
loop_
_atom_site_type_symbol
_atom_site_label
_atom_site_fract_x
_atom_site_fract_y
_atom_site_fract_z
Si Si1 0.647782 0.665780 0.849156
Si Si2 0.990667 0.837813 0.086989
Si Si3 0.750000 0.819095 0.420154
Si Si4 0.250000 0.176890 0.412728
Si Si5 0.592360 0.176216 0.315000
Si Si6 0.902459 0.669265 0.677472
Si Si7 0.150269 0.332260 0.830204
O O1 0.750000 0.687547 0.869530
O O2 0.619777 0.500000 0.874615
O O3 0.584682 0.791795 0.879713
O O4 0.636851 0.667383 0.760559
O O5 0.920725 0.713687 0.109409
O O6 0.962434 0.000000 0.115435
O O7 0.000000 0.843939 0.000000
O O8 0.750000 0.767114 0.503561
O O9 0.838664 0.772771 0.377548
O O10 0.750000 0.000000 0.418781
O O11 0.336901 0.235909 0.372162
O O12 0.250000 0.000000 0.412504
O O13 0.499310 0.259368 0.319848
O O14 0.637001 0.220657 0.237492
O O15 0.578977 0.000000 0.320115
O O16 0.906464 0.500000 0.651026
O O17 0.250000 0.323397 0.859575
O O18 0.133945 0.500000 0.803147
#
# Coordination Sequence:
#
# PCOD9407814 Si02
#       7
#     8   8   4   4   8   8   8
#     4  10  21  39  63  88 119 158 200 248 302 360
#     4  11  25  42  61  90 126 160 200 252 304 357
#     4   9  22  41  61  89 126 161 202 255 309 358
#     4  11  23  41  63  89 122 165 208 251 303 364
#     4  11  21  38  64  92 120 159 207 254 301 360
#     4  11  22  39  61  91 126 159 200 253 307 363
#     4  11  23  39  62  92 123 159 203 250 302 366
#
# _framework density 19.753086
#
# number of rings (size 3 to 8) (size 9 to 14) (size 15 to 20)
#    0.000    1.333    3.333    2.250    0.000    4.667 
#    0.000   10.000    0.000    0.000    0.000    0.000 
#    0.000    0.000    0.000    0.000    0.000    0.000 
#
# Total GULP energy -267901.760234 kJ/mol
# GULP energy per Si atom -5581.286672 kJ/mol
# Density = 1.970813 g / cm^3
# Si number density = 19.753086 Si / 1000 Ang^3
#
#
#
# Elastic Constant Matrix: (Units=GPa)
#
#
# Indices 1 2 3 4 5 6 
#
# 1 89.5290 30.2475 13.1597 0.0000 0.0000 0.0000
# 2 30.2475 55.7095 19.1304 0.0000 0.0000 0.0000
# 3 13.1597 19.1304 49.2598 0.0000 0.0000 0.0000
# 4 0.0000 0.0000 0.0000 -550.1809 0.0000 0.0000
# 5 0.0000 0.0000 0.0000 0.0000 19.0746 0.0000
# 6 0.0000 0.0000 0.0000 0.0000 0.0000 28.4047
#
#
#
# Elastic Compliance Matrix: (Units=1/GPa)
#
#
# Indices 1 2 3 4 5 6 
#
# 1 0.013713 -0.007139 -0.000891 0.000000 0.000000 0.000000
# 2 -0.007139 0.024430 -0.007580 0.000000 0.000000 0.000000
# 3 -0.000891 -0.007580 0.023482 0.000000 0.000000 0.000000
# 4 0.000000 0.000000 0.000000 -0.001818 0.000000 0.000000
# 5 0.000000 0.000000 0.000000 0.000000 0.052426 0.000000
# 6 0.000000 0.000000 0.000000 0.000000 0.000000 0.035205
#
#
# Mechanical properties :
#
#
# Convention : Reuss Voigt Hill
#
# Bulk Modulus (GPa) = 32.89035 35.50816 34.19925
# Shear Modulus (GPa) = 26.48402 -91.74296 -32.62947
#
# Velocity S-wave (km/s) = 3.66560 -6.82244 -4.06873
# Velocity P-wave (km/s) = 5.88238 6.63671 2.17296
#
# Compressibility (1/GPa) = 0.03040406
#
# Stress axis : x y z
#
# Youngs Moduli (GPa) = 72.92597 40.93397 42.58529
#
# Poissons Ratio (x) = 0.29224 0.03793
# Poissons Ratio (y) = 0.52065 0.32280
# Poissons Ratio (z) = 0.06495 0.31028
#
# Static dielectric constant tensor:
#      x y z
#    x 1.669480 0.000000 0.000000 
#    y 0.000000 1.695030 0.000000 
#    z 0.000000 0.000000 1.665360 
# 
# From -- ./inp_files/29630.got.cif
#   From: 2010.05.17/outbox.ucp.g08.bks.cvg/sg51_15_cif.got.tgz:29630.got - 2010.06.11 16:27:58.
