data_PCOD9407362
_publ_section_title
;
Structure prediction by ZEFSAII (Michael W. Deem and Ramdas Pophale) SiO2 
 PCOD9407362
Probable space group: P M M A
;
_chemical_formula_sum "Si O2"
_cell_formula_units_Z 30
_cell_length_a 13.971502
_cell_length_b 20.954400
_cell_length_c 6.479588
_cell_angle_alpha 90.000000
_cell_angle_beta 90.000000
_cell_angle_gamma 90.000000
_cell_volume 1896.992962
_symmetry_space_group_name_H-M "P M M A"
_symmetry_group_IT_number 51
_symmetry_cell_setting 'orthorhombic'
loop_
_space_group_symop_operation_xyz
x,y,z
1/2-x,-y,z
1/2+x,-y,-z
-x,y,-z
-x,-y,-z
1/2+x,y,-z
1/2-x,y,z
x,-y,z
loop_
_atom_site_type_symbol
_atom_site_label
_atom_site_fract_x
_atom_site_fract_y
_atom_site_fract_z
Si Si1 0.250000 0.591052 0.256031
Si Si2 0.250000 0.075627 0.241040
Si Si3 0.750000 0.500000 0.123562
Si Si4 0.750000 0.834657 0.378637
Si Si5 0.750000 0.742259 0.757792
Si Si6 0.613436 0.500000 0.503109
Si Si7 0.886566 0.167250 0.998872
O O1 0.250000 0.666680 0.252009
O O2 0.159166 0.560577 0.376494
O O3 0.250000 0.560619 0.028068
O O4 0.250000 0.104170 0.471693
O O5 0.250000 0.000000 0.234729
O O6 0.159186 0.107072 0.123371
O O7 0.659056 0.500000 0.275151
O O8 0.750000 0.774529 0.532432
O O9 0.658996 0.833860 0.226978
O O10 0.659188 0.771800 0.880640
O O11 0.500000 0.500000 0.500000
O O12 0.000000 0.167309 0.000000
#
# Coordination Sequence:
#
# PCOD9407362 Si02
#       7
#     4   4   2   4   4   4   8
#     4   9  19  35  52  76 106 137 175 215 262 316
#     4   9  19  33  52  76 102 137 177 211 258 316
#     4   8  18  36  56  66 112 138 160 222 264 298
#     4   8  18  35  53  67 110 136 162 221 263 300
#     4   9  19  35  50  78 104 135 177 209 264 314
#     4   9  19  35  52  78 104 137 177 215 262 310
#     4   9  19  35  52  75 105 137 172 216 261 310
#
# _framework density 15.814501999999999
#
# number of rings (size 3 to 8) (size 9 to 14) (size 15 to 20)
#    0.000    4.000    0.000    0.000    0.000   13.333 
#    9.600    1.333    0.000    0.000    0.000    0.000 
#    0.000    0.000    0.000    0.000    0.000    0.000 
#
# Total GULP energy -167009.929731 kJ/mol
# GULP energy per Si atom -5566.997658 kJ/mol
# Density = 1.577851 g / cm^3
# Si number density = 15.814502 Si / 1000 Ang^3
#
#
#
# Elastic Constant Matrix: (Units=GPa)
#
#
# Indices 1 2 3 4 5 6 
#
# 1 190.4643 63.3483 70.1150 0.0000 0.0000 0.0000
# 2 63.3483 188.8523 67.1323 0.0000 0.0000 0.0000
# 3 70.1150 67.1323 144.4606 0.0000 0.0000 0.0000
# 4 0.0000 0.0000 0.0000 5.0676 0.0000 0.0000
# 5 0.0000 0.0000 0.0000 0.0000 3.6241 0.0000
# 6 0.0000 0.0000 0.0000 0.0000 0.0000 8.9573
#
#
#
# Elastic Compliance Matrix: (Units=1/GPa)
#
#
# Indices 1 2 3 4 5 6 
#
# 1 0.006648 -0.001297 -0.002624 0.000000 0.000000 0.000000
# 2 -0.001297 0.006596 -0.002436 0.000000 0.000000 0.000000
# 3 -0.002624 -0.002436 0.009328 0.000000 0.000000 0.000000
# 4 0.000000 0.000000 0.000000 0.197331 0.000000 0.000000
# 5 0.000000 0.000000 0.000000 0.000000 0.275934 0.000000
# 6 0.000000 0.000000 0.000000 0.000000 0.000000 0.111641
#
#
# Mechanical properties :
#
#
# Convention : Reuss Voigt Hill
#
# Bulk Modulus (GPa) = 101.43783 102.77429 102.10606
# Shear Modulus (GPa) = 8.01954 25.07523 16.54738
#
# Velocity S-wave (km/s) = 2.25433 3.98626 3.23823
# Velocity P-wave (km/s) = 8.42956 9.29061 8.87054
#
# Compressibility (1/GPa) = 0.00985825
#
# Stress axis : x y z
#
# Youngs Moduli (GPa) = 150.42989 151.60479 107.20898
#
# Poissons Ratio (x) = 0.19667 0.28128
# Poissons Ratio (y) = 0.19514 0.26112
# Poissons Ratio (z) = 0.39467 0.36926
#
# Static dielectric constant tensor:
#      x y z
#    x 1.510980 0.000000 0.000000 
#    y 0.000000 1.511470 0.000000 
#    z 0.000000 0.000000 1.538390 
# 
# From -- ./inp_files/1382.got.cif
#   From: 2010.05.17/outbox.cif.g08.bks.cpg/sg51_1_cif.got.tgz:1382.got - 2010.06.03 11:52:47.
