data_PCOD9407183
_publ_section_title
;
Structure prediction by ZEFSAII (Michael W. Deem and Ramdas Pophale) SiO2 
 PCOD9407183
Probable space group: P M M A
;
_chemical_formula_sum "Si O2"
_cell_formula_units_Z 64
_cell_length_a 14.177746
_cell_length_b 25.674392
_cell_length_c 7.402050
_cell_angle_alpha 90.000000
_cell_angle_beta 90.000000
_cell_angle_gamma 90.000000
_cell_volume 2694.383273
_symmetry_space_group_name_H-M "P M M A"
_symmetry_group_IT_number 51
_symmetry_cell_setting 'orthorhombic'
loop_
_space_group_symop_operation_xyz
x,y,z
1/2-x,-y,z
1/2+x,-y,-z
-x,y,-z
-x,-y,-z
1/2+x,y,-z
1/2-x,y,z
x,-y,z
loop_
_atom_site_type_symbol
_atom_site_label
_atom_site_fract_x
_atom_site_fract_y
_atom_site_fract_z
Si Si1 0.643537 0.127353 0.690412
Si Si2 0.065644 0.559774 0.260444
Si Si3 0.639304 0.761218 0.766603
Si Si4 0.027284 0.336760 0.196794
Si Si5 0.355467 0.156468 0.731563
Si Si6 0.479109 0.056825 0.791151
Si Si7 0.146837 0.559285 0.854672
Si Si8 0.861730 0.269447 0.343873
O O1 0.750000 0.114296 0.747811
O O2 0.607121 0.179010 0.794984
O O3 0.648262 0.147605 0.485199
O O4 0.573372 0.079227 0.698904
O O5 0.079685 0.500000 0.335604
O O6 0.087348 0.620346 0.312524
O O7 0.951863 0.569343 0.248593
O O8 0.119379 0.557325 0.067286
O O9 0.750000 0.761656 0.806560
O O10 0.588744 0.713492 0.859610
O O11 0.627539 0.744506 0.555667
O O12 0.933689 0.314563 0.291641
O O13 0.000000 0.359063 0.000000
O O14 0.250000 0.155721 0.805255
O O15 0.408444 0.105157 0.790496
O O16 0.390797 0.215432 0.756912
O O17 0.449109 0.000000 0.718195
O O18 0.500000 0.050167 0.000000
O O19 0.250000 0.586119 0.828639
O O20 0.161112 0.500000 0.799882
O O21 0.750000 0.279014 0.310449
#
# Coordination Sequence:
#
# PCOD9407183 Si02
#       8
#     8   8   8   8   8   8   8   8
#     4   9  19  38  62  82 101 136 188 235 267 304
#     4   9  18  32  44  67 105 139 176 214 260 323
#     4   9  20  39  59  78 105 143 182 219 267 326
#     4  12  22  31  50  86 113 136 169 224 277 322
#     4   9  19  38  62  82 101 136 188 235 267 304
#     4  11  24  37  51  80 120 154 178 209 264 331
#     4   8  13  25  44  59  83 130 173 203 242 295
#     4   9  20  39  59  78 105 143 182 219 267 326
#
# _framework density 23.753118000000001
#
# number of rings (size 3 to 8) (size 9 to 14) (size 15 to 20)
#    0.000    2.500    1.250    3.750    0.000    7.500 
#    0.000    5.000    0.000    1.500    0.000    1.750 
#    0.000    0.000    0.000    0.000    0.000    0.000 
#
# Total GULP energy -356302.765307 kJ/mol
# GULP energy per Si atom -5567.230708 kJ/mol
# Density = 2.369905 g / cm^3
# Si number density = 23.753118 Si / 1000 Ang^3
#
#
#
# Elastic Constant Matrix: (Units=GPa)
#
#
# Indices 1 2 3 4 5 6 
#
# 1 37.1302 18.9565 -12.2042 0.0000 0.0000 0.0000
# 2 18.9565 179.3545 11.0815 0.0000 0.0000 0.0000
# 3 -12.2042 11.0815 27.2380 0.0000 0.0000 0.0000
# 4 0.0000 0.0000 0.0000 13.6945 0.0000 0.0000
# 5 0.0000 0.0000 0.0000 0.0000 35.1847 0.0000
# 6 0.0000 0.0000 0.0000 0.0000 0.0000 11.0865
#
#
#
# Elastic Compliance Matrix: (Units=1/GPa)
#
#
# Indices 1 2 3 4 5 6 
#
# 1 0.035225 -0.004819 0.017743 0.000000 0.000000 0.000000
# 2 -0.004819 0.006379 -0.004754 0.000000 0.000000 0.000000
# 3 0.017743 -0.004754 0.046598 0.000000 0.000000 0.000000
# 4 0.000000 0.000000 0.000000 0.073022 0.000000 0.000000
# 5 0.000000 0.000000 0.000000 0.000000 0.028421 0.000000
# 6 0.000000 0.000000 0.000000 0.000000 0.000000 0.090200
#
#
# Mechanical properties :
#
#
# Convention : Reuss Voigt Hill
#
# Bulk Modulus (GPa) = 9.56569 31.04337 20.30453
# Shear Modulus (GPa) = 16.75875 27.05241 21.90558
#
# Velocity S-wave (km/s) = 2.65908 3.37842 3.04010
# Velocity P-wave (km/s) = 3.66926 5.32126 4.57052
#
# Compressibility (1/GPa) = 0.10454028
#
# Stress axis : x y z
#
# Youngs Moduli (GPa) = 28.38918 156.77255 21.46030
#
# Poissons Ratio (x) = 0.75553 -0.38078
# Poissons Ratio (y) = 0.13682 0.10203
# Poissons Ratio (z) = -0.50372 0.74536
#
# Static dielectric constant tensor:
#      x y z
#    x 2.000060 0.000000 0.000000 
#    y 0.000000 2.103180 0.000000 
#    z 0.000000 0.000000 1.984610 
# 
# From -- ./inp_files/8740.got.cif
#   From: 2010.05.17/outbox.cif.g08.bks.cpg/sg51_5_cif.got.tgz:8740.got - 2010.06.03 11:52:47.
