data_PCOD9407987
_publ_section_title
;
Structure prediction by ZEFSAII (Michael W. Deem and Ramdas Pophale) SiO2 
 PCOD9407987
Probable space group: P N N A
;
_chemical_formula_sum "Si O2"
_cell_formula_units_Z 32
_cell_length_a 5.307255
_cell_length_b 7.215136
_cell_length_c 35.095366
_cell_angle_alpha 90.000000
_cell_angle_beta 90.000000
_cell_angle_gamma 90.000000
_cell_volume 1343.891640
_symmetry_space_group_name_H-M "P N N A"
_symmetry_group_IT_number 52
_symmetry_cell_setting 'orthorhombic'
loop_
_space_group_symop_operation_xyz
x,y,z
1/2-x,-y,z
x,1/2-y,1/2-z
1/2-x,1/2+y,1/2-z
-x,-y,-z
1/2+x,y,-z
-x,1/2+y,1/2+z
1/2+x,1/2-y,1/2+z
loop_
_atom_site_type_symbol
_atom_site_label
_atom_site_fract_x
_atom_site_fract_y
_atom_site_fract_z
Si Si1 0.998402 0.381622 0.785380
Si Si2 0.708919 0.716047 0.397813
Si Si3 0.525345 0.787732 0.015636
Si Si4 0.706458 0.720882 0.636479
O O1 0.250000 0.500000 0.793351
O O2 0.059764 0.250000 0.750000
O O3 0.750000 0.500000 0.774729
O O4 0.907921 0.269434 0.822614
O O5 0.750000 0.500000 0.387225
O O6 0.608433 0.718608 0.440732
O O7 0.486631 0.797688 0.371521
O O8 0.992047 0.789789 0.392954
O O9 0.252121 0.705244 0.008746
O O10 0.500000 0.000000 0.000000
O O11 0.750000 0.500000 0.632611
#
# Coordination Sequence:
#
# PCOD9407987 Si02
#       4
#     8   8   8   8
#     4  12  26  46  72  97 130 166 218 263 322 394
#     4  10  18  30  49  79 122 171 198 254 312 385
#     4  10  17  24  42  69 117 166 204 243 318 372
#     4  10  22  37  59  89 127 166 205 255 327 372
#
# _framework density 23.811443000000001
#
# number of rings (size 3 to 8) (size 9 to 14) (size 15 to 20)
#    0.000    1.500    2.500    4.500    7.000    3.000 
#    0.000    0.000    0.000    0.000    0.000    0.000 
#    0.000   70.000    0.000    0.000    0.000    0.000 
#
# Total GULP energy -178815.393394 kJ/mol
# GULP energy per Si atom -5587.981044 kJ/mol
# Density = 2.375725 g / cm^3
# Si number density = 23.811443 Si / 1000 Ang^3
#
#
#
# Elastic Constant Matrix: (Units=GPa)
#
#
# Indices 1 2 3 4 5 6 
#
# 1 237.8384 50.6027 82.8157 0.0000 0.0000 0.0000
# 2 50.6027 69.0862 -0.2712 0.0000 0.0000 0.0000
# 3 82.8157 -0.2712 130.4521 0.0000 0.0000 0.0000
# 4 0.0000 0.0000 0.0000 -3.5205 0.0000 0.0000
# 5 0.0000 0.0000 0.0000 0.0000 44.7770 0.0000
# 6 0.0000 0.0000 0.0000 0.0000 0.0000 -2.0315
#
#
#
# Elastic Compliance Matrix: (Units=1/GPa)
#
#
# Indices 1 2 3 4 5 6 
#
# 1 0.006759 -0.004968 -0.004301 0.000000 0.000000 0.000000
# 2 -0.004968 0.018126 0.003191 0.000000 0.000000 0.000000
# 3 -0.004301 0.003191 0.010403 0.000000 0.000000 0.000000
# 4 0.000000 0.000000 0.000000 -0.284047 0.000000 0.000000
# 5 0.000000 0.000000 0.000000 0.000000 0.022333 0.000000
# 6 0.000000 0.000000 0.000000 0.000000 0.000000 -0.492255
#
#
# Mechanical properties :
#
#
# Convention : Reuss Voigt Hill
#
# Bulk Modulus (GPa) = 43.22901 78.18568 60.70734
# Shear Modulus (GPa) = -7.15497 28.12696 10.48599
#
# Velocity S-wave (km/s) = -1.73533 3.44064 2.10079
# Velocity P-wave (km/s) = 3.76550 6.97787 5.60668
#
# Compressibility (1/GPa) = 0.02313262
#
# Stress axis : x y z
#
# Youngs Moduli (GPa) = 147.94684 55.16992 96.12705
#
# Poissons Ratio (x) = 0.27407 0.41347
# Poissons Ratio (y) = 0.73495 -0.30678
# Poissons Ratio (z) = 0.63636 -0.17607
#
# Static dielectric constant tensor:
#      x y z
#    x 1.956480 0.000000 0.000000 
#    y 0.000000 1.905540 0.000000 
#    z 0.000000 0.000000 1.871630 
# 
# From -- ./inp_files/43564.got.cif
#   From: 2010.05.17/outbox.cif.g08.bks.cpg/sg52_22_cif.got.tgz:43564.got - 2010.06.03 12:15:38.
