data_PCOD9407894
_publ_section_title
;
Structure prediction by ZEFSAII (Michael W. Deem and Ramdas Pophale) SiO2 
 PCOD9407894
Probable space group: P N N A
;
_chemical_formula_sum "Si O2"
_cell_formula_units_Z 32
_cell_length_a 8.525552
_cell_length_b 5.545686
_cell_length_c 34.948688
_cell_angle_alpha 90.000000
_cell_angle_beta 90.000000
_cell_angle_gamma 90.000000
_cell_volume 1652.375170
_symmetry_space_group_name_H-M "P N N A"
_symmetry_group_IT_number 52
_symmetry_cell_setting 'orthorhombic'
loop_
_space_group_symop_operation_xyz
x,y,z
1/2-x,-y,z
x,1/2-y,1/2-z
1/2-x,1/2+y,1/2-z
-x,-y,-z
1/2+x,y,-z
-x,1/2+y,1/2+z
1/2+x,1/2-y,1/2+z
loop_
_atom_site_type_symbol
_atom_site_label
_atom_site_fract_x
_atom_site_fract_y
_atom_site_fract_z
Si Si1 0.509711 0.177887 0.464677
Si Si2 0.250000 0.000000 0.226565
Si Si3 0.059890 0.994116 0.380984
Si Si4 0.070303 0.005762 0.151812
Si Si5 0.250000 0.000000 0.999257
O O1 0.378310 0.380555 0.473028
O O2 0.674982 0.305821 0.470853
O O3 0.500000 0.000000 0.500000
O O4 0.479404 0.043626 0.425312
O O5 0.258870 0.250000 0.250000
O O6 0.397165 0.982194 0.197207
O O7 0.998486 0.247843 0.364378
O O8 0.250000 0.000000 0.375692
O O9 0.000052 0.751096 0.360020
O O10 0.250000 0.000000 0.135374
#
# Coordination Sequence:
#
# PCOD9407894 Si02
#       5
#     8   4   8   8   4
#     4  11  23  37  55  75 104 144 194 248 292 333
#     4  10  16  27  46  68 106 144 176 218 254 334
#     4  10  18  31  50  68 102 138 182 233 261 334
#     4   8  18  28  42  72  97 133 187 205 265 328
#     4  10  24  37  52  78 102 132 204 240 300 340
#
# _framework density 19.366060999999998
#
# number of rings (size 3 to 8) (size 9 to 14) (size 15 to 20)
#    0.750    1.500    0.000    3.750   12.250    0.000 
#    0.000    0.000    0.000    0.000    0.000    0.000 
#    0.000    0.000    0.000    6.750    4.000    3.250 
#
# Total GULP energy -178249.475274 kJ/mol
# GULP energy per Si atom -5570.296102 kJ/mol
# Density = 1.932198 g / cm^3
# Si number density = 19.366061 Si / 1000 Ang^3
#
#
#
# Elastic Constant Matrix: (Units=GPa)
#
#
# Indices 1 2 3 4 5 6 
#
# 1 8.9463 4.4019 1.7515 0.0000 0.0000 0.0000
# 2 4.4019 193.2335 93.6065 0.0000 0.0000 0.0000
# 3 1.7515 93.6065 124.4954 0.0000 0.0000 0.0000
# 4 0.0000 0.0000 0.0000 43.0499 0.0000 0.0000
# 5 0.0000 0.0000 0.0000 0.0000 14.2333 0.0000
# 6 0.0000 0.0000 0.0000 0.0000 0.0000 5.0246
#
#
#
# Elastic Compliance Matrix: (Units=1/GPa)
#
#
# Indices 1 2 3 4 5 6 
#
# 1 0.113068 -0.002839 0.000544 0.000000 0.000000 0.000000
# 2 -0.002839 0.008211 -0.006134 0.000000 0.000000 0.000000
# 3 0.000544 -0.006134 0.012637 0.000000 0.000000 0.000000
# 4 0.000000 0.000000 0.000000 0.023229 0.000000 0.000000
# 5 0.000000 0.000000 0.000000 0.000000 0.070258 0.000000
# 6 0.000000 0.000000 0.000000 0.000000 0.000000 0.199019
#
#
# Mechanical properties :
#
#
# Convention : Reuss Voigt Hill
#
# Bulk Modulus (GPa) = 8.54276 58.46613 33.50445
# Shear Modulus (GPa) = 10.36699 27.58926 18.97813
#
# Velocity S-wave (km/s) = 2.31620 3.77851 3.13384
# Velocity P-wave (km/s) = 3.40204 7.02080 5.51659
#
# Compressibility (1/GPa) = 0.11705815
#
# Stress axis : x y z
#
# Youngs Moduli (GPa) = 8.84420 121.78523 79.13400
#
# Poissons Ratio (x) = 0.34579 -0.04306
# Poissons Ratio (y) = 0.02511 0.48540
# Poissons Ratio (z) = -0.00481 0.74702
#
# Static dielectric constant tensor:
#      x y z
#    x 1.792900 0.000000 0.000000 
#    y 0.000000 1.748220 0.000000 
#    z 0.000000 0.000000 1.653830 
# 
# From -- ./inp_files/44045.got.cif
#   From: 2010.05.17/outbox.cif.g08.bks.cpg/sg52_23_cif.got.tgz:44045.got - 2010.06.03 12:15:38.
