data_PCOD9407299
_publ_section_title
;
Structure prediction by ZEFSAII (Michael W. Deem and Ramdas Pophale) SiO2 
 PCOD9407299
Probable space group: P M M A
;
_chemical_formula_sum "Si O2"
_cell_formula_units_Z 48
_cell_length_a 14.665817
_cell_length_b 7.458755
_cell_length_c 22.066663
_cell_angle_alpha 90.000000
_cell_angle_beta 90.000000
_cell_angle_gamma 90.000000
_cell_volume 2413.844371
_symmetry_space_group_name_H-M "P M M A"
_symmetry_group_IT_number 51
_symmetry_cell_setting 'orthorhombic'
loop_
_space_group_symop_operation_xyz
x,y,z
1/2-x,-y,z
1/2+x,-y,-z
-x,y,-z
-x,-y,-z
1/2+x,y,-z
1/2-x,y,z
x,-y,z
loop_
_atom_site_type_symbol
_atom_site_label
_atom_site_fract_x
_atom_site_fract_y
_atom_site_fract_z
Si Si1 0.496841 0.713848 0.735518
Si Si2 0.503332 0.786570 0.931903
Si Si3 0.646407 0.284063 0.165390
Si Si4 0.146217 0.281364 0.499227
Si Si5 0.353474 0.215561 0.167088
Si Si6 0.000862 0.281110 0.598171
O O1 0.484219 0.500000 0.731425
O O2 0.415354 0.783169 0.778552
O O3 0.590392 0.744798 0.771894
O O4 0.497776 0.783086 0.667094
O O5 0.409682 0.758683 0.895346
O O6 0.584396 0.715992 0.888697
O O7 0.518053 0.000000 0.936482
O O8 0.500000 0.714062 0.000000
O O9 0.750000 0.217918 0.165484
O O10 0.649504 0.500000 0.169806
O O11 0.250000 0.219431 0.499039
O O12 0.147408 0.500000 0.499132
O O13 0.087689 0.226209 0.440551
O O14 0.088653 0.227570 0.558486
O O15 0.250000 0.282730 0.167193
O O16 0.349846 0.000000 0.161958
O O17 0.000090 0.500000 0.599112
#
# Coordination Sequence:
#
# PCOD9407299 Si02
#       6
#     8   8   8   8   8   8
#     4   9  17  29  45  65  89 116 148 184 217 254
#     4   9  18  32  50  70  89 112 145 183 220 259
#     4   9  18  31  45  64  92 122 149 179 217 260
#     4   8  13  21  33  52  81 112 139 172 215 257
#     4   9  18  32  47  64  89 117 143 175 217 263
#     4   8  14  23  35  55  82 110 140 174 213 254
#
# _framework density 19.885290999999999
#
# number of rings (size 3 to 8) (size 9 to 14) (size 15 to 20)
#    0.000    3.333    0.000    1.000    0.000    3.000 
#    0.000    6.667    0.000    0.000    0.000    2.333 
#    0.000    1.333    0.000    0.000    0.000    0.000 
#
# Total GULP energy -267668.316898 kJ/mol
# GULP energy per Si atom -5576.423269 kJ/mol
# Density = 1.984003 g / cm^3
# Si number density = 19.885291 Si / 1000 Ang^3
#
#
#
# Elastic Constant Matrix: (Units=GPa)
#
#
# Indices 1 2 3 4 5 6 
#
# 1 202.5083 -4.0433 123.3601 0.0000 0.0000 0.0000
# 2 -4.0433 56.3398 7.4819 0.0000 0.0000 0.0000
# 3 123.3601 7.4819 220.8795 0.0000 0.0000 0.0000
# 4 0.0000 0.0000 0.0000 -8.4377 0.0000 0.0000
# 5 0.0000 0.0000 0.0000 0.0000 6.2457 0.0000
# 6 0.0000 0.0000 0.0000 0.0000 0.0000 13.0445
#
#
#
# Elastic Compliance Matrix: (Units=1/GPa)
#
#
# Indices 1 2 3 4 5 6 
#
# 1 0.007552 0.001107 -0.004256 0.000000 0.000000 0.000000
# 2 0.001107 0.017992 -0.001228 0.000000 0.000000 0.000000
# 3 -0.004256 -0.001228 0.006946 0.000000 0.000000 0.000000
# 4 0.000000 0.000000 0.000000 -0.118515 0.000000 0.000000
# 5 0.000000 0.000000 0.000000 0.000000 0.160109 0.000000
# 6 0.000000 0.000000 0.000000 0.000000 0.000000 0.076661
#
#
# Mechanical properties :
#
#
# Convention : Reuss Voigt Hill
#
# Bulk Modulus (GPa) = 42.12705 81.48057 61.80381
# Shear Modulus (GPa) = 29.86683 25.69908 27.78296
#
# Velocity S-wave (km/s) = 3.87971 3.59885 3.74192
# Velocity P-wave (km/s) = 6.42655 7.63762 7.05811
#
# Compressibility (1/GPa) = 0.02373772
#
# Stress axis : x y z
#
# Youngs Moduli (GPa) = 132.40698 55.58047 143.97535
#
# Poissons Ratio (x) = -0.06154 0.61269
# Poissons Ratio (y) = -0.14659 0.17677
# Poissons Ratio (z) = 0.56346 0.06824
#
# Static dielectric constant tensor:
#      x y z
#    x 1.674540 0.000000 0.000000 
#    y 0.000000 1.764780 0.000000 
#    z 0.000000 0.000000 1.680560 
# 
# From -- ./inp_files/33187.got.cif
#   From: 2010.05.17/outbox.cif.g08.bks.cpg/sg51_17_cif.got.tgz:33187.got - 2010.06.03 11:52:47.
