data_PCOD9407314
_publ_section_title
;
Structure prediction by ZEFSAII (Michael W. Deem and Ramdas Pophale) SiO2 
 PCOD9407314
Probable space group: P M M A
;
_chemical_formula_sum "Si O2"
_cell_formula_units_Z 40
_cell_length_a 7.388834
_cell_length_b 14.299496
_cell_length_c 19.408652
_cell_angle_alpha 90.000000
_cell_angle_beta 90.000000
_cell_angle_gamma 90.000000
_cell_volume 2050.652224
_symmetry_space_group_name_H-M "P M M A"
_symmetry_group_IT_number 51
_symmetry_cell_setting 'orthorhombic'
loop_
_space_group_symop_operation_xyz
x,y,z
1/2-x,-y,z
1/2+x,-y,-z
-x,y,-z
-x,-y,-z
1/2+x,y,-z
1/2-x,y,z
x,-y,z
loop_
_atom_site_type_symbol
_atom_site_label
_atom_site_fract_x
_atom_site_fract_y
_atom_site_fract_z
Si Si1 0.965428 0.707674 0.421918
Si Si2 0.971037 0.604751 0.285641
Si Si3 0.466225 0.106745 0.922729
Si Si4 0.029551 0.104925 0.646767
Si Si5 0.970369 0.208111 0.213314
O O1 0.750000 0.711296 0.413546
O O2 0.029650 0.638158 0.361996
O O3 0.031956 0.812715 0.404508
O O4 0.000000 0.679752 0.500000
O O5 0.750000 0.603646 0.285063
O O6 0.031773 0.500000 0.270006
O O7 0.027767 0.687385 0.234070
O O8 0.250000 0.101509 0.914699
O O9 0.534143 0.169390 0.859818
O O10 0.536351 0.000000 0.918536
O O11 0.500000 0.142202 0.000000
O O12 0.250000 0.102793 0.644864
O O13 0.979130 0.139609 0.723554
O O14 0.966443 0.000000 0.632199
O O15 0.750000 0.209129 0.212524
#
# Coordination Sequence:
#
# PCOD9407314 Si02
#       5
#     8   8   8   8   8
#     4   9  17  27  39  57  79 101 126 157 194 234
#     4   8  14  25  41  60  78  96 125 166 202 226
#     4   9  16  25  39  61  86 108 129 154 186 225
#     4   8  13  22  37  56  76  99 129 163 193 220
#     4   8  13  22  38  58  77  99 130 164 192 221
#
# _framework density 19.505987999999999
#
# number of rings (size 3 to 8) (size 9 to 14) (size 15 to 20)
#    0.000    3.600    0.000    3.000    0.000    3.200 
#    0.000    0.000    0.000    5.400    0.000    0.000 
#    0.000    0.000    0.000    0.000    0.000    0.000 
#
# Total GULP energy -222968.496967 kJ/mol
# GULP energy per Si atom -5574.212424 kJ/mol
# Density = 1.946159 g / cm^3
# Si number density = 19.505988 Si / 1000 Ang^3
#
#
#
# Elastic Constant Matrix: (Units=GPa)
#
#
# Indices 1 2 3 4 5 6 
#
# 1 64.9396 3.9843 -2.3101 0.0000 0.0000 0.0000
# 2 3.9843 91.3360 32.2393 0.0000 0.0000 0.0000
# 3 -2.3101 32.2393 118.8985 0.0000 0.0000 0.0000
# 4 0.0000 0.0000 0.0000 11.9763 0.0000 0.0000
# 5 0.0000 0.0000 0.0000 0.0000 14.4588 0.0000
# 6 0.0000 0.0000 0.0000 0.0000 0.0000 -9.9151
#
#
#
# Elastic Compliance Matrix: (Units=1/GPa)
#
#
# Indices 1 2 3 4 5 6 
#
# 1 0.015471 -0.000864 0.000535 0.000000 0.000000 0.000000
# 2 -0.000864 0.012156 -0.003313 0.000000 0.000000 0.000000
# 3 0.000535 -0.003313 0.009319 0.000000 0.000000 0.000000
# 4 0.000000 0.000000 0.000000 0.083498 0.000000 0.000000
# 5 0.000000 0.000000 0.000000 0.000000 0.069162 0.000000
# 6 0.000000 0.000000 0.000000 0.000000 0.000000 -0.100856
#
#
# Mechanical properties :
#
#
# Convention : Reuss Voigt Hill
#
# Bulk Modulus (GPa) = 33.71271 38.11126 35.91198
# Shear Modulus (GPa) = 47.20543 19.38805 33.29674
#
# Velocity S-wave (km/s) = 4.92474 3.15612 4.13607
# Velocity P-wave (km/s) = 7.04685 5.73255 6.42341
#
# Compressibility (1/GPa) = 0.02966241
#
# Stress axis : x y z
#
# Youngs Moduli (GPa) = 64.63732 82.26673 107.30558
#
# Poissons Ratio (x) = 0.07105 -0.05738
# Poissons Ratio (y) = 0.05582 0.35548
# Poissons Ratio (z) = -0.03457 0.27253
#
# Static dielectric constant tensor:
#      x y z
#    x 1.761990 0.000000 0.000000 
#    y 0.000000 1.673650 0.000000 
#    z 0.000000 0.000000 1.668090 
# 
# From -- ./inp_files/15330.got.cif
#   From: 2010.05.17/outbox.cif.g08.bks.cpg/sg51_8_cif.got.tgz:15330.got - 2010.06.03 11:52:47.
