data_PCOD9407784
_publ_section_title
;
Structure prediction by ZEFSAII (Michael W. Deem and Ramdas Pophale) SiO2 
 PCOD9407784
Probable space group: P M M A
;
_chemical_formula_sum "Si O2"
_cell_formula_units_Z 48
_cell_length_a 15.000000
_cell_length_b 9.000000
_cell_length_c 18.000000
_cell_angle_alpha 90.000000
_cell_angle_beta 90.000000
_cell_angle_gamma 90.000000
_cell_volume 2430.000000
_symmetry_space_group_name_H-M "P M M A"
_symmetry_group_IT_number 51
_symmetry_cell_setting 'orthorhombic'
loop_
_space_group_symop_operation_xyz
x,y,z
1/2-x,-y,z
1/2+x,-y,-z
-x,y,-z
-x,-y,-z
1/2+x,y,-z
1/2-x,y,z
x,-y,z
loop_
_atom_site_type_symbol
_atom_site_label
_atom_site_fract_x
_atom_site_fract_y
_atom_site_fract_z
Si Si1 0.750000 0.676163 0.225390
Si Si2 0.917194 0.671996 0.444184
Si Si3 0.250000 0.324408 0.312192
Si Si4 0.927680 0.177519 0.288000
Si Si5 0.250000 0.178166 0.473982
Si Si6 0.250000 0.170201 0.929181
Si Si7 0.088510 0.175336 0.042976
Si Si8 0.586268 0.323135 0.799624
O O1 0.750000 0.500000 0.236856
O O2 0.664762 0.752365 0.261881
O O3 0.750000 0.716951 0.138463
O O4 0.893195 0.500000 0.427579
O O5 0.945347 0.755853 0.369386
O O6 0.835559 0.755034 0.483746
O O7 0.000000 0.671234 0.500000
O O8 0.250000 0.500000 0.332277
O O9 0.250000 0.232340 0.388241
O O10 0.334891 0.295960 0.259548
O O11 0.001541 0.234658 0.230663
O O12 0.924321 0.000000 0.289787
O O13 0.250000 0.000000 0.477501
O O14 0.250000 0.000000 0.899257
O O15 0.166099 0.187948 0.982824
O O16 0.107672 0.265148 0.117920
O O17 0.078248 0.000000 0.062407
O O18 0.000000 0.225693 0.000000
O O19 0.569354 0.500000 0.801321
#
# Coordination Sequence:
#
# PCOD9407784 Si02
#       8
#     4   8   4   8   4   4   8   8
#     4  12  25  42  65  92 123 160 205 252 303 366
#     4  11  24  43  66  91 123 162 203 250 304 361
#     4  10  23  42  62  88 125 164 202 250 305 358
#     4  12  25  42  64  91 125 161 202 253 306 362
#     4  12  25  40  63  94 125 160 203 250 301 360
#     4  10  21  38  60  88 123 160 200 248 305 364
#     4  10  21  37  58  85 119 159 200 246 302 361
#     4  11  23  40  63  91 123 162 208 254 303 360
#
# _framework density 19.753086
#
# number of rings (size 3 to 8) (size 9 to 14) (size 15 to 20)
#    0.000    1.000    0.000    7.000    0.000    9.000 
#    0.000    0.000    0.000    0.000    0.000    0.000 
#    0.000    0.000    0.000    0.000    0.000    0.000 
#
# Total GULP energy -268581.147946 kJ/mol
# GULP energy per Si atom -5595.440582 kJ/mol
# Density = 1.970813 g / cm^3
# Si number density = 19.753086 Si / 1000 Ang^3
#
#
#
# Elastic Constant Matrix: (Units=GPa)
#
#
# Indices 1 2 3 4 5 6 
#
# 1 42.2317 -4.0556 -44.0816 0.0000 0.0000 0.0000
# 2 -4.0556 112.0641 7.8987 0.0000 0.0000 0.0000
# 3 -44.0816 7.8987 46.1607 0.0000 0.0000 0.0000
# 4 0.0000 0.0000 0.0000 42.1706 0.0000 0.0000
# 5 0.0000 0.0000 0.0000 0.0000 -13.4091 0.0000
# 6 0.0000 0.0000 0.0000 0.0000 0.0000 20.3006
#
#
#
# Elastic Compliance Matrix: (Units=1/GPa)
#
#
# Indices 1 2 3 4 5 6 
#
# 1 38.922026 -1.226000 37.378779 0.000000 0.000000 0.000000
# 2 -1.226000 0.047650 -1.178935 0.000000 0.000000 0.000000
# 3 37.378779 -1.178935 35.918649 0.000000 0.000000 0.000000
# 4 0.000000 0.000000 0.000000 0.023713 0.000000 0.000000
# 5 0.000000 0.000000 0.000000 0.000000 -0.074576 0.000000
# 6 0.000000 0.000000 0.000000 0.000000 0.000000 0.049260
#
#
# Mechanical properties :
#
#
# Convention : Reuss Voigt Hill
#
# Bulk Modulus (GPa) = 0.00690 13.33105 6.66897
# Shear Modulus (GPa) = 0.09395 25.85876 12.97636
#
# Velocity S-wave (km/s) = 0.21833 3.62207 2.56584
# Velocity P-wave (km/s) = 0.25896 4.92504 3.48734
#
# Compressibility (1/GPa) = 144.83601220
#
# Stress axis : x y z
#
# Youngs Moduli (GPa) = 0.02569 20.98635 0.02784
#
# Poissons Ratio (x) = 25.72926 -1.04065
# Poissons Ratio (y) = 0.03150 0.03282
# Poissons Ratio (z) = -0.96035 24.74154
#
# Static dielectric constant tensor:
#      x y z
#    x 1.678090 0.000000 0.000000 
#    y 0.000000 1.666540 0.000000 
#    z 0.000000 0.000000 1.652840 
# 
# From -- ./inp_files/29686.got.cif
#   From: 2010.05.17/outbox.ucp.g08.bks.cvg/sg51_15_cif.got.tgz:29686.got - 2010.06.11 16:27:58.
