data_PCOD9407062
_publ_section_title
;
Structure prediction by ZEFSAII (Michael W. Deem and Ramdas Pophale) SiO2 
 PCOD9407062
Probable space group: P M M A
;
_chemical_formula_sum "Si O2"
_cell_formula_units_Z 56
_cell_length_a 8.901927
_cell_length_b 19.640364
_cell_length_c 18.839493
_cell_angle_alpha 90.000000
_cell_angle_beta 90.000000
_cell_angle_gamma 90.000000
_cell_volume 3293.842069
_symmetry_space_group_name_H-M "P M M A"
_symmetry_group_IT_number 51
_symmetry_cell_setting 'orthorhombic'
loop_
_space_group_symop_operation_xyz
x,y,z
1/2-x,-y,z
1/2+x,-y,-z
-x,y,-z
-x,-y,-z
1/2+x,y,-z
1/2-x,y,z
x,-y,z
loop_
_atom_site_type_symbol
_atom_site_label
_atom_site_fract_x
_atom_site_fract_y
_atom_site_fract_z
Si Si1 0.570721 0.713697 0.424604
Si Si2 0.069466 0.921674 0.208821
Si Si3 0.431059 0.423943 0.193462
Si Si4 0.071632 0.719533 0.145380
Si Si5 0.071539 0.847157 0.925006
Si Si6 0.072544 0.793035 0.296619
Si Si7 0.568992 0.424092 0.350275
O O1 0.500000 0.731162 0.500000
O O2 0.750000 0.714021 0.430053
O O3 0.518584 0.763859 0.362196
O O4 0.520506 0.637825 0.400085
O O5 0.250000 0.915524 0.198508
O O6 0.030137 0.868980 0.271441
O O7 0.990414 0.895089 0.137686
O O8 0.033365 0.000000 0.223622
O O9 0.250000 0.420762 0.200300
O O10 0.471444 0.500000 0.167736
O O11 0.475301 0.359412 0.145747
O O12 0.500445 0.415780 0.271812
O O13 0.250000 0.725266 0.129567
O O14 0.050719 0.746783 0.226153
O O15 0.982026 0.770842 0.095511
O O16 0.250000 0.850422 0.928264
O O17 0.000000 0.866451 0.000000
O O18 0.250000 0.791300 0.313478
O O19 0.750000 0.421289 0.344207
O O20 0.527286 0.500000 0.375928
#
# Coordination Sequence:
#
# PCOD9407062 Si02
#       7
#     8   8   8   8   8   8   8
#     4  11  22  33  48  69  97 134 174 216 261 305
#     4   9  19  37  60  84 109 137 165 197 243 297
#     4   9  16  27  47  73  98 128 167 211 258 306
#     4   9  17  31  51  74 102 134 170 212 256 302
#     4  11  22  35  53  78 109 142 174 206 244 291
#     4   9  17  32  53  76 101 129 163 205 248 298
#     4   9  18  31  45  65  96 131 168 212 260 307
#
# _framework density 17.001422000000002
#
# number of rings (size 3 to 8) (size 9 to 14) (size 15 to 20)
#    0.000    2.429    1.429    2.571    0.000    4.286 
#    0.000    0.000    0.000    0.857    0.000    0.000 
#    0.000    0.000    0.000    0.000    0.000    0.000 
#
# Total GULP energy -312298.823228 kJ/mol
# GULP energy per Si atom -5576.764700 kJ/mol
# Density = 1.696273 g / cm^3
# Si number density = 17.001422 Si / 1000 Ang^3
#
#
#
# Elastic Constant Matrix: (Units=GPa)
#
#
# Indices 1 2 3 4 5 6 
#
# 1 37.7612 38.2035 30.7043 0.0000 0.0000 0.0000
# 2 38.2035 126.1261 37.4476 0.0000 0.0000 0.0000
# 3 30.7043 37.4476 57.7489 0.0000 0.0000 0.0000
# 4 0.0000 0.0000 0.0000 12.8966 0.0000 0.0000
# 5 0.0000 0.0000 0.0000 0.0000 24.2998 0.0000
# 6 0.0000 0.0000 0.0000 0.0000 0.0000 21.3228
#
#
#
# Elastic Compliance Matrix: (Units=1/GPa)
#
#
# Indices 1 2 3 4 5 6 
#
# 1 0.055096 -0.009896 -0.022876 0.000000 0.000000 0.000000
# 2 -0.009896 0.011597 -0.002258 0.000000 0.000000 0.000000
# 3 -0.022876 -0.002258 0.030944 0.000000 0.000000 0.000000
# 4 0.000000 0.000000 0.000000 0.077540 0.000000 0.000000
# 5 0.000000 0.000000 0.000000 0.000000 0.041153 0.000000
# 6 0.000000 0.000000 0.000000 0.000000 0.000000 0.046898
#
#
# Mechanical properties :
#
#
# Convention : Reuss Voigt Hill
#
# Bulk Modulus (GPa) = 36.26551 48.26079 42.26315
# Shear Modulus (GPa) = 14.59943 19.38924 16.99433
#
# Velocity S-wave (km/s) = 2.93357 3.38072 3.16505
# Velocity P-wave (km/s) = 5.73163 6.60961 6.18622
#
# Compressibility (1/GPa) = 0.02757441
#
# Stress axis : x y z
#
# Youngs Moduli (GPa) = 18.15026 86.23199 32.31677
#
# Poissons Ratio (x) = 0.85338 0.73929
# Poissons Ratio (y) = 0.17962 0.07298
# Poissons Ratio (z) = 0.41521 0.19472
#
# Static dielectric constant tensor:
#      x y z
#    x 1.563520 0.000000 0.000000 
#    y 0.000000 1.608760 0.000000 
#    z 0.000000 0.000000 1.534850 
# 
# From -- ./inp_files/21819.got.cif
#   From: 2010.05.17/outbox.cif.g08.bks.cpg/sg51_11_cif.got.tgz:21819.got - 2010.06.03 11:52:47.
