data_PCOD9407099
_publ_section_title
;
Structure prediction by ZEFSAII (Michael W. Deem and Ramdas Pophale) SiO2 
 PCOD9407099
Probable space group: P M M A
;
_chemical_formula_sum "Si O2"
_cell_formula_units_Z 64
_cell_length_a 14.592905
_cell_length_b 8.727712
_cell_length_c 26.401907
_cell_angle_alpha 90.000000
_cell_angle_beta 90.000000
_cell_angle_gamma 90.000000
_cell_volume 3362.617424
_symmetry_space_group_name_H-M "P M M A"
_symmetry_group_IT_number 51
_symmetry_cell_setting 'orthorhombic'
loop_
_space_group_symop_operation_xyz
x,y,z
1/2-x,-y,z
1/2+x,-y,-z
-x,y,-z
-x,-y,-z
1/2+x,y,-z
1/2-x,y,z
x,-y,z
loop_
_atom_site_type_symbol
_atom_site_label
_atom_site_fract_x
_atom_site_fract_y
_atom_site_fract_z
Si Si1 0.644784 0.186623 0.470596
Si Si2 0.852202 0.682357 0.173580
Si Si3 0.643607 0.812437 0.678666
Si Si4 0.454614 0.186389 0.424902
Si Si5 0.398900 0.177306 0.934726
Si Si6 0.352255 0.327205 0.149214
Si Si7 0.478398 0.179066 0.226873
Si Si8 0.117265 0.178540 0.046215
O O1 0.750000 0.238689 0.461609
O O2 0.560709 0.234937 0.433677
O O3 0.607257 0.229822 0.526498
O O4 0.647258 0.000000 0.469047
O O5 0.750000 0.738240 0.185473
O O6 0.853686 0.500000 0.174660
O O7 0.875329 0.734003 0.116151
O O8 0.926069 0.743309 0.213341
O O9 0.750000 0.763368 0.681641
O O10 0.594201 0.764012 0.626681
O O11 0.581172 0.761341 0.725889
O O12 0.644988 0.000000 0.679509
O O13 0.456034 0.000000 0.424508
O O14 0.507841 0.180616 0.944484
O O15 0.371798 0.000000 0.927512
O O16 0.360002 0.229623 0.989113
O O17 0.250000 0.319753 0.170915
O O18 0.388405 0.500000 0.155587
O O19 0.416278 0.208148 0.177502
O O20 0.346658 0.284463 0.090532
O O21 0.494058 0.000000 0.234520
O O22 0.145143 0.000000 0.051646
#
# Coordination Sequence:
#
# PCOD9407099 Si02
#       8
#     8   8   8   8   8   8   8   8
#     4   8  12  18  31  53  85 127 170 210 254 305
#     4  11  24  40  58  79 102 131 168 210 259 314
#     4   9  17  29  46  68  94 127 169 216 262 306
#     4   8  13  21  34  56  87 125 171 217 258 304
#     4   9  18  34  56  81 106 133 165 202 248 304
#     4  11  23  36  52  77 107 137 169 207 255 310
#     4  11  22  37  56  76  99 130 172 220 264 308
#     4   9  18  33  54  80 108 136 165 200 248 305
#
# _framework density 19.032792000000001
#
# number of rings (size 3 to 8) (size 9 to 14) (size 15 to 20)
#    0.000    2.500    1.250    3.375    0.000    5.000 
#    0.000    4.375    0.000    2.250    0.000    0.000 
#    0.000    0.000    0.000    9.000    0.000   50.000 
#
# Total GULP energy -356760.840570 kJ/mol
# GULP energy per Si atom -5574.388134 kJ/mol
# Density = 1.898947 g / cm^3
# Si number density = 19.032792 Si / 1000 Ang^3
#
#
#
# Elastic Constant Matrix: (Units=GPa)
#
#
# Indices 1 2 3 4 5 6 
#
# 1 167.3908 18.4437 73.4152 0.0000 0.0000 0.0000
# 2 18.4437 12.4944 12.7688 0.0000 0.0000 0.0000
# 3 73.4152 12.7688 115.7185 0.0000 0.0000 0.0000
# 4 0.0000 0.0000 0.0000 -8.7780 0.0000 0.0000
# 5 0.0000 0.0000 0.0000 0.0000 -17.1588 0.0000
# 6 0.0000 0.0000 0.0000 0.0000 0.0000 15.1242
#
#
#
# Elastic Compliance Matrix: (Units=1/GPa)
#
#
# Indices 1 2 3 4 5 6 
#
# 1 0.008996 -0.008393 -0.004781 0.000000 0.000000 0.000000
# 2 -0.008393 0.098039 -0.005493 0.000000 0.000000 0.000000
# 3 -0.004781 -0.005493 0.012281 0.000000 0.000000 0.000000
# 4 0.000000 0.000000 0.000000 -0.113921 0.000000 0.000000
# 5 0.000000 0.000000 0.000000 0.000000 -0.058279 0.000000
# 6 0.000000 0.000000 0.000000 0.000000 0.000000 0.066119
#
#
# Mechanical properties :
#
#
# Convention : Reuss Voigt Hill
#
# Bulk Modulus (GPa) = 12.19788 56.09545 34.14666
# Shear Modulus (GPa) = 64.18741 10.56921 37.37831
#
# Velocity S-wave (km/s) = 5.81359 2.35907 4.43639
# Velocity P-wave (km/s) = 7.17542 6.07925 6.64996
#
# Compressibility (1/GPa) = 0.08198148
#
# Stress axis : x y z
#
# Youngs Moduli (GPa) = 111.16421 10.19999 81.42645
#
# Poissons Ratio (x) = 0.08561 0.38930
# Poissons Ratio (y) = 0.93300 0.44730
# Poissons Ratio (z) = 0.53148 0.05603
#
# Static dielectric constant tensor:
#      x y z
#    x 1.693010 0.000000 0.000000 
#    y 0.000000 1.640160 0.000000 
#    z 0.000000 0.000000 1.659040 
# 
# From -- ./inp_files/35627.got.cif
#   From: 2010.05.17/outbox.cif.g08.bks.cpg/sg51_18_cif.got.tgz:35627.got - 2010.06.03 11:52:47.
