data_PCOD9407971
_publ_section_title
;
Structure prediction by ZEFSAII (Michael W. Deem and Ramdas Pophale) SiO2 
 PCOD9407971
Probable space group: P N N A
;
_chemical_formula_sum "Si O2"
_cell_formula_units_Z 60
_cell_length_a 7.653791
_cell_length_b 24.029583
_cell_length_c 13.879590
_cell_angle_alpha 90.000000
_cell_angle_beta 90.000000
_cell_angle_gamma 90.000000
_cell_volume 2552.698191
_symmetry_space_group_name_H-M "P N N A"
_symmetry_group_IT_number 52
_symmetry_cell_setting 'orthorhombic'
loop_
_space_group_symop_operation_xyz
x,y,z
1/2-x,-y,z
x,1/2-y,1/2-z
1/2-x,1/2+y,1/2-z
-x,-y,-z
1/2+x,y,-z
-x,1/2+y,1/2+z
1/2+x,1/2-y,1/2+z
loop_
_atom_site_type_symbol
_atom_site_label
_atom_site_fract_x
_atom_site_fract_y
_atom_site_fract_z
Si Si1 0.959695 0.884204 0.091677
Si Si2 0.351415 0.136963 0.649550
Si Si3 0.052851 0.898801 0.303664
Si Si4 0.124983 0.948720 0.919605
Si Si5 0.093375 0.261539 0.570515
Si Si6 0.453475 0.019926 0.720497
Si Si7 0.299112 0.316562 0.061772
Si Si8 0.652705 0.750000 0.250000
O O1 0.761156 0.901669 0.116772
O O2 0.963441 0.823265 0.046517
O O3 0.066624 0.887171 0.190125
O O4 0.031090 0.925752 0.012226
O O5 0.447397 0.078408 0.666278
O O6 0.362216 0.154838 0.538077
O O7 0.420623 0.189321 0.714443
O O8 0.142166 0.124947 0.667808
O O9 0.200831 0.867060 0.363625
O O10 0.052675 0.965638 0.318006
O O11 0.001529 0.966667 0.831681
O O12 0.250000 0.000000 0.943526
O O13 0.155861 0.226483 0.478289
O O14 0.235531 0.264577 0.654637
O O15 0.934716 0.225758 0.610340
O O16 0.250000 0.000000 0.725120
#
# Coordination Sequence:
#
# PCOD9407971 Si02
#       8
#     8   8   8   8   8   8   8   4
#     4  12  22  39  68  96 131 173 218 272 347 408
#     4  10  19  36  63  90 118 165 219 258 317 399
#     4  11  20  39  65  91 123 179 212 267 334 405
#     4  11  21  38  65 100 130 168 216 275 331 414
#     4  11  21  37  59  92 122 165 215 269 322 392
#     4   9  18  36  61  91 123 164 220 256 317 406
#     4  11  22  37  62  91 125 165 222 271 312 391
#     4  10  16  34  62  82 114 168 218 252 322 400
#
# _framework density 23.504539999999999
#
# number of rings (size 3 to 8) (size 9 to 14) (size 15 to 20)
#    0.000    1.333    8.000    1.200    0.000    1.600 
#    0.000    1.333    0.000   11.200    0.000    0.000 
#    0.000    0.000    0.000    0.000    0.000    0.000 
#
# Total GULP energy -334948.593998 kJ/mol
# GULP energy per Si atom -5582.476567 kJ/mol
# Density = 2.345104 g / cm^3
# Si number density = 23.504540 Si / 1000 Ang^3
#
#
#
# Elastic Constant Matrix: (Units=GPa)
#
#
# Indices 1 2 3 4 5 6 
#
# 1 20.6659 34.4046 13.2904 0.0000 0.0000 0.0000
# 2 34.4046 184.5724 26.5533 0.0000 0.0000 0.0000
# 3 13.2904 26.5533 61.9618 0.0000 0.0000 0.0000
# 4 0.0000 0.0000 0.0000 45.1622 0.0000 0.0000
# 5 0.0000 0.0000 0.0000 0.0000 3.4647 0.0000
# 6 0.0000 0.0000 0.0000 0.0000 0.0000 -19.3666
#
#
#
# Elastic Compliance Matrix: (Units=1/GPa)
#
#
# Indices 1 2 3 4 5 6 
#
# 1 0.076592 -0.012696 -0.010988 0.000000 0.000000 0.000000
# 2 -0.012696 0.007878 -0.000653 0.000000 0.000000 0.000000
# 3 -0.010988 -0.000653 0.018776 0.000000 0.000000 0.000000
# 4 0.000000 0.000000 0.000000 0.022142 0.000000 0.000000
# 5 0.000000 0.000000 0.000000 0.000000 0.288626 0.000000
# 6 0.000000 0.000000 0.000000 0.000000 0.000000 -0.051635
#
#
# Mechanical properties :
#
#
# Convention : Reuss Voigt Hill
#
# Bulk Modulus (GPa) = 18.32433 46.18852 32.25643
# Shear Modulus (GPa) = 11.64841 18.71550 15.18196
#
# Velocity S-wave (km/s) = 2.22858 2.82485 2.54424
# Velocity P-wave (km/s) = 3.79936 5.50757 4.73119
#
# Compressibility (1/GPa) = 0.05457225
#
# Stress axis : x y z
#
# Youngs Moduli (GPa) = 13.05626 126.92863 53.26060
#
# Poissons Ratio (x) = 1.61150 0.58521
# Poissons Ratio (y) = 0.16576 0.03478
# Poissons Ratio (z) = 0.14346 0.08289
#
# Static dielectric constant tensor:
#      x y z
#    x 1.972000 0.000000 0.000000 
#    y 0.000000 1.913160 0.000000 
#    z 0.000000 0.000000 1.855720 
# 
# From -- ./inp_files/25085.got.cif
#   From: 2010.05.17/outbox.cif.g08.bks.cpg/sg52_13_cif.got.tgz:25085.got - 2010.06.03 12:15:38.
