data_PCOD9407944
_publ_section_title
;
Structure prediction by ZEFSAII (Michael W. Deem and Ramdas Pophale) SiO2 
 PCOD9407944
Probable space group: P N N A
;
_chemical_formula_sum "Si O2"
_cell_formula_units_Z 56
_cell_length_a 8.809916
_cell_length_b 15.053154
_cell_length_c 20.485813
_cell_angle_alpha 90.000000
_cell_angle_beta 90.000000
_cell_angle_gamma 90.000000
_cell_volume 2716.767519
_symmetry_space_group_name_H-M "P N N A"
_symmetry_group_IT_number 52
_symmetry_cell_setting 'orthorhombic'
loop_
_space_group_symop_operation_xyz
x,y,z
1/2-x,-y,z
x,1/2-y,1/2-z
1/2-x,1/2+y,1/2-z
-x,-y,-z
1/2+x,y,-z
-x,1/2+y,1/2+z
1/2+x,1/2-y,1/2+z
loop_
_atom_site_type_symbol
_atom_site_label
_atom_site_fract_x
_atom_site_fract_y
_atom_site_fract_z
Si Si1 0.467267 0.748567 0.562637
Si Si2 0.153681 0.409398 0.237860
Si Si3 0.932330 0.874431 0.590387
Si Si4 0.705777 0.867439 0.482161
Si Si5 0.070621 0.161778 0.064559
Si Si6 0.077601 0.967679 0.839894
Si Si7 0.359172 0.138254 0.150553
O O1 0.595883 0.809434 0.529032
O O2 0.312760 0.803093 0.560442
O O3 0.443237 0.665002 0.513598
O O4 0.529896 0.718033 0.631545
O O5 0.250000 0.500000 0.238475
O O6 0.122272 0.388477 0.163182
O O7 0.260656 0.348993 0.284027
O O8 0.994267 0.419951 0.276112
O O9 0.817729 0.909911 0.534969
O O10 0.942507 0.766640 0.582939
O O11 0.094080 0.915076 0.568395
O O12 0.233041 0.131564 0.093048
O O13 0.947579 0.100699 0.100327
O O14 0.250000 0.000000 0.833702
O O15 0.963368 0.050999 0.848304
#
# Coordination Sequence:
#
# PCOD9407944 Si02
#       7
#     8   8   8   8   8   8   8
#     4  10  16  32  51  81 120 141 188 226 287 324
#     4   9  21  41  59  79 111 157 189 233 303 347
#     4  10  18  37  63  82 114 141 188 237 300 353
#     4   8  18  31  55  88 110 145 173 246 291 337
#     4   9  19  33  53  81 107 155 185 230 283 335
#     4  10  22  35  52  76 117 154 198 240 272 327
#     4  10  19  34  54  76 113 153 191 227 270 353
#
# _framework density 20.612732999999999
#
# number of rings (size 3 to 8) (size 9 to 14) (size 15 to 20)
#    0.000    2.857    2.857    1.286    4.000    2.857 
#    0.000    8.571    0.000    0.000    0.000    0.000 
#    0.000    0.000    0.000    0.000    0.000    0.000 
#
# Total GULP energy -312027.459289 kJ/mol
# GULP energy per Si atom -5571.918916 kJ/mol
# Density = 2.056582 g / cm^3
# Si number density = 20.612733 Si / 1000 Ang^3
#
#
#
# Elastic Constant Matrix: (Units=GPa)
#
#
# Indices 1 2 3 4 5 6 
#
# 1 139.9777 22.5384 55.9521 0.0000 0.0000 0.0000
# 2 22.5384 27.1600 6.2362 0.0000 0.0000 0.0000
# 3 55.9521 6.2362 114.3515 0.0000 0.0000 0.0000
# 4 0.0000 0.0000 0.0000 21.2339 0.0000 0.0000
# 5 0.0000 0.0000 0.0000 0.0000 21.8530 0.0000
# 6 0.0000 0.0000 0.0000 0.0000 0.0000 6.7747
#
#
#
# Elastic Compliance Matrix: (Units=1/GPa)
#
#
# Indices 1 2 3 4 5 6 
#
# 1 0.010158 -0.007381 -0.004568 0.000000 0.000000 0.000000
# 2 -0.007381 0.042649 0.001286 0.000000 0.000000 0.000000
# 3 -0.004568 0.001286 0.010910 0.000000 0.000000 0.000000
# 4 0.000000 0.000000 0.000000 0.047094 0.000000 0.000000
# 5 0.000000 0.000000 0.000000 0.000000 0.045760 0.000000
# 6 0.000000 0.000000 0.000000 0.000000 0.000000 0.147608
#
#
# Mechanical properties :
#
#
# Convention : Reuss Voigt Hill
#
# Bulk Modulus (GPa) = 23.59025 50.10474 36.84749
# Shear Modulus (GPa) = 14.72163 23.08982 18.90573
#
# Velocity S-wave (km/s) = 2.67535 3.35053 3.03179
# Velocity P-wave (km/s) = 4.58396 6.27124 5.49278
#
# Compressibility (1/GPa) = 0.04239040
#
# Stress axis : x y z
#
# Youngs Moduli (GPa) = 98.44128 23.44743 91.65948
#
# Poissons Ratio (x) = 0.17306 0.41870
# Poissons Ratio (y) = 0.72659 -0.11784
# Poissons Ratio (z) = 0.44967 -0.03015
#
# Static dielectric constant tensor:
#      x y z
#    x 1.768690 0.000000 0.000000 
#    y 0.000000 1.803510 0.000000 
#    z 0.000000 0.000000 1.762650 
# 
# From -- ./inp_files/36146.got.cif
#   From: 2010.05.17/outbox.cif.g08.bks.cpg/sg52_19_cif.got.tgz:36146.got - 2010.06.03 12:15:38.
